MODEL 1
REMARK VINA RESULT: -7.360061564      0.000      0.000
REMARK  5 active torsions:
REMARK  status: ('A' for Active; 'I' for Inactive)
REMARK    1  A    between atoms: C2_2  and  C3_3 
REMARK    2  A    between atoms: C2_2  and  C9_9 
REMARK    3  A    between atoms: C10_12  and  O1_13 
REMARK    4  A    between atoms: C11_15  and  C12_16 
REMARK    5  A    between atoms: C12_16  and  C14_18 
ROOT
HETATM    1  C9  UNL     1       4.607   2.987  30.191  1.00  0.00     0.132 C 
HETATM    2  N1  UNL     1       4.042   2.072  29.191  1.00  0.00    -0.136 NA
HETATM    3  N2  UNL     1       3.372   1.108  29.975  1.00  0.00    -0.115 NA
HETATM    4  C10 UNL     1       2.617   1.890  30.950  1.00  0.00     0.233 C 
HETATM    5  C11 UNL     1       3.452   3.136  31.112  1.00  0.00     0.060 C 
ENDROOT
BRANCH   1   6
HETATM    6  C2  UNL     1       5.776   2.407  30.883  1.00  0.00    -0.064 C 
HETATM    7  C1  UNL     1       5.798   2.279  32.182  1.00  0.00     0.016 C 
BRANCH   6   8
HETATM    8  C3  UNL     1       6.963   1.894  30.122  1.00  0.00     0.015 C 
HETATM    9  C4  UNL     1       7.978   1.187  30.936  1.00  0.00     0.009 C 
HETATM   10  C5  UNL     1       8.943   0.518  29.942  1.00  0.00     0.001 C 
HETATM   11  C6  UNL     1       9.611   1.569  29.124  1.00  0.00     0.000 C 
HETATM   12  C7  UNL     1       8.625   2.394  28.327  1.00  0.00     0.001 C 
HETATM   13  C8  UNL     1       7.496   2.912  29.192  1.00  0.00     0.009 C 
ENDBRANCH   6   8
ENDBRANCH   1   6
BRANCH   5  14
HETATM   14  C12 UNL     1       2.538   4.292  30.696  1.00  0.00    -0.009 C 
HETATM   15  C13 UNL     1       2.195   5.032  31.983  1.00  0.00     0.010 C 
BRANCH  14  16
HETATM   16  C14 UNL     1       3.181   5.250  29.755  1.00  0.00     0.000 C 
HETATM   17  C15 UNL     1       2.047   5.899  28.953  1.00  0.00     0.005 C 
ENDBRANCH  14  16
ENDBRANCH   5  14
BRANCH   4  18
HETATM   18  O1  UNL     1       1.360   2.157  30.367  1.00  0.00    -0.378 OA
ATOM     19  H1  UNL     1       0.885   2.702  30.983  1.00  0.00     0.211 HD
ENDBRANCH   4  18
TORSDOF 5
ENDMDL
MODEL 2
REMARK VINA RESULT: -6.928424519      1.590      2.079
REMARK  5 active torsions:
REMARK  status: ('A' for Active; 'I' for Inactive)
REMARK    1  A    between atoms: C2_2  and  C3_3 
REMARK    2  A    between atoms: C2_2  and  C9_9 
REMARK    3  A    between atoms: C10_12  and  O1_13 
REMARK    4  A    between atoms: C11_15  and  C12_16 
REMARK    5  A    between atoms: C12_16  and  C14_18 
ROOT
HETATM    1  C9  UNL     1       6.352   2.883  30.399  1.00  0.00     0.132 C 
HETATM    2  N1  UNL     1       5.267   2.459  29.505  1.00  0.00    -0.136 NA
HETATM    3  N2  UNL     1       4.554   1.520  30.281  1.00  0.00    -0.115 NA
HETATM    4  C10 UNL     1       4.395   2.165  31.581  1.00  0.00     0.233 C 
HETATM    5  C11 UNL     1       5.607   3.060  31.671  1.00  0.00     0.060 C 
ENDROOT
BRANCH   1   6
HETATM    6  C2  UNL     1       7.403   1.853  30.530  1.00  0.00    -0.064 C 
HETATM    7  C1  UNL     1       7.600   1.226  31.658  1.00  0.00     0.016 C 
BRANCH   6   8
HETATM    8  C3  UNL     1       8.255   1.449  29.363  1.00  0.00     0.015 C 
HETATM    9  C4  UNL     1       9.424   0.605  29.695  1.00  0.00     0.009 C 
HETATM   10  C5  UNL     1       9.981   0.087  28.358  1.00  0.00     0.001 C 
HETATM   11  C6  UNL     1      10.427   1.244  27.533  1.00  0.00     0.000 C 
HETATM   12  C7  UNL     1       9.299   2.202  27.222  1.00  0.00     0.001 C 
HETATM   13  C8  UNL     1       8.535   2.594  28.470  1.00  0.00     0.009 C 
ENDBRANCH   6   8
ENDBRANCH   1   6
BRANCH   5  14
HETATM   14  C12 UNL     1       5.051   4.480  31.813  1.00  0.00    -0.009 C 
HETATM   15  C13 UNL     1       5.575   4.997  33.147  1.00  0.00     0.010 C 
BRANCH  14  16
HETATM   16  C14 UNL     1       5.501   5.404  30.736  1.00  0.00     0.000 C 
HETATM   17  C15 UNL     1       4.231   5.985  30.105  1.00  0.00     0.005 C 
ENDBRANCH  14  16
ENDBRANCH   5  14
BRANCH   4  18
HETATM   18  O1  UNL     1       3.190   2.896  31.524  1.00  0.00    -0.378 OA
ATOM     19  H1  UNL     1       3.149   3.416  32.319  1.00  0.00     0.211 HD
ENDBRANCH   4  18
TORSDOF 5
ENDMDL
MODEL 3
REMARK VINA RESULT: -6.777608568      2.254      6.009
REMARK  5 active torsions:
REMARK  status: ('A' for Active; 'I' for Inactive)
REMARK    1  A    between atoms: C2_2  and  C3_3 
REMARK    2  A    between atoms: C2_2  and  C9_9 
REMARK    3  A    between atoms: C10_12  and  O1_13 
REMARK    4  A    between atoms: C11_15  and  C12_16 
REMARK    5  A    between atoms: C12_16  and  C14_18 
ROOT
HETATM    1  C9  UNL     1       4.758   3.508  31.559  1.00  0.00     0.132 C 
HETATM    2  N1  UNL     1       3.426   3.151  31.055  1.00  0.00    -0.136 NA
HETATM    3  N2  UNL     1       3.460   3.582  29.711  1.00  0.00    -0.115 NA
HETATM    4  C10 UNL     1       4.735   3.086  29.200  1.00  0.00     0.233 C 
HETATM    5  C11 UNL     1       5.609   3.057  30.429  1.00  0.00     0.060 C 
ENDROOT
BRANCH   1   6
HETATM    6  C2  UNL     1       4.897   4.959  31.792  1.00  0.00    -0.064 C 
HETATM    7  C1  UNL     1       5.913   5.627  31.316  1.00  0.00     0.016 C 
BRANCH   6   8
HETATM    8  C3  UNL     1       3.854   5.738  32.539  1.00  0.00     0.015 C 
HETATM    9  C4  UNL     1       3.088   6.709  31.728  1.00  0.00     0.009 C 
HETATM   10  C5  UNL     1       1.916   7.180  32.606  1.00  0.00     0.001 C 
HETATM   11  C6  UNL     1       2.453   7.864  33.815  1.00  0.00     0.000 C 
HETATM   12  C7  UNL     1       3.322   6.954  34.655  1.00  0.00     0.001 C 
HETATM   13  C8  UNL     1       4.378   6.258  33.820  1.00  0.00     0.009 C 
ENDBRANCH   6   8
ENDBRANCH   1   6
BRANCH   5  14
HETATM   14  C12 UNL     1       6.036   1.594  30.586  1.00  0.00    -0.009 C 
HETATM   15  C13 UNL     1       7.513   1.552  30.213  1.00  0.00     0.010 C 
BRANCH  14  16
HETATM   16  C14 UNL     1       5.882   1.075  31.974  1.00  0.00     0.000 C 
HETATM   17  C15 UNL     1       7.291   0.731  32.467  1.00  0.00     0.005 C 
ENDBRANCH  14  16
ENDBRANCH   5  14
BRANCH   4  18
HETATM   18  O1  UNL     1       4.488   1.797  28.684  1.00  0.00    -0.378 OA
ATOM     19  H1  UNL     1       3.703   1.862  28.153  1.00  0.00     0.211 HD
ENDBRANCH   4  18
TORSDOF 5
ENDMDL
MODEL 4
REMARK VINA RESULT: -6.769944053      0.348      1.225
REMARK  5 active torsions:
REMARK  status: ('A' for Active; 'I' for Inactive)
REMARK    1  A    between atoms: C2_2  and  C3_3 
REMARK    2  A    between atoms: C2_2  and  C9_9 
REMARK    3  A    between atoms: C10_12  and  O1_13 
REMARK    4  A    between atoms: C11_15  and  C12_16 
REMARK    5  A    between atoms: C12_16  and  C14_18 
ROOT
HETATM    1  C9  UNL     1       4.523   2.899  30.270  1.00  0.00     0.132 C 
HETATM    2  N1  UNL     1       3.949   2.020  29.244  1.00  0.00    -0.136 NA
HETATM    3  N2  UNL     1       3.219   1.075  29.998  1.00  0.00    -0.115 NA
HETATM    4  C10 UNL     1       2.470   1.877  30.961  1.00  0.00     0.233 C 
HETATM    5  C11 UNL     1       3.350   3.085  31.161  1.00  0.00     0.060 C 
ENDROOT
BRANCH   1   6
HETATM    6  C2  UNL     1       5.648   2.264  30.986  1.00  0.00    -0.064 C 
HETATM    7  C1  UNL     1       5.465   1.647  32.122  1.00  0.00     0.016 C 
BRANCH   6   8
HETATM    8  C3  UNL     1       7.036   2.255  30.417  1.00  0.00     0.015 C 
HETATM    9  C4  UNL     1       7.138   2.645  28.993  1.00  0.00     0.009 C 
HETATM   10  C5  UNL     1       8.636   2.835  28.701  1.00  0.00     0.001 C 
HETATM   11  C6  UNL     1       9.344   1.542  28.909  1.00  0.00     0.000 C 
HETATM   12  C7  UNL     1       9.212   1.032  30.327  1.00  0.00     0.001 C 
HETATM   13  C8  UNL     1       7.770   1.027  30.790  1.00  0.00     0.009 C 
ENDBRANCH   6   8
ENDBRANCH   1   6
BRANCH   5  14
HETATM   14  C12 UNL     1       2.496   4.283  30.735  1.00  0.00    -0.009 C 
HETATM   15  C13 UNL     1       2.161   5.030  32.020  1.00  0.00     0.010 C 
BRANCH  14  16
HETATM   16  C14 UNL     1       3.198   5.216  29.812  1.00  0.00     0.000 C 
HETATM   17  C15 UNL     1       2.111   5.900  28.975  1.00  0.00     0.005 C 
ENDBRANCH  14  16
ENDBRANCH   5  14
BRANCH   4  18
HETATM   18  O1  UNL     1       1.241   2.201  30.348  1.00  0.00    -0.378 OA
ATOM     19  H1  UNL     1       1.157   3.146  30.391  1.00  0.00     0.211 HD
ENDBRANCH   4  18
TORSDOF 5
ENDMDL
MODEL 5
REMARK VINA RESULT: -6.488935078      2.081      6.005
REMARK  5 active torsions:
REMARK  status: ('A' for Active; 'I' for Inactive)
REMARK    1  A    between atoms: C2_2  and  C3_3 
REMARK    2  A    between atoms: C2_2  and  C9_9 
REMARK    3  A    between atoms: C10_12  and  O1_13 
REMARK    4  A    between atoms: C11_15  and  C12_16 
REMARK    5  A    between atoms: C12_16  and  C14_18 
ROOT
HETATM    1  C9  UNL     1       4.515   3.586  31.523  1.00  0.00     0.132 C 
HETATM    2  N1  UNL     1       3.237   3.197  30.914  1.00  0.00    -0.136 NA
HETATM    3  N2  UNL     1       3.409   3.534  29.553  1.00  0.00    -0.115 NA
HETATM    4  C10 UNL     1       4.724   3.001  29.209  1.00  0.00     0.233 C 
HETATM    5  C11 UNL     1       5.471   3.055  30.519  1.00  0.00     0.060 C 
ENDROOT
BRANCH   1   6
HETATM    6  C2  UNL     1       4.643   5.050  31.668  1.00  0.00    -0.064 C 
HETATM    7  C1  UNL     1       5.813   5.622  31.745  1.00  0.00     0.016 C 
BRANCH   6   8
HETATM    8  C3  UNL     1       3.439   5.945  31.682  1.00  0.00     0.015 C 
HETATM    9  C4  UNL     1       3.547   7.163  30.847  1.00  0.00     0.009 C 
HETATM   10  C5  UNL     1       2.137   7.774  30.786  1.00  0.00     0.001 C 
HETATM   11  C6  UNL     1       1.709   8.156  32.161  1.00  0.00     0.000 C 
HETATM   12  C7  UNL     1       1.658   6.971  33.100  1.00  0.00     0.001 C 
HETATM   13  C8  UNL     1       2.938   6.163  33.055  1.00  0.00     0.009 C 
ENDBRANCH   6   8
ENDBRANCH   1   6
BRANCH   5  14
HETATM   14  C12 UNL     1       5.866   1.606  30.819  1.00  0.00    -0.009 C 
HETATM   15  C13 UNL     1       7.375   1.539  30.616  1.00  0.00     0.010 C 
BRANCH  14  16
HETATM   16  C14 UNL     1       5.555   1.181  32.211  1.00  0.00     0.000 C 
HETATM   17  C15 UNL     1       6.896   1.097  32.949  1.00  0.00     0.005 C 
ENDBRANCH  14  16
ENDBRANCH   5  14
BRANCH   4  18
HETATM   18  O1  UNL     1       4.519   1.679  28.761  1.00  0.00    -0.378 OA
ATOM     19  H1  UNL     1       5.280   1.179  29.031  1.00  0.00     0.211 HD
ENDBRANCH   4  18
TORSDOF 5
ENDMDL
