MODEL 1
REMARK VINA RESULT: -6.762058281      0.000      0.000
REMARK  4 active torsions:
REMARK  status: ('A' for Active; 'I' for Inactive)
REMARK    1  A    between atoms: C2_2  and  C3_3 
REMARK    2  A    between atoms: C3_3  and  C4_4 
REMARK    3  A    between atoms: C4_4  and  N1_6 
REMARK    4  A    between atoms: N2_15  and  N3_17 
REMARK       I    between atoms: N3_17  and  C13_19 
ROOT
HETATM    1  C3  UNL     1       0.776   4.537  31.986  1.00  0.00     0.078 C 
ENDROOT
BRANCH   1   2
HETATM    2  C2  UNL     1       1.481   5.813  32.189  1.00  0.00     0.002 C 
HETATM    3  C1  UNL     1       2.466   6.328  31.216  1.00  0.00     0.065 C 
HETATM    4  N2  UNL     1       1.256   6.534  33.238  1.00  0.00    -0.307 N 
ATOM      5  H2  UNL     1       0.579   6.195  33.922  1.00  0.00     0.186 HD
BRANCH   4   6
HETATM    6  N3  UNL     1       1.886   7.740  33.482  1.00  0.00    -0.274 N 
HETATM    7  C13 UNL     1       3.157   7.811  34.092  1.00  0.00     0.200 C 
HETATM    8  N4  UNL     1       4.052   8.646  33.686  1.00  0.00    -0.372 N 
HETATM    9  N5  UNL     1       3.474   6.956  35.173  1.00  0.00    -0.062 NA
ATOM     10  H42 UNL     1       3.823   9.263  32.907  1.00  0.00     0.158 HD
ATOM     11  H41 UNL     1       4.971   8.697  34.126  1.00  0.00     0.158 HD
ATOM     12  H3  UNL     1       1.418   8.606  33.214  1.00  0.00     0.189 HD
ENDBRANCH   4   6
ENDBRANCH   1   2
BRANCH   1  13
HETATM   13  C4  UNL     1       1.164   3.917  30.651  1.00  0.00     0.082 C 
HETATM   14  C5  UNL     1       0.013   3.995  29.675  1.00  0.00     0.032 C 
BRANCH  13  15
HETATM   15  N1  UNL     1       1.554   2.560  30.909  1.00  0.00    -0.392 N 
HETATM   16  C6  UNL     1       2.726   2.146  30.643  1.00  0.00    -0.018 C 
HETATM   17  C7  UNL     1       3.663   3.125  30.059  1.00  0.00     0.052 C 
HETATM   18  C12 UNL     1       2.979   0.727  30.964  1.00  0.00     0.052 C 
HETATM   19  C8  UNL     1       4.811   2.418  29.439  1.00  0.00     0.006 C 
HETATM   20  C9  UNL     1       5.620   1.573  30.343  1.00  0.00     0.000 C 
HETATM   21  C10 UNL     1       5.202   1.565  31.770  1.00  0.00     0.000 C 
HETATM   22  C11 UNL     1       4.017   0.685  32.062  1.00  0.00     0.006 C 
ATOM     23  H1  UNL     1       0.877   1.914  31.314  1.00  0.00     0.159 HD
ENDBRANCH  13  15
ENDBRANCH   1  13
TORSDOF 4
ENDMDL
MODEL 2
REMARK VINA RESULT: -6.490890598      3.021      5.412
REMARK  4 active torsions:
REMARK  status: ('A' for Active; 'I' for Inactive)
REMARK    1  A    between atoms: C2_2  and  C3_3 
REMARK    2  A    between atoms: C3_3  and  C4_4 
REMARK    3  A    between atoms: C4_4  and  N1_6 
REMARK    4  A    between atoms: N2_15  and  N3_17 
REMARK       I    between atoms: N3_17  and  C13_19 
ROOT
HETATM    1  C3  UNL     1       4.562   1.905  29.530  1.00  0.00     0.078 C 
ENDROOT
BRANCH   1   2
HETATM    2  C2  UNL     1       3.365   1.992  30.382  1.00  0.00     0.002 C 
HETATM    3  C1  UNL     1       2.919   0.864  31.225  1.00  0.00     0.065 C 
HETATM    4  N2  UNL     1       2.659   3.074  30.422  1.00  0.00    -0.307 N 
ATOM      5  H2  UNL     1       2.952   3.864  29.848  1.00  0.00     0.186 HD
BRANCH   4   6
HETATM    6  N3  UNL     1       1.526   3.215  31.203  1.00  0.00    -0.274 N 
HETATM    7  C13 UNL     1       1.168   4.450  31.785  1.00  0.00     0.200 C 
HETATM    8  N4  UNL     1      -0.059   4.846  31.820  1.00  0.00    -0.372 N 
HETATM    9  N5  UNL     1       2.161   5.284  32.347  1.00  0.00    -0.062 NA
ATOM     10  H42 UNL     1      -0.776   4.244  31.414  1.00  0.00     0.158 HD
ATOM     11  H41 UNL     1      -0.318   5.739  32.240  1.00  0.00     0.158 HD
ATOM     12  H3  UNL     1       0.931   2.401  31.364  1.00  0.00     0.189 HD
ENDBRANCH   4   6
ENDBRANCH   1   2
BRANCH   1  13
HETATM   13  C4  UNL     1       5.826   2.060  30.364  1.00  0.00     0.082 C 
HETATM   14  C5  UNL     1       5.538   2.838  31.626  1.00  0.00     0.032 C 
BRANCH  13  15
HETATM   15  N1  UNL     1       6.800   2.719  29.541  1.00  0.00    -0.392 N 
HETATM   16  C6  UNL     1       7.956   2.224  29.359  1.00  0.00    -0.018 C 
HETATM   17  C7  UNL     1       8.248   0.942  30.031  1.00  0.00     0.052 C 
HETATM   18  C12 UNL     1       8.849   3.015  28.489  1.00  0.00     0.052 C 
HETATM   19  C8  UNL     1       9.713   0.711  30.065  1.00  0.00     0.006 C 
HETATM   20  C9  UNL     1      10.392   0.643  28.753  1.00  0.00     0.000 C 
HETATM   21  C10 UNL     1       9.514   0.782  27.561  1.00  0.00     0.000 C 
HETATM   22  C11 UNL     1       9.118   2.198  27.246  1.00  0.00     0.006 C 
ATOM     23  H1  UNL     1       6.560   3.603  29.094  1.00  0.00     0.159 HD
ENDBRANCH  13  15
ENDBRANCH   1  13
TORSDOF 4
ENDMDL
MODEL 3
REMARK VINA RESULT: -6.469757986      1.641      1.924
REMARK  4 active torsions:
REMARK  status: ('A' for Active; 'I' for Inactive)
REMARK    1  A    between atoms: C2_2  and  C3_3 
REMARK    2  A    between atoms: C3_3  and  C4_4 
REMARK    3  A    between atoms: C4_4  and  N1_6 
REMARK    4  A    between atoms: N2_15  and  N3_17 
REMARK       I    between atoms: N3_17  and  C13_19 
ROOT
HETATM    1  C3  UNL     1       1.201   4.677  32.134  1.00  0.00     0.078 C 
ENDROOT
BRANCH   1   2
HETATM    2  C2  UNL     1       1.783   6.029  32.104  1.00  0.00     0.002 C 
HETATM    3  C1  UNL     1       1.850   6.881  33.309  1.00  0.00     0.065 C 
HETATM    4  N2  UNL     1       2.263   6.519  31.009  1.00  0.00    -0.307 N 
ATOM      5  H2  UNL     1       2.227   5.945  30.166  1.00  0.00     0.186 HD
BRANCH   4   6
HETATM    6  N3  UNL     1       2.823   7.780  30.920  1.00  0.00    -0.274 N 
HETATM    7  C13 UNL     1       4.196   7.973  30.656  1.00  0.00     0.200 C 
HETATM    8  N4  UNL     1       4.604   8.903  29.862  1.00  0.00    -0.372 N 
HETATM    9  N5  UNL     1       5.160   7.139  31.269  1.00  0.00    -0.062 NA
ATOM     10  H42 UNL     1       3.909   9.505  29.420  1.00  0.00     0.158 HD
ATOM     11  H41 UNL     1       5.597   9.042  29.671  1.00  0.00     0.158 HD
ATOM     12  H3  UNL     1       2.225   8.597  31.048  1.00  0.00     0.189 HD
ENDBRANCH   4   6
ENDBRANCH   1   2
BRANCH   1  13
HETATM   13  C4  UNL     1       1.466   3.951  30.823  1.00  0.00     0.082 C 
HETATM   14  C5  UNL     1       0.217   3.913  29.974  1.00  0.00     0.032 C 
BRANCH  13  15
HETATM   15  N1  UNL     1       1.928   2.632  31.152  1.00  0.00    -0.392 N 
HETATM   16  C6  UNL     1       3.070   2.219  30.780  1.00  0.00    -0.018 C 
HETATM   17  C7  UNL     1       3.898   3.156  29.996  1.00  0.00     0.052 C 
HETATM   18  C12 UNL     1       3.405   0.842  31.194  1.00  0.00     0.052 C 
HETATM   19  C8  UNL     1       4.982   2.417  29.304  1.00  0.00     0.006 C 
HETATM   20  C9  UNL     1       5.922   1.677  30.172  1.00  0.00     0.000 C 
HETATM   21  C10 UNL     1       5.683   1.795  31.636  1.00  0.00     0.000 C 
HETATM   22  C11 UNL     1       4.572   0.923  32.153  1.00  0.00     0.006 C 
ATOM     23  H1  UNL     1       1.326   2.014  31.696  1.00  0.00     0.159 HD
ENDBRANCH  13  15
ENDBRANCH   1  13
TORSDOF 4
ENDMDL
MODEL 4
REMARK VINA RESULT: -6.464205015      2.405      5.378
REMARK  4 active torsions:
REMARK  status: ('A' for Active; 'I' for Inactive)
REMARK    1  A    between atoms: C2_2  and  C3_3 
REMARK    2  A    between atoms: C3_3  and  C4_4 
REMARK    3  A    between atoms: C4_4  and  N1_6 
REMARK    4  A    between atoms: N2_15  and  N3_17 
REMARK       I    between atoms: N3_17  and  C13_19 
ROOT
HETATM    1  C3  UNL     1       4.563   1.499  31.716  1.00  0.00     0.078 C 
ENDROOT
BRANCH   1   2
HETATM    2  C2  UNL     1       3.210   1.546  31.139  1.00  0.00     0.002 C 
HETATM    3  C1  UNL     1       2.673   0.450  30.307  1.00  0.00     0.065 C 
HETATM    4  N2  UNL     1       2.436   2.561  31.348  1.00  0.00    -0.307 N 
ATOM      5  H2  UNL     1       2.789   3.328  31.921  1.00  0.00     0.186 HD
BRANCH   4   6
HETATM    6  N3  UNL     1       1.156   2.661  30.834  1.00  0.00    -0.274 N 
HETATM    7  C13 UNL     1       0.548   3.908  30.578  1.00  0.00     0.200 C 
HETATM    8  N4  UNL     1      -0.163   4.105  29.520  1.00  0.00    -0.372 N 
HETATM    9  N5  UNL     1       0.709   4.977  31.491  1.00  0.00    -0.062 NA
ATOM     10  H42 UNL     1      -0.279   3.335  28.862  1.00  0.00     0.158 HD
ATOM     11  H41 UNL     1      -0.602   5.007  29.335  1.00  0.00     0.158 HD
ATOM     12  H3  UNL     1       0.635   1.806  30.634  1.00  0.00     0.189 HD
ENDBRANCH   4   6
ENDBRANCH   1   2
BRANCH   1  13
HETATM   13  C4  UNL     1       5.452   2.560  31.083  1.00  0.00     0.082 C 
HETATM   14  C5  UNL     1       6.628   1.920  30.382  1.00  0.00     0.032 C 
BRANCH  13  15
HETATM   15  N1  UNL     1       5.873   3.445  32.132  1.00  0.00    -0.392 N 
HETATM   16  C6  UNL     1       5.585   4.682  32.109  1.00  0.00    -0.018 C 
HETATM   17  C7  UNL     1       4.800   5.165  30.956  1.00  0.00     0.052 C 
HETATM   18  C12 UNL     1       6.086   5.465  33.257  1.00  0.00     0.052 C 
HETATM   19  C8  UNL     1       4.899   6.642  30.859  1.00  0.00     0.006 C 
HETATM   20  C9  UNL     1       4.411   7.405  32.028  1.00  0.00     0.000 C 
HETATM   21  C10 UNL     1       3.850   6.595  33.142  1.00  0.00     0.000 C 
HETATM   22  C11 UNL     1       4.886   5.962  34.030  1.00  0.00     0.006 C 
ATOM     23  H1  UNL     1       6.414   3.072  32.912  1.00  0.00     0.159 HD
ENDBRANCH  13  15
ENDBRANCH   1  13
TORSDOF 4
ENDMDL
MODEL 5
REMARK VINA RESULT: -6.462789655      2.996      5.439
REMARK  4 active torsions:
REMARK  status: ('A' for Active; 'I' for Inactive)
REMARK    1  A    between atoms: C2_2  and  C3_3 
REMARK    2  A    between atoms: C3_3  and  C4_4 
REMARK    3  A    between atoms: C4_4  and  N1_6 
REMARK    4  A    between atoms: N2_15  and  N3_17 
REMARK       I    between atoms: N3_17  and  C13_19 
ROOT
HETATM    1  C3  UNL     1       4.307   1.968  29.688  1.00  0.00     0.078 C 
ENDROOT
BRANCH   1   2
HETATM    2  C2  UNL     1       3.554   3.190  30.015  1.00  0.00     0.002 C 
HETATM    3  C1  UNL     1       4.070   4.537  29.701  1.00  0.00     0.065 C 
HETATM    4  N2  UNL     1       2.399   3.121  30.592  1.00  0.00    -0.307 N 
ATOM      5  H2  UNL     1       2.024   2.198  30.816  1.00  0.00     0.186 HD
BRANCH   4   6
HETATM    6  N3  UNL     1       1.645   4.232  30.923  1.00  0.00    -0.274 N 
HETATM    7  C13 UNL     1       0.322   4.402  30.463  1.00  0.00     0.200 C 
HETATM    8  N4  UNL     1      -0.601   4.873  31.230  1.00  0.00    -0.372 N 
HETATM    9  N5  UNL     1      -0.018   4.056  29.134  1.00  0.00    -0.062 NA
ATOM     10  H42 UNL     1      -0.357   5.123  32.188  1.00  0.00     0.158 HD
ATOM     11  H41 UNL     1      -1.558   4.996  30.898  1.00  0.00     0.158 HD
ATOM     12  H3  UNL     1       2.058   4.951  31.518  1.00  0.00     0.189 HD
ENDBRANCH   4   6
ENDBRANCH   1   2
BRANCH   1  13
HETATM   13  C4  UNL     1       5.606   1.913  30.478  1.00  0.00     0.082 C 
HETATM   14  C5  UNL     1       5.411   2.480  31.864  1.00  0.00     0.032 C 
BRANCH  13  15
HETATM   15  N1  UNL     1       6.589   2.649  29.733  1.00  0.00    -0.392 N 
HETATM   16  C6  UNL     1       7.765   2.198  29.564  1.00  0.00    -0.018 C 
HETATM   17  C7  UNL     1       8.071   0.886  30.167  1.00  0.00     0.052 C 
HETATM   18  C12 UNL     1       8.663   3.067  28.777  1.00  0.00     0.052 C 
HETATM   19  C8  UNL     1       9.541   0.694  30.241  1.00  0.00     0.006 C 
HETATM   20  C9  UNL     1      10.267   0.727  28.953  1.00  0.00     0.000 C 
HETATM   21  C10 UNL     1       9.428   0.914  27.740  1.00  0.00     0.000 C 
HETATM   22  C11 UNL     1       9.000   2.336  27.497  1.00  0.00     0.006 C 
ATOM     23  H1  UNL     1       6.338   3.552  29.332  1.00  0.00     0.159 HD
ENDBRANCH  13  15
ENDBRANCH   1  13
TORSDOF 4
ENDMDL
