MODEL 1
REMARK VINA RESULT: -6.614038165      0.000      0.000
REMARK  7 active torsions:
REMARK  status: ('A' for Active; 'I' for Inactive)
REMARK    1  A    between atoms: C5_5  and  O1_6 
REMARK    2  A    between atoms: C9_11  and  C10_12 
REMARK    3  A    between atoms: C10_12  and  S1_13 
REMARK    4  A    between atoms: S1_13  and  C11_14 
REMARK    5  A    between atoms: C11_14  and  C12_15 
REMARK    6  A    between atoms: C12_15  and  O2_16 
REMARK    7  A    between atoms: N1_18  and  O3_20 
ROOT
HETATM    1  C1  UNL     1       5.277   1.504  29.192  1.00  0.00     0.016 C 
HETATM    2  C2  UNL     1       6.338   2.259  29.954  1.00  0.00    -0.034 C 
HETATM    3  C3  UNL     1       7.234   3.066  29.055  1.00  0.00     0.012 C 
HETATM    4  C4  UNL     1       8.652   2.668  29.395  1.00  0.00     0.033 C 
HETATM    5  C5  UNL     1       8.534   1.281  29.947  1.00  0.00     0.123 C 
HETATM    6  C6  UNL     1       7.212   1.257  30.664  1.00  0.00     0.023 C 
HETATM    7  C7  UNL     1       7.330   1.769  32.060  1.00  0.00     0.008 C 
HETATM    8  C8  UNL     1       5.992   2.482  32.331  1.00  0.00     0.007 C 
HETATM    9  C9  UNL     1       5.734   3.147  31.024  1.00  0.00     0.003 C 
ENDROOT
BRANCH   9  10
HETATM   10  C10 UNL     1       4.340   3.549  30.726  1.00  0.00     0.079 C 
BRANCH  10  11
HETATM   11  S1  UNL     1       3.662   4.883  31.684  1.00  0.00    -0.161 SA
BRANCH  11  12
HETATM   12  C11 UNL     1       4.861   6.172  32.043  1.00  0.00     0.159 C 
BRANCH  12  13
HETATM   13  C12 UNL     1       5.246   6.094  33.466  1.00  0.00     0.144 C 
HETATM   14  N1  UNL     1       4.403   6.395  34.375  1.00  0.00    -0.250 N 
ATOM     15  H1  UNL     1       3.462   6.690  34.111  1.00  0.00     0.196 HD
BRANCH  13  16
HETATM   16  O2  UNL     1       6.525   5.691  33.783  1.00  0.00    -0.348 OA
ATOM     17  H2  UNL     1       6.981   6.134  34.489  1.00  0.00     0.219 HD
ENDBRANCH  13  16
BRANCH  14  18
HETATM   18  O3  UNL     1       4.750   6.326  35.719  1.00  0.00    -0.288 OA
ATOM     19  H3  UNL     1       4.569   7.050  36.306  1.00  0.00     0.244 HD
ENDBRANCH  14  18
ENDBRANCH  12  13
ENDBRANCH  11  12
ENDBRANCH  10  11
ENDBRANCH   9  10
BRANCH   5  20
HETATM   20  O1  UNL     1       8.572   0.357  28.923  1.00  0.00    -0.395 OA
ATOM     21  H1  UNL     1       8.319  -0.500  29.246  1.00  0.00     0.210 HD
ENDBRANCH   5  20
TORSDOF 7
ENDMDL
MODEL 2
REMARK VINA RESULT: -6.581332721      4.458      7.042
REMARK  7 active torsions:
REMARK  status: ('A' for Active; 'I' for Inactive)
REMARK    1  A    between atoms: C5_5  and  O1_6 
REMARK    2  A    between atoms: C9_11  and  C10_12 
REMARK    3  A    between atoms: C10_12  and  S1_13 
REMARK    4  A    between atoms: S1_13  and  C11_14 
REMARK    5  A    between atoms: C11_14  and  C12_15 
REMARK    6  A    between atoms: C12_15  and  O2_16 
REMARK    7  A    between atoms: N1_18  and  O3_20 
ROOT
HETATM    1  C1  UNL     1       6.856   3.916  29.584  1.00  0.00     0.016 C 
HETATM    2  C2  UNL     1       6.544   2.464  29.860  1.00  0.00    -0.034 C 
HETATM    3  C3  UNL     1       5.340   1.977  29.102  1.00  0.00     0.012 C 
HETATM    4  C4  UNL     1       4.412   1.361  30.125  1.00  0.00     0.033 C 
HETATM    5  C5  UNL     1       4.754   2.050  31.410  1.00  0.00     0.123 C 
HETATM    6  C6  UNL     1       6.232   2.319  31.326  1.00  0.00     0.023 C 
HETATM    7  C7  UNL     1       7.036   1.146  31.778  1.00  0.00     0.008 C 
HETATM    8  C8  UNL     1       8.298   1.173  30.896  1.00  0.00     0.007 C 
HETATM    9  C9  UNL     1       7.736   1.573  29.576  1.00  0.00     0.003 C 
ENDROOT
BRANCH   9  10
HETATM   10  C10 UNL     1       8.672   2.151  28.584  1.00  0.00     0.079 C 
BRANCH  10  11
HETATM   11  S1  UNL     1       9.789   1.029  27.777  1.00  0.00    -0.161 SA
BRANCH  11  12
HETATM   12  C11 UNL     1      10.449   1.677  26.237  1.00  0.00     0.159 C 
BRANCH  12  13
HETATM   13  C12 UNL     1       9.438   1.523  25.172  1.00  0.00     0.144 C 
HETATM   14  N1  UNL     1       9.422   0.469  24.454  1.00  0.00    -0.250 N 
ATOM     15  H1  UNL     1      10.111  -0.264  24.620  1.00  0.00     0.196 HD
BRANCH  13  16
HETATM   16  O2  UNL     1       8.523   2.535  24.979  1.00  0.00    -0.348 OA
ATOM     17  H2  UNL     1       7.611   2.306  24.848  1.00  0.00     0.219 HD
ENDBRANCH  13  16
BRANCH  14  18
HETATM   18  O3  UNL     1       8.476   0.308  23.448  1.00  0.00    -0.288 OA
ATOM     19  H3  UNL     1       7.548   0.279  23.652  1.00  0.00     0.244 HD
ENDBRANCH  14  18
ENDBRANCH  12  13
ENDBRANCH  11  12
ENDBRANCH  10  11
ENDBRANCH   9  10
BRANCH   5  20
HETATM   20  O1  UNL     1       4.033   3.218  31.530  1.00  0.00    -0.395 OA
ATOM     21  H1  UNL     1       4.422   3.777  32.193  1.00  0.00     0.210 HD
ENDBRANCH   5  20
TORSDOF 7
ENDMDL
MODEL 3
REMARK VINA RESULT: -6.380285091      2.904      3.028
REMARK  7 active torsions:
REMARK  status: ('A' for Active; 'I' for Inactive)
REMARK    1  A    between atoms: C5_5  and  O1_6 
REMARK    2  A    between atoms: C9_11  and  C10_12 
REMARK    3  A    between atoms: C10_12  and  S1_13 
REMARK    4  A    between atoms: S1_13  and  C11_14 
REMARK    5  A    between atoms: C11_14  and  C12_15 
REMARK    6  A    between atoms: C12_15  and  O2_16 
REMARK    7  A    between atoms: N1_18  and  O3_20 
ROOT
HETATM    1  C1  UNL     1       5.150   1.469  29.391  1.00  0.00     0.016 C 
HETATM    2  C2  UNL     1       6.202   2.232  30.159  1.00  0.00    -0.034 C 
HETATM    3  C3  UNL     1       6.947   3.216  29.298  1.00  0.00     0.012 C 
HETATM    4  C4  UNL     1       8.418   2.919  29.485  1.00  0.00     0.033 C 
HETATM    5  C5  UNL     1       8.466   1.474  29.875  1.00  0.00     0.123 C 
HETATM    6  C6  UNL     1       7.215   1.245  30.679  1.00  0.00     0.023 C 
HETATM    7  C7  UNL     1       7.404   1.607  32.114  1.00  0.00     0.008 C 
HETATM    8  C8  UNL     1       6.037   2.155  32.564  1.00  0.00     0.007 C 
HETATM    9  C9  UNL     1       5.615   2.934  31.366  1.00  0.00     0.003 C 
ENDROOT
BRANCH   9  10
HETATM   10  C10 UNL     1       4.171   3.232  31.221  1.00  0.00     0.079 C 
BRANCH  10  11
HETATM   11  S1  UNL     1       3.707   4.943  31.109  1.00  0.00    -0.161 SA
BRANCH  11  12
HETATM   12  C11 UNL     1       2.407   5.398  32.263  1.00  0.00     0.159 C 
BRANCH  12  13
HETATM   13  C12 UNL     1       1.149   4.738  31.862  1.00  0.00     0.144 C 
HETATM   14  N1  UNL     1       0.322   5.346  31.105  1.00  0.00    -0.250 N 
ATOM     15  H1  UNL     1       0.536   6.289  30.779  1.00  0.00     0.196 HD
BRANCH  13  16
HETATM   16  O2  UNL     1       0.895   3.464  32.322  1.00  0.00    -0.348 OA
ATOM     17  H2  UNL     1       1.057   2.730  31.742  1.00  0.00     0.219 HD
ENDBRANCH  13  16
BRANCH  14  18
HETATM   18  O3  UNL     1      -0.867   4.739  30.718  1.00  0.00    -0.288 OA
ATOM     19  H3  UNL     1      -1.259   4.930  29.873  1.00  0.00     0.244 HD
ENDBRANCH  14  18
ENDBRANCH  12  13
ENDBRANCH  11  12
ENDBRANCH  10  11
ENDBRANCH   9  10
BRANCH   5  20
HETATM   20  O1  UNL     1       8.497   0.677  28.750  1.00  0.00    -0.395 OA
ATOM     21  H1  UNL     1       7.623   0.585  28.389  1.00  0.00     0.210 HD
ENDBRANCH   5  20
TORSDOF 7
ENDMDL
MODEL 4
REMARK VINA RESULT: -6.281029148      4.314      7.028
REMARK  7 active torsions:
REMARK  status: ('A' for Active; 'I' for Inactive)
REMARK    1  A    between atoms: C5_5  and  O1_6 
REMARK    2  A    between atoms: C9_11  and  C10_12 
REMARK    3  A    between atoms: C10_12  and  S1_13 
REMARK    4  A    between atoms: S1_13  and  C11_14 
REMARK    5  A    between atoms: C11_14  and  C12_15 
REMARK    6  A    between atoms: C12_15  and  O2_16 
REMARK    7  A    between atoms: N1_18  and  O3_20 
ROOT
HETATM    1  C1  UNL     1       6.448   3.830  29.856  1.00  0.00     0.016 C 
HETATM    2  C2  UNL     1       5.983   2.447  30.246  1.00  0.00    -0.034 C 
HETATM    3  C3  UNL     1       4.974   1.883  29.283  1.00  0.00     0.012 C 
HETATM    4  C4  UNL     1       3.784   1.457  30.113  1.00  0.00     0.033 C 
HETATM    5  C5  UNL     1       3.842   2.326  31.331  1.00  0.00     0.123 C 
HETATM    6  C6  UNL     1       5.309   2.538  31.590  1.00  0.00     0.023 C 
HETATM    7  C7  UNL     1       5.896   1.426  32.392  1.00  0.00     0.008 C 
HETATM    8  C8  UNL     1       7.336   1.282  31.867  1.00  0.00     0.007 C 
HETATM    9  C9  UNL     1       7.147   1.489  30.404  1.00  0.00     0.003 C 
ENDROOT
BRANCH   9  10
HETATM   10  C10 UNL     1       8.335   1.882  29.612  1.00  0.00     0.079 C 
BRANCH  10  11
HETATM   11  S1  UNL     1       9.267   0.574  28.852  1.00  0.00    -0.161 SA
BRANCH  11  12
HETATM   12  C11 UNL     1      10.309   1.143  27.503  1.00  0.00     0.159 C 
BRANCH  12  13
HETATM   13  C12 UNL     1      11.579   0.392  27.520  1.00  0.00     0.144 C 
HETATM   14  N1  UNL     1      12.557   0.773  26.795  1.00  0.00    -0.250 N 
ATOM     15  H1  UNL     1      12.454   1.598  26.204  1.00  0.00     0.196 HD
BRANCH  13  16
HETATM   16  O2  UNL     1      11.680  -0.718  28.331  1.00  0.00    -0.348 OA
ATOM     17  H2  UNL     1      11.256  -0.701  29.181  1.00  0.00     0.219 HD
ENDBRANCH  13  16
BRANCH  14  18
HETATM   18  O3  UNL     1      13.760   0.076  26.800  1.00  0.00    -0.288 OA
ATOM     19  H3  UNL     1      14.400   0.215  27.489  1.00  0.00     0.244 HD
ENDBRANCH  14  18
ENDBRANCH  12  13
ENDBRANCH  11  12
ENDBRANCH  10  11
ENDBRANCH   9  10
BRANCH   5  20
HETATM   20  O1  UNL     1       3.191   3.519  31.097  1.00  0.00    -0.395 OA
ATOM     21  H1  UNL     1       2.315   3.356  30.770  1.00  0.00     0.210 HD
ENDBRANCH   5  20
TORSDOF 7
ENDMDL
MODEL 5
REMARK VINA RESULT: -6.265497430      3.081      3.529
REMARK  7 active torsions:
REMARK  status: ('A' for Active; 'I' for Inactive)
REMARK    1  A    between atoms: C5_5  and  O1_6 
REMARK    2  A    between atoms: C9_11  and  C10_12 
REMARK    3  A    between atoms: C10_12  and  S1_13 
REMARK    4  A    between atoms: S1_13  and  C11_14 
REMARK    5  A    between atoms: C11_14  and  C12_15 
REMARK    6  A    between atoms: C12_15  and  O2_16 
REMARK    7  A    between atoms: N1_18  and  O3_20 
ROOT
HETATM    1  C1  UNL     1       5.747   2.020  28.669  1.00  0.00     0.016 C 
HETATM    2  C2  UNL     1       6.845   2.377  29.642  1.00  0.00    -0.034 C 
HETATM    3  C3  UNL     1       8.068   2.926  28.959  1.00  0.00     0.012 C 
HETATM    4  C4  UNL     1       9.237   2.101  29.447  1.00  0.00     0.033 C 
HETATM    5  C5  UNL     1       8.636   0.785  29.834  1.00  0.00     0.123 C 
HETATM    6  C6  UNL     1       7.266   1.120  30.359  1.00  0.00     0.023 C 
HETATM    7  C7  UNL     1       7.302   1.493  31.803  1.00  0.00     0.008 C 
HETATM    8  C8  UNL     1       6.203   2.560  31.959  1.00  0.00     0.007 C 
HETATM    9  C9  UNL     1       6.361   3.344  30.703  1.00  0.00     0.003 C 
ENDROOT
BRANCH   9  10
HETATM   10  C10 UNL     1       5.208   4.163  30.261  1.00  0.00     0.079 C 
BRANCH  10  11
HETATM   11  S1  UNL     1       3.778   4.180  31.314  1.00  0.00    -0.161 SA
BRANCH  11  12
HETATM   12  C11 UNL     1       2.308   3.522  30.517  1.00  0.00     0.159 C 
BRANCH  12  13
HETATM   13  C12 UNL     1       2.001   2.194  31.084  1.00  0.00     0.144 C 
HETATM   14  N1  UNL     1       2.568   1.152  30.616  1.00  0.00    -0.250 N 
ATOM     15  H1  UNL     1       3.234   1.243  29.848  1.00  0.00     0.196 HD
BRANCH  13  16
HETATM   16  O2  UNL     1       1.096   2.112  32.120  1.00  0.00    -0.348 OA
ATOM     17  H2  UNL     1       0.555   2.868  32.314  1.00  0.00     0.219 HD
ENDBRANCH  13  16
BRANCH  14  18
HETATM   18  O3  UNL     1       2.290  -0.105  31.139  1.00  0.00    -0.288 OA
ATOM     19  H3  UNL     1       1.989  -0.810  30.577  1.00  0.00     0.244 HD
ENDBRANCH  14  18
ENDBRANCH  12  13
ENDBRANCH  11  12
ENDBRANCH  10  11
ENDBRANCH   9  10
BRANCH   5  20
HETATM   20  O1  UNL     1       8.568  -0.049  28.737  1.00  0.00    -0.395 OA
ATOM     21  H1  UNL     1       9.440  -0.322  28.479  1.00  0.00     0.210 HD
ENDBRANCH   5  20
TORSDOF 7
ENDMDL
