MODEL 1
REMARK VINA RESULT: -6.780664633      0.000      0.000
REMARK  5 active torsions:
REMARK  status: ('A' for Active; 'I' for Inactive)
REMARK    1  A    between atoms: C2_2  and  O1_4 
REMARK    2  A    between atoms: C2_2  and  C4_6 
REMARK    3  A    between atoms: C4_6  and  C5_7 
REMARK    4  A    between atoms: C5_7  and  N1_8 
REMARK    5  A    between atoms: N1_8  and  C6_10 
ROOT
HETATM    1  C6  UNL     1       3.892   2.150  30.701  1.00  0.00     0.026 C 
HETATM    2  C7  UNL     1       4.524   1.752  29.384  1.00  0.00     0.035 C 
HETATM    3  C8  UNL     1       5.980   2.087  29.334  1.00  0.00    -0.012 C 
HETATM    4  C9  UNL     1       6.155   3.554  29.074  1.00  0.00     0.005 C 
HETATM    5  C10 UNL     1       6.355   4.361  30.318  1.00  0.00     0.005 C 
HETATM    6  C11 UNL     1       5.387   4.049  31.421  1.00  0.00    -0.012 C 
HETATM    7  C12 UNL     1       6.052   3.105  32.379  1.00  0.00     0.009 C 
HETATM    8  C13 UNL     1       6.006   1.700  31.820  1.00  0.00    -0.012 C 
HETATM    9  C14 UNL     1       6.708   1.564  30.517  1.00  0.00     0.009 C 
HETATM   10  C15 UNL     1       4.551   1.305  31.767  1.00  0.00     0.035 C 
HETATM   11  C16 UNL     1       4.034   3.620  30.979  1.00  0.00     0.035 C 
ENDROOT
BRANCH   1  12
HETATM   12  N1  UNL     1       2.504   1.776  30.693  1.00  0.00    -0.412 N 
ATOM     13  H1  UNL     1       2.171   0.943  30.210  1.00  0.00     0.154 HD
BRANCH  12  14
HETATM   14  C5  UNL     1       1.623   2.643  31.401  1.00  0.00     0.117 C 
BRANCH  14  15
HETATM   15  C4  UNL     1       0.633   3.206  30.396  1.00  0.00     0.056 C 
BRANCH  15  16
HETATM   16  C2  UNL     1       0.228   4.617  30.682  1.00  0.00     0.052 C 
HETATM   17  C1  UNL     1       0.877   5.470  29.597  1.00  0.00     0.045 C 
HETATM   18  C3  UNL     1       0.847   5.126  31.989  1.00  0.00     0.045 C 
BRANCH  16  19
HETATM   19  O1  UNL     1      -1.130   4.855  30.649  1.00  0.00    -0.391 OA
ATOM     20  H1  UNL     1      -1.506   4.501  31.447  1.00  0.00     0.210 HD
ENDBRANCH  16  19
ENDBRANCH  15  16
ENDBRANCH  14  15
ENDBRANCH  12  14
ENDBRANCH   1  12
TORSDOF 5
ENDMDL
MODEL 2
REMARK VINA RESULT: -6.697931517      0.406      1.915
REMARK  5 active torsions:
REMARK  status: ('A' for Active; 'I' for Inactive)
REMARK    1  A    between atoms: C2_2  and  O1_4 
REMARK    2  A    between atoms: C2_2  and  C4_6 
REMARK    3  A    between atoms: C4_6  and  C5_7 
REMARK    4  A    between atoms: C5_7  and  N1_8 
REMARK    5  A    between atoms: N1_8  and  C6_10 
ROOT
HETATM    1  C6  UNL     1       4.054   2.321  30.729  1.00  0.00     0.026 C 
HETATM    2  C7  UNL     1       4.602   1.412  31.808  1.00  0.00     0.035 C 
HETATM    3  C8  UNL     1       6.025   1.726  32.140  1.00  0.00    -0.012 C 
HETATM    4  C9  UNL     1       6.930   1.162  31.085  1.00  0.00     0.005 C 
HETATM    5  C10 UNL     1       7.308   2.153  30.030  1.00  0.00     0.005 C 
HETATM    6  C11 UNL     1       6.157   2.948  29.486  1.00  0.00    -0.012 C 
HETATM    7  C12 UNL     1       6.125   4.274  30.188  1.00  0.00     0.009 C 
HETATM    8  C13 UNL     1       5.484   4.111  31.549  1.00  0.00    -0.012 C 
HETATM    9  C14 UNL     1       6.218   3.168  32.433  1.00  0.00     0.009 C 
HETATM   10  C15 UNL     1       4.049   3.718  31.304  1.00  0.00     0.035 C 
HETATM   11  C16 UNL     1       4.851   2.238  29.456  1.00  0.00     0.035 C 
ENDROOT
BRANCH   1  12
HETATM   12  N1  UNL     1       2.680   1.984  30.478  1.00  0.00    -0.412 N 
ATOM     13  H1  UNL     1       2.410   1.308  29.764  1.00  0.00     0.154 HD
BRANCH  12  14
HETATM   14  C5  UNL     1       1.718   2.652  31.288  1.00  0.00     0.117 C 
BRANCH  14  15
HETATM   15  C4  UNL     1       0.659   3.224  30.361  1.00  0.00     0.056 C 
BRANCH  15  16
HETATM   16  C2  UNL     1       0.249   4.619  30.708  1.00  0.00     0.052 C 
HETATM   17  C1  UNL     1       0.944   5.527  29.698  1.00  0.00     0.045 C 
HETATM   18  C3  UNL     1       0.820   5.051  32.064  1.00  0.00     0.045 C 
BRANCH  16  19
HETATM   19  O1  UNL     1      -1.105   4.868  30.636  1.00  0.00    -0.391 OA
ATOM     20  H1  UNL     1      -1.306   5.563  31.252  1.00  0.00     0.210 HD
ENDBRANCH  16  19
ENDBRANCH  15  16
ENDBRANCH  14  15
ENDBRANCH  12  14
ENDBRANCH   1  12
TORSDOF 5
ENDMDL
MODEL 3
REMARK VINA RESULT: -6.693809572      3.615      6.456
REMARK  5 active torsions:
REMARK  status: ('A' for Active; 'I' for Inactive)
REMARK    1  A    between atoms: C2_2  and  O1_4 
REMARK    2  A    between atoms: C2_2  and  C4_6 
REMARK    3  A    between atoms: C4_6  and  C5_7 
REMARK    4  A    between atoms: C5_7  and  N1_8 
REMARK    5  A    between atoms: N1_8  and  C6_10 
ROOT
HETATM    1  C6  UNL     1       6.252   2.607  29.687  1.00  0.00     0.026 C 
HETATM    2  C7  UNL     1       4.844   2.368  29.181  1.00  0.00     0.035 C 
HETATM    3  C8  UNL     1       3.841   2.361  30.289  1.00  0.00    -0.012 C 
HETATM    4  C9  UNL     1       3.896   1.050  31.015  1.00  0.00     0.005 C 
HETATM    5  C10 UNL     1       4.752   1.081  32.242  1.00  0.00     0.005 C 
HETATM    6  C11 UNL     1       6.093   1.725  32.044  1.00  0.00    -0.012 C 
HETATM    7  C12 UNL     1       6.011   3.144  32.524  1.00  0.00     0.009 C 
HETATM    8  C13 UNL     1       5.346   3.998  31.467  1.00  0.00    -0.012 C 
HETATM    9  C14 UNL     1       3.960   3.565  31.149  1.00  0.00     0.009 C 
HETATM   10  C15 UNL     1       6.267   4.000  30.273  1.00  0.00     0.035 C 
HETATM   11  C16 UNL     1       6.680   1.570  30.687  1.00  0.00     0.035 C 
ENDROOT
BRANCH   1  12
HETATM   12  N1  UNL     1       7.158   2.629  28.572  1.00  0.00    -0.412 N 
ATOM     13  H1  UNL     1       6.843   2.476  27.615  1.00  0.00     0.154 HD
BRANCH  12  14
HETATM   14  C5  UNL     1       8.525   2.876  28.888  1.00  0.00     0.117 C 
BRANCH  14  15
HETATM   15  C4  UNL     1       9.370   2.077  27.911  1.00  0.00     0.056 C 
BRANCH  15  16
HETATM   16  C2  UNL     1       9.776   0.735  28.431  1.00  0.00     0.052 C 
HETATM   17  C1  UNL     1       9.946   0.899  29.938  1.00  0.00     0.045 C 
HETATM   18  C3  UNL     1      11.169   0.336  27.931  1.00  0.00     0.045 C 
BRANCH  16  19
HETATM   19  O1  UNL     1       8.862  -0.277  28.218  1.00  0.00    -0.391 OA
ATOM     20  H1  UNL     1       8.201  -0.219  28.898  1.00  0.00     0.210 HD
ENDBRANCH  16  19
ENDBRANCH  15  16
ENDBRANCH  14  15
ENDBRANCH  12  14
ENDBRANCH   1  12
TORSDOF 5
ENDMDL
MODEL 4
REMARK VINA RESULT: -6.681558450      2.818      3.793
REMARK  5 active torsions:
REMARK  status: ('A' for Active; 'I' for Inactive)
REMARK    1  A    between atoms: C2_2  and  O1_4 
REMARK    2  A    between atoms: C2_2  and  C4_6 
REMARK    3  A    between atoms: C4_6  and  C5_7 
REMARK    4  A    between atoms: C5_7  and  N1_8 
REMARK    5  A    between atoms: N1_8  and  C6_10 
ROOT
HETATM    1  C6  UNL     1       5.446   3.823  31.279  1.00  0.00     0.026 C 
HETATM    2  C7  UNL     1       6.353   3.719  30.070  1.00  0.00     0.035 C 
HETATM    3  C8  UNL     1       6.609   2.299  29.678  1.00  0.00    -0.012 C 
HETATM    4  C9  UNL     1       7.626   1.694  30.600  1.00  0.00     0.005 C 
HETATM    5  C10 UNL     1       7.022   0.922  31.730  1.00  0.00     0.005 C 
HETATM    6  C11 UNL     1       5.904   1.630  32.437  1.00  0.00    -0.012 C 
HETATM    7  C12 UNL     1       4.602   1.120  31.890  1.00  0.00     0.009 C 
HETATM    8  C13 UNL     1       4.310   1.792  30.567  1.00  0.00    -0.012 C 
HETATM    9  C14 UNL     1       5.348   1.530  29.535  1.00  0.00     0.009 C 
HETATM   10  C15 UNL     1       4.108   3.257  30.863  1.00  0.00     0.035 C 
HETATM   11  C16 UNL     1       6.012   3.112  32.476  1.00  0.00     0.035 C 
ENDROOT
BRANCH   1  12
HETATM   12  N1  UNL     1       5.220   5.209  31.584  1.00  0.00    -0.412 N 
ATOM     13  H1  UNL     1       5.966   5.818  31.917  1.00  0.00     0.154 HD
BRANCH  12  14
HETATM   14  C5  UNL     1       3.890   5.678  31.391  1.00  0.00     0.117 C 
BRANCH  14  15
HETATM   15  C4  UNL     1       3.256   5.829  32.764  1.00  0.00     0.056 C 
BRANCH  15  16
HETATM   16  C2  UNL     1       3.967   6.805  33.647  1.00  0.00     0.052 C 
HETATM   17  C1  UNL     1       3.047   7.040  34.840  1.00  0.00     0.045 C 
HETATM   18  C3  UNL     1       4.087   8.180  32.981  1.00  0.00     0.045 C 
BRANCH  16  19
HETATM   19  O1  UNL     1       5.185   6.377  34.131  1.00  0.00    -0.391 OA
ATOM     20  H1  UNL     1       5.232   5.436  34.010  1.00  0.00     0.210 HD
ENDBRANCH  16  19
ENDBRANCH  15  16
ENDBRANCH  14  15
ENDBRANCH  12  14
ENDBRANCH   1  12
TORSDOF 5
ENDMDL
MODEL 5
REMARK VINA RESULT: -6.613562859      3.839      6.566
REMARK  5 active torsions:
REMARK  status: ('A' for Active; 'I' for Inactive)
REMARK    1  A    between atoms: C2_2  and  O1_4 
REMARK    2  A    between atoms: C2_2  and  C4_6 
REMARK    3  A    between atoms: C4_6  and  C5_7 
REMARK    4  A    between atoms: C5_7  and  N1_8 
REMARK    5  A    between atoms: N1_8  and  C6_10 
ROOT
HETATM    1  C6  UNL     1       6.411   2.347  29.729  1.00  0.00     0.026 C 
HETATM    2  C7  UNL     1       6.437   3.860  29.786  1.00  0.00     0.035 C 
HETATM    3  C8  UNL     1       5.367   4.409  30.675  1.00  0.00    -0.012 C 
HETATM    4  C9  UNL     1       4.048   4.372  29.963  1.00  0.00     0.005 C 
HETATM    5  C10 UNL     1       3.228   3.163  30.286  1.00  0.00     0.005 C 
HETATM    6  C11 UNL     1       3.986   1.869  30.232  1.00  0.00    -0.012 C 
HETATM    7  C12 UNL     1       4.392   1.501  31.628  1.00  0.00     0.009 C 
HETATM    8  C13 UNL     1       5.613   2.301  32.028  1.00  0.00    -0.012 C 
HETATM    9  C14 UNL     1       5.381   3.769  32.015  1.00  0.00     0.009 C 
HETATM   10  C15 UNL     1       6.734   1.857  31.122  1.00  0.00     0.035 C 
HETATM   11  C16 UNL     1       5.091   1.819  29.239  1.00  0.00     0.035 C 
ENDROOT
BRANCH   1  12
HETATM   12  N1  UNL     1       7.476   1.886  28.883  1.00  0.00    -0.412 N 
ATOM     13  H1  UNL     1       7.371   1.075  28.273  1.00  0.00     0.154 HD
BRANCH  12  14
HETATM   14  C5  UNL     1       8.688   2.630  28.948  1.00  0.00     0.117 C 
BRANCH  14  15
HETATM   15  C4  UNL     1       9.817   1.644  29.192  1.00  0.00     0.056 C 
BRANCH  15  16
HETATM   16  C2  UNL     1      10.032   0.688  28.062  1.00  0.00     0.052 C 
HETATM   17  C1  UNL     1      11.442   0.135  28.239  1.00  0.00     0.045 C 
HETATM   18  C3  UNL     1      10.074   1.415  26.713  1.00  0.00     0.045 C 
BRANCH  16  19
HETATM   19  O1  UNL     1       9.161  -0.381  28.025  1.00  0.00    -0.391 OA
ATOM     20  H1  UNL     1       8.446  -0.194  28.622  1.00  0.00     0.210 HD
ENDBRANCH  16  19
ENDBRANCH  15  16
ENDBRANCH  14  15
ENDBRANCH  12  14
ENDBRANCH   1  12
TORSDOF 5
ENDMDL
