MODEL 1
REMARK VINA RESULT: -6.197871430      0.000      0.000
REMARK  5 active torsions:
REMARK  status: ('A' for Active; 'I' for Inactive)
REMARK    1  A    between atoms: C3_5  and  N2_6 
REMARK    2  A    between atoms: C5_13  and  C6_14 
REMARK    3  A    between atoms: C7_15  and  C8_16 
REMARK    4  A    between atoms: C8_16  and  S2_17 
REMARK    5  A    between atoms: S2_17  and  C9_18 
ROOT
HETATM    1  C1  UNL     1       9.069   2.840  26.382  1.00  0.00     0.070 C 
HETATM    2  C2  UNL     1       9.446   1.959  27.513  1.00  0.00     0.036 A 
HETATM    3  N1  UNL     1      10.514   1.136  27.340  1.00  0.00    -0.195 N 
ATOM      4  H1  UNL     1      11.004   1.103  26.446  1.00  0.00     0.184 HD
HETATM    5  C3  UNL     1      10.908   0.375  28.355  1.00  0.00     0.677 A 
HETATM    6  N3  UNL     1      10.283   0.396  29.544  1.00  0.00    -0.181 N 
ATOM      7  H3  UNL     1      10.616  -0.203  30.300  1.00  0.00     0.185 HD
HETATM    8  C4  UNL     1       9.231   1.190  29.749  1.00  0.00     0.128 A 
HETATM    9  S1  UNL     1       8.501   1.181  31.207  1.00  0.00    -0.059 SA
HETATM   10  C5  UNL     1       8.774   2.019  28.693  1.00  0.00     0.025 A 
ENDROOT
BRANCH  10  11
HETATM   11  C6  UNL     1       7.595   2.784  28.992  1.00  0.00     0.013 C 
HETATM   12  C7  UNL     1       6.344   2.669  28.677  1.00  0.00    -0.015 C 
BRANCH  12  13
HETATM   13  C8  UNL     1       5.392   3.719  29.207  1.00  0.00     0.101 C 
BRANCH  13  14
HETATM   14  S2  UNL     1       4.675   3.333  30.784  1.00  0.00    -0.161 SA
BRANCH  14  15
HETATM   15  C9  UNL     1       4.396   1.563  30.927  1.00  0.00     0.039 C 
HETATM   16  C10 UNL     1       2.890   1.324  30.772  1.00  0.00     0.021 C 
HETATM   17  C11 UNL     1       4.895   1.000  32.225  1.00  0.00     0.021 C 
ENDBRANCH  14  15
ENDBRANCH  13  14
ENDBRANCH  12  13
ENDBRANCH  10  11
BRANCH   5  18
HETATM   18  N2  UNL     1      11.937  -0.397  28.137  1.00  0.00    -0.234 N 
ATOM     19  H22 UNL     1      12.291  -0.563  27.195  1.00  0.00     0.174 HD
ATOM     20  H21 UNL     1      12.366  -0.825  28.957  1.00  0.00     0.174 HD
ENDBRANCH   5  18
TORSDOF 5
ENDMDL
MODEL 2
REMARK VINA RESULT: -6.161647399      1.898      2.734
REMARK  5 active torsions:
REMARK  status: ('A' for Active; 'I' for Inactive)
REMARK    1  A    between atoms: C3_5  and  N2_6 
REMARK    2  A    between atoms: C5_13  and  C6_14 
REMARK    3  A    between atoms: C7_15  and  C8_16 
REMARK    4  A    between atoms: C8_16  and  S2_17 
REMARK    5  A    between atoms: S2_17  and  C9_18 
ROOT
HETATM    1  C1  UNL     1       8.677   1.083  30.984  1.00  0.00     0.070 C 
HETATM    2  C2  UNL     1       9.334   1.155  29.657  1.00  0.00     0.036 A 
HETATM    3  N1  UNL     1      10.422   0.366  29.451  1.00  0.00    -0.195 N 
ATOM      4  H1  UNL     1      10.790  -0.218  30.202  1.00  0.00     0.184 HD
HETATM    5  C3  UNL     1      10.998   0.368  28.254  1.00  0.00     0.677 A 
HETATM    6  N3  UNL     1      10.537   1.126  27.244  1.00  0.00    -0.181 N 
ATOM      7  H3  UNL     1      11.007   1.100  26.339  1.00  0.00     0.185 HD
HETATM    8  C4  UNL     1       9.473   1.913  27.412  1.00  0.00     0.128 A 
HETATM    9  S1  UNL     1       8.951   2.818  26.160  1.00  0.00    -0.059 SA
HETATM   10  C5  UNL     1       8.826   1.943  28.674  1.00  0.00     0.025 A 
ENDROOT
BRANCH  10  11
HETATM   11  C6  UNL     1       7.736   2.872  28.772  1.00  0.00     0.013 C 
HETATM   12  C7  UNL     1       6.448   2.747  28.817  1.00  0.00    -0.015 C 
BRANCH  12  13
HETATM   13  C8  UNL     1       5.626   4.014  28.917  1.00  0.00     0.101 C 
BRANCH  13  14
HETATM   14  S2  UNL     1       4.346   3.965  30.146  1.00  0.00    -0.161 SA
BRANCH  14  15
HETATM   15  C9  UNL     1       5.015   4.381  31.761  1.00  0.00     0.039 C 
HETATM   16  C10 UNL     1       5.840   5.662  31.599  1.00  0.00     0.021 C 
HETATM   17  C11 UNL     1       5.850   3.279  32.345  1.00  0.00     0.021 C 
ENDBRANCH  14  15
ENDBRANCH  13  14
ENDBRANCH  12  13
ENDBRANCH  10  11
BRANCH   5  18
HETATM   18  N2  UNL     1      12.039  -0.405  28.108  1.00  0.00    -0.234 N 
ATOM     19  H22 UNL     1      12.947  -0.158  28.500  1.00  0.00     0.174 HD
ATOM     20  H21 UNL     1      11.894  -1.268  27.583  1.00  0.00     0.174 HD
ENDBRANCH   5  18
TORSDOF 5
ENDMDL
MODEL 3
REMARK VINA RESULT: -6.086996083      1.456      2.223
REMARK  5 active torsions:
REMARK  status: ('A' for Active; 'I' for Inactive)
REMARK    1  A    between atoms: C3_5  and  N2_6 
REMARK    2  A    between atoms: C5_13  and  C6_14 
REMARK    3  A    between atoms: C7_15  and  C8_16 
REMARK    4  A    between atoms: C8_16  and  S2_17 
REMARK    5  A    between atoms: S2_17  and  C9_18 
ROOT
HETATM    1  C1  UNL     1       8.652   1.067  30.991  1.00  0.00     0.070 C 
HETATM    2  C2  UNL     1       9.312   1.150  29.667  1.00  0.00     0.036 A 
HETATM    3  N1  UNL     1      10.408   0.373  29.460  1.00  0.00    -0.195 N 
ATOM      4  H1  UNL     1      10.780  -0.209  30.210  1.00  0.00     0.184 HD
HETATM    5  C3  UNL     1      10.988   0.386  28.265  1.00  0.00     0.677 A 
HETATM    6  N3  UNL     1      10.521   1.144  27.257  1.00  0.00    -0.181 N 
ATOM      7  H3  UNL     1      10.994   1.126  26.353  1.00  0.00     0.185 HD
HETATM    8  C4  UNL     1       9.448   1.918  27.424  1.00  0.00     0.128 A 
HETATM    9  S1  UNL     1       8.919   2.822  26.175  1.00  0.00    -0.059 SA
HETATM   10  C5  UNL     1       8.798   1.937  28.685  1.00  0.00     0.025 A 
ENDROOT
BRANCH  10  11
HETATM   11  C6  UNL     1       7.697   2.854  28.784  1.00  0.00     0.013 C 
HETATM   12  C7  UNL     1       6.410   2.719  28.777  1.00  0.00    -0.015 C 
BRANCH  12  13
HETATM   13  C8  UNL     1       5.575   3.975  28.903  1.00  0.00     0.101 C 
BRANCH  13  14
HETATM   14  S2  UNL     1       4.361   3.926  30.197  1.00  0.00    -0.161 SA
BRANCH  14  15
HETATM   15  C9  UNL     1       3.824   2.235  30.484  1.00  0.00     0.039 C 
HETATM   16  C10 UNL     1       2.321   2.277  30.779  1.00  0.00     0.021 C 
HETATM   17  C11 UNL     1       4.569   1.572  31.605  1.00  0.00     0.021 C 
ENDBRANCH  14  15
ENDBRANCH  13  14
ENDBRANCH  12  13
ENDBRANCH  10  11
BRANCH   5  18
HETATM   18  N2  UNL     1      12.037  -0.375  28.119  1.00  0.00    -0.234 N 
ATOM     19  H22 UNL     1      12.650  -0.596  28.903  1.00  0.00     0.174 HD
ATOM     20  H21 UNL     1      12.209  -0.738  27.181  1.00  0.00     0.174 HD
ENDBRANCH   5  18
TORSDOF 5
ENDMDL
MODEL 4
REMARK VINA RESULT: -6.008664823      1.625      2.303
REMARK  5 active torsions:
REMARK  status: ('A' for Active; 'I' for Inactive)
REMARK    1  A    between atoms: C3_5  and  N2_6 
REMARK    2  A    between atoms: C5_13  and  C6_14 
REMARK    3  A    between atoms: C7_15  and  C8_16 
REMARK    4  A    between atoms: C8_16  and  S2_17 
REMARK    5  A    between atoms: S2_17  and  C9_18 
ROOT
HETATM    1  C1  UNL     1       8.926   2.933  26.513  1.00  0.00     0.070 C 
HETATM    2  C2  UNL     1       9.297   2.025  27.625  1.00  0.00     0.036 A 
HETATM    3  N1  UNL     1      10.361   1.201  27.436  1.00  0.00    -0.195 N 
ATOM      4  H1  UNL     1      10.853   1.185  26.543  1.00  0.00     0.184 HD
HETATM    5  C3  UNL     1      10.749   0.416  28.435  1.00  0.00     0.677 A 
HETATM    6  N3  UNL     1      10.121   0.415  29.624  1.00  0.00    -0.181 N 
ATOM      7  H3  UNL     1      10.450  -0.202  30.366  1.00  0.00     0.185 HD
HETATM    8  C4  UNL     1       9.073   1.210  29.843  1.00  0.00     0.128 A 
HETATM    9  S1  UNL     1       8.341   1.173  31.299  1.00  0.00    -0.059 SA
HETATM   10  C5  UNL     1       8.623   2.064  28.804  1.00  0.00     0.025 A 
ENDROOT
BRANCH  10  11
HETATM   11  C6  UNL     1       7.447   2.828  29.117  1.00  0.00     0.013 C 
HETATM   12  C7  UNL     1       6.192   2.707  28.826  1.00  0.00    -0.015 C 
BRANCH  12  13
HETATM   13  C8  UNL     1       5.246   3.760  29.364  1.00  0.00     0.101 C 
BRANCH  13  14
HETATM   14  S2  UNL     1       5.230   3.899  31.133  1.00  0.00    -0.161 SA
BRANCH  14  15
HETATM   15  C9  UNL     1       5.842   5.512  31.638  1.00  0.00     0.039 C 
HETATM   16  C10 UNL     1       5.939   5.506  33.167  1.00  0.00     0.021 C 
HETATM   17  C11 UNL     1       4.970   6.638  31.163  1.00  0.00     0.021 C 
ENDBRANCH  14  15
ENDBRANCH  13  14
ENDBRANCH  12  13
ENDBRANCH  10  11
BRANCH   5  18
HETATM   18  N2  UNL     1      11.774  -0.356  28.202  1.00  0.00    -0.234 N 
ATOM     19  H22 UNL     1      12.540  -0.061  27.596  1.00  0.00     0.174 HD
ATOM     20  H21 UNL     1      11.768  -1.269  28.658  1.00  0.00     0.174 HD
ENDBRANCH   5  18
TORSDOF 5
ENDMDL
MODEL 5
REMARK VINA RESULT: -5.988331377      5.142      7.620
REMARK  5 active torsions:
REMARK  status: ('A' for Active; 'I' for Inactive)
REMARK    1  A    between atoms: C3_5  and  N2_6 
REMARK    2  A    between atoms: C5_13  and  C6_14 
REMARK    3  A    between atoms: C7_15  and  C8_16 
REMARK    4  A    between atoms: C8_16  and  S2_17 
REMARK    5  A    between atoms: S2_17  and  C9_18 
ROOT
HETATM    1  C1  UNL     1       5.502   6.036  32.046  1.00  0.00     0.070 C 
HETATM    2  C2  UNL     1       4.112   5.520  32.061  1.00  0.00     0.036 A 
HETATM    3  N1  UNL     1       3.153   6.313  32.608  1.00  0.00    -0.195 N 
ATOM      4  H1  UNL     1       3.398   7.209  33.029  1.00  0.00     0.184 HD
HETATM    5  C3  UNL     1       1.890   5.900  32.586  1.00  0.00     0.677 A 
HETATM    6  N3  UNL     1       1.536   4.724  32.039  1.00  0.00    -0.181 N 
ATOM      7  H3  UNL     1       0.556   4.443  32.041  1.00  0.00     0.185 HD
HETATM    8  C4  UNL     1       2.451   3.922  31.494  1.00  0.00     0.128 A 
HETATM    9  S1  UNL     1       1.977   2.503  30.844  1.00  0.00    -0.059 SA
HETATM   10  C5  UNL     1       3.812   4.321  31.496  1.00  0.00     0.025 A 
ENDROOT
BRANCH  10  11
HETATM   11  C6  UNL     1       4.726   3.357  30.949  1.00  0.00     0.013 C 
HETATM   12  C7  UNL     1       5.613   2.565  31.462  1.00  0.00    -0.015 C 
BRANCH  12  13
HETATM   13  C8  UNL     1       6.393   1.683  30.512  1.00  0.00     0.101 C 
BRANCH  13  14
HETATM   14  S2  UNL     1       8.014   1.238  31.085  1.00  0.00    -0.161 SA
BRANCH  14  15
HETATM   15  C9  UNL     1       9.222   1.459  29.773  1.00  0.00     0.039 C 
HETATM   16  C10 UNL     1       8.741   2.622  28.898  1.00  0.00     0.021 C 
HETATM   17  C11 UNL     1       9.419   0.219  28.951  1.00  0.00     0.021 C 
ENDBRANCH  14  15
ENDBRANCH  13  14
ENDBRANCH  12  13
ENDBRANCH  10  11
BRANCH   5  18
HETATM   18  N2  UNL     1       1.009   6.696  33.125  1.00  0.00    -0.234 N 
ATOM     19  H22 UNL     1       0.616   7.485  32.612  1.00  0.00     0.174 HD
ATOM     20  H21 UNL     1       0.735   6.488  34.086  1.00  0.00     0.174 HD
ENDBRANCH   5  18
TORSDOF 5
ENDMDL
