MODEL 1
REMARK VINA RESULT: -6.193928268      0.000      0.000
REMARK  6 active torsions:
REMARK  status: ('A' for Active; 'I' for Inactive)
REMARK    1  A    between atoms: C2_2  and  O1_4 
REMARK    2  A    between atoms: C2_2  and  C4_6 
REMARK    3  A    between atoms: C4_6  and  C5_7 
REMARK    4  A    between atoms: C9_11  and  C11_13 
REMARK    5  A    between atoms: C11_13  and  C12_14 
REMARK    6  A    between atoms: C14_19  and  O2_21 
ROOT
HETATM    1  C5  UNL     1       3.882   5.487  31.293  1.00  0.00    -0.011 C 
HETATM    2  C6  UNL     1       4.712   6.670  30.900  1.00  0.00     0.018 C 
HETATM    3  C7  UNL     1       4.810   4.518  31.984  1.00  0.00     0.013 C 
HETATM    4  C8  UNL     1       5.442   3.522  31.036  1.00  0.00     0.010 C 
HETATM    5  C9  UNL     1       4.466   2.627  30.360  1.00  0.00    -0.037 C 
HETATM    6  C10 UNL     1       5.079   2.071  29.108  1.00  0.00     0.015 C 
HETATM    7  C13 UNL     1       3.184   3.377  30.117  1.00  0.00     0.047 C 
HETATM    8  C14 UNL     1       3.447   4.840  29.968  1.00  0.00     0.062 C 
HETATM    9  C15 UNL     1       2.218   5.518  29.401  1.00  0.00     0.046 C 
ENDROOT
BRANCH   1  10
HETATM   10  C4  UNL     1       2.647   5.776  32.043  1.00  0.00     0.049 C 
BRANCH  10  11
HETATM   11  C2  UNL     1       2.561   6.903  32.984  1.00  0.00     0.051 C 
HETATM   12  C1  UNL     1       3.380   6.821  34.233  1.00  0.00     0.045 C 
HETATM   13  C3  UNL     1       2.650   8.277  32.354  1.00  0.00     0.045 C 
BRANCH  11  14
HETATM   14  O1  UNL     1       1.214   6.873  33.461  1.00  0.00    -0.391 OA
ATOM     15  H1  UNL     1       1.114   7.707  33.906  1.00  0.00     0.210 HD
ENDBRANCH  11  14
ENDBRANCH  10  11
ENDBRANCH   1  10
BRANCH   8  16
HETATM   16  O2  UNL     1       4.439   5.009  28.983  1.00  0.00    -0.389 OA
ATOM     17  H2  UNL     1       4.779   4.168  28.701  1.00  0.00     0.210 HD
ENDBRANCH   8  16
BRANCH   5  18
HETATM   18  C11 UNL     1       4.102   1.426  31.239  1.00  0.00     0.053 C 
BRANCH  18  19
HETATM   19  C12 UNL     1       2.657   1.094  31.138  1.00  0.00     0.053 C 
HETATM   20  N1  UNL     1       2.314   0.024  30.538  1.00  0.00    -0.411 N 
ATOM     21  H12 UNL     1       3.031  -0.582  30.138  1.00  0.00     0.155 HD
ATOM     22  H11 UNL     1       1.323  -0.204  30.469  1.00  0.00     0.155 HD
ENDBRANCH  18  19
ENDBRANCH   5  18
TORSDOF 6
ENDMDL
MODEL 2
REMARK VINA RESULT: -6.192597641      1.337      1.485
REMARK  6 active torsions:
REMARK  status: ('A' for Active; 'I' for Inactive)
REMARK    1  A    between atoms: C2_2  and  O1_4 
REMARK    2  A    between atoms: C2_2  and  C4_6 
REMARK    3  A    between atoms: C4_6  and  C5_7 
REMARK    4  A    between atoms: C9_11  and  C11_13 
REMARK    5  A    between atoms: C11_13  and  C12_14 
REMARK    6  A    between atoms: C14_19  and  O2_21 
ROOT
HETATM    1  C5  UNL     1       3.627   5.436  31.297  1.00  0.00    -0.011 C 
HETATM    2  C6  UNL     1       4.200   6.689  30.709  1.00  0.00     0.018 C 
HETATM    3  C7  UNL     1       4.757   4.741  32.018  1.00  0.00     0.013 C 
HETATM    4  C8  UNL     1       5.508   3.762  31.142  1.00  0.00     0.010 C 
HETATM    5  C9  UNL     1       4.678   2.631  30.648  1.00  0.00    -0.037 C 
HETATM    6  C10 UNL     1       5.313   2.041  29.423  1.00  0.00     0.015 C 
HETATM    7  C13 UNL     1       3.268   3.105  30.423  1.00  0.00     0.047 C 
HETATM    8  C14 UNL     1       3.246   4.561  30.091  1.00  0.00     0.062 C 
HETATM    9  C15 UNL     1       1.882   4.935  29.549  1.00  0.00     0.046 C 
ENDROOT
BRANCH   1  10
HETATM   10  C4  UNL     1       2.405   5.593  32.104  1.00  0.00     0.049 C 
BRANCH  10  11
HETATM   11  C2  UNL     1       2.144   6.812  32.882  1.00  0.00     0.051 C 
HETATM   12  C1  UNL     1       2.937   7.012  34.135  1.00  0.00     0.045 C 
HETATM   13  C3  UNL     1       2.060   8.089  32.072  1.00  0.00     0.045 C 
BRANCH  11  14
HETATM   14  O1  UNL     1       0.802   6.661  33.352  1.00  0.00    -0.391 OA
ATOM     15  H1  UNL     1       0.313   7.300  32.846  1.00  0.00     0.210 HD
ENDBRANCH  11  14
ENDBRANCH  10  11
ENDBRANCH   1  10
BRANCH   8  16
HETATM   16  O2  UNL     1       4.133   4.780  29.019  1.00  0.00    -0.389 OA
ATOM     17  H2  UNL     1       3.793   4.396  28.219  1.00  0.00     0.210 HD
ENDBRANCH   8  16
BRANCH   5  18
HETATM   18  C11 UNL     1       4.594   1.504  31.682  1.00  0.00     0.053 C 
BRANCH  18  19
HETATM   19  C12 UNL     1       5.924   1.200  32.270  1.00  0.00     0.053 C 
HETATM   20  N1  UNL     1       6.050   1.203  33.537  1.00  0.00    -0.411 N 
ATOM     21  H12 UNL     1       5.243   1.412  34.124  1.00  0.00     0.155 HD
ATOM     22  H11 UNL     1       6.964   0.995  33.940  1.00  0.00     0.155 HD
ENDBRANCH  18  19
ENDBRANCH   5  18
TORSDOF 6
ENDMDL
MODEL 3
REMARK VINA RESULT: -6.181822576      1.928      2.189
REMARK  6 active torsions:
REMARK  status: ('A' for Active; 'I' for Inactive)
REMARK    1  A    between atoms: C2_2  and  O1_4 
REMARK    2  A    between atoms: C2_2  and  C4_6 
REMARK    3  A    between atoms: C4_6  and  C5_7 
REMARK    4  A    between atoms: C9_11  and  C11_13 
REMARK    5  A    between atoms: C11_13  and  C12_14 
REMARK    6  A    between atoms: C14_19  and  O2_21 
ROOT
HETATM    1  C5  UNL     1       3.558   5.294  31.135  1.00  0.00    -0.011 C 
HETATM    2  C6  UNL     1       2.966   6.188  30.088  1.00  0.00     0.018 C 
HETATM    3  C7  UNL     1       5.041   5.229  30.859  1.00  0.00     0.013 C 
HETATM    4  C8  UNL     1       5.425   4.090  29.938  1.00  0.00     0.010 C 
HETATM    5  C9  UNL     1       5.125   2.741  30.487  1.00  0.00    -0.037 C 
HETATM    6  C10 UNL     1       5.037   1.751  29.363  1.00  0.00     0.015 C 
HETATM    7  C13 UNL     1       3.879   2.807  31.327  1.00  0.00     0.047 C 
HETATM    8  C14 UNL     1       2.977   3.899  30.850  1.00  0.00     0.062 C 
HETATM    9  C15 UNL     1       1.609   3.734  31.478  1.00  0.00     0.046 C 
ENDROOT
BRANCH   1  10
HETATM   10  C4  UNL     1       3.220   5.612  32.532  1.00  0.00     0.049 C 
BRANCH  10  11
HETATM   11  C2  UNL     1       4.101   6.438  33.372  1.00  0.00     0.051 C 
HETATM   12  C1  UNL     1       5.405   5.839  33.797  1.00  0.00     0.045 C 
HETATM   13  C3  UNL     1       4.274   7.869  32.911  1.00  0.00     0.045 C 
BRANCH  11  14
HETATM   14  O1  UNL     1       3.386   6.597  34.599  1.00  0.00    -0.391 OA
ATOM     15  H1  UNL     1       3.172   7.523  34.617  1.00  0.00     0.210 HD
ENDBRANCH  11  14
ENDBRANCH  10  11
ENDBRANCH   1  10
BRANCH   8  16
HETATM   16  O2  UNL     1       2.765   3.722  29.470  1.00  0.00    -0.389 OA
ATOM     17  H2  UNL     1       2.901   2.814  29.223  1.00  0.00     0.210 HD
ENDBRANCH   8  16
BRANCH   5  18
HETATM   18  C11 UNL     1       6.243   2.251  31.414  1.00  0.00     0.053 C 
BRANCH  18  19
HETATM   19  C12 UNL     1       5.717   1.360  32.480  1.00  0.00     0.053 C 
HETATM   20  N1  UNL     1       6.402   1.204  33.542  1.00  0.00    -0.411 N 
ATOM     21  H12 UNL     1       7.293   1.689  33.643  1.00  0.00     0.155 HD
ATOM     22  H11 UNL     1       6.041   0.592  34.273  1.00  0.00     0.155 HD
ENDBRANCH  18  19
ENDBRANCH   5  18
TORSDOF 6
ENDMDL
MODEL 4
REMARK VINA RESULT: -6.112547741      2.687      5.013
REMARK  6 active torsions:
REMARK  status: ('A' for Active; 'I' for Inactive)
REMARK    1  A    between atoms: C2_2  and  O1_4 
REMARK    2  A    between atoms: C2_2  and  C4_6 
REMARK    3  A    between atoms: C4_6  and  C5_7 
REMARK    4  A    between atoms: C9_11  and  C11_13 
REMARK    5  A    between atoms: C11_13  and  C12_14 
REMARK    6  A    between atoms: C14_19  and  O2_21 
ROOT
HETATM    1  C5  UNL     1       4.523   2.754  30.744  1.00  0.00    -0.011 C 
HETATM    2  C6  UNL     1       4.909   1.988  29.516  1.00  0.00     0.018 C 
HETATM    3  C7  UNL     1       3.089   2.391  31.047  1.00  0.00     0.013 C 
HETATM    4  C8  UNL     1       2.089   3.314  30.386  1.00  0.00     0.010 C 
HETATM    5  C9  UNL     1       2.180   4.727  30.838  1.00  0.00    -0.037 C 
HETATM    6  C10 UNL     1       1.564   5.625  29.805  1.00  0.00     0.015 C 
HETATM    7  C13 UNL     1       3.614   5.064  31.145  1.00  0.00     0.047 C 
HETATM    8  C14 UNL     1       4.541   4.232  30.321  1.00  0.00     0.062 C 
HETATM    9  C15 UNL     1       5.939   4.809  30.396  1.00  0.00     0.046 C 
ENDROOT
BRANCH   1  10
HETATM   10  C4  UNL     1       5.430   2.637  31.898  1.00  0.00     0.049 C 
BRANCH  10  11
HETATM   11  C2  UNL     1       5.801   1.330  32.459  1.00  0.00     0.051 C 
HETATM   12  C1  UNL     1       4.739   0.277  32.514  1.00  0.00     0.045 C 
HETATM   13  C3  UNL     1       7.114   0.763  31.962  1.00  0.00     0.045 C 
BRANCH  11  14
HETATM   14  O1  UNL     1       6.086   1.594  33.835  1.00  0.00    -0.391 OA
ATOM     15  H1  UNL     1       6.465   0.780  34.147  1.00  0.00     0.210 HD
ENDBRANCH  11  14
ENDBRANCH  10  11
ENDBRANCH   1  10
BRANCH   8  16
HETATM   16  O2  UNL     1       4.168   4.367  28.970  1.00  0.00    -0.389 OA
ATOM     17  H2  UNL     1       3.489   5.025  28.873  1.00  0.00     0.210 HD
ENDBRANCH   8  16
BRANCH   5  18
HETATM   18  C11 UNL     1       1.397   4.954  32.135  1.00  0.00     0.053 C 
BRANCH  18  19
HETATM   19  C12 UNL     1       1.891   6.147  32.870  1.00  0.00     0.053 C 
HETATM   20  N1  UNL     1       1.082   7.103  33.102  1.00  0.00    -0.411 N 
ATOM     21  H12 UNL     1       0.116   7.034  32.783  1.00  0.00     0.155 HD
ATOM     22  H11 UNL     1       1.421   7.921  33.606  1.00  0.00     0.155 HD
ENDBRANCH  18  19
ENDBRANCH   5  18
TORSDOF 6
ENDMDL
MODEL 5
REMARK VINA RESULT: -6.074819026      2.538      4.778
REMARK  6 active torsions:
REMARK  status: ('A' for Active; 'I' for Inactive)
REMARK    1  A    between atoms: C2_2  and  O1_4 
REMARK    2  A    between atoms: C2_2  and  C4_6 
REMARK    3  A    between atoms: C4_6  and  C5_7 
REMARK    4  A    between atoms: C9_11  and  C11_13 
REMARK    5  A    between atoms: C11_13  and  C12_14 
REMARK    6  A    between atoms: C14_19  and  O2_21 
ROOT
HETATM    1  C5  UNL     1       5.332   4.000  31.329  1.00  0.00    -0.011 C 
HETATM    2  C6  UNL     1       6.392   4.226  30.295  1.00  0.00     0.018 C 
HETATM    3  C7  UNL     1       4.102   3.530  30.591  1.00  0.00     0.013 C 
HETATM    4  C8  UNL     1       3.189   4.663  30.175  1.00  0.00     0.010 C 
HETATM    5  C9  UNL     1       2.624   5.434  31.314  1.00  0.00    -0.037 C 
HETATM    6  C10 UNL     1       2.193   6.790  30.838  1.00  0.00     0.015 C 
HETATM    7  C13 UNL     1       3.628   5.483  32.434  1.00  0.00     0.047 C 
HETATM    8  C14 UNL     1       5.020   5.393  31.899  1.00  0.00     0.062 C 
HETATM    9  C15 UNL     1       6.003   5.777  32.986  1.00  0.00     0.046 C 
ENDROOT
BRANCH   1  10
HETATM   10  C4  UNL     1       5.707   3.153  32.474  1.00  0.00     0.049 C 
BRANCH  10  11
HETATM   11  C2  UNL     1       5.900   1.703  32.332  1.00  0.00     0.051 C 
HETATM   12  C1  UNL     1       4.686   0.870  32.065  1.00  0.00     0.045 C 
HETATM   13  C3  UNL     1       7.058   1.290  31.448  1.00  0.00     0.045 C 
BRANCH  11  14
HETATM   14  O1  UNL     1       6.332   1.266  33.623  1.00  0.00    -0.391 OA
ATOM     15  H1  UNL     1       5.903   0.425  33.731  1.00  0.00     0.210 HD
ENDBRANCH  11  14
ENDBRANCH  10  11
ENDBRANCH   1  10
BRANCH   8  16
HETATM   16  O2  UNL     1       5.174   6.382  30.908  1.00  0.00    -0.389 OA
ATOM     17  H2  UNL     1       4.335   6.768  30.686  1.00  0.00     0.210 HD
ENDBRANCH   8  16
BRANCH   5  18
HETATM   18  C11 UNL     1       1.375   4.756  31.887  1.00  0.00     0.053 C 
BRANCH  18  19
HETATM   19  C12 UNL     1       0.417   4.381  30.815  1.00  0.00     0.053 C 
HETATM   20  N1  UNL     1      -0.771   4.835  30.867  1.00  0.00    -0.411 N 
ATOM     21  H12 UNL     1      -1.045   5.445  31.638  1.00  0.00     0.155 HD
ATOM     22  H11 UNL     1      -1.429   4.578  30.131  1.00  0.00     0.155 HD
ENDBRANCH  18  19
ENDBRANCH   5  18
TORSDOF 6
ENDMDL
