MODEL 1
REMARK VINA RESULT: -6.163644410      0.000      0.000
REMARK  5 active torsions:
REMARK  status: ('A' for Active; 'I' for Inactive)
REMARK    1  A    between atoms: C2_2  and  C3_3 
REMARK    2  A    between atoms: C3_3  and  C4_4 
REMARK    3  A    between atoms: C4_4  and  N1_5 
REMARK    4  A    between atoms: C4_4  and  C9_15 
REMARK    5  A    between atoms: N1_5  and  C5_7 
ROOT
HETATM    1  C4  UNL     1       5.915   3.365  30.184  1.00  0.00     0.088 C 
ENDROOT
BRANCH   1   2
HETATM    2  C3  UNL     1       7.061   3.795  29.374  1.00  0.00     0.025 C 
BRANCH   2   3
HETATM    3  C2  UNL     1       7.729   2.730  28.578  1.00  0.00    -0.002 C 
HETATM    4  C1  UNL     1       9.093   2.339  29.153  1.00  0.00     0.005 C 
ENDBRANCH   2   3
ENDBRANCH   1   2
BRANCH   1   5
HETATM    5  N1  UNL     1       5.914   3.935  31.484  1.00  0.00    -0.357 N 
ATOM      6  H1  UNL     1       6.717   3.672  32.054  1.00  0.00     0.163 HD
BRANCH   5   7
HETATM    7  C5  UNL     1       5.006   4.795  32.130  1.00  0.00     0.171 C 
HETATM    8  N2  UNL     1       3.807   5.009  31.623  1.00  0.00    -0.360 N 
HETATM    9  C6  UNL     1       3.064   5.914  32.447  1.00  0.00     0.147 C 
ATOM     10  H2  UNL     1       3.458   4.587  30.763  1.00  0.00     0.162 HD
HETATM   11  C7  UNL     1       4.140   6.623  33.285  1.00  0.00     0.098 C 
HETATM   12  C8  UNL     1       3.521   6.856  34.643  1.00  0.00     0.034 C 
HETATM   13  N3  UNL     1       5.133   5.571  33.310  1.00  0.00    -0.357 N 
ATOM     14  H3  UNL     1       5.813   5.414  34.053  1.00  0.00     0.163 HD
ENDBRANCH   5   7
ENDBRANCH   1   5
BRANCH   1  15
HETATM   15  C9  UNL     1       5.839   1.844  30.337  1.00  0.00     0.012 C 
HETATM   16  C10 UNL     1       4.673   1.255  29.620  1.00  0.00     0.007 C 
HETATM   17  C11 UNL     1       3.341   1.728  30.147  1.00  0.00     0.000 C 
HETATM   18  C12 UNL     1       3.266   1.370  31.602  1.00  0.00     0.000 C 
HETATM   19  C13 UNL     1       4.505   0.723  32.131  1.00  0.00     0.005 C 
HETATM   20  C14 UNL     1       5.769   1.460  31.798  1.00  0.00    -0.013 C 
HETATM   21  C15 UNL     1       6.942   0.600  32.220  1.00  0.00     0.010 C 
ENDBRANCH   1  15
TORSDOF 5
ENDMDL
MODEL 2
REMARK VINA RESULT: -6.122686956      2.039      5.041
REMARK  5 active torsions:
REMARK  status: ('A' for Active; 'I' for Inactive)
REMARK    1  A    between atoms: C2_2  and  C3_3 
REMARK    2  A    between atoms: C3_3  and  C4_4 
REMARK    3  A    between atoms: C4_4  and  N1_5 
REMARK    4  A    between atoms: C4_4  and  C9_15 
REMARK    5  A    between atoms: N1_5  and  C5_7 
ROOT
HETATM    1  C4  UNL     1       4.834   3.563  31.418  1.00  0.00     0.088 C 
ENDROOT
BRANCH   1   2
HETATM    2  C3  UNL     1       5.688   4.637  30.899  1.00  0.00     0.025 C 
BRANCH   2   3
HETATM    3  C2  UNL     1       5.804   5.848  31.756  1.00  0.00    -0.002 C 
HETATM    4  C1  UNL     1       5.884   5.504  33.246  1.00  0.00     0.005 C 
ENDBRANCH   2   3
ENDBRANCH   1   2
BRANCH   1   5
HETATM    5  N1  UNL     1       5.556   2.381  31.722  1.00  0.00    -0.357 N 
ATOM      6  H1  UNL     1       5.156   1.832  32.483  1.00  0.00     0.163 HD
BRANCH   5   7
HETATM    7  C5  UNL     1       6.725   1.827  31.167  1.00  0.00     0.171 C 
HETATM    8  N2  UNL     1       7.707   1.414  31.944  1.00  0.00    -0.360 N 
HETATM    9  C6  UNL     1       8.786   0.891  31.161  1.00  0.00     0.147 C 
ATOM     10  H2  UNL     1       7.698   1.461  32.963  1.00  0.00     0.162 HD
HETATM   11  C7  UNL     1       8.550   1.482  29.762  1.00  0.00     0.098 C 
HETATM   12  C8  UNL     1       8.983   0.415  28.784  1.00  0.00     0.034 C 
HETATM   13  N3  UNL     1       7.112   1.623  29.818  1.00  0.00    -0.357 N 
ATOM     14  H3  UNL     1       6.480   1.583  29.019  1.00  0.00     0.163 HD
ENDBRANCH   5   7
ENDBRANCH   1   5
BRANCH   1  15
HETATM   15  C9  UNL     1       3.705   3.191  30.454  1.00  0.00     0.012 C 
HETATM   16  C10 UNL     1       2.918   4.376  30.010  1.00  0.00     0.007 C 
HETATM   17  C11 UNL     1       2.201   5.079  31.135  1.00  0.00     0.000 C 
HETATM   18  C12 UNL     1       1.285   4.087  31.791  1.00  0.00     0.000 C 
HETATM   19  C13 UNL     1       1.371   2.710  31.214  1.00  0.00     0.005 C 
HETATM   20  C14 UNL     1       2.772   2.186  31.092  1.00  0.00    -0.013 C 
HETATM   21  C15 UNL     1       2.723   0.882  30.322  1.00  0.00     0.010 C 
ENDBRANCH   1  15
TORSDOF 5
ENDMDL
MODEL 3
REMARK VINA RESULT: -6.050061799      2.481      5.469
REMARK  5 active torsions:
REMARK  status: ('A' for Active; 'I' for Inactive)
REMARK    1  A    between atoms: C2_2  and  C3_3 
REMARK    2  A    between atoms: C3_3  and  C4_4 
REMARK    3  A    between atoms: C4_4  and  N1_5 
REMARK    4  A    between atoms: C4_4  and  C9_15 
REMARK    5  A    between atoms: N1_5  and  C5_7 
ROOT
HETATM    1  C4  UNL     1       6.689   3.295  29.775  1.00  0.00     0.088 C 
ENDROOT
BRANCH   1   2
HETATM    2  C3  UNL     1       5.773   3.856  28.775  1.00  0.00     0.025 C 
BRANCH   2   3
HETATM    3  C2  UNL     1       5.177   5.178  29.108  1.00  0.00    -0.002 C 
HETATM    4  C1  UNL     1       5.200   5.468  30.611  1.00  0.00     0.005 C 
ENDBRANCH   2   3
ENDBRANCH   1   2
BRANCH   1   5
HETATM    5  N1  UNL     1       8.051   3.383  29.387  1.00  0.00    -0.357 N 
ATOM      6  H1  UNL     1       8.498   4.265  29.634  1.00  0.00     0.163 HD
BRANCH   5   7
HETATM    7  C5  UNL     1       8.897   2.475  28.723  1.00  0.00     0.171 C 
HETATM    8  N2  UNL     1       8.941   2.439  27.406  1.00  0.00    -0.360 N 
HETATM    9  C6  UNL     1       9.868   1.443  26.957  1.00  0.00     0.147 C 
ATOM     10  H2  UNL     1       8.391   3.039  26.791  1.00  0.00     0.162 HD
HETATM   11  C7  UNL     1      10.039   0.520  28.175  1.00  0.00     0.098 C 
HETATM   12  C8  UNL     1      11.481   0.073  28.156  1.00  0.00     0.034 C 
HETATM   13  N3  UNL     1       9.777   1.482  29.224  1.00  0.00    -0.357 N 
ATOM     14  H3  UNL     1      10.162   1.451  30.167  1.00  0.00     0.163 HD
ENDBRANCH   5   7
ENDBRANCH   1   5
BRANCH   1  15
HETATM   15  C9  UNL     1       6.384   1.829  30.096  1.00  0.00     0.012 C 
HETATM   16  C10 UNL     1       5.103   1.367  29.492  1.00  0.00     0.007 C 
HETATM   17  C11 UNL     1       3.891   2.100  30.011  1.00  0.00     0.000 C 
HETATM   18  C12 UNL     1       3.839   1.910  31.499  1.00  0.00     0.000 C 
HETATM   19  C13 UNL     1       4.988   1.129  32.050  1.00  0.00     0.005 C 
HETATM   20  C14 UNL     1       6.333   1.615  31.593  1.00  0.00    -0.013 C 
HETATM   21  C15 UNL     1       7.377   0.624  32.064  1.00  0.00     0.010 C 
ENDBRANCH   1  15
TORSDOF 5
ENDMDL
MODEL 4
REMARK VINA RESULT: -6.035861486      1.990      5.537
REMARK  5 active torsions:
REMARK  status: ('A' for Active; 'I' for Inactive)
REMARK    1  A    between atoms: C2_2  and  C3_3 
REMARK    2  A    between atoms: C3_3  and  C4_4 
REMARK    3  A    between atoms: C4_4  and  N1_5 
REMARK    4  A    between atoms: C4_4  and  C9_15 
REMARK    5  A    between atoms: N1_5  and  C5_7 
ROOT
HETATM    1  C4  UNL     1       4.815   3.353  29.814  1.00  0.00     0.088 C 
ENDROOT
BRANCH   1   2
HETATM    2  C3  UNL     1       4.405   1.948  29.925  1.00  0.00     0.025 C 
BRANCH   2   3
HETATM    3  C2  UNL     1       3.721   1.569  31.190  1.00  0.00    -0.002 C 
HETATM    4  C1  UNL     1       4.637   0.792  32.141  1.00  0.00     0.005 C 
ENDBRANCH   2   3
ENDBRANCH   1   2
BRANCH   1   5
HETATM    5  N1  UNL     1       6.222   3.514  29.741  1.00  0.00    -0.357 N 
ATOM      6  H1  UNL     1       6.530   4.486  29.717  1.00  0.00     0.163 HD
BRANCH   5   7
HETATM    7  C5  UNL     1       7.272   2.577  29.694  1.00  0.00     0.171 C 
HETATM    8  N2  UNL     1       7.625   1.910  30.775  1.00  0.00    -0.360 N 
HETATM    9  C6  UNL     1       8.709   1.019  30.488  1.00  0.00     0.147 C 
ATOM     10  H2  UNL     1       7.185   2.014  31.689  1.00  0.00     0.162 HD
HETATM   11  C7  UNL     1       9.313   1.575  29.188  1.00  0.00     0.098 C 
HETATM   12  C8  UNL     1       9.766   0.372  28.395  1.00  0.00     0.034 C 
HETATM   13  N3  UNL     1       8.124   2.182  28.631  1.00  0.00    -0.357 N 
ATOM     14  H3  UNL     1       7.931   2.306  27.638  1.00  0.00     0.163 HD
ENDBRANCH   5   7
ENDBRANCH   1   5
BRANCH   1  15
HETATM   15  C9  UNL     1       4.303   4.209  30.976  1.00  0.00     0.012 C 
HETATM   16  C10 UNL     1       3.092   4.998  30.614  1.00  0.00     0.007 C 
HETATM   17  C11 UNL     1       3.333   6.004  29.517  1.00  0.00     0.000 C 
HETATM   18  C12 UNL     1       4.419   6.935  29.974  1.00  0.00     0.000 C 
HETATM   19  C13 UNL     1       4.987   6.591  31.313  1.00  0.00     0.005 C 
HETATM   20  C14 UNL     1       5.384   5.151  31.457  1.00  0.00    -0.013 C 
HETATM   21  C15 UNL     1       5.753   4.906  32.906  1.00  0.00     0.010 C 
ENDBRANCH   1  15
TORSDOF 5
ENDMDL
MODEL 5
REMARK VINA RESULT: -5.988314660      2.062      5.601
REMARK  5 active torsions:
REMARK  status: ('A' for Active; 'I' for Inactive)
REMARK    1  A    between atoms: C2_2  and  C3_3 
REMARK    2  A    between atoms: C3_3  and  C4_4 
REMARK    3  A    between atoms: C4_4  and  N1_5 
REMARK    4  A    between atoms: C4_4  and  C9_15 
REMARK    5  A    between atoms: N1_5  and  C5_7 
ROOT
HETATM    1  C4  UNL     1       5.310   2.806  30.427  1.00  0.00     0.088 C 
ENDROOT
BRANCH   1   2
HETATM    2  C3  UNL     1       5.263   1.438  30.955  1.00  0.00     0.025 C 
BRANCH   2   3
HETATM    3  C2  UNL     1       5.243   1.314  32.437  1.00  0.00    -0.002 C 
HETATM    4  C1  UNL     1       6.642   1.118  33.027  1.00  0.00     0.005 C 
ENDBRANCH   2   3
ENDBRANCH   1   2
BRANCH   1   5
HETATM    5  N1  UNL     1       6.628   3.234  30.122  1.00  0.00    -0.357 N 
ATOM      6  H1  UNL     1       6.833   4.190  30.413  1.00  0.00     0.163 HD
BRANCH   5   7
HETATM    7  C5  UNL     1       7.704   2.582  29.491  1.00  0.00     0.171 C 
HETATM    8  N2  UNL     1       8.558   1.863  30.193  1.00  0.00    -0.360 N 
HETATM    9  C6  UNL     1       9.562   1.297  29.343  1.00  0.00     0.147 C 
ATOM     10  H2  UNL     1       8.509   1.729  31.203  1.00  0.00     0.162 HD
HETATM   11  C7  UNL     1       9.503   2.161  28.073  1.00  0.00     0.098 C 
HETATM   12  C8  UNL     1       9.784   1.224  26.922  1.00  0.00     0.034 C 
HETATM   13  N3  UNL     1       8.112   2.553  28.133  1.00  0.00    -0.357 N 
ATOM     14  H3  UNL     1       7.522   2.772  27.331  1.00  0.00     0.163 HD
ENDBRANCH   5   7
ENDBRANCH   1   5
BRANCH   1  15
HETATM   15  C9  UNL     1       4.692   3.829  31.384  1.00  0.00     0.012 C 
HETATM   16  C10 UNL     1       3.385   4.350  30.896  1.00  0.00     0.007 C 
HETATM   17  C11 UNL     1       3.484   5.103  29.593  1.00  0.00     0.000 C 
HETATM   18  C12 UNL     1       4.436   6.247  29.792  1.00  0.00     0.000 C 
HETATM   19  C13 UNL     1       5.049   6.293  31.154  1.00  0.00     0.005 C 
HETATM   20  C14 UNL     1       5.638   4.988  31.604  1.00  0.00    -0.013 C 
HETATM   21  C15 UNL     1       6.042   5.128  33.057  1.00  0.00     0.010 C 
ENDBRANCH   1  15
TORSDOF 5
ENDMDL
