MODEL 1
REMARK VINA RESULT: -6.932328357      0.000      0.000
REMARK  7 active torsions:
REMARK  status: ('A' for Active; 'I' for Inactive)
REMARK    1  A    between atoms: N1_2  and  N2_4 
REMARK    2  A    between atoms: N2_4  and  C2_6 
REMARK    3  A    between atoms: C3_7  and  O1_8 
REMARK    4  A    between atoms: C6_11  and  O2_12 
REMARK    5  A    between atoms: C8_14  and  C9_15 
REMARK    6  A    between atoms: C9_15  and  O3_16 
REMARK    7  A    between atoms: C9_15  and  N3_18 
ROOT
HETATM    1  C2  UNL     1      -1.847  -1.926  24.480  1.00  0.00     0.121 A 
HETATM    2  C3  UNL     1      -2.561  -1.077  23.686  1.00  0.00     0.102 A 
HETATM    3  C5  UNL     1      -2.787  -1.439  22.393  1.00  0.00     0.077 A 
HETATM    4  C6  UNL     1      -2.308  -2.629  21.889  1.00  0.00     0.088 A 
HETATM    5  C8  UNL     1      -1.563  -3.536  22.666  1.00  0.00     0.089 A 
HETATM    6  C16 UNL     1      -1.360  -3.142  23.961  1.00  0.00     0.164 A 
HETATM    7  F1  UNL     1      -0.765  -3.967  24.834  1.00  0.00    -0.202 F 
ENDROOT
BRANCH   5   8
HETATM    8  C9  UNL     1      -1.230  -4.782  22.050  1.00  0.00     0.154 C 
BRANCH   8   9
HETATM    9  O3  UNL     1      -0.157  -4.763  21.277  1.00  0.00    -0.345 OA
ATOM     10  H3  UNL     1       0.495  -5.426  21.469  1.00  0.00     0.219 HD
ENDBRANCH   8   9
BRANCH   8  11
HETATM   11  N3  UNL     1      -1.811  -6.056  22.102  1.00  0.00    -0.356 N 
HETATM   12  C10 UNL     1      -2.272  -6.606  20.808  1.00  0.00     0.156 C 
HETATM   13  C11 UNL     1      -1.508  -7.866  20.562  1.00  0.00     0.136 C 
HETATM   14  C12 UNL     1      -1.899  -8.501  19.236  1.00  0.00     0.041 C 
HETATM   15  O4  UNL     1      -1.875  -8.764  21.582  1.00  0.00    -0.378 OA
HETATM   16  C13 UNL     1      -1.414  -8.370  22.791  1.00  0.00     0.136 C 
HETATM   17  C14 UNL     1      -1.818  -9.340  23.862  1.00  0.00     0.041 C 
HETATM   18  C15 UNL     1      -1.891  -6.969  23.190  1.00  0.00     0.156 C 
ENDBRANCH   8  11
ENDBRANCH   5   8
BRANCH   4  19
HETATM   19  O2  UNL     1      -2.557  -2.976  20.555  1.00  0.00    -0.355 OA
HETATM   20  C7  UNL     1      -3.452  -2.237  19.756  1.00  0.00     0.210 C 
ENDBRANCH   4  19
BRANCH   1  21
HETATM   21  N2  UNL     1      -1.613  -1.602  25.829  1.00  0.00    -0.296 N 
ATOM     22  H2  UNL     1      -2.010  -2.218  26.538  1.00  0.00     0.187 HD
BRANCH  21  23
HETATM   23  N1  UNL     1      -0.873  -0.495  26.271  1.00  0.00    -0.321 N 
HETATM   24  C1  UNL     1       0.352  -0.320  25.896  1.00  0.00     0.139 C 
ATOM     25  H1  UNL     1      -1.308   0.182  26.898  1.00  0.00     0.185 HD
ENDBRANCH  21  23
ENDBRANCH   1  21
BRANCH   2  26
HETATM   26  O1  UNL     1      -3.030   0.124  24.228  1.00  0.00    -0.353 OA
HETATM   27  C4  UNL     1      -4.326   0.542  23.906  1.00  0.00     0.210 C 
ENDBRANCH   2  26
TORSDOF 7
ENDMDL
MODEL 2
REMARK VINA RESULT: -6.725646268      2.675      3.716
REMARK  7 active torsions:
REMARK  status: ('A' for Active; 'I' for Inactive)
REMARK    1  A    between atoms: N1_2  and  N2_4 
REMARK    2  A    between atoms: N2_4  and  C2_6 
REMARK    3  A    between atoms: C3_7  and  O1_8 
REMARK    4  A    between atoms: C6_11  and  O2_12 
REMARK    5  A    between atoms: C8_14  and  C9_15 
REMARK    6  A    between atoms: C9_15  and  O3_16 
REMARK    7  A    between atoms: C9_15  and  N3_18 
ROOT
HETATM    1  C2  UNL     1      -3.819  -1.661  21.099  1.00  0.00     0.121 A 
HETATM    2  C3  UNL     1      -3.293  -0.995  22.167  1.00  0.00     0.102 A 
HETATM    3  C5  UNL     1      -2.301  -1.600  22.879  1.00  0.00     0.077 A 
HETATM    4  C6  UNL     1      -1.837  -2.851  22.538  1.00  0.00     0.088 A 
HETATM    5  C8  UNL     1      -2.351  -3.579  21.449  1.00  0.00     0.089 A 
HETATM    6  C16 UNL     1      -3.342  -2.940  20.754  1.00  0.00     0.164 A 
HETATM    7  F1  UNL     1      -3.834  -3.477  19.629  1.00  0.00    -0.202 F 
ENDROOT
BRANCH   5   8
HETATM    8  C9  UNL     1      -1.698  -4.813  21.140  1.00  0.00     0.154 C 
BRANCH   8   9
HETATM    9  O3  UNL     1      -0.392  -4.731  20.946  1.00  0.00    -0.345 OA
ATOM     10  H3  UNL     1       0.131  -5.362  21.426  1.00  0.00     0.219 HD
ENDBRANCH   8   9
BRANCH   8  11
HETATM   11  N3  UNL     1      -2.161  -6.128  21.005  1.00  0.00    -0.356 N 
HETATM   12  C10 UNL     1      -2.442  -6.573  19.621  1.00  0.00     0.156 C 
HETATM   13  C11 UNL     1      -1.545  -7.733  19.334  1.00  0.00     0.136 C 
HETATM   14  C12 UNL     1      -1.745  -8.251  17.919  1.00  0.00     0.041 C 
HETATM   15  O4  UNL     1      -1.926  -8.762  20.217  1.00  0.00    -0.378 OA
HETATM   16  C13 UNL     1      -1.622  -8.463  21.501  1.00  0.00     0.136 C 
HETATM   17  C14 UNL     1      -2.037  -9.572  22.422  1.00  0.00     0.041 C 
HETATM   18  C15 UNL     1      -2.262  -7.157  21.983  1.00  0.00     0.156 C 
ENDBRANCH   8  11
ENDBRANCH   5   8
BRANCH   4  19
HETATM   19  O2  UNL     1      -0.815  -3.448  23.288  1.00  0.00    -0.355 OA
HETATM   20  C7  UNL     1      -0.083  -2.719  24.248  1.00  0.00     0.210 C 
ENDBRANCH   4  19
BRANCH   1  21
HETATM   21  N2  UNL     1      -4.828  -1.062  20.322  1.00  0.00    -0.296 N 
ATOM     22  H2  UNL     1      -5.785  -1.114  20.670  1.00  0.00     0.187 HD
BRANCH  21  23
HETATM   23  N1  UNL     1      -4.615  -0.399  19.104  1.00  0.00    -0.321 N 
HETATM   24  C1  UNL     1      -5.000  -0.921  17.985  1.00  0.00     0.139 C 
ATOM     25  H1  UNL     1      -4.150   0.508  19.101  1.00  0.00     0.185 HD
ENDBRANCH  21  23
ENDBRANCH   1  21
BRANCH   2  26
HETATM   26  O1  UNL     1      -3.789   0.272  22.487  1.00  0.00    -0.353 OA
HETATM   27  C4  UNL     1      -4.120   0.545  23.819  1.00  0.00     0.210 C 
ENDBRANCH   2  26
TORSDOF 7
ENDMDL
MODEL 3
REMARK VINA RESULT: -6.628842240      3.886      7.824
REMARK  7 active torsions:
REMARK  status: ('A' for Active; 'I' for Inactive)
REMARK    1  A    between atoms: N1_2  and  N2_4 
REMARK    2  A    between atoms: N2_4  and  C2_6 
REMARK    3  A    between atoms: C3_7  and  O1_8 
REMARK    4  A    between atoms: C6_11  and  O2_12 
REMARK    5  A    between atoms: C8_14  and  C9_15 
REMARK    6  A    between atoms: C9_15  and  O3_16 
REMARK    7  A    between atoms: C9_15  and  N3_18 
ROOT
HETATM    1  C2  UNL     1      -4.107  -2.321  17.231  1.00  0.00     0.121 A 
HETATM    2  C3  UNL     1      -3.834  -3.657  17.238  1.00  0.00     0.102 A 
HETATM    3  C5  UNL     1      -3.690  -4.280  18.441  1.00  0.00     0.077 A 
HETATM    4  C6  UNL     1      -3.812  -3.586  19.624  1.00  0.00     0.088 A 
HETATM    5  C8  UNL     1      -4.088  -2.206  19.670  1.00  0.00     0.089 A 
HETATM    6  C16 UNL     1      -4.231  -1.615  18.444  1.00  0.00     0.164 A 
HETATM    7  F1  UNL     1      -4.608  -0.332  18.352  1.00  0.00    -0.202 F 
ENDROOT
BRANCH   5   8
HETATM    8  C9  UNL     1      -4.302  -1.639  20.964  1.00  0.00     0.154 C 
BRANCH   8   9
HETATM    9  O3  UNL     1      -5.556  -1.643  21.384  1.00  0.00    -0.345 OA
ATOM     10  H3  UNL     1      -5.909  -0.794  21.621  1.00  0.00     0.219 HD
ENDBRANCH   8   9
BRANCH   8  11
HETATM   11  N3  UNL     1      -3.439  -1.074  21.912  1.00  0.00    -0.356 N 
HETATM   12  C10 UNL     1      -3.864   0.227  22.475  1.00  0.00     0.156 C 
HETATM   13  C11 UNL     1      -4.030   0.042  23.949  1.00  0.00     0.136 C 
HETATM   14  C12 UNL     1      -4.489   1.327  24.619  1.00  0.00     0.041 C 
HETATM   15  O4  UNL     1      -2.755  -0.268  24.459  1.00  0.00    -0.378 OA
HETATM   16  C13 UNL     1      -2.331  -1.486  24.055  1.00  0.00     0.136 C 
HETATM   17  C14 UNL     1      -0.971  -1.793  24.610  1.00  0.00     0.041 C 
HETATM   18  C15 UNL     1      -2.284  -1.631  22.529  1.00  0.00     0.156 C 
ENDBRANCH   8  11
ENDBRANCH   5   8
BRANCH   4  19
HETATM   19  O2  UNL     1      -3.659  -4.253  20.847  1.00  0.00    -0.355 OA
HETATM   20  C7  UNL     1      -2.534  -5.061  21.110  1.00  0.00     0.210 C 
ENDBRANCH   4  19
BRANCH   1  21
HETATM   21  N2  UNL     1      -4.288  -1.643  16.011  1.00  0.00    -0.296 N 
ATOM     22  H2  UNL     1      -3.831  -0.738  15.901  1.00  0.00     0.187 HD
BRANCH  21  23
HETATM   23  N1  UNL     1      -5.051  -2.120  14.934  1.00  0.00    -0.321 N 
HETATM   24  C1  UNL     1      -4.579  -2.118  13.730  1.00  0.00     0.139 C 
ATOM     25  H1  UNL     1      -5.992  -2.475  15.103  1.00  0.00     0.185 HD
ENDBRANCH  21  23
ENDBRANCH   1  21
BRANCH   2  26
HETATM   26  O1  UNL     1      -3.714  -4.330  16.018  1.00  0.00    -0.353 OA
HETATM   27  C4  UNL     1      -3.025  -5.548  15.992  1.00  0.00     0.210 C 
ENDBRANCH   2  26
TORSDOF 7
ENDMDL
MODEL 4
REMARK VINA RESULT: -6.580877928      2.455      6.441
REMARK  7 active torsions:
REMARK  status: ('A' for Active; 'I' for Inactive)
REMARK    1  A    between atoms: N1_2  and  N2_4 
REMARK    2  A    between atoms: N2_4  and  C2_6 
REMARK    3  A    between atoms: C3_7  and  O1_8 
REMARK    4  A    between atoms: C6_11  and  O2_12 
REMARK    5  A    between atoms: C8_14  and  C9_15 
REMARK    6  A    between atoms: C9_15  and  O3_16 
REMARK    7  A    between atoms: C9_15  and  N3_18 
ROOT
HETATM    1  C2  UNL     1      -1.116  -5.068  21.038  1.00  0.00     0.121 A 
HETATM    2  C3  UNL     1      -1.652  -5.587  19.897  1.00  0.00     0.102 A 
HETATM    3  C5  UNL     1      -2.625  -4.877  19.261  1.00  0.00     0.077 A 
HETATM    4  C6  UNL     1      -3.064  -3.666  19.751  1.00  0.00     0.088 A 
HETATM    5  C8  UNL     1      -2.546  -3.092  20.927  1.00  0.00     0.089 A 
HETATM    6  C16 UNL     1      -1.567  -3.830  21.536  1.00  0.00     0.164 A 
HETATM    7  F1  UNL     1      -0.913  -3.340  22.599  1.00  0.00    -0.202 F 
ENDROOT
BRANCH   5   8
HETATM    8  C9  UNL     1      -3.010  -1.781  21.256  1.00  0.00     0.154 C 
BRANCH   8   9
HETATM    9  O3  UNL     1      -2.553  -0.808  20.485  1.00  0.00    -0.345 OA
ATOM     10  H3  UNL     1      -3.083  -0.020  20.468  1.00  0.00     0.219 HD
ENDBRANCH   8   9
BRANCH   8  11
HETATM   11  N3  UNL     1      -3.877  -1.298  22.244  1.00  0.00    -0.356 N 
HETATM   12  C10 UNL     1      -4.682  -2.319  22.951  1.00  0.00     0.156 C 
HETATM   13  C11 UNL     1      -4.318  -2.252  24.398  1.00  0.00     0.136 C 
HETATM   14  C12 UNL     1      -5.082  -3.285  25.210  1.00  0.00     0.041 C 
HETATM   15  O4  UNL     1      -4.718  -0.980  24.852  1.00  0.00    -0.378 OA
HETATM   16  C13 UNL     1      -3.968   0.008  24.313  1.00  0.00     0.136 C 
HETATM   17  C14 UNL     1      -4.413   1.352  24.810  1.00  0.00     0.041 C 
HETATM   18  C15 UNL     1      -3.996   0.015  22.780  1.00  0.00     0.156 C 
ENDBRANCH   8  11
ENDBRANCH   5   8
BRANCH   4  19
HETATM   19  O2  UNL     1      -4.066  -2.958  19.075  1.00  0.00    -0.355 OA
HETATM   20  C7  UNL     1      -3.968  -2.677  17.697  1.00  0.00     0.210 C 
ENDBRANCH   4  19
BRANCH   1  21
HETATM   21  N2  UNL     1      -0.091  -5.757  21.713  1.00  0.00    -0.296 N 
ATOM     22  H2  UNL     1       0.723  -5.219  22.011  1.00  0.00     0.187 HD
BRANCH  21  23
HETATM   23  N1  UNL     1      -0.104  -7.129  22.007  1.00  0.00    -0.321 N 
HETATM   24  C1  UNL     1      -0.190  -7.548  23.226  1.00  0.00     0.139 C 
ATOM     25  H1  UNL     1      -0.046  -7.805  21.246  1.00  0.00     0.185 HD
ENDBRANCH  21  23
ENDBRANCH   1  21
BRANCH   2  26
HETATM   26  O1  UNL     1      -1.186  -6.818  19.428  1.00  0.00    -0.353 OA
HETATM   27  C4  UNL     1      -1.962  -7.518  18.497  1.00  0.00     0.210 C 
ENDBRANCH   2  26
TORSDOF 7
ENDMDL
MODEL 5
REMARK VINA RESULT: -6.556154031      0.995      1.746
REMARK  7 active torsions:
REMARK  status: ('A' for Active; 'I' for Inactive)
REMARK    1  A    between atoms: N1_2  and  N2_4 
REMARK    2  A    between atoms: N2_4  and  C2_6 
REMARK    3  A    between atoms: C3_7  and  O1_8 
REMARK    4  A    between atoms: C6_11  and  O2_12 
REMARK    5  A    between atoms: C8_14  and  C9_15 
REMARK    6  A    between atoms: C9_15  and  O3_16 
REMARK    7  A    between atoms: C9_15  and  N3_18 
ROOT
HETATM    1  C2  UNL     1      -1.741  -1.889  24.546  1.00  0.00     0.121 A 
HETATM    2  C3  UNL     1      -2.505  -1.117  23.723  1.00  0.00     0.102 A 
HETATM    3  C5  UNL     1      -2.728  -1.553  22.452  1.00  0.00     0.077 A 
HETATM    4  C6  UNL     1      -2.196  -2.741  22.000  1.00  0.00     0.088 A 
HETATM    5  C8  UNL     1      -1.398  -3.570  22.809  1.00  0.00     0.089 A 
HETATM    6  C16 UNL     1      -1.199  -3.103  24.080  1.00  0.00     0.164 A 
HETATM    7  F1  UNL     1      -0.553  -3.855  24.984  1.00  0.00    -0.202 F 
ENDROOT
BRANCH   5   8
HETATM    8  C9  UNL     1      -1.010  -4.827  22.249  1.00  0.00     0.154 C 
BRANCH   8   9
HETATM    9  O3  UNL     1      -0.002  -4.780  21.394  1.00  0.00    -0.345 OA
ATOM     10  H3  UNL     1      -0.169  -5.174  20.546  1.00  0.00     0.219 HD
ENDBRANCH   8   9
BRANCH   8  11
HETATM   11  N3  UNL     1      -1.479  -6.135  22.429  1.00  0.00    -0.356 N 
HETATM   12  C10 UNL     1      -2.450  -6.325  23.529  1.00  0.00     0.156 C 
HETATM   13  C11 UNL     1      -3.719  -6.831  22.922  1.00  0.00     0.136 C 
HETATM   14  C12 UNL     1      -4.793  -7.039  23.977  1.00  0.00     0.041 C 
HETATM   15  O4  UNL     1      -3.423  -8.092  22.368  1.00  0.00    -0.378 OA
HETATM   16  C13 UNL     1      -2.602  -7.993  21.298  1.00  0.00     0.136 C 
HETATM   17  C14 UNL     1      -2.299  -9.347  20.726  1.00  0.00     0.041 C 
HETATM   18  C15 UNL     1      -1.279  -7.287  21.617  1.00  0.00     0.156 C 
ENDBRANCH   8  11
ENDBRANCH   5   8
BRANCH   4  19
HETATM   19  O2  UNL     1      -2.443  -3.165  20.687  1.00  0.00    -0.355 OA
HETATM   20  C7  UNL     1      -3.409  -2.533  19.878  1.00  0.00     0.210 C 
ENDBRANCH   4  19
BRANCH   1  21
HETATM   21  N2  UNL     1      -1.507  -1.488  25.875  1.00  0.00    -0.296 N 
ATOM     22  H2  UNL     1      -1.925  -2.048  26.618  1.00  0.00     0.187 HD
BRANCH  21  23
HETATM   23  N1  UNL     1      -0.741  -0.376  26.254  1.00  0.00    -0.321 N 
HETATM   24  C1  UNL     1       0.501  -0.273  25.909  1.00  0.00     0.139 C 
ATOM     25  H1  UNL     1      -1.170   0.364  26.810  1.00  0.00     0.185 HD
ENDBRANCH  21  23
ENDBRANCH   1  21
BRANCH   2  26
HETATM   26  O1  UNL     1      -3.027   0.084  24.213  1.00  0.00    -0.353 OA
HETATM   27  C4  UNL     1      -4.369   0.386  23.954  1.00  0.00     0.210 C 
ENDBRANCH   2  26
TORSDOF 7
ENDMDL
