MODEL 1
REMARK VINA RESULT: -6.427045155      0.000      0.000
REMARK  7 active torsions:
REMARK  status: ('A' for Active; 'I' for Inactive)
REMARK    1  A    between atoms: C2_2  and  C3_3 
REMARK    2  A    between atoms: C3_3  and  O1_4 
REMARK    3  A    between atoms: O1_4  and  C4_5 
REMARK    4  A    between atoms: C4_5  and  O3_7 
REMARK    5  A    between atoms: O3_7  and  C5_8 
REMARK    6  A    between atoms: C8_11  and  C9_12 
REMARK    7  A    between atoms: C12_18  and  N2_19 
ROOT
HETATM    1  C5  UNL     1      -3.611  -5.569  14.742  1.00  0.00     0.216 C 
HETATM    2  C6  UNL     1      -3.221  -5.473  16.168  1.00  0.00     0.045 A 
HETATM    3  C7  UNL     1      -2.279  -5.974  17.042  1.00  0.00     0.045 A 
HETATM    4  C8  UNL     1      -2.528  -5.422  18.285  1.00  0.00     0.038 A 
HETATM    5  C10 UNL     1      -3.624  -4.604  18.098  1.00  0.00     0.095 A 
HETATM    6 BR1  UNL     1      -4.410  -3.573  19.525  1.00  0.00    -0.030 Br
HETATM    7  N1  UNL     1      -4.020  -4.651  16.831  1.00  0.00    -0.339 N 
HETATM    8  C11 UNL     1      -5.044  -4.083  15.961  1.00  0.00     0.165 C 
HETATM    9  C12 UNL     1      -4.568  -4.410  14.566  1.00  0.00     0.237 C 
ENDROOT
BRANCH   1  10
HETATM   10  O3  UNL     1      -2.502  -5.487  13.868  1.00  0.00    -0.284 OA
BRANCH  10  11
HETATM   11  C4  UNL     1      -1.940  -6.627  13.288  1.00  0.00     0.407 C 
HETATM   12  O2  UNL     1      -1.804  -7.650  14.017  1.00  0.00    -0.229 OA
BRANCH  11  13
HETATM   13  O1  UNL     1      -1.530  -6.704  11.984  1.00  0.00    -0.298 OA
BRANCH  13  14
HETATM   14  C3  UNL     1      -0.214  -6.307  11.572  1.00  0.00     0.180 C 
BRANCH  14  15
HETATM   15  C2  UNL     1       0.374  -7.269  10.596  1.00  0.00     0.022 C 
HETATM   16  C1  UNL     1       0.758  -8.525  11.334  1.00  0.00     0.007 C 
ENDBRANCH  14  15
ENDBRANCH  13  14
ENDBRANCH  11  13
ENDBRANCH  10  11
ENDBRANCH   1  10
BRANCH   9  17
HETATM   17  N2  UNL     1      -3.841  -3.293  13.976  1.00  0.00    -0.071 N 
ATOM     18  H23 UNL     1      -3.285  -2.783  14.661  1.00  0.00     0.274 HD
ATOM     19  H22 UNL     1      -3.077  -3.599  13.374  1.00  0.00     0.274 HD
ATOM     20  H21 UNL     1      -4.508  -2.693  13.489  1.00  0.00     0.274 HD
ENDBRANCH   9  17
BRANCH   4  21
HETATM   21  C9  UNL     1      -1.796  -5.649  19.536  1.00  0.00     0.272 C 
HETATM   22  O4  UNL     1      -0.936  -6.559  19.569  1.00  0.00    -0.301 OA
ENDBRANCH   4  21
TORSDOF 7
ENDMDL
MODEL 2
REMARK VINA RESULT: -6.125183477      2.092      3.411
REMARK  7 active torsions:
REMARK  status: ('A' for Active; 'I' for Inactive)
REMARK    1  A    between atoms: C2_2  and  C3_3 
REMARK    2  A    between atoms: C3_3  and  O1_4 
REMARK    3  A    between atoms: O1_4  and  C4_5 
REMARK    4  A    between atoms: C4_5  and  O3_7 
REMARK    5  A    between atoms: O3_7  and  C5_8 
REMARK    6  A    between atoms: C8_11  and  C9_12 
REMARK    7  A    between atoms: C12_18  and  N2_19 
ROOT
HETATM    1  C5  UNL     1      -2.571  -5.701  16.545  1.00  0.00     0.216 C 
HETATM    2  C6  UNL     1      -3.453  -4.583  16.955  1.00  0.00     0.045 A 
HETATM    3  C7  UNL     1      -4.180  -3.552  16.398  1.00  0.00     0.045 A 
HETATM    4  C8  UNL     1      -4.794  -2.869  17.431  1.00  0.00     0.038 A 
HETATM    5  C10 UNL     1      -4.402  -3.532  18.578  1.00  0.00     0.095 A 
HETATM    6 BR1  UNL     1      -4.975  -2.995  20.338  1.00  0.00    -0.030 Br
HETATM    7  N1  UNL     1      -3.605  -4.548  18.270  1.00  0.00    -0.339 N 
HETATM    8  C11 UNL     1      -2.859  -5.617  18.924  1.00  0.00     0.165 C 
HETATM    9  C12 UNL     1      -2.480  -6.547  17.796  1.00  0.00     0.237 C 
ENDROOT
BRANCH   1  10
HETATM   10  O3  UNL     1      -3.084  -6.423  15.442  1.00  0.00    -0.284 OA
BRANCH  10  11
HETATM   11  C4  UNL     1      -2.547  -6.285  14.161  1.00  0.00     0.407 C 
HETATM   12  O2  UNL     1      -2.674  -5.165  13.589  1.00  0.00    -0.229 OA
BRANCH  11  13
HETATM   13  O1  UNL     1      -1.893  -7.283  13.488  1.00  0.00    -0.298 OA
BRANCH  13  14
HETATM   14  C3  UNL     1      -1.007  -7.013  12.392  1.00  0.00     0.180 C 
BRANCH  14  15
HETATM   15  C2  UNL     1      -0.809  -8.214  11.532  1.00  0.00     0.022 C 
HETATM   16  C1  UNL     1       0.657  -8.334  11.208  1.00  0.00     0.007 C 
ENDBRANCH  14  15
ENDBRANCH  13  14
ENDBRANCH  11  13
ENDBRANCH  10  11
ENDBRANCH   1  10
BRANCH   9  17
HETATM   17  N2  UNL     1      -3.422  -7.653  17.677  1.00  0.00    -0.071 N 
ATOM     18  H23 UNL     1      -4.390  -7.358  17.804  1.00  0.00     0.274 HD
ATOM     19  H22 UNL     1      -3.504  -7.996  16.720  1.00  0.00     0.274 HD
ATOM     20  H21 UNL     1      -3.148  -8.385  18.333  1.00  0.00     0.274 HD
ENDBRANCH   9  17
BRANCH   4  21
HETATM   21  C9  UNL     1      -5.671  -1.697  17.343  1.00  0.00     0.272 C 
HETATM   22  O4  UNL     1      -6.839  -1.855  16.919  1.00  0.00    -0.301 OA
ENDBRANCH   4  21
TORSDOF 7
ENDMDL
MODEL 3
REMARK VINA RESULT: -6.067450617      1.241      1.286
REMARK  7 active torsions:
REMARK  status: ('A' for Active; 'I' for Inactive)
REMARK    1  A    between atoms: C2_2  and  C3_3 
REMARK    2  A    between atoms: C3_3  and  O1_4 
REMARK    3  A    between atoms: O1_4  and  C4_5 
REMARK    4  A    between atoms: C4_5  and  O3_7 
REMARK    5  A    between atoms: O3_7  and  C5_8 
REMARK    6  A    between atoms: C8_11  and  C9_12 
REMARK    7  A    between atoms: C12_18  and  N2_19 
ROOT
HETATM    1  C5  UNL     1      -3.916  -4.961  14.542  1.00  0.00     0.216 C 
HETATM    2  C6  UNL     1      -3.760  -4.693  15.991  1.00  0.00     0.045 A 
HETATM    3  C7  UNL     1      -3.019  -5.121  17.072  1.00  0.00     0.045 A 
HETATM    4  C8  UNL     1      -3.424  -4.390  18.172  1.00  0.00     0.038 A 
HETATM    5  C10 UNL     1      -4.405  -3.543  17.695  1.00  0.00     0.095 A 
HETATM    6 BR1  UNL     1      -5.330  -2.282  18.821  1.00  0.00    -0.030 Br
HETATM    7  N1  UNL     1      -4.588  -3.741  16.395  1.00  0.00    -0.339 N 
HETATM    8  C11 UNL     1      -5.406  -3.241  15.295  1.00  0.00     0.165 C 
HETATM    9  C12 UNL     1      -4.734  -3.784  14.057  1.00  0.00     0.237 C 
ENDROOT
BRANCH   1  10
HETATM   10  O3  UNL     1      -2.674  -5.066  13.872  1.00  0.00    -0.284 OA
BRANCH  10  11
HETATM   11  C4  UNL     1      -2.123  -6.304  13.538  1.00  0.00     0.407 C 
HETATM   12  O2  UNL     1      -2.200  -7.231  14.394  1.00  0.00    -0.229 OA
BRANCH  11  13
HETATM   13  O1  UNL     1      -1.507  -6.577  12.345  1.00  0.00    -0.298 OA
BRANCH  13  14
HETATM   14  C3  UNL     1      -1.454  -7.902  11.798  1.00  0.00     0.180 C 
BRANCH  14  15
HETATM   15  C2  UNL     1      -0.476  -7.999  10.677  1.00  0.00     0.022 C 
HETATM   16  C1  UNL     1       0.864  -8.392  11.244  1.00  0.00     0.007 C 
ENDBRANCH  14  15
ENDBRANCH  13  14
ENDBRANCH  11  13
ENDBRANCH  10  11
ENDBRANCH   1  10
BRANCH   9  17
HETATM   17  N2  UNL     1      -3.832  -2.803  13.466  1.00  0.00    -0.071 N 
ATOM     18  H23 UNL     1      -2.979  -2.679  14.011  1.00  0.00     0.274 HD
ATOM     19  H22 UNL     1      -3.401  -3.138  12.605  1.00  0.00     0.274 HD
ATOM     20  H21 UNL     1      -4.343  -1.930  13.335  1.00  0.00     0.274 HD
ENDBRANCH   9  17
BRANCH   4  21
HETATM   21  C9  UNL     1      -2.929  -4.484  19.550  1.00  0.00     0.272 C 
HETATM   22  O4  UNL     1      -3.525  -5.242  20.348  1.00  0.00    -0.301 OA
ENDBRANCH   4  21
TORSDOF 7
ENDMDL
MODEL 4
REMARK VINA RESULT: -6.047483495      1.951      3.336
REMARK  7 active torsions:
REMARK  status: ('A' for Active; 'I' for Inactive)
REMARK    1  A    between atoms: C2_2  and  C3_3 
REMARK    2  A    between atoms: C3_3  and  O1_4 
REMARK    3  A    between atoms: O1_4  and  C4_5 
REMARK    4  A    between atoms: C4_5  and  O3_7 
REMARK    5  A    between atoms: O3_7  and  C5_8 
REMARK    6  A    between atoms: C8_11  and  C9_12 
REMARK    7  A    between atoms: C12_18  and  N2_19 
ROOT
HETATM    1  C5  UNL     1      -2.343  -6.564  15.489  1.00  0.00     0.216 C 
HETATM    2  C6  UNL     1      -3.275  -5.452  15.787  1.00  0.00     0.045 A 
HETATM    3  C7  UNL     1      -3.857  -4.364  15.169  1.00  0.00     0.045 A 
HETATM    4  C8  UNL     1      -4.662  -3.736  16.100  1.00  0.00     0.038 A 
HETATM    5  C10 UNL     1      -4.525  -4.485  17.252  1.00  0.00     0.095 A 
HETATM    6 BR1  UNL     1      -5.442  -4.051  18.891  1.00  0.00    -0.030 Br
HETATM    7  N1  UNL     1      -3.696  -5.500  17.042  1.00  0.00    -0.339 N 
HETATM    8  C11 UNL     1      -3.116  -6.632  17.757  1.00  0.00     0.165 C 
HETATM    9  C12 UNL     1      -2.526  -7.495  16.668  1.00  0.00     0.237 C 
ENDROOT
BRANCH   1  10
HETATM   10  O3  UNL     1      -2.627  -7.196  14.255  1.00  0.00    -0.284 OA
BRANCH  10  11
HETATM   11  C4  UNL     1      -1.801  -7.034  13.141  1.00  0.00     0.407 C 
HETATM   12  O2  UNL     1      -1.620  -5.859  12.711  1.00  0.00    -0.229 OA
BRANCH  11  13
HETATM   13  O1  UNL     1      -1.177  -8.064  12.489  1.00  0.00    -0.298 OA
BRANCH  13  14
HETATM   14  C3  UNL     1      -1.302  -8.259  11.073  1.00  0.00     0.180 C 
BRANCH  14  15
HETATM   15  C2  UNL     1       0.003  -8.083  10.374  1.00  0.00     0.022 C 
HETATM   16  C1  UNL     1       1.111  -8.432  11.334  1.00  0.00     0.007 C 
ENDBRANCH  14  15
ENDBRANCH  13  14
ENDBRANCH  11  13
ENDBRANCH  10  11
ENDBRANCH   1  10
BRANCH   9  17
HETATM   17  N2  UNL     1      -3.438  -8.563  16.279  1.00  0.00    -0.071 N 
ATOM     18  H23 UNL     1      -4.325  -8.208  15.920  1.00  0.00     0.274 HD
ATOM     19  H22 UNL     1      -3.132  -9.052  15.439  1.00  0.00     0.274 HD
ATOM     20  H21 UNL     1      -3.562  -9.190  17.074  1.00  0.00     0.274 HD
ENDBRANCH   9  17
BRANCH   4  21
HETATM   21  C9  UNL     1      -5.485  -2.535  15.917  1.00  0.00     0.272 C 
HETATM   22  O4  UNL     1      -6.550  -2.635  15.268  1.00  0.00    -0.301 OA
ENDBRANCH   4  21
TORSDOF 7
ENDMDL
MODEL 5
REMARK VINA RESULT: -5.922989388      5.675      9.842
REMARK  7 active torsions:
REMARK  status: ('A' for Active; 'I' for Inactive)
REMARK    1  A    between atoms: C2_2  and  C3_3 
REMARK    2  A    between atoms: C3_3  and  O1_4 
REMARK    3  A    between atoms: O1_4  and  C4_5 
REMARK    4  A    between atoms: C4_5  and  O3_7 
REMARK    5  A    between atoms: O3_7  and  C5_8 
REMARK    6  A    between atoms: C8_11  and  C9_12 
REMARK    7  A    between atoms: C12_18  and  N2_19 
ROOT
HETATM    1  C5  UNL     1      -1.623  -3.386  23.622  1.00  0.00     0.216 C 
HETATM    2  C6  UNL     1      -1.969  -3.994  22.316  1.00  0.00     0.045 A 
HETATM    3  C7  UNL     1      -2.758  -3.748  21.212  1.00  0.00     0.045 A 
HETATM    4  C8  UNL     1      -2.577  -4.796  20.329  1.00  0.00     0.038 A 
HETATM    5  C10 UNL     1      -1.676  -5.636  20.952  1.00  0.00     0.095 A 
HETATM    6 BR1  UNL     1      -1.059  -7.278  20.155  1.00  0.00    -0.030 Br
HETATM    7  N1  UNL     1      -1.328  -5.138  22.134  1.00  0.00    -0.339 N 
HETATM    8  C11 UNL     1      -0.472  -5.460  23.270  1.00  0.00     0.165 C 
HETATM    9  C12 UNL     1      -0.407  -4.174  24.060  1.00  0.00     0.237 C 
ENDROOT
BRANCH   1  10
HETATM   10  O3  UNL     1      -1.357  -1.999  23.524  1.00  0.00    -0.284 OA
BRANCH  10  11
HETATM   11  C4  UNL     1      -1.540  -1.139  24.608  1.00  0.00     0.407 C 
HETATM   12  O2  UNL     1      -0.508  -0.719  25.205  1.00  0.00    -0.229 OA
BRANCH  11  13
HETATM   13  O1  UNL     1      -2.764  -0.722  25.062  1.00  0.00    -0.298 OA
BRANCH  13  14
HETATM   14  C3  UNL     1      -3.923  -0.694  24.218  1.00  0.00     0.180 C 
BRANCH  14  15
HETATM   15  C2  UNL     1      -3.867   0.429  23.239  1.00  0.00     0.022 C 
HETATM   16  C1  UNL     1      -3.892  -0.147  21.847  1.00  0.00     0.007 C 
ENDBRANCH  14  15
ENDBRANCH  13  14
ENDBRANCH  11  13
ENDBRANCH  10  11
ENDBRANCH   1  10
BRANCH   9  17
HETATM   17  N2  UNL     1       0.787  -3.407  23.731  1.00  0.00    -0.071 N 
ATOM     18  H23 UNL     1       1.631  -3.979  23.727  1.00  0.00     0.274 HD
ATOM     19  H22 UNL     1       0.809  -3.117  22.754  1.00  0.00     0.274 HD
ATOM     20  H21 UNL     1       0.854  -2.618  24.375  1.00  0.00     0.274 HD
ENDBRANCH   9  17
BRANCH   4  21
HETATM   21  C9  UNL     1      -3.201  -4.986  19.014  1.00  0.00     0.272 C 
HETATM   22  O4  UNL     1      -3.427  -3.977  18.309  1.00  0.00    -0.301 OA
ENDBRANCH   4  21
TORSDOF 7
ENDMDL
