MODEL 1
REMARK VINA RESULT: -8.147835767      0.000      0.000
REMARK  5 active torsions:
REMARK  status: ('A' for Active; 'I' for Inactive)
REMARK    1  A    between atoms: C2_2  and  C4_4 
REMARK    2  A    between atoms: C4_4  and  C5_5 
REMARK    3  A    between atoms: N2_10  and  C8_11 
REMARK    4  A    between atoms: N3_14  and  C11_15 
REMARK    5  A    between atoms: C11_15  and  C12_16 
ROOT
HETATM    1  C8  UNL     1      25.497   8.879  38.774  1.00  0.00     0.229 C 
HETATM    2  C9  UNL     1      25.957   7.514  38.459  1.00  0.00     0.080 C 
HETATM    3  C10 UNL     1      25.397   6.848  37.243  1.00  0.00     0.065 C 
HETATM    4  N3  UNL     1      24.324   7.460  36.611  1.00  0.00    -0.368 N 
HETATM    5  C17 UNL     1      24.273   8.871  36.551  1.00  0.00     0.129 C 
HETATM    6  C18 UNL     1      24.401   9.432  37.910  1.00  0.00     0.056 C 
ENDROOT
BRANCH   1   7
HETATM    7  N2  UNL     1      26.583   9.810  38.962  1.00  0.00     0.093 N 
HETATM    8  C7  UNL     1      26.502  10.670  40.072  1.00  0.00     0.274 C 
HETATM    9  C6  UNL     1      27.737  11.429  40.354  1.00  0.00     0.049 C 
HETATM   10  C4  UNL     1      28.776  11.500  39.284  1.00  0.00     0.044 C 
HETATM   11  C20 UNL     1      28.798  10.335  38.344  1.00  0.00     0.049 C 
HETATM   12  C19 UNL     1      27.875   9.209  38.794  1.00  0.00     0.274 C 
BRANCH  10  13
HETATM   13  C2  UNL     1      30.130  11.633  39.989  1.00  0.00    -0.005 C 
HETATM   14  C1  UNL     1      31.169  10.745  39.386  1.00  0.00     0.011 C 
HETATM   15  C3  UNL     1      30.048  11.415  41.451  1.00  0.00     0.011 C 
ENDBRANCH  10  13
BRANCH  10  16
HETATM   16  C5  UNL     1      28.619  12.740  38.477  1.00  0.00     0.240 C 
HETATM   17  N1  UNL     1      27.497  12.939  37.637  1.00  0.00    -0.061 NA
HETATM   18  O1  UNL     1      29.467  13.664  38.498  1.00  0.00    -0.276 OA
ENDBRANCH  10  16
ENDBRANCH   1   7
BRANCH   4  19
HETATM   19  C11 UNL     1      23.219   6.739  36.161  1.00  0.00     0.121 C 
BRANCH  19  20
HETATM   20  C12 UNL     1      23.549   5.669  35.187  1.00  0.00     0.072 A 
HETATM   21  N4  UNL     1      24.450   4.719  35.470  1.00  0.00    -0.360 N 
HETATM   22  C13 UNL     1      24.781   3.727  34.607  1.00  0.00     0.134 A 
ATOM     23  H4  UNL     1      24.910   4.743  36.380  1.00  0.00     0.165 HD
HETATM   24  C14 UNL     1      24.200   3.628  33.357  1.00  0.00     0.172 A 
HETATM   25  F1  UNL     1      24.515   2.654  32.491  1.00  0.00    -0.201 F 
HETATM   26  C15 UNL     1      23.257   4.608  33.041  1.00  0.00     0.180 A 
HETATM   27  F2  UNL     1      22.635   4.590  31.840  1.00  0.00    -0.201 F 
HETATM   28  C16 UNL     1      22.947   5.599  33.941  1.00  0.00     0.103 A 
HETATM   29 CL1  UNL     1      21.758   6.794  33.476  1.00  0.00    -0.078 Cl
ENDBRANCH  19  20
ENDBRANCH   4  19
TORSDOF 5
ENDMDL
MODEL 2
REMARK VINA RESULT: -7.955984457      1.300      1.353
REMARK  5 active torsions:
REMARK  status: ('A' for Active; 'I' for Inactive)
REMARK    1  A    between atoms: C2_2  and  C4_4 
REMARK    2  A    between atoms: C4_4  and  C5_5 
REMARK    3  A    between atoms: N2_10  and  C8_11 
REMARK    4  A    between atoms: N3_14  and  C11_15 
REMARK    5  A    between atoms: C11_15  and  C12_16 
ROOT
HETATM    1  C8  UNL     1      25.260   9.134  38.587  1.00  0.00     0.229 C 
HETATM    2  C9  UNL     1      25.598   7.722  38.330  1.00  0.00     0.080 C 
HETATM    3  C10 UNL     1      25.058   7.086  37.089  1.00  0.00     0.065 C 
HETATM    4  N3  UNL     1      24.100   7.788  36.370  1.00  0.00    -0.368 N 
HETATM    5  C17 UNL     1      24.199   9.195  36.282  1.00  0.00     0.129 C 
HETATM    6  C18 UNL     1      24.290   9.774  37.637  1.00  0.00     0.056 C 
ENDROOT
BRANCH   1   7
HETATM    7  N2  UNL     1      26.420   9.954  38.836  1.00  0.00     0.093 N 
HETATM    8  C7  UNL     1      26.377  10.798  39.960  1.00  0.00     0.274 C 
HETATM    9  C6  UNL     1      27.667  11.431  40.305  1.00  0.00     0.049 C 
HETATM   10  C4  UNL     1      28.749  11.422  39.276  1.00  0.00     0.044 C 
HETATM   11  C20 UNL     1      28.698  10.277  38.312  1.00  0.00     0.049 C 
HETATM   12  C19 UNL     1      27.656   9.236  38.703  1.00  0.00     0.274 C 
BRANCH  10  13
HETATM   13  C2  UNL     1      30.081  11.413  40.034  1.00  0.00    -0.005 C 
HETATM   14  C1  UNL     1      31.115  10.583  39.346  1.00  0.00     0.011 C 
HETATM   15  C3  UNL     1      29.941  10.999  41.448  1.00  0.00     0.011 C 
ENDBRANCH  10  13
BRANCH  10  16
HETATM   16  C5  UNL     1      28.742  12.685  38.491  1.00  0.00     0.240 C 
HETATM   17  N1  UNL     1      27.730  12.959  37.539  1.00  0.00    -0.061 NA
HETATM   18  O1  UNL     1      29.625  13.565  38.630  1.00  0.00    -0.276 OA
ENDBRANCH  10  16
ENDBRANCH   1   7
BRANCH   4  19
HETATM   19  C11 UNL     1      22.960   7.172  35.856  1.00  0.00     0.121 C 
BRANCH  19  20
HETATM   20  C12 UNL     1      23.192   5.798  35.345  1.00  0.00     0.072 A 
HETATM   21  N4  UNL     1      24.247   5.508  34.573  1.00  0.00    -0.360 N 
HETATM   22  C13 UNL     1      24.493   4.266  34.085  1.00  0.00     0.134 A 
ATOM     23  H4  UNL     1      24.899   6.257  34.340  1.00  0.00     0.165 HD
HETATM   24  C14 UNL     1      23.656   3.200  34.358  1.00  0.00     0.172 A 
HETATM   25  F1  UNL     1      23.884   1.967  33.884  1.00  0.00    -0.201 F 
HETATM   26  C15 UNL     1      22.550   3.481  35.162  1.00  0.00     0.180 A 
HETATM   27  F2  UNL     1      21.677   2.499  35.483  1.00  0.00    -0.201 F 
HETATM   28  C16 UNL     1      22.333   4.751  35.638  1.00  0.00     0.103 A 
HETATM   29 CL1  UNL     1      20.926   5.029  36.638  1.00  0.00    -0.078 Cl
ENDBRANCH  19  20
ENDBRANCH   4  19
TORSDOF 5
ENDMDL
MODEL 3
REMARK VINA RESULT: -7.930967617      2.387      2.779
REMARK  5 active torsions:
REMARK  status: ('A' for Active; 'I' for Inactive)
REMARK    1  A    between atoms: C2_2  and  C4_4 
REMARK    2  A    between atoms: C4_4  and  C5_5 
REMARK    3  A    between atoms: N2_10  and  C8_11 
REMARK    4  A    between atoms: N3_14  and  C11_15 
REMARK    5  A    between atoms: C11_15  and  C12_16 
ROOT
HETATM    1  C8  UNL     1      25.558   8.705  38.832  1.00  0.00     0.229 C 
HETATM    2  C9  UNL     1      26.043   7.435  38.260  1.00  0.00     0.080 C 
HETATM    3  C10 UNL     1      25.350   6.902  37.047  1.00  0.00     0.065 C 
HETATM    4  N3  UNL     1      24.163   7.511  36.664  1.00  0.00    -0.368 N 
HETATM    5  C17 UNL     1      24.024   8.909  36.820  1.00  0.00     0.129 C 
HETATM    6  C18 UNL     1      24.318   9.286  38.216  1.00  0.00     0.056 C 
ENDROOT
BRANCH   1   7
HETATM    7  N2  UNL     1      26.605   9.681  39.004  1.00  0.00     0.093 N 
HETATM    8  C7  UNL     1      26.507  10.533  40.119  1.00  0.00     0.274 C 
HETATM    9  C6  UNL     1      27.713  11.345  40.383  1.00  0.00     0.049 C 
HETATM   10  C4  UNL     1      28.729  11.464  39.294  1.00  0.00     0.044 C 
HETATM   11  C20 UNL     1      28.784  10.304  38.350  1.00  0.00     0.049 C 
HETATM   12  C19 UNL     1      27.919   9.138  38.811  1.00  0.00     0.274 C 
BRANCH  10  13
HETATM   13  C2  UNL     1      30.088  11.653  39.976  1.00  0.00    -0.005 C 
HETATM   14  C1  UNL     1      31.153  10.813  39.353  1.00  0.00     0.011 C 
HETATM   15  C3  UNL     1      30.040  11.428  41.439  1.00  0.00     0.011 C 
ENDBRANCH  10  13
BRANCH  10  16
HETATM   16  C5  UNL     1      28.504  12.698  38.495  1.00  0.00     0.240 C 
HETATM   17  N1  UNL     1      27.351  12.859  37.690  1.00  0.00    -0.061 NA
HETATM   18  O1  UNL     1      29.320  13.652  38.493  1.00  0.00    -0.276 OA
ENDBRANCH  10  16
ENDBRANCH   1   7
BRANCH   4  19
HETATM   19  C11 UNL     1      23.046   6.777  36.268  1.00  0.00     0.121 C 
BRANCH  19  20
HETATM   20  C12 UNL     1      22.281   7.389  35.154  1.00  0.00     0.072 A 
HETATM   21  N4  UNL     1      22.875   8.179  34.249  1.00  0.00    -0.360 N 
HETATM   22  C13 UNL     1      22.211   8.759  33.219  1.00  0.00     0.134 A 
ATOM     23  H4  UNL     1      23.876   8.353  34.340  1.00  0.00     0.165 HD
HETATM   24  C14 UNL     1      20.855   8.570  33.030  1.00  0.00     0.172 A 
HETATM   25  F1  UNL     1      20.183   9.136  32.017  1.00  0.00    -0.201 F 
HETATM   26  C15 UNL     1      20.216   7.750  33.961  1.00  0.00     0.180 A 
HETATM   27  F2  UNL     1      18.890   7.507  33.856  1.00  0.00    -0.201 F 
HETATM   28  C16 UNL     1      20.921   7.179  34.994  1.00  0.00     0.103 A 
HETATM   29 CL1  UNL     1      20.055   6.165  36.123  1.00  0.00    -0.078 Cl
ENDBRANCH  19  20
ENDBRANCH   4  19
TORSDOF 5
ENDMDL
MODEL 4
REMARK VINA RESULT: -7.709921855      4.869      9.095
REMARK  5 active torsions:
REMARK  status: ('A' for Active; 'I' for Inactive)
REMARK    1  A    between atoms: C2_2  and  C4_4 
REMARK    2  A    between atoms: C4_4  and  C5_5 
REMARK    3  A    between atoms: N2_10  and  C8_11 
REMARK    4  A    between atoms: N3_14  and  C11_15 
REMARK    5  A    between atoms: C11_15  and  C12_16 
ROOT
HETATM    1  C8  UNL     1      25.062   8.596  36.875  1.00  0.00     0.229 C 
HETATM    2  C9  UNL     1      26.386   8.127  37.323  1.00  0.00     0.080 C 
HETATM    3  C10 UNL     1      26.790   8.413  38.734  1.00  0.00     0.065 C 
HETATM    4  N3  UNL     1      25.998   9.285  39.467  1.00  0.00    -0.368 N 
HETATM    5  C17 UNL     1      24.597   9.268  39.278  1.00  0.00     0.129 C 
HETATM    6  C18 UNL     1      24.286   9.439  37.846  1.00  0.00     0.056 C 
ENDROOT
BRANCH   1   7
HETATM    7  N2  UNL     1      24.264   7.550  36.283  1.00  0.00     0.093 N 
HETATM    8  C7  UNL     1      23.133   7.947  35.548  1.00  0.00     0.274 C 
HETATM    9  C6  UNL     1      22.493   6.867  34.770  1.00  0.00     0.049 C 
HETATM   10  C4  UNL     1      22.850   5.456  35.106  1.00  0.00     0.044 C 
HETATM   11  C20 UNL     1      24.219   5.269  35.684  1.00  0.00     0.049 C 
HETATM   12  C19 UNL     1      25.051   6.544  35.629  1.00  0.00     0.274 C 
BRANCH  10  13
HETATM   13  C2  UNL     1      22.709   4.644  33.813  1.00  0.00    -0.005 C 
HETATM   14  C1  UNL     1      24.032   4.213  33.271  1.00  0.00     0.011 C 
HETATM   15  C3  UNL     1      21.925   5.343  32.771  1.00  0.00     0.011 C 
ENDBRANCH  10  13
BRANCH  10  16
HETATM   16  C5  UNL     1      21.866   4.874  36.056  1.00  0.00     0.240 C 
HETATM   17  N1  UNL     1      21.528   3.499  36.023  1.00  0.00    -0.061 NA
HETATM   18  O1  UNL     1      21.288   5.566  36.929  1.00  0.00    -0.276 OA
ENDBRANCH  10  16
ENDBRANCH   1   7
BRANCH   4  19
HETATM   19  C11 UNL     1      26.543  10.282  40.275  1.00  0.00     0.121 C 
BRANCH  19  20
HETATM   20  C12 UNL     1      27.263  11.342  39.527  1.00  0.00     0.072 A 
HETATM   21  N4  UNL     1      26.638  12.107  38.622  1.00  0.00    -0.360 N 
HETATM   22  C13 UNL     1      27.260  13.084  37.917  1.00  0.00     0.134 A 
ATOM     23  H4  UNL     1      25.645  11.947  38.455  1.00  0.00     0.165 HD
HETATM   24  C14 UNL     1      28.604  13.360  38.088  1.00  0.00     0.172 A 
HETATM   25  F1  UNL     1      29.235  14.321  37.399  1.00  0.00    -0.201 F 
HETATM   26  C15 UNL     1      29.275  12.575  39.028  1.00  0.00     0.180 A 
HETATM   27  F2  UNL     1      30.592  12.775  39.264  1.00  0.00    -0.201 F 
HETATM   28  C16 UNL     1      28.612  11.593  39.724  1.00  0.00     0.103 A 
HETATM   29 CL1  UNL     1      29.516  10.648  40.883  1.00  0.00    -0.078 Cl
ENDBRANCH  19  20
ENDBRANCH   4  19
TORSDOF 5
ENDMDL
MODEL 5
REMARK VINA RESULT: -7.625615640      7.427      9.277
REMARK  5 active torsions:
REMARK  status: ('A' for Active; 'I' for Inactive)
REMARK    1  A    between atoms: C2_2  and  C4_4 
REMARK    2  A    between atoms: C4_4  and  C5_5 
REMARK    3  A    between atoms: N2_10  and  C8_11 
REMARK    4  A    between atoms: N3_14  and  C11_15 
REMARK    5  A    between atoms: C11_15  and  C12_16 
ROOT
HETATM    1  C8  UNL     1      22.158  14.090  40.020  1.00  0.00     0.229 C 
HETATM    2  C9  UNL     1      22.944  13.254  40.946  1.00  0.00     0.080 C 
HETATM    3  C10 UNL     1      24.430  13.229  40.779  1.00  0.00     0.065 C 
HETATM    4  N3  UNL     1      24.959  13.813  39.637  1.00  0.00    -0.368 N 
HETATM    5  C17 UNL     1      24.357  14.981  39.117  1.00  0.00     0.129 C 
HETATM    6  C18 UNL     1      22.916  14.745  38.901  1.00  0.00     0.056 C 
ENDROOT
BRANCH   1   7
HETATM    7  N2  UNL     1      21.270  15.001  40.699  1.00  0.00     0.093 N 
HETATM    8  C7  UNL     1      21.107  14.821  42.085  1.00  0.00     0.274 C 
HETATM    9  C6  UNL     1      20.385  15.914  42.767  1.00  0.00     0.049 C 
HETATM   10  C4  UNL     1      19.608  16.873  41.926  1.00  0.00     0.044 C 
HETATM   11  C20 UNL     1      20.125  17.056  40.533  1.00  0.00     0.049 C 
HETATM   12  C19 UNL     1      21.467  16.370  40.317  1.00  0.00     0.274 C 
BRANCH  10  13
HETATM   13  C2  UNL     1      19.607  18.214  42.669  1.00  0.00    -0.005 C 
HETATM   14  C1  UNL     1      19.726  19.374  41.736  1.00  0.00     0.011 C 
HETATM   15  C3  UNL     1      20.639  18.292  43.727  1.00  0.00     0.011 C 
ENDBRANCH  10  13
BRANCH  10  16
HETATM   16  C5  UNL     1      18.182  16.461  41.838  1.00  0.00     0.240 C 
HETATM   17  N1  UNL     1      17.400  16.741  40.691  1.00  0.00    -0.061 NA
HETATM   18  O1  UNL     1      17.602  15.851  42.769  1.00  0.00    -0.276 OA
ENDBRANCH  10  16
ENDBRANCH   1   7
BRANCH   4  19
HETATM   19  C11 UNL     1      25.973  13.208  38.896  1.00  0.00     0.121 C 
BRANCH  19  20
HETATM   20  C12 UNL     1      25.851  11.732  38.794  1.00  0.00     0.072 A 
HETATM   21  N4  UNL     1      24.695  11.149  38.450  1.00  0.00    -0.360 N 
HETATM   22  C13 UNL     1      24.542   9.805  38.348  1.00  0.00     0.134 A 
ATOM     23  H4  UNL     1      23.890  11.744  38.255  1.00  0.00     0.165 HD
HETATM   24  C14 UNL     1      25.586   8.934  38.595  1.00  0.00     0.172 A 
HETATM   25  F1  UNL     1      25.452   7.604  38.499  1.00  0.00    -0.201 F 
HETATM   26  C15 UNL     1      26.800   9.521  38.955  1.00  0.00     0.180 A 
HETATM   27  F2  UNL     1      27.879   8.747  39.215  1.00  0.00    -0.201 F 
HETATM   28  C16 UNL     1      26.919  10.887  39.049  1.00  0.00     0.103 A 
HETATM   29 CL1  UNL     1      28.469  11.552  39.507  1.00  0.00    -0.078 Cl
ENDBRANCH  19  20
ENDBRANCH   4  19
TORSDOF 5
ENDMDL
