MODEL 1
REMARK VINA RESULT: -6.393279648      0.000      0.000
REMARK  6 active torsions:
REMARK  status: ('A' for Active; 'I' for Inactive)
REMARK    1  A    between atoms: N1_2  and  C3_4 
REMARK    2  A    between atoms: C7_8  and  N2_9 
REMARK    3  A    between atoms: N3_12  and  C10_13 
REMARK    4  A    between atoms: C10_13  and  C11_14 
REMARK    5  A    between atoms: C11_14  and  O1_15 
REMARK    6  A    between atoms: C12_17  and  C13_18 
ROOT
HETATM    1  N2  UNL     1      25.601   7.964  38.051  1.00  0.00    -0.359 N 
HETATM    2  C8  UNL     1      24.496   7.863  38.934  1.00  0.00     0.143 C 
HETATM    3  C9  UNL     1      24.338   8.965  39.939  1.00  0.00     0.116 C 
HETATM    4  N3  UNL     1      24.708  10.314  39.473  1.00  0.00    -0.278 NA
HETATM    5  C12 UNL     1      25.979  10.211  38.889  1.00  0.00     0.038 C 
HETATM    6  C19 UNL     1      26.167   9.224  37.804  1.00  0.00     0.115 C 
ENDROOT
BRANCH   5   7
HETATM    7  C13 UNL     1      26.879  11.373  38.768  1.00  0.00     0.010 A 
HETATM    8  C14 UNL     1      26.421  12.421  37.953  1.00  0.00     0.017 A 
HETATM    9  C15 UNL     1      27.227  13.507  37.605  1.00  0.00     0.026 A 
HETATM   10  C16 UNL     1      28.512  13.577  38.070  1.00  0.00     0.057 A 
HETATM   11 CL1  UNL     1      29.502  14.942  37.657  1.00  0.00    -0.082 Cl
HETATM   12  C17 UNL     1      28.942  12.550  38.864  1.00  0.00     0.078 A 
HETATM   13 CL2  UNL     1      30.547  12.657  39.544  1.00  0.00    -0.081 Cl
HETATM   14  C18 UNL     1      28.168  11.466  39.218  1.00  0.00     0.069 A 
HETATM   15 CL3  UNL     1      28.752  10.250  40.367  1.00  0.00    -0.082 Cl
ENDBRANCH   5   7
BRANCH   4  16
HETATM   16  C10 UNL     1      24.779  11.093  40.723  1.00  0.00     0.121 C 
BRANCH  16  17
HETATM   17  C11 UNL     1      23.559  11.865  41.034  1.00  0.00     0.179 C 
BRANCH  17  18
HETATM   18  O1  UNL     1      23.306  12.996  40.253  1.00  0.00    -0.400 OA
ATOM     19  H1  UNL     1      23.329  13.838  40.693  1.00  0.00     0.209 HD
ENDBRANCH  17  18
ENDBRANCH  16  17
ENDBRANCH   4  16
BRANCH   1  20
HETATM   20  C7  UNL     1      25.462   7.108  36.934  1.00  0.00     0.011 C 
HETATM   21  C3  UNL     1      24.936   7.647  35.662  1.00  0.00     0.124 C 
HETATM   22  C4  UNL     1      25.114   6.431  34.778  1.00  0.00     0.031 C 
HETATM   23  C5  UNL     1      24.933   5.217  35.696  1.00  0.00     0.008 C 
HETATM   24  C6  UNL     1      24.823   5.782  37.098  1.00  0.00     0.055 C 
BRANCH  21  25
HETATM   25  N1  UNL     1      23.666   8.189  35.615  1.00  0.00    -0.412 N 
HETATM   26  C1  UNL     1      22.512   7.442  35.449  1.00  0.00     0.143 C 
HETATM   27  C2  UNL     1      23.505   9.602  35.726  1.00  0.00     0.143 C 
ENDBRANCH  21  25
ENDBRANCH   1  20
TORSDOF 6
ENDMDL
MODEL 2
REMARK VINA RESULT: -5.991554162      1.115      1.812
REMARK  6 active torsions:
REMARK  status: ('A' for Active; 'I' for Inactive)
REMARK    1  A    between atoms: N1_2  and  C3_4 
REMARK    2  A    between atoms: C7_8  and  N2_9 
REMARK    3  A    between atoms: N3_12  and  C10_13 
REMARK    4  A    between atoms: C10_13  and  C11_14 
REMARK    5  A    between atoms: C11_14  and  O1_15 
REMARK    6  A    between atoms: C12_17  and  C13_18 
ROOT
HETATM    1  N2  UNL     1      25.629   7.600  37.986  1.00  0.00    -0.359 N 
HETATM    2  C8  UNL     1      24.427   7.826  38.702  1.00  0.00     0.143 C 
HETATM    3  C9  UNL     1      24.445   8.937  39.709  1.00  0.00     0.116 C 
HETATM    4  N3  UNL     1      25.245  10.121  39.344  1.00  0.00    -0.278 NA
HETATM    5  C12 UNL     1      26.504   9.654  38.941  1.00  0.00     0.038 C 
HETATM    6  C19 UNL     1      26.559   8.645  37.861  1.00  0.00     0.115 C 
ENDROOT
BRANCH   5   7
HETATM    7  C13 UNL     1      27.704  10.511  38.984  1.00  0.00     0.010 A 
HETATM    8  C14 UNL     1      28.791  10.007  39.716  1.00  0.00     0.017 A 
HETATM    9  C15 UNL     1      29.928  10.770  39.989  1.00  0.00     0.026 A 
HETATM   10  C16 UNL     1      30.012  12.056  39.530  1.00  0.00     0.057 A 
HETATM   11 CL1  UNL     1      31.438  12.993  39.850  1.00  0.00    -0.082 Cl
HETATM   12  C17 UNL     1      28.945  12.532  38.818  1.00  0.00     0.078 A 
HETATM   13 CL2  UNL     1      29.061  14.139  38.144  1.00  0.00    -0.081 Cl
HETATM   14  C18 UNL     1      27.811  11.800  38.538  1.00  0.00     0.069 A 
HETATM   15 CL3  UNL     1      26.536  12.440  37.486  1.00  0.00    -0.082 Cl
ENDBRANCH   5   7
BRANCH   4  16
HETATM   16  C10 UNL     1      25.353  10.859  40.616  1.00  0.00     0.121 C 
BRANCH  16  17
HETATM   17  C11 UNL     1      24.700  12.183  40.614  1.00  0.00     0.179 C 
BRANCH  17  18
HETATM   18  O1  UNL     1      23.314  12.208  40.430  1.00  0.00    -0.400 OA
ATOM     19  H1  UNL     1      22.808  12.737  41.035  1.00  0.00     0.209 HD
ENDBRANCH  17  18
ENDBRANCH  16  17
ENDBRANCH   4  16
BRANCH   1  20
HETATM   20  C7  UNL     1      25.416   6.810  36.833  1.00  0.00     0.011 C 
HETATM   21  C3  UNL     1      24.935   7.446  35.589  1.00  0.00     0.124 C 
HETATM   22  C4  UNL     1      25.006   6.260  34.652  1.00  0.00     0.031 C 
HETATM   23  C5  UNL     1      24.725   5.026  35.517  1.00  0.00     0.008 C 
HETATM   24  C6  UNL     1      24.667   5.537  36.943  1.00  0.00     0.055 C 
BRANCH  21  25
HETATM   25  N1  UNL     1      23.716   8.096  35.574  1.00  0.00    -0.412 N 
HETATM   26  C1  UNL     1      22.503   7.460  35.372  1.00  0.00     0.143 C 
HETATM   27  C2  UNL     1      23.675   9.510  35.757  1.00  0.00     0.143 C 
ENDBRANCH  21  25
ENDBRANCH   1  20
TORSDOF 6
ENDMDL
MODEL 3
REMARK VINA RESULT: -5.912804295      1.913      2.852
REMARK  6 active torsions:
REMARK  status: ('A' for Active; 'I' for Inactive)
REMARK    1  A    between atoms: N1_2  and  C3_4 
REMARK    2  A    between atoms: C7_8  and  N2_9 
REMARK    3  A    between atoms: N3_12  and  C10_13 
REMARK    4  A    between atoms: C10_13  and  C11_14 
REMARK    5  A    between atoms: C11_14  and  O1_15 
REMARK    6  A    between atoms: C12_17  and  C13_18 
ROOT
HETATM    1  N2  UNL     1      24.525   8.960  37.487  1.00  0.00    -0.359 N 
HETATM    2  C8  UNL     1      24.513   8.278  38.729  1.00  0.00     0.143 C 
HETATM    3  C9  UNL     1      25.156   8.981  39.887  1.00  0.00     0.116 C 
HETATM    4  N3  UNL     1      24.987  10.445  39.921  1.00  0.00    -0.278 NA
HETATM    5  C12 UNL     1      25.341  10.928  38.653  1.00  0.00     0.038 C 
HETATM    6  C19 UNL     1      24.651  10.358  37.475  1.00  0.00     0.115 C 
ENDROOT
BRANCH   5   7
HETATM    7  C13 UNL     1      25.779  12.320  38.441  1.00  0.00     0.010 A 
HETATM    8  C14 UNL     1      24.798  13.307  38.631  1.00  0.00     0.017 A 
HETATM    9  C15 UNL     1      25.012  14.648  38.306  1.00  0.00     0.026 A 
HETATM   10  C16 UNL     1      26.217  15.039  37.789  1.00  0.00     0.057 A 
HETATM   11 CL1  UNL     1      26.487  16.712  37.411  1.00  0.00    -0.082 Cl
HETATM   12  C17 UNL     1      27.162  14.067  37.612  1.00  0.00     0.078 A 
HETATM   13 CL2  UNL     1      28.738  14.551  37.038  1.00  0.00    -0.081 Cl
HETATM   14  C18 UNL     1      26.974  12.737  37.921  1.00  0.00     0.069 A 
HETATM   15 CL3  UNL     1      28.297  11.564  37.797  1.00  0.00    -0.082 Cl
ENDBRANCH   5   7
BRANCH   4  16
HETATM   16  C10 UNL     1      25.974  10.875  40.928  1.00  0.00     0.121 C 
BRANCH  16  17
HETATM   17  C11 UNL     1      27.324  10.308  40.744  1.00  0.00     0.179 C 
BRANCH  17  18
HETATM   18  O1  UNL     1      28.408  11.116  41.102  1.00  0.00    -0.400 OA
ATOM     19  H1  UNL     1      28.494  11.947  40.649  1.00  0.00     0.209 HD
ENDBRANCH  17  18
ENDBRANCH  16  17
ENDBRANCH   4  16
BRANCH   1  20
HETATM   20  C7  UNL     1      23.599   8.407  36.572  1.00  0.00     0.011 C 
HETATM   21  C3  UNL     1      23.513   6.939  36.419  1.00  0.00     0.124 C 
HETATM   22  C4  UNL     1      22.329   6.851  35.480  1.00  0.00     0.031 C 
HETATM   23  C5  UNL     1      22.387   8.115  34.614  1.00  0.00     0.008 C 
HETATM   24  C6  UNL     1      23.502   8.956  35.200  1.00  0.00     0.055 C 
BRANCH  21  25
HETATM   25  N1  UNL     1      24.616   6.224  35.993  1.00  0.00    -0.412 N 
HETATM   26  C1  UNL     1      25.879   6.769  35.840  1.00  0.00     0.143 C 
HETATM   27  C2  UNL     1      24.470   4.843  35.668  1.00  0.00     0.143 C 
ENDBRANCH  21  25
ENDBRANCH   1  20
TORSDOF 6
ENDMDL
MODEL 4
REMARK VINA RESULT: -5.783593353      3.243      6.571
REMARK  6 active torsions:
REMARK  status: ('A' for Active; 'I' for Inactive)
REMARK    1  A    between atoms: N1_2  and  C3_4 
REMARK    2  A    between atoms: C7_8  and  N2_9 
REMARK    3  A    between atoms: N3_12  and  C10_13 
REMARK    4  A    between atoms: C10_13  and  C11_14 
REMARK    5  A    between atoms: C11_14  and  O1_15 
REMARK    6  A    between atoms: C12_17  and  C13_18 
ROOT
HETATM    1  N2  UNL     1      27.905  10.896  39.568  1.00  0.00    -0.359 N 
HETATM    2  C8  UNL     1      27.232  11.409  40.704  1.00  0.00     0.143 C 
HETATM    3  C9  UNL     1      25.777  11.067  40.833  1.00  0.00     0.116 C 
HETATM    4  N3  UNL     1      25.393   9.720  40.373  1.00  0.00    -0.278 NA
HETATM    5  C12 UNL     1      25.939   9.554  39.091  1.00  0.00     0.038 C 
HETATM    6  C19 UNL     1      27.394   9.759  38.924  1.00  0.00     0.115 C 
ENDROOT
BRANCH   5   7
HETATM    7  C13 UNL     1      25.381   8.591  38.124  1.00  0.00     0.010 A 
HETATM    8  C14 UNL     1      25.792   7.257  38.281  1.00  0.00     0.017 A 
HETATM    9  C15 UNL     1      25.487   6.265  37.347  1.00  0.00     0.026 A 
HETATM   10  C16 UNL     1      24.756   6.578  36.234  1.00  0.00     0.057 A 
HETATM   11 CL1  UNL     1      24.357   5.337  35.089  1.00  0.00    -0.082 Cl
HETATM   12  C17 UNL     1      24.363   7.881  36.096  1.00  0.00     0.078 A 
HETATM   13 CL2  UNL     1      23.354   8.293  34.732  1.00  0.00    -0.081 Cl
HETATM   14  C18 UNL     1      24.654   8.879  37.001  1.00  0.00     0.069 A 
HETATM   15 CL3  UNL     1      23.985  10.511  36.823  1.00  0.00    -0.082 Cl
ENDBRANCH   5   7
BRANCH   4  16
HETATM   16  C10 UNL     1      23.922   9.796  40.299  1.00  0.00     0.121 C 
BRANCH  16  17
HETATM   17  C11 UNL     1      23.328  10.914  41.057  1.00  0.00     0.179 C 
BRANCH  17  18
HETATM   18  O1  UNL     1      23.101  12.105  40.361  1.00  0.00    -0.400 OA
ATOM     19  H1  UNL     1      22.981  12.892  40.879  1.00  0.00     0.209 HD
ENDBRANCH  17  18
ENDBRANCH  16  17
ENDBRANCH   4  16
BRANCH   1  20
HETATM   20  C7  UNL     1      29.311  10.953  39.718  1.00  0.00     0.011 C 
HETATM   21  C3  UNL     1      29.971  12.259  39.921  1.00  0.00     0.124 C 
HETATM   22  C4  UNL     1      31.390  11.791  40.165  1.00  0.00     0.031 C 
HETATM   23  C5  UNL     1      31.558  10.514  39.334  1.00  0.00     0.008 C 
HETATM   24  C6  UNL     1      30.181  10.209  38.779  1.00  0.00     0.055 C 
BRANCH  21  25
HETATM   25  N1  UNL     1      29.867  13.242  38.956  1.00  0.00    -0.412 N 
HETATM   26  C1  UNL     1      28.747  13.435  38.166  1.00  0.00     0.143 C 
HETATM   27  C2  UNL     1      30.971  14.115  38.726  1.00  0.00     0.143 C 
ENDBRANCH  21  25
ENDBRANCH   1  20
TORSDOF 6
ENDMDL
MODEL 5
REMARK VINA RESULT: -5.760321809      1.483      2.389
REMARK  6 active torsions:
REMARK  status: ('A' for Active; 'I' for Inactive)
REMARK    1  A    between atoms: N1_2  and  C3_4 
REMARK    2  A    between atoms: C7_8  and  N2_9 
REMARK    3  A    between atoms: N3_12  and  C10_13 
REMARK    4  A    between atoms: C10_13  and  C11_14 
REMARK    5  A    between atoms: C11_14  and  O1_15 
REMARK    6  A    between atoms: C12_17  and  C13_18 
ROOT
HETATM    1  N2  UNL     1      24.313   8.811  36.934  1.00  0.00    -0.359 N 
HETATM    2  C8  UNL     1      23.980   8.011  38.055  1.00  0.00     0.143 C 
HETATM    3  C9  UNL     1      24.472   8.488  39.390  1.00  0.00     0.116 C 
HETATM    4  N3  UNL     1      24.483   9.950  39.583  1.00  0.00    -0.278 NA
HETATM    5  C12 UNL     1      25.130  10.505  38.470  1.00  0.00     0.038 C 
HETATM    6  C19 UNL     1      24.612  10.169  37.126  1.00  0.00     0.115 C 
ENDROOT
BRANCH   5   7
HETATM    7  C13 UNL     1      25.769  11.833  38.521  1.00  0.00     0.010 A 
HETATM    8  C14 UNL     1      24.897  12.934  38.538  1.00  0.00     0.017 A 
HETATM    9  C15 UNL     1      25.349  14.249  38.416  1.00  0.00     0.026 A 
HETATM   10  C16 UNL     1      26.686  14.500  38.279  1.00  0.00     0.057 A 
HETATM   11 CL1  UNL     1      27.246  16.138  38.153  1.00  0.00    -0.082 Cl
HETATM   12  C17 UNL     1      27.523  13.418  38.265  1.00  0.00     0.078 A 
HETATM   13 CL2  UNL     1      29.242  13.712  38.182  1.00  0.00    -0.081 Cl
HETATM   14  C18 UNL     1      27.102  12.111  38.381  1.00  0.00     0.069 A 
HETATM   15 CL3  UNL     1      28.261  10.775  38.499  1.00  0.00    -0.082 Cl
ENDBRANCH   5   7
BRANCH   4  16
HETATM   16  C10 UNL     1      25.305  10.123  40.795  1.00  0.00     0.121 C 
BRANCH  16  17
HETATM   17  C11 UNL     1      24.756  11.077  41.777  1.00  0.00     0.179 C 
BRANCH  17  18
HETATM   18  O1  UNL     1      23.449  11.526  41.565  1.00  0.00    -0.400 OA
ATOM     19  H1  UNL     1      23.222  12.377  41.921  1.00  0.00     0.209 HD
ENDBRANCH  17  18
ENDBRANCH  16  17
ENDBRANCH   4  16
BRANCH   1  20
HETATM   20  C7  UNL     1      23.518   8.497  35.808  1.00  0.00     0.011 C 
HETATM   21  C3  UNL     1      23.246   7.083  35.477  1.00  0.00     0.124 C 
HETATM   22  C4  UNL     1      22.275   7.271  34.331  1.00  0.00     0.031 C 
HETATM   23  C5  UNL     1      22.693   8.574  33.639  1.00  0.00     0.008 C 
HETATM   24  C6  UNL     1      23.781   9.165  34.512  1.00  0.00     0.055 C 
BRANCH  21  25
HETATM   25  N1  UNL     1      24.293   6.230  35.184  1.00  0.00    -0.412 N 
HETATM   26  C1  UNL     1      25.574   6.374  35.691  1.00  0.00     0.143 C 
HETATM   27  C2  UNL     1      24.075   5.135  34.296  1.00  0.00     0.143 C 
ENDBRANCH  21  25
ENDBRANCH   1  20
TORSDOF 6
ENDMDL
