MODEL 1
REMARK VINA RESULT: -6.940082076      0.000      0.000
REMARK  6 active torsions:
REMARK  status: ('A' for Active; 'I' for Inactive)
REMARK    1  A    between atoms: C2_2  and  C3_3 
REMARK    2  A    between atoms: C5_5  and  C6_6 
REMARK    3  A    between atoms: C6_6  and  C7_7 
REMARK    4  A    between atoms: C7_7  and  C8_8 
REMARK    5  A    between atoms: C14_18  and  O1_19 
REMARK    6  A    between atoms: C17_24  and  C18_25 
ROOT
HETATM    1  C3  UNL     1      25.789  10.291  39.175  1.00  0.00     0.055 C 
HETATM    2  C4  UNL     1      25.358  10.239  37.722  1.00  0.00     0.021 C 
HETATM    3  C5  UNL     1      25.208   8.770  37.387  1.00  0.00     0.061 C 
HETATM    4  C13 UNL     1      25.429   8.031  38.694  1.00  0.00     0.273 C 
HETATM    5  F1  UNL     1      25.942   6.778  38.504  1.00  0.00    -0.203 F 
HETATM    6  F2  UNL     1      24.256   8.055  39.395  1.00  0.00    -0.203 F 
HETATM    7  C14 UNL     1      26.485   8.951  39.325  1.00  0.00     0.197 C 
ENDROOT
BRANCH   1   8
HETATM    8  C2  UNL     1      26.757  11.448  39.416  1.00  0.00     0.068 C 
HETATM    9  C1  UNL     1      25.867  12.687  39.592  1.00  0.00     0.047 C 
HETATM   10  C15 UNL     1      27.448  11.247  40.727  1.00  0.00     0.064 C 
HETATM   11  C16 UNL     1      28.850  10.767  40.628  1.00  0.00     0.174 C 
HETATM   12  O2  UNL     1      29.521  11.069  39.497  1.00  0.00    -0.360 OA
HETATM   13  C17 UNL     1      28.887  11.818  38.558  1.00  0.00     0.270 C 
HETATM   14  O3  UNL     1      27.571  11.547  38.337  1.00  0.00    -0.349 OA
BRANCH  13  15
HETATM   15  C18 UNL     1      29.134  13.323  38.734  1.00  0.00     0.146 C 
HETATM   16 BR1  UNL     1      28.333  14.198  37.206  1.00  0.00    -0.091 Br
ENDBRANCH  13  15
ENDBRANCH   1   8
BRANCH   7  17
HETATM   17  O1  UNL     1      27.589   8.853  38.463  1.00  0.00    -0.389 OA
ATOM     18  H1  UNL     1      27.334   8.502  37.618  1.00  0.00     0.210 HD
ENDBRANCH   7  17
BRANCH   3  19
HETATM   19  C6  UNL     1      23.823   8.436  36.906  1.00  0.00     0.017 C 
BRANCH  19  20
HETATM   20  C7  UNL     1      23.764   8.334  35.397  1.00  0.00     0.057 C 
BRANCH  20  21
HETATM   21  C8  UNL     1      23.802   6.926  34.976  1.00  0.00     0.009 A 
HETATM   22  C9  UNL     1      24.906   6.164  35.250  1.00  0.00     0.025 A 
HETATM   23  C10 UNL     1      24.997   4.830  34.877  1.00  0.00     0.003 A 
HETATM   24  C11 UNL     1      23.923   4.288  34.210  1.00  0.00     0.017 A 
HETATM   25  C12 UNL     1      22.821   5.054  33.937  1.00  0.00     0.088 A 
HETATM   26  N1  UNL     1      22.779   6.362  34.325  1.00  0.00    -0.369 N 
ATOM     27  H1  UNL     1      21.951   6.920  34.115  1.00  0.00     0.165 HD
ENDBRANCH  20  21
ENDBRANCH  19  20
ENDBRANCH   3  19
TORSDOF 6
ENDMDL
MODEL 2
REMARK VINA RESULT: -6.893340738      1.004      1.346
REMARK  6 active torsions:
REMARK  status: ('A' for Active; 'I' for Inactive)
REMARK    1  A    between atoms: C2_2  and  C3_3 
REMARK    2  A    between atoms: C5_5  and  C6_6 
REMARK    3  A    between atoms: C6_6  and  C7_7 
REMARK    4  A    between atoms: C7_7  and  C8_8 
REMARK    5  A    between atoms: C14_18  and  O1_19 
REMARK    6  A    between atoms: C17_24  and  C18_25 
ROOT
HETATM    1  C3  UNL     1      25.792  10.229  39.158  1.00  0.00     0.055 C 
HETATM    2  C4  UNL     1      25.369  10.198  37.703  1.00  0.00     0.021 C 
HETATM    3  C5  UNL     1      25.200   8.735  37.351  1.00  0.00     0.061 C 
HETATM    4  C13 UNL     1      25.403   7.980  38.652  1.00  0.00     0.273 C 
HETATM    5  F1  UNL     1      25.899   6.721  38.452  1.00  0.00    -0.203 F 
HETATM    6  F2  UNL     1      24.226   8.013  39.346  1.00  0.00    -0.203 F 
HETATM    7  C14 UNL     1      26.468   8.878  39.299  1.00  0.00     0.197 C 
ENDROOT
BRANCH   1   8
HETATM    8  C2  UNL     1      26.775  11.370  39.418  1.00  0.00     0.068 C 
HETATM    9  C1  UNL     1      25.901  12.618  39.611  1.00  0.00     0.047 C 
HETATM   10  C15 UNL     1      27.462  11.140  40.725  1.00  0.00     0.064 C 
HETATM   11  C16 UNL     1      28.857  10.643  40.620  1.00  0.00     0.174 C 
HETATM   12  O2  UNL     1      29.534  10.954  39.494  1.00  0.00    -0.360 OA
HETATM   13  C17 UNL     1      28.910  11.725  38.566  1.00  0.00     0.270 C 
HETATM   14  O3  UNL     1      27.590  11.474  38.340  1.00  0.00    -0.349 OA
BRANCH  13  15
HETATM   15  C18 UNL     1      29.177  13.223  38.764  1.00  0.00     0.146 C 
HETATM   16 BR1  UNL     1      28.384  14.132  37.252  1.00  0.00    -0.091 Br
ENDBRANCH  13  15
ENDBRANCH   1   8
BRANCH   7  17
HETATM   17  O1  UNL     1      27.576   8.773  38.442  1.00  0.00    -0.389 OA
ATOM     18  H1  UNL     1      27.678   7.885  38.121  1.00  0.00     0.210 HD
ENDBRANCH   7  17
BRANCH   3  19
HETATM   19  C6  UNL     1      23.814   8.426  36.859  1.00  0.00     0.017 C 
BRANCH  19  20
HETATM   20  C7  UNL     1      23.553   9.038  35.499  1.00  0.00     0.057 C 
BRANCH  20  21
HETATM   21  C8  UNL     1      22.767   8.118  34.665  1.00  0.00     0.009 A 
HETATM   22  C9  UNL     1      23.113   6.795  34.599  1.00  0.00     0.025 A 
HETATM   23  C10 UNL     1      22.407   5.881  33.828  1.00  0.00     0.003 A 
HETATM   24  C11 UNL     1      21.329   6.357  33.118  1.00  0.00     0.017 A 
HETATM   25  C12 UNL     1      20.987   7.682  33.186  1.00  0.00     0.088 A 
HETATM   26  N1  UNL     1      21.712   8.541  33.959  1.00  0.00    -0.369 N 
ATOM     27  H1  UNL     1      21.446   9.525  34.000  1.00  0.00     0.165 HD
ENDBRANCH  20  21
ENDBRANCH  19  20
ENDBRANCH   3  19
TORSDOF 6
ENDMDL
MODEL 3
REMARK VINA RESULT: -6.866961645      3.885      7.315
REMARK  6 active torsions:
REMARK  status: ('A' for Active; 'I' for Inactive)
REMARK    1  A    between atoms: C2_2  and  C3_3 
REMARK    2  A    between atoms: C5_5  and  C6_6 
REMARK    3  A    between atoms: C6_6  and  C7_7 
REMARK    4  A    between atoms: C7_7  and  C8_8 
REMARK    5  A    between atoms: C14_18  and  O1_19 
REMARK    6  A    between atoms: C17_24  and  C18_25 
ROOT
HETATM    1  C3  UNL     1      25.143   8.753  37.411  1.00  0.00     0.055 C 
HETATM    2  C4  UNL     1      24.659  10.164  37.680  1.00  0.00     0.021 C 
HETATM    3  C5  UNL     1      24.964  10.436  39.138  1.00  0.00     0.061 C 
HETATM    4  C13 UNL     1      25.733   9.221  39.624  1.00  0.00     0.273 C 
HETATM    5  F1  UNL     1      25.549   8.988  40.960  1.00  0.00    -0.203 F 
HETATM    6  F2  UNL     1      27.040   9.375  39.258  1.00  0.00    -0.203 F 
HETATM    7  C14 UNL     1      25.035   8.134  38.792  1.00  0.00     0.197 C 
ENDROOT
BRANCH   1   8
HETATM    8  C2  UNL     1      24.229   8.043  36.413  1.00  0.00     0.068 C 
HETATM    9  C1  UNL     1      23.403   9.161  35.758  1.00  0.00     0.047 C 
HETATM   10  C15 UNL     1      25.059   7.449  35.321  1.00  0.00     0.064 C 
HETATM   11  C16 UNL     1      25.252   5.979  35.411  1.00  0.00     0.174 C 
HETATM   12  O2  UNL     1      24.298   5.276  36.057  1.00  0.00    -0.360 OA
HETATM   13  C17 UNL     1      23.221   5.951  36.537  1.00  0.00     0.270 C 
HETATM   14  O3  UNL     1      23.456   7.168  37.101  1.00  0.00    -0.349 OA
BRANCH  13  15
HETATM   15  C18 UNL     1      22.060   6.004  35.535  1.00  0.00     0.146 C 
HETATM   16 BR1  UNL     1      20.470   5.471  36.499  1.00  0.00    -0.091 Br
ENDBRANCH  13  15
ENDBRANCH   1   8
BRANCH   7  17
HETATM   17  O1  UNL     1      23.708   8.146  39.252  1.00  0.00    -0.389 OA
ATOM     18  H1  UNL     1      23.646   7.795  40.132  1.00  0.00     0.210 HD
ENDBRANCH   7  17
BRANCH   3  19
HETATM   19  C6  UNL     1      25.851  11.636  39.319  1.00  0.00     0.017 C 
BRANCH  19  20
HETATM   20  C7  UNL     1      25.212  12.893  38.769  1.00  0.00     0.057 C 
BRANCH  20  21
HETATM   21  C8  UNL     1      26.233  13.770  38.177  1.00  0.00     0.009 A 
HETATM   22  C9  UNL     1      27.515  13.316  38.025  1.00  0.00     0.025 A 
HETATM   23  C10 UNL     1      28.518  14.100  37.471  1.00  0.00     0.003 A 
HETATM   24  C11 UNL     1      28.177  15.371  37.074  1.00  0.00     0.017 A 
HETATM   25  C12 UNL     1      26.892  15.822  37.229  1.00  0.00     0.088 A 
HETATM   26  N1  UNL     1      25.940  15.013  37.778  1.00  0.00    -0.369 N 
ATOM     27  H1  UNL     1      24.989  15.362  37.887  1.00  0.00     0.165 HD
ENDBRANCH  20  21
ENDBRANCH  19  20
ENDBRANCH   3  19
TORSDOF 6
ENDMDL
MODEL 4
REMARK VINA RESULT: -6.788310018      2.228      3.095
REMARK  6 active torsions:
REMARK  status: ('A' for Active; 'I' for Inactive)
REMARK    1  A    between atoms: C2_2  and  C3_3 
REMARK    2  A    between atoms: C5_5  and  C6_6 
REMARK    3  A    between atoms: C6_6  and  C7_7 
REMARK    4  A    between atoms: C7_7  and  C8_8 
REMARK    5  A    between atoms: C14_18  and  O1_19 
REMARK    6  A    between atoms: C17_24  and  C18_25 
ROOT
HETATM    1  C3  UNL     1      26.947  10.837  38.623  1.00  0.00     0.055 C 
HETATM    2  C4  UNL     1      26.806   9.333  38.747  1.00  0.00     0.021 C 
HETATM    3  C5  UNL     1      25.620   9.101  39.658  1.00  0.00     0.061 C 
HETATM    4  C13 UNL     1      25.036  10.478  39.921  1.00  0.00     0.273 C 
HETATM    5  F1  UNL     1      24.414  10.555  41.137  1.00  0.00    -0.203 F 
HETATM    6  F2  UNL     1      24.238  10.806  38.862  1.00  0.00    -0.203 F 
HETATM    7  C14 UNL     1      26.333  11.301  39.931  1.00  0.00     0.197 C 
ENDROOT
BRANCH   1   8
HETATM    8  C2  UNL     1      28.417  11.242  38.527  1.00  0.00     0.068 C 
HETATM    9  C1  UNL     1      29.190   9.922  38.393  1.00  0.00     0.047 C 
HETATM   10  C15 UNL     1      28.641  11.984  37.249  1.00  0.00     0.064 C 
HETATM   11  C16 UNL     1      28.774  13.456  37.394  1.00  0.00     0.174 C 
HETATM   12  O2  UNL     1      29.219  13.915  38.582  1.00  0.00    -0.360 OA
HETATM   13  C17 UNL     1      29.550  13.006  39.535  1.00  0.00     0.270 C 
HETATM   14  O3  UNL     1      28.741  11.917  39.657  1.00  0.00    -0.349 OA
BRANCH  13  15
HETATM   15  C18 UNL     1      31.032  12.610  39.489  1.00  0.00     0.146 C 
HETATM   16 BR1  UNL     1      31.357  11.495  41.035  1.00  0.00    -0.091 Br
ENDBRANCH  13  15
ENDBRANCH   1   8
BRANCH   7  17
HETATM   17  O1  UNL     1      27.049  10.804  41.032  1.00  0.00    -0.389 OA
ATOM     18  H1  UNL     1      27.717  11.418  41.312  1.00  0.00     0.210 HD
ENDBRANCH   7  17
BRANCH   3  19
HETATM   19  C6  UNL     1      24.550   8.275  38.999  1.00  0.00     0.017 C 
BRANCH  19  20
HETATM   20  C7  UNL     1      25.106   7.443  37.863  1.00  0.00     0.057 C 
BRANCH  20  21
HETATM   21  C8  UNL     1      24.238   7.544  36.681  1.00  0.00     0.009 A 
HETATM   22  C9  UNL     1      24.134   8.734  36.013  1.00  0.00     0.025 A 
HETATM   23  C10 UNL     1      23.330   8.887  34.891  1.00  0.00     0.003 A 
HETATM   24  C11 UNL     1      22.628   7.785  34.466  1.00  0.00     0.017 A 
HETATM   25  C12 UNL     1      22.733   6.595  35.137  1.00  0.00     0.088 A 
HETATM   26  N1  UNL     1      23.538   6.495  36.235  1.00  0.00    -0.369 N 
ATOM     27  H1  UNL     1      23.607   5.603  36.725  1.00  0.00     0.165 HD
ENDBRANCH  20  21
ENDBRANCH  19  20
ENDBRANCH   3  19
TORSDOF 6
ENDMDL
MODEL 5
REMARK VINA RESULT: -6.753371000      3.771      7.482
REMARK  6 active torsions:
REMARK  status: ('A' for Active; 'I' for Inactive)
REMARK    1  A    between atoms: C2_2  and  C3_3 
REMARK    2  A    between atoms: C5_5  and  C6_6 
REMARK    3  A    between atoms: C6_6  and  C7_7 
REMARK    4  A    between atoms: C7_7  and  C8_8 
REMARK    5  A    between atoms: C14_18  and  O1_19 
REMARK    6  A    between atoms: C17_24  and  C18_25 
ROOT
HETATM    1  C3  UNL     1      24.914   8.324  36.729  1.00  0.00     0.055 C 
HETATM    2  C4  UNL     1      24.444   9.741  36.994  1.00  0.00     0.021 C 
HETATM    3  C5  UNL     1      24.900  10.072  38.399  1.00  0.00     0.061 C 
HETATM    4  C13 UNL     1      25.731   8.883  38.846  1.00  0.00     0.273 C 
HETATM    5  F1  UNL     1      25.694   8.702  40.202  1.00  0.00    -0.203 F 
HETATM    6  F2  UNL     1      26.990   9.033  38.336  1.00  0.00    -0.203 F 
HETATM    7  C14 UNL     1      24.961   7.759  38.136  1.00  0.00     0.197 C 
ENDROOT
BRANCH   1   8
HETATM    8  C2  UNL     1      23.907   7.568  35.862  1.00  0.00     0.068 C 
HETATM    9  C1  UNL     1      23.082   8.657  35.161  1.00  0.00     0.047 C 
HETATM   10  C15 UNL     1      24.637   6.841  34.779  1.00  0.00     0.064 C 
HETATM   11  C16 UNL     1      24.779   5.378  34.994  1.00  0.00     0.174 C 
HETATM   12  O2  UNL     1      23.845   4.779  35.762  1.00  0.00    -0.360 OA
HETATM   13  C17 UNL     1      22.831   5.542  36.246  1.00  0.00     0.270 C 
HETATM   14  O3  UNL     1      23.150   6.794  36.678  1.00  0.00    -0.349 OA
BRANCH  13  15
HETATM   15  C18 UNL     1      21.607   5.557  35.320  1.00  0.00     0.146 C 
HETATM   16 BR1  UNL     1      20.047   5.457  36.461  1.00  0.00    -0.091 Br
ENDBRANCH  13  15
ENDBRANCH   1   8
BRANCH   7  17
HETATM   17  O1  UNL     1      23.691   7.779  38.734  1.00  0.00    -0.389 OA
ATOM     18  H1  UNL     1      23.295   6.916  38.727  1.00  0.00     0.210 HD
ENDBRANCH   7  17
BRANCH   3  19
HETATM   19  C6  UNL     1      25.787  11.285  38.437  1.00  0.00     0.017 C 
BRANCH  19  20
HETATM   20  C7  UNL     1      26.165  11.658  39.855  1.00  0.00     0.057 C 
BRANCH  20  21
HETATM   21  C8  UNL     1      27.627  11.713  39.998  1.00  0.00     0.009 A 
HETATM   22  C9  UNL     1      28.222  11.190  41.116  1.00  0.00     0.025 A 
HETATM   23  C10 UNL     1      29.597  11.214  41.304  1.00  0.00     0.003 A 
HETATM   24  C11 UNL     1      30.357  11.791  40.314  1.00  0.00     0.017 A 
HETATM   25  C12 UNL     1      29.759  12.315  39.198  1.00  0.00     0.088 A 
HETATM   26  N1  UNL     1      28.402  12.266  39.059  1.00  0.00    -0.369 N 
ATOM     27  H1  UNL     1      27.971  12.659  38.223  1.00  0.00     0.165 HD
ENDBRANCH  20  21
ENDBRANCH  19  20
ENDBRANCH   3  19
TORSDOF 6
ENDMDL
