MODEL 1
REMARK VINA RESULT: -7.420915130      0.000      0.000
REMARK  8 active torsions:
REMARK  status: ('A' for Active; 'I' for Inactive)
REMARK       I    between atoms: N1_5  and  C5_6 
REMARK    1  A    between atoms: C5_6  and  O2_8 
REMARK    2  A    between atoms: O2_8  and  C6_9 
REMARK    3  A    between atoms: C6_9  and  C7_10 
REMARK    4  A    between atoms: C7_10  and  O3_11 
REMARK    5  A    between atoms: C7_10  and  C8_13 
REMARK    6  A    between atoms: C7_10  and  C10_17 
REMARK    7  A    between atoms: C8_13  and  S1_14 
REMARK    8  A    between atoms: C11_21  and  C12_22 
ROOT
HETATM    1  C1  UNL     1      23.601  11.937  41.489  1.00  0.00     0.010 C 
HETATM    2  C2  UNL     1      24.710  11.663  40.489  1.00  0.00    -0.015 C 
HETATM    3  C3  UNL     1      24.116  11.187  39.215  1.00  0.00     0.024 C 
HETATM    4  C4  UNL     1      25.213  10.786  38.246  1.00  0.00     0.129 C 
HETATM    5  N1  UNL     1      26.151   9.875  38.878  1.00  0.00    -0.323 N 
HETATM    6  C5  UNL     1      26.464   8.655  38.265  1.00  0.00     0.363 C 
HETATM    7  O1  UNL     1      27.287   7.846  38.809  1.00  0.00    -0.238 OA
HETATM    8  C11 UNL     1      26.752  10.248  40.172  1.00  0.00     0.094 C 
HETATM    9  C18 UNL     1      25.614  10.621  41.104  1.00  0.00     0.030 C 
ENDROOT
BRANCH   6  10
HETATM   10  O2  UNL     1      25.928   8.234  37.061  1.00  0.00    -0.301 OA
BRANCH  10  11
HETATM   11  C6  UNL     1      24.650   7.643  37.011  1.00  0.00     0.228 C 
BRANCH  11  12
HETATM   12  C7  UNL     1      24.309   7.172  35.566  1.00  0.00     0.188 C 
BRANCH  12  13
HETATM   13  O3  UNL     1      25.548   6.766  35.021  1.00  0.00    -0.378 OA
ATOM     14  H3  UNL     1      25.964   6.269  35.717  1.00  0.00     0.211 HD
ENDBRANCH  12  13
BRANCH  12  15
HETATM   15  C8  UNL     1      23.526   5.937  35.782  1.00  0.00     0.157 C 
BRANCH  15  16
HETATM   16  S1  UNL     1      23.846   4.454  35.037  1.00  0.00     0.014 S 
HETATM   17  C9  UNL     1      24.860   3.294  35.831  1.00  0.00     0.127 C 
HETATM   18  O4  UNL     1      24.158   4.518  33.395  1.00  0.00    -0.258 OA
ENDBRANCH  15  16
ENDBRANCH  12  15
BRANCH  12  19
HETATM   19  C10 UNL     1      23.768   8.314  34.829  1.00  0.00     0.421 C 
HETATM   20  F1  UNL     1      24.584   8.896  33.927  1.00  0.00    -0.168 F 
HETATM   21  F2  UNL     1      22.596   7.968  34.151  1.00  0.00    -0.168 F 
HETATM   22  F3  UNL     1      23.469   9.320  35.767  1.00  0.00    -0.168 F 
ENDBRANCH  12  19
ENDBRANCH  11  12
ENDBRANCH  10  11
ENDBRANCH   6  10
BRANCH   8  23
HETATM   23  C12 UNL     1      27.784  11.293  40.045  1.00  0.00     0.012 C 
HETATM   24  C13 UNL     1      28.865  11.286  41.069  1.00  0.00     0.007 C 
HETATM   25  C14 UNL     1      30.004  10.459  40.524  1.00  0.00     0.001 C 
HETATM   26  C15 UNL     1      29.736  10.291  39.044  1.00  0.00     0.005 C 
HETATM   27  C16 UNL     1      28.584  11.267  38.766  1.00  0.00    -0.013 C 
HETATM   28  C17 UNL     1      29.264  12.605  38.514  1.00  0.00     0.010 C 
ENDBRANCH   8  23
TORSDOF 8
ENDMDL
MODEL 2
REMARK VINA RESULT: -7.073660876      1.367      1.648
REMARK  8 active torsions:
REMARK  status: ('A' for Active; 'I' for Inactive)
REMARK       I    between atoms: N1_5  and  C5_6 
REMARK    1  A    between atoms: C5_6  and  O2_8 
REMARK    2  A    between atoms: O2_8  and  C6_9 
REMARK    3  A    between atoms: C6_9  and  C7_10 
REMARK    4  A    between atoms: C7_10  and  O3_11 
REMARK    5  A    between atoms: C7_10  and  C8_13 
REMARK    6  A    between atoms: C7_10  and  C10_17 
REMARK    7  A    between atoms: C8_13  and  S1_14 
REMARK    8  A    between atoms: C11_21  and  C12_22 
ROOT
HETATM    1  C1  UNL     1      24.371  12.205  41.453  1.00  0.00     0.010 C 
HETATM    2  C2  UNL     1      25.030  11.586  40.234  1.00  0.00    -0.015 C 
HETATM    3  C3  UNL     1      23.987  10.998  39.357  1.00  0.00     0.024 C 
HETATM    4  C4  UNL     1      24.633  10.263  38.197  1.00  0.00     0.129 C 
HETATM    5  N1  UNL     1      25.645   9.337  38.675  1.00  0.00    -0.323 N 
HETATM    6  C5  UNL     1      25.610   7.994  38.276  1.00  0.00     0.363 C 
HETATM    7  O1  UNL     1      26.493   7.170  38.687  1.00  0.00    -0.238 OA
HETATM    8  C11 UNL     1      26.693   9.827  39.590  1.00  0.00     0.094 C 
HETATM    9  C18 UNL     1      25.992  10.535  40.735  1.00  0.00     0.030 C 
ENDROOT
BRANCH   6  10
HETATM   10  O2  UNL     1      24.650   7.462  37.433  1.00  0.00    -0.301 OA
BRANCH  10  11
HETATM   11  C6  UNL     1      24.937   7.238  36.072  1.00  0.00     0.228 C 
BRANCH  11  12
HETATM   12  C7  UNL     1      23.627   7.167  35.230  1.00  0.00     0.188 C 
BRANCH  12  13
HETATM   13  O3  UNL     1      23.835   6.089  34.339  1.00  0.00    -0.378 OA
ATOM     14  H3  UNL     1      23.703   5.312  34.870  1.00  0.00     0.211 HD
ENDBRANCH  12  13
BRANCH  12  15
HETATM   15  C8  UNL     1      22.616   6.711  36.205  1.00  0.00     0.157 C 
BRANCH  15  16
HETATM   16  S1  UNL     1      21.624   5.358  36.000  1.00  0.00     0.014 S 
HETATM   17  C9  UNL     1      20.138   5.238  36.885  1.00  0.00     0.127 C 
HETATM   18  O4  UNL     1      22.412   3.884  35.924  1.00  0.00    -0.258 OA
ENDBRANCH  15  16
ENDBRANCH  12  15
BRANCH  12  19
HETATM   19  C10 UNL     1      23.487   8.425  34.498  1.00  0.00     0.421 C 
HETATM   20  F1  UNL     1      24.574   8.864  33.829  1.00  0.00    -0.168 F 
HETATM   21  F2  UNL     1      22.443   8.356  33.570  1.00  0.00    -0.168 F 
HETATM   22  F3  UNL     1      23.194   9.432  35.436  1.00  0.00    -0.168 F 
ENDBRANCH  12  19
ENDBRANCH  11  12
ENDBRANCH  10  11
ENDBRANCH   6  10
BRANCH   8  23
HETATM   23  C12 UNL     1      27.707  10.653  38.910  1.00  0.00     0.012 C 
HETATM   24  C13 UNL     1      28.126  11.898  39.611  1.00  0.00     0.007 C 
HETATM   25  C14 UNL     1      29.336  11.563  40.449  1.00  0.00     0.001 C 
HETATM   26  C15 UNL     1      29.837  10.223  39.956  1.00  0.00     0.005 C 
HETATM   27  C16 UNL     1      29.037   9.984  38.667  1.00  0.00    -0.013 C 
HETATM   28  C17 UNL     1      29.826  10.703  37.583  1.00  0.00     0.010 C 
ENDBRANCH   8  23
TORSDOF 8
ENDMDL
MODEL 3
REMARK VINA RESULT: -7.056171960      1.950      2.543
REMARK  8 active torsions:
REMARK  status: ('A' for Active; 'I' for Inactive)
REMARK       I    between atoms: N1_5  and  C5_6 
REMARK    1  A    between atoms: C5_6  and  O2_8 
REMARK    2  A    between atoms: O2_8  and  C6_9 
REMARK    3  A    between atoms: C6_9  and  C7_10 
REMARK    4  A    between atoms: C7_10  and  O3_11 
REMARK    5  A    between atoms: C7_10  and  C8_13 
REMARK    6  A    between atoms: C7_10  and  C10_17 
REMARK    7  A    between atoms: C8_13  and  S1_14 
REMARK    8  A    between atoms: C11_21  and  C12_22 
ROOT
HETATM    1  C1  UNL     1      23.696  11.869  41.611  1.00  0.00     0.010 C 
HETATM    2  C2  UNL     1      24.711  11.582  40.518  1.00  0.00    -0.015 C 
HETATM    3  C3  UNL     1      24.010  11.036  39.329  1.00  0.00     0.024 C 
HETATM    4  C4  UNL     1      25.019  10.622  38.273  1.00  0.00     0.129 C 
HETATM    5  N1  UNL     1      26.042   9.765  38.846  1.00  0.00    -0.323 N 
HETATM    6  C5  UNL     1      26.330   8.527  38.256  1.00  0.00     0.363 C 
HETATM    7  O1  UNL     1      27.227   7.765  38.748  1.00  0.00    -0.238 OA
HETATM    8  C11 UNL     1      26.754  10.209  40.059  1.00  0.00     0.094 C 
HETATM    9  C18 UNL     1      25.702  10.591  41.083  1.00  0.00     0.030 C 
ENDROOT
BRANCH   6  10
HETATM   10  O2  UNL     1      25.693   8.041  37.128  1.00  0.00    -0.301 OA
BRANCH  10  11
HETATM   11  C6  UNL     1      25.209   6.718  37.091  1.00  0.00     0.228 C 
BRANCH  11  12
HETATM   12  C7  UNL     1      24.172   6.535  35.943  1.00  0.00     0.188 C 
BRANCH  12  13
HETATM   13  O3  UNL     1      22.930   6.873  36.527  1.00  0.00    -0.378 OA
ATOM     14  H3  UNL     1      22.518   6.037  36.714  1.00  0.00     0.211 HD
ENDBRANCH  12  13
BRANCH  12  15
HETATM   15  C8  UNL     1      24.501   7.627  35.004  1.00  0.00     0.157 C 
BRANCH  15  16
HETATM   16  S1  UNL     1      23.375   8.706  34.353  1.00  0.00     0.014 S 
HETATM   17  C9  UNL     1      21.903   8.102  33.665  1.00  0.00     0.127 C 
HETATM   18  O4  UNL     1      24.010   9.956  33.439  1.00  0.00    -0.258 OA
ENDBRANCH  15  16
ENDBRANCH  12  15
BRANCH  12  19
HETATM   19  C10 UNL     1      24.187   5.131  35.534  1.00  0.00     0.421 C 
HETATM   20  F1  UNL     1      25.080   4.328  36.150  1.00  0.00    -0.168 F 
HETATM   21  F2  UNL     1      22.931   4.542  35.703  1.00  0.00    -0.168 F 
HETATM   22  F3  UNL     1      24.528   5.089  34.169  1.00  0.00    -0.168 F 
ENDBRANCH  12  19
ENDBRANCH  11  12
ENDBRANCH  10  11
ENDBRANCH   6  10
BRANCH   8  23
HETATM   23  C12 UNL     1      27.737  11.274  39.789  1.00  0.00     0.012 C 
HETATM   24  C13 UNL     1      28.951  11.290  40.650  1.00  0.00     0.007 C 
HETATM   25  C14 UNL     1      30.018  10.486  39.949  1.00  0.00     0.001 C 
HETATM   26  C15 UNL     1      29.548  10.309  38.522  1.00  0.00     0.005 C 
HETATM   27  C16 UNL     1      28.349  11.262  38.410  1.00  0.00    -0.013 C 
HETATM   28  C17 UNL     1      28.959  12.613  38.066  1.00  0.00     0.010 C 
ENDBRANCH   8  23
TORSDOF 8
ENDMDL
MODEL 4
REMARK VINA RESULT: -6.893962171      1.103      1.281
REMARK  8 active torsions:
REMARK  status: ('A' for Active; 'I' for Inactive)
REMARK       I    between atoms: N1_5  and  C5_6 
REMARK    1  A    between atoms: C5_6  and  O2_8 
REMARK    2  A    between atoms: O2_8  and  C6_9 
REMARK    3  A    between atoms: C6_9  and  C7_10 
REMARK    4  A    between atoms: C7_10  and  O3_11 
REMARK    5  A    between atoms: C7_10  and  C8_13 
REMARK    6  A    between atoms: C7_10  and  C10_17 
REMARK    7  A    between atoms: C8_13  and  S1_14 
REMARK    8  A    between atoms: C11_21  and  C12_22 
ROOT
HETATM    1  C1  UNL     1      23.586  11.799  41.503  1.00  0.00     0.010 C 
HETATM    2  C2  UNL     1      24.649  11.541  40.451  1.00  0.00    -0.015 C 
HETATM    3  C3  UNL     1      24.001  11.054  39.208  1.00  0.00     0.024 C 
HETATM    4  C4  UNL     1      25.055  10.669  38.185  1.00  0.00     0.129 C 
HETATM    5  N1  UNL     1      26.037   9.774  38.771  1.00  0.00    -0.323 N 
HETATM    6  C5  UNL     1      26.338   8.557  38.144  1.00  0.00     0.363 C 
HETATM    7  O1  UNL     1      27.199   7.763  38.648  1.00  0.00    -0.238 OA
HETATM    8  C11 UNL     1      26.695  10.158  40.034  1.00  0.00     0.094 C 
HETATM    9  C18 UNL     1      25.598  10.514  41.021  1.00  0.00     0.030 C 
ENDROOT
BRANCH   6  10
HETATM   10  O2  UNL     1      25.750   8.127  36.968  1.00  0.00    -0.301 OA
BRANCH  10  11
HETATM   11  C6  UNL     1      25.094   6.882  36.907  1.00  0.00     0.228 C 
BRANCH  11  12
HETATM   12  C7  UNL     1      24.466   6.650  35.500  1.00  0.00     0.188 C 
BRANCH  12  13
HETATM   13  O3  UNL     1      25.089   7.609  34.670  1.00  0.00    -0.378 OA
ATOM     14  H3  UNL     1      25.691   7.106  34.133  1.00  0.00     0.211 HD
ENDBRANCH  12  13
BRANCH  12  15
HETATM   15  C8  UNL     1      25.006   5.336  35.095  1.00  0.00     0.157 C 
BRANCH  15  16
HETATM   16  S1  UNL     1      24.642   3.871  35.856  1.00  0.00     0.014 S 
HETATM   17  C9  UNL     1      25.646   2.486  35.579  1.00  0.00     0.127 C 
HETATM   18  O4  UNL     1      23.022   3.455  35.895  1.00  0.00    -0.258 OA
ENDBRANCH  15  16
ENDBRANCH  12  15
BRANCH  12  19
HETATM   19  C10 UNL     1      23.029   6.902  35.595  1.00  0.00     0.421 C 
HETATM   20  F1  UNL     1      22.246   6.310  34.669  1.00  0.00    -0.168 F 
HETATM   21  F2  UNL     1      22.531   6.525  36.845  1.00  0.00    -0.168 F 
HETATM   22  F3  UNL     1      22.828   8.285  35.425  1.00  0.00    -0.168 F 
ENDBRANCH  12  19
ENDBRANCH  11  12
ENDBRANCH  10  11
ENDBRANCH   6  10
BRANCH   8  23
HETATM   23  C12 UNL     1      27.703  11.218  39.856  1.00  0.00     0.012 C 
HETATM   24  C13 UNL     1      28.819  11.244  40.841  1.00  0.00     0.007 C 
HETATM   25  C14 UNL     1      29.952  10.429  40.266  1.00  0.00     0.001 C 
HETATM   26  C15 UNL     1      29.636  10.236  38.799  1.00  0.00     0.005 C 
HETATM   27  C16 UNL     1      28.457  11.188  38.550  1.00  0.00    -0.013 C 
HETATM   28  C17 UNL     1      29.104  12.534  38.255  1.00  0.00     0.010 C 
ENDBRANCH   8  23
TORSDOF 8
ENDMDL
MODEL 5
REMARK VINA RESULT: -6.862174453      2.652      3.858
REMARK  8 active torsions:
REMARK  status: ('A' for Active; 'I' for Inactive)
REMARK       I    between atoms: N1_5  and  C5_6 
REMARK    1  A    between atoms: C5_6  and  O2_8 
REMARK    2  A    between atoms: O2_8  and  C6_9 
REMARK    3  A    between atoms: C6_9  and  C7_10 
REMARK    4  A    between atoms: C7_10  and  O3_11 
REMARK    5  A    between atoms: C7_10  and  C8_13 
REMARK    6  A    between atoms: C7_10  and  C10_17 
REMARK    7  A    between atoms: C8_13  and  S1_14 
REMARK    8  A    between atoms: C11_21  and  C12_22 
ROOT
HETATM    1  C1  UNL     1      27.868  15.940  37.086  1.00  0.00     0.010 C 
HETATM    2  C2  UNL     1      27.956  14.447  37.346  1.00  0.00    -0.015 C 
HETATM    3  C3  UNL     1      26.743  13.782  36.806  1.00  0.00     0.024 C 
HETATM    4  C4  UNL     1      26.751  12.308  37.169  1.00  0.00     0.129 C 
HETATM    5  N1  UNL     1      26.982  12.129  38.591  1.00  0.00    -0.323 N 
HETATM    6  C5  UNL     1      26.104  11.344  39.351  1.00  0.00     0.363 C 
HETATM    7  O1  UNL     1      26.296  11.178  40.601  1.00  0.00    -0.238 OA
HETATM    8  C11 UNL     1      28.138  12.796  39.220  1.00  0.00     0.094 C 
HETATM    9  C18 UNL     1      28.070  14.264  38.842  1.00  0.00     0.030 C 
ENDROOT
BRANCH   6  10
HETATM   10  O2  UNL     1      24.994  10.702  38.831  1.00  0.00    -0.301 OA
BRANCH  10  11
HETATM   11  C6  UNL     1      24.661   9.397  39.244  1.00  0.00     0.228 C 
BRANCH  11  12
HETATM   12  C7  UNL     1      24.776   8.390  38.061  1.00  0.00     0.188 C 
BRANCH  12  13
HETATM   13  O3  UNL     1      23.735   7.460  38.282  1.00  0.00    -0.378 OA
ATOM     14  H3  UNL     1      23.802   7.240  39.204  1.00  0.00     0.211 HD
ENDBRANCH  12  13
BRANCH  12  15
HETATM   15  C8  UNL     1      24.375   9.192  36.886  1.00  0.00     0.157 C 
BRANCH  15  16
HETATM   16  S1  UNL     1      23.794   8.547  35.436  1.00  0.00     0.014 S 
HETATM   17  C9  UNL     1      24.205   6.923  34.991  1.00  0.00     0.127 C 
HETATM   18  O4  UNL     1      23.838   9.573  34.115  1.00  0.00    -0.258 OA
ENDBRANCH  15  16
ENDBRANCH  12  15
BRANCH  12  19
HETATM   19  C10 UNL     1      26.081   7.735  38.144  1.00  0.00     0.421 C 
HETATM   20  F1  UNL     1      26.096   6.463  38.592  1.00  0.00    -0.168 F 
HETATM   21  F2  UNL     1      26.726   7.734  36.904  1.00  0.00    -0.168 F 
HETATM   22  F3  UNL     1      26.863   8.463  39.061  1.00  0.00    -0.168 F 
ENDBRANCH  12  19
ENDBRANCH  11  12
ENDBRANCH  10  11
ENDBRANCH   6  10
BRANCH   8  23
HETATM   23  C12 UNL     1      29.421  12.153  38.887  1.00  0.00     0.012 C 
HETATM   24  C13 UNL     1      30.618  12.634  39.631  1.00  0.00     0.007 C 
HETATM   25  C14 UNL     1      30.786  11.750  40.843  1.00  0.00     0.001 C 
HETATM   26  C15 UNL     1      29.913  10.538  40.609  1.00  0.00     0.005 C 
HETATM   27  C16 UNL     1      29.491  10.667  39.138  1.00  0.00    -0.013 C 
HETATM   28  C17 UNL     1      30.627  10.028  38.353  1.00  0.00     0.010 C 
ENDBRANCH   8  23
TORSDOF 8
ENDMDL
