MODEL 1
REMARK VINA RESULT: -4.588665466      0.000      0.000
REMARK  2 active torsions:
REMARK  status: ('A' for Active; 'I' for Inactive)
REMARK    1  A    between atoms: N1_2  and  C2_5 
REMARK    2  A    between atoms: C2_5  and  C3_6 
ROOT
HETATM    1  C3  UNL     1      93.187 -24.656  49.349  1.00  0.00     0.141 C 
HETATM    2  C4  UNL     1      91.786 -25.141  49.391  1.00  0.00     0.086 C 
HETATM    3  N2  UNL     1      91.609 -26.499  49.084  1.00  0.00    -0.379 N 
ATOM      4  H2  UNL     1      90.741 -26.975  49.332  1.00  0.00     0.164 HD
HETATM    5  C5  UNL     1      92.634 -27.195  48.433  1.00  0.00     0.079 C 
HETATM    6  C6  UNL     1      93.737 -26.435  47.824  1.00  0.00     0.159 C 
HETATM    7  N3  UNL     1      93.801 -25.043  48.125  1.00  0.00    -0.407 N 
ATOM      8  H3  UNL     1      94.255 -24.372  47.506  1.00  0.00     0.154 HD
ENDROOT
BRANCH   1   9
HETATM    9  C2  UNL     1      93.977 -25.066  50.574  1.00  0.00     0.261 C 
BRANCH   9  10
HETATM   10  N1  UNL     1      93.244 -24.772  51.787  1.00  0.00    -0.077 N 
HETATM   11  C1  UNL     1      94.008 -25.338  52.900  1.00  0.00     0.267 C 
ATOM     12  H12 UNL     1      92.277 -25.096  51.759  1.00  0.00     0.276 HD
ATOM     13  H11 UNL     1      93.044 -23.778  51.903  1.00  0.00     0.276 HD
ENDBRANCH   9  10
ENDBRANCH   1   9
TORSDOF 2
ENDMDL
MODEL 2
REMARK VINA RESULT: -4.166790516      5.872      7.751
REMARK  2 active torsions:
REMARK  status: ('A' for Active; 'I' for Inactive)
REMARK    1  A    between atoms: N1_2  and  C2_5 
REMARK    2  A    between atoms: C2_5  and  C3_6 
ROOT
HETATM    1  C3  UNL     1      95.894 -20.291  54.188  1.00  0.00     0.141 C 
HETATM    2  C4  UNL     1      95.466 -18.872  54.234  1.00  0.00     0.086 C 
HETATM    3  N2  UNL     1      95.927 -18.068  53.179  1.00  0.00    -0.379 N 
ATOM      4  H2  UNL     1      95.486 -17.168  52.987  1.00  0.00     0.164 HD
HETATM    5  C5  UNL     1      96.997 -18.513  52.395  1.00  0.00     0.079 C 
HETATM    6  C6  UNL     1      97.801 -19.652  52.864  1.00  0.00     0.159 C 
HETATM    7  N3  UNL     1      97.302 -20.370  53.990  1.00  0.00    -0.407 N 
ATOM      8  H3  UNL     1      97.911 -20.903  54.611  1.00  0.00     0.154 HD
ENDROOT
BRANCH   1   9
HETATM    9  C2  UNL     1      95.101 -21.102  53.184  1.00  0.00     0.261 C 
BRANCH   9  10
HETATM   10  N1  UNL     1      94.888 -22.452  53.661  1.00  0.00    -0.077 N 
HETATM   11  C1  UNL     1      95.504 -23.355  52.687  1.00  0.00     0.267 C 
ATOM     12  H12 UNL     1      93.906 -22.664  53.838  1.00  0.00     0.276 HD
ATOM     13  H11 UNL     1      95.226 -22.599  54.612  1.00  0.00     0.276 HD
ENDBRANCH   9  10
ENDBRANCH   1   9
TORSDOF 2
ENDMDL
MODEL 3
REMARK VINA RESULT: -4.149153725      2.107      3.889
REMARK  2 active torsions:
REMARK  status: ('A' for Active; 'I' for Inactive)
REMARK    1  A    between atoms: N1_2  and  C2_5 
REMARK    2  A    between atoms: C2_5  and  C3_6 
ROOT
HETATM    1  C3  UNL     1      94.190 -24.307  49.290  1.00  0.00     0.141 C 
HETATM    2  C4  UNL     1      95.490 -24.994  49.486  1.00  0.00     0.086 C 
HETATM    3  N2  UNL     1      96.217 -24.598  50.620  1.00  0.00    -0.379 N 
ATOM      4  H2  UNL     1      96.977 -25.179  50.974  1.00  0.00     0.164 HD
HETATM    5  C5  UNL     1      95.889 -23.398  51.261  1.00  0.00     0.079 C 
HETATM    6  C6  UNL     1      95.005 -22.441  50.576  1.00  0.00     0.159 C 
HETATM    7  N3  UNL     1      94.364 -22.897  49.387  1.00  0.00    -0.407 N 
ATOM      8  H3  UNL     1      94.052 -22.258  48.655  1.00  0.00     0.154 HD
ENDROOT
BRANCH   1   9
HETATM    9  C2  UNL     1      93.110 -24.842  50.207  1.00  0.00     0.261 C 
BRANCH   9  10
HETATM   10  N1  UNL     1      91.913 -25.170  49.460  1.00  0.00    -0.077 N 
HETATM   11  C1  UNL     1      92.117 -26.501  48.883  1.00  0.00     0.267 C 
ATOM     12  H12 UNL     1      91.670 -24.466  48.765  1.00  0.00     0.276 HD
ATOM     13  H11 UNL     1      91.062 -25.102  50.018  1.00  0.00     0.276 HD
ENDBRANCH   9  10
ENDBRANCH   1   9
TORSDOF 2
ENDMDL
MODEL 4
REMARK VINA RESULT: -4.141566091      4.941      6.929
REMARK  2 active torsions:
REMARK  status: ('A' for Active; 'I' for Inactive)
REMARK    1  A    between atoms: N1_2  and  C2_5 
REMARK    2  A    between atoms: C2_5  and  C3_6 
ROOT
HETATM    1  C3  UNL     1      96.835 -21.674  52.455  1.00  0.00     0.141 C 
HETATM    2  C4  UNL     1      96.383 -21.774  53.865  1.00  0.00     0.086 C 
HETATM    3  N2  UNL     1      95.798 -20.613  54.394  1.00  0.00    -0.379 N 
ATOM      4  H2  UNL     1      95.236 -20.661  55.244  1.00  0.00     0.164 HD
HETATM    5  C5  UNL     1      95.993 -19.389  53.744  1.00  0.00     0.079 C 
HETATM    6  C6  UNL     1      97.033 -19.288  52.709  1.00  0.00     0.159 C 
HETATM    7  N3  UNL     1      97.633 -20.508  52.280  1.00  0.00    -0.407 N 
ATOM      8  H3  UNL     1      98.569 -20.544  51.877  1.00  0.00     0.154 HD
ENDROOT
BRANCH   1   9
HETATM    9  C2  UNL     1      95.687 -21.769  51.472  1.00  0.00     0.261 C 
BRANCH   9  10
HETATM   10  N1  UNL     1      94.934 -22.989  51.671  1.00  0.00    -0.077 N 
HETATM   11  C1  UNL     1      95.676 -24.065  51.011  1.00  0.00     0.267 C 
ATOM     12  H12 UNL     1      93.966 -22.919  51.356  1.00  0.00     0.276 HD
ATOM     13  H11 UNL     1      94.736 -23.182  52.653  1.00  0.00     0.276 HD
ENDBRANCH   9  10
ENDBRANCH   1   9
TORSDOF 2
ENDMDL
MODEL 5
REMARK VINA RESULT: -4.131005696      1.570      3.992
REMARK  2 active torsions:
REMARK  status: ('A' for Active; 'I' for Inactive)
REMARK    1  A    between atoms: N1_2  and  C2_5 
REMARK    2  A    between atoms: C2_5  and  C3_6 
ROOT
HETATM    1  C3  UNL     1      93.860 -24.181  49.829  1.00  0.00     0.141 C 
HETATM    2  C4  UNL     1      95.294 -24.004  49.494  1.00  0.00     0.086 C 
HETATM    3  N2  UNL     1      96.168 -24.940  50.071  1.00  0.00    -0.379 N 
ATOM      4  H2  UNL     1      97.112 -25.057  49.703  1.00  0.00     0.164 HD
HETATM    5  C5  UNL     1      95.731 -25.710  51.154  1.00  0.00     0.079 C 
HETATM    6  C6  UNL     1      94.494 -25.324  51.851  1.00  0.00     0.159 C 
HETATM    7  N3  UNL     1      93.700 -24.311  51.238  1.00  0.00    -0.407 N 
ATOM      8  H3  UNL     1      93.062 -23.720  51.771  1.00  0.00     0.154 HD
ENDROOT
BRANCH   1   9
HETATM    9  C2  UNL     1      93.218 -25.308  49.046  1.00  0.00     0.261 C 
BRANCH   9  10
HETATM   10  N1  UNL     1      93.668 -25.304  47.670  1.00  0.00    -0.077 N 
HETATM   11  C1  UNL     1      93.041 -26.450  47.009  1.00  0.00     0.267 C 
ATOM     12  H12 UNL     1      94.683 -25.297  47.581  1.00  0.00     0.276 HD
ATOM     13  H11 UNL     1      93.489 -24.420  47.193  1.00  0.00     0.276 HD
ENDBRANCH   9  10
ENDBRANCH   1   9
TORSDOF 2
ENDMDL
