MODEL 1
REMARK VINA RESULT: -4.224535359      0.000      0.000
REMARK  4 active torsions:
REMARK  status: ('A' for Active; 'I' for Inactive)
REMARK    1  A    between atoms: N1_2  and  C2_5 
REMARK    2  A    between atoms: C2_5  and  C3_6 
REMARK    3  A    between atoms: C3_6  and  C4_7 
REMARK    4  A    between atoms: C6_12  and  N3_13 
ROOT
HETATM    1  C4  UNL     1      93.473 -24.327  49.619  1.00  0.00     0.219 C 
HETATM    2  N2  UNL     1      93.699 -24.303  51.030  1.00  0.00    -0.067 N 
ATOM      3  H21 UNL     1      93.326 -25.029  51.642  1.00  0.00     0.277 HD
ATOM      4  H22 UNL     1      93.251 -23.612  51.631  1.00  0.00     0.277 HD
HETATM    5  C5  UNL     1      95.135 -24.229  50.708  1.00  0.00     0.267 C 
HETATM    6  C6  UNL     1      94.781 -25.083  49.488  1.00  0.00     0.239 C 
ENDROOT
BRANCH   1   7
HETATM    7  C3  UNL     1      92.263 -25.022  49.113  1.00  0.00     0.062 C 
BRANCH   7   8
HETATM    8  C2  UNL     1      92.337 -26.507  49.095  1.00  0.00     0.233 C 
BRANCH   8   9
HETATM    9  N1  UNL     1      92.033 -26.938  47.721  1.00  0.00    -0.079 N 
HETATM   10  C1  UNL     1      93.190 -27.481  47.066  1.00  0.00     0.266 C 
ATOM     11  H12 UNL     1      91.619 -26.181  47.177  1.00  0.00     0.276 HD
ATOM     12  H11 UNL     1      91.252 -27.594  47.702  1.00  0.00     0.276 HD
ENDBRANCH   8   9
ENDBRANCH   7   8
ENDBRANCH   1   7
BRANCH   6  13
HETATM   13  N3  UNL     1      95.455 -24.707  48.279  1.00  0.00    -0.071 N 
ATOM     14  H33 UNL     1      95.179 -25.293  47.491  1.00  0.00     0.274 HD
ATOM     15  H32 UNL     1      95.124 -23.810  47.922  1.00  0.00     0.274 HD
ATOM     16  H31 UNL     1      96.465 -24.711  48.421  1.00  0.00     0.274 HD
ENDBRANCH   6  13
TORSDOF 4
ENDMDL
MODEL 2
REMARK VINA RESULT: -4.127292219      4.645      6.332
REMARK  4 active torsions:
REMARK  status: ('A' for Active; 'I' for Inactive)
REMARK    1  A    between atoms: N1_2  and  C2_5 
REMARK    2  A    between atoms: C2_5  and  C3_6 
REMARK    3  A    between atoms: C3_6  and  C4_7 
REMARK    4  A    between atoms: C6_12  and  N3_13 
ROOT
HETATM    1  C4  UNL     1      96.096 -20.480  52.838  1.00  0.00     0.219 C 
HETATM    2  N2  UNL     1      95.459 -20.367  54.113  1.00  0.00    -0.067 N 
ATOM      3  H21 UNL     1      95.782 -20.900  54.920  1.00  0.00     0.277 HD
ATOM      4  H22 UNL     1      94.526 -20.744  54.279  1.00  0.00     0.277 HD
HETATM    5  C5  UNL     1      95.696 -18.917  54.002  1.00  0.00     0.267 C 
HETATM    6  C6  UNL     1      96.966 -19.307  53.241  1.00  0.00     0.239 C 
ENDROOT
BRANCH   1   7
HETATM    7  C3  UNL     1      96.808 -21.743  52.519  1.00  0.00     0.062 C 
BRANCH   7   8
HETATM    8  C2  UNL     1      95.979 -22.805  51.890  1.00  0.00     0.233 C 
BRANCH   8   9
HETATM    9  N1  UNL     1      94.941 -22.130  51.096  1.00  0.00    -0.079 N 
HETATM   10  C1  UNL     1      94.689 -22.812  49.858  1.00  0.00     0.266 C 
ATOM     11  H12 UNL     1      95.171 -21.149  50.940  1.00  0.00     0.276 HD
ATOM     12  H11 UNL     1      94.082 -22.008  51.635  1.00  0.00     0.276 HD
ENDBRANCH   8   9
ENDBRANCH   7   8
ENDBRANCH   1   7
BRANCH   6  13
HETATM   13  N3  UNL     1      97.256 -18.487  52.101  1.00  0.00    -0.071 N 
ATOM     14  H33 UNL     1      98.006 -18.878  51.531  1.00  0.00     0.274 HD
ATOM     15  H32 UNL     1      96.508 -18.520  51.408  1.00  0.00     0.274 HD
ATOM     16  H31 UNL     1      97.460 -17.531  52.395  1.00  0.00     0.274 HD
ENDBRANCH   6  13
TORSDOF 4
ENDMDL
MODEL 3
REMARK VINA RESULT: -4.109746150      1.675      4.419
REMARK  4 active torsions:
REMARK  status: ('A' for Active; 'I' for Inactive)
REMARK    1  A    between atoms: N1_2  and  C2_5 
REMARK    2  A    between atoms: C2_5  and  C3_6 
REMARK    3  A    between atoms: C3_6  and  C4_7 
REMARK    4  A    between atoms: C6_12  and  N3_13 
ROOT
HETATM    1  C4  UNL     1      93.198 -24.603  49.033  1.00  0.00     0.219 C 
HETATM    2  N2  UNL     1      93.943 -25.232  47.988  1.00  0.00    -0.067 N 
ATOM      3  H21 UNL     1      94.860 -25.645  48.161  1.00  0.00     0.277 HD
ATOM      4  H22 UNL     1      94.365 -24.692  47.233  1.00  0.00     0.277 HD
HETATM    5  C5  UNL     1      92.751 -26.069  47.765  1.00  0.00     0.267 C 
HETATM    6  C6  UNL     1      92.529 -25.941  49.275  1.00  0.00     0.239 C 
ENDROOT
BRANCH   1   7
HETATM    7  C3  UNL     1      93.945 -24.029  50.180  1.00  0.00     0.062 C 
BRANCH   7   8
HETATM    8  C2  UNL     1      94.691 -22.774  49.896  1.00  0.00     0.233 C 
BRANCH   8   9
HETATM    9  N1  UNL     1      94.935 -22.114  51.189  1.00  0.00    -0.079 N 
HETATM   10  C1  UNL     1      95.543 -23.007  52.135  1.00  0.00     0.266 C 
ATOM     11  H12 UNL     1      94.080 -21.702  51.563  1.00  0.00     0.276 HD
ATOM     12  H11 UNL     1      95.485 -21.263  51.074  1.00  0.00     0.276 HD
ENDBRANCH   8   9
ENDBRANCH   7   8
ENDBRANCH   1   7
BRANCH   6  13
HETATM   13  N3  UNL     1      91.162 -25.752  49.664  1.00  0.00    -0.071 N 
ATOM     14  H33 UNL     1      90.900 -24.766  49.667  1.00  0.00     0.274 HD
ATOM     15  H32 UNL     1      90.513 -26.077  48.947  1.00  0.00     0.274 HD
ATOM     16  H31 UNL     1      90.986 -26.196  50.566  1.00  0.00     0.274 HD
ENDBRANCH   6  13
TORSDOF 4
ENDMDL
MODEL 4
REMARK VINA RESULT: -4.093481191      1.821      4.081
REMARK  4 active torsions:
REMARK  status: ('A' for Active; 'I' for Inactive)
REMARK    1  A    between atoms: N1_2  and  C2_5 
REMARK    2  A    between atoms: C2_5  and  C3_6 
REMARK    3  A    between atoms: C3_6  and  C4_7 
REMARK    4  A    between atoms: C6_12  and  N3_13 
ROOT
HETATM    1  C4  UNL     1      93.174 -24.659  49.126  1.00  0.00     0.219 C 
HETATM    2  N2  UNL     1      93.951 -25.202  48.056  1.00  0.00    -0.067 N 
ATOM      3  H21 UNL     1      94.868 -25.618  48.219  1.00  0.00     0.277 HD
ATOM      4  H22 UNL     1      94.384 -24.603  47.353  1.00  0.00     0.277 HD
HETATM    5  C5  UNL     1      92.774 -26.031  47.742  1.00  0.00     0.267 C 
HETATM    6  C6  UNL     1      92.515 -26.019  49.251  1.00  0.00     0.239 C 
ENDROOT
BRANCH   1   7
HETATM    7  C3  UNL     1      93.887 -24.166  50.331  1.00  0.00     0.062 C 
BRANCH   7   8
HETATM    8  C2  UNL     1      94.097 -25.170  51.408  1.00  0.00     0.233 C 
BRANCH   8   9
HETATM    9  N1  UNL     1      93.290 -24.742  52.561  1.00  0.00    -0.079 N 
HETATM   10  C1  UNL     1      93.674 -25.427  53.763  1.00  0.00     0.266 C 
ATOM     11  H12 UNL     1      92.292 -24.846  52.376  1.00  0.00     0.276 HD
ATOM     12  H11 UNL     1      93.324 -23.729  52.683  1.00  0.00     0.276 HD
ENDBRANCH   8   9
ENDBRANCH   7   8
ENDBRANCH   1   7
BRANCH   6  13
HETATM   13  N3  UNL     1      91.137 -25.872  49.620  1.00  0.00    -0.071 N 
ATOM     14  H33 UNL     1      90.980 -25.036  50.182  1.00  0.00     0.274 HD
ATOM     15  H32 UNL     1      90.553 -25.627  48.820  1.00  0.00     0.274 HD
ATOM     16  H31 UNL     1      90.805 -26.715  50.090  1.00  0.00     0.274 HD
ENDBRANCH   6  13
TORSDOF 4
ENDMDL
MODEL 5
REMARK VINA RESULT: -4.089080417      1.663      1.898
REMARK  4 active torsions:
REMARK  status: ('A' for Active; 'I' for Inactive)
REMARK    1  A    between atoms: N1_2  and  C2_5 
REMARK    2  A    between atoms: C2_5  and  C3_6 
REMARK    3  A    between atoms: C3_6  and  C4_7 
REMARK    4  A    between atoms: C6_12  and  N3_13 
ROOT
HETATM    1  C4  UNL     1      94.005 -24.462  51.153  1.00  0.00     0.219 C 
HETATM    2  N2  UNL     1      93.876 -24.227  52.557  1.00  0.00    -0.067 N 
ATOM      3  H21 UNL     1      93.387 -24.883  53.166  1.00  0.00     0.277 HD
ATOM      4  H22 UNL     1      93.273 -23.490  52.922  1.00  0.00     0.277 HD
HETATM    5  C5  UNL     1      95.344 -24.103  52.580  1.00  0.00     0.267 C 
HETATM    6  C6  UNL     1      95.327 -25.140  51.454  1.00  0.00     0.239 C 
ENDROOT
BRANCH   1   7
HETATM    7  C3  UNL     1      92.978 -25.300  50.485  1.00  0.00     0.062 C 
BRANCH   7   8
HETATM    8  C2  UNL     1      92.448 -24.764  49.203  1.00  0.00     0.233 C 
BRANCH   8   9
HETATM    9  N1  UNL     1      93.515 -24.909  48.200  1.00  0.00    -0.079 N 
HETATM   10  C1  UNL     1      93.756 -26.287  47.875  1.00  0.00     0.266 C 
ATOM     11  H12 UNL     1      94.372 -24.442  48.498  1.00  0.00     0.276 HD
ATOM     12  H11 UNL     1      93.317 -24.359  47.364  1.00  0.00     0.276 HD
ENDBRANCH   8   9
ENDBRANCH   7   8
ENDBRANCH   1   7
BRANCH   6  13
HETATM   13  N3  UNL     1      96.265 -24.892  50.397  1.00  0.00    -0.071 N 
ATOM     14  H33 UNL     1      96.394 -25.711  49.802  1.00  0.00     0.274 HD
ATOM     15  H32 UNL     1      95.889 -24.254  49.696  1.00  0.00     0.274 HD
ATOM     16  H31 UNL     1      97.149 -24.558  50.781  1.00  0.00     0.274 HD
ENDBRANCH   6  13
TORSDOF 4
ENDMDL
