MODEL 1
REMARK VINA RESULT: -4.828369316      0.000      0.000
REMARK  4 active torsions:
REMARK  status: ('A' for Active; 'I' for Inactive)
REMARK    1  A    between atoms: N1_2  and  C2_5 
REMARK    2  A    between atoms: C2_5  and  C3_6 
REMARK    3  A    between atoms: C3_6  and  N2_7 
REMARK    4  A    between atoms: N2_7  and  C4_9 
ROOT
HETATM    1  C4  UNL     1      96.392 -19.545  53.185  1.00  0.00     0.693 A 
HETATM    2  N3  UNL     1      95.875 -20.088  54.334  1.00  0.00    -0.185 N 
ATOM      3  H3  UNL     1      95.922 -21.070  54.605  1.00  0.00     0.185 HD
HETATM    4  C5  UNL     1      95.302 -19.108  55.034  1.00  0.00     0.215 A 
HETATM    5  N4  UNL     1      95.451 -17.959  54.346  1.00  0.00    -0.281 N 
ATOM      6  H4  UNL     1      95.119 -17.035  54.625  1.00  0.00     0.188 HD
HETATM    7  N5  UNL     1      96.099 -18.253  53.257  1.00  0.00    -0.131 N 
ATOM      8  H5  UNL     1      96.352 -17.570  52.542  1.00  0.00     0.205 HD
ENDROOT
BRANCH   1   9
HETATM    9  N2  UNL     1      96.994 -20.273  52.351  1.00  0.00    -0.223 N 
ATOM     10  H2  UNL     1      97.685 -19.785  51.781  1.00  0.00     0.177 HD
BRANCH   9  11
HETATM   11  C3  UNL     1      96.872 -21.654  52.075  1.00  0.00     0.165 C 
BRANCH  11  12
HETATM   12  C2  UNL     1      95.568 -21.867  51.336  1.00  0.00     0.252 C 
BRANCH  12  13
HETATM   13  N1  UNL     1      94.875 -22.999  51.802  1.00  0.00    -0.077 N 
HETATM   14  C1  UNL     1      95.375 -23.486  53.053  1.00  0.00     0.267 C 
ATOM     15  H12 UNL     1      94.870 -23.739  51.099  1.00  0.00     0.276 HD
ATOM     16  H11 UNL     1      93.872 -22.815  51.858  1.00  0.00     0.276 HD
ENDBRANCH  12  13
ENDBRANCH  11  12
ENDBRANCH   9  11
ENDBRANCH   1   9
TORSDOF 4
ENDMDL
MODEL 2
REMARK VINA RESULT: -4.697813230      4.440      6.385
REMARK  4 active torsions:
REMARK  status: ('A' for Active; 'I' for Inactive)
REMARK    1  A    between atoms: N1_2  and  C2_5 
REMARK    2  A    between atoms: C2_5  and  C3_6 
REMARK    3  A    between atoms: C3_6  and  N2_7 
REMARK    4  A    between atoms: N2_7  and  C4_9 
ROOT
HETATM    1  C4  UNL     1      93.777 -23.853  49.835  1.00  0.00     0.693 A 
HETATM    2  N3  UNL     1      94.515 -22.744  49.509  1.00  0.00    -0.185 N 
ATOM      3  H3  UNL     1      94.565 -22.307  48.589  1.00  0.00     0.185 HD
HETATM    4  C5  UNL     1      95.156 -22.335  50.606  1.00  0.00     0.215 A 
HETATM    5  N4  UNL     1      94.833 -23.169  51.615  1.00  0.00    -0.281 N 
ATOM      6  H4  UNL     1      95.164 -23.115  52.578  1.00  0.00     0.188 HD
HETATM    7  N5  UNL     1      94.017 -24.055  51.124  1.00  0.00    -0.131 N 
ATOM      8  H5  UNL     1      93.608 -24.816  51.667  1.00  0.00     0.205 HD
ENDROOT
BRANCH   1   9
HETATM    9  N2  UNL     1      93.072 -24.427  48.963  1.00  0.00    -0.223 N 
ATOM     10  H2  UNL     1      93.407 -24.319  48.006  1.00  0.00     0.177 HD
BRANCH   9  11
HETATM   11  C3  UNL     1      91.892 -25.196  49.092  1.00  0.00     0.165 C 
BRANCH  11  12
HETATM   12  C2  UNL     1      92.275 -26.656  48.983  1.00  0.00     0.252 C 
BRANCH  12  13
HETATM   13  N1  UNL     1      91.942 -27.199  47.728  1.00  0.00    -0.077 N 
HETATM   14  C1  UNL     1      93.086 -27.442  46.902  1.00  0.00     0.267 C 
ATOM     15  H12 UNL     1      91.263 -26.609  47.245  1.00  0.00     0.276 HD
ATOM     16  H11 UNL     1      91.383 -28.046  47.833  1.00  0.00     0.276 HD
ENDBRANCH  12  13
ENDBRANCH  11  12
ENDBRANCH   9  11
ENDBRANCH   1   9
TORSDOF 4
ENDMDL
MODEL 3
REMARK VINA RESULT: -4.656726611      5.382      7.908
REMARK  4 active torsions:
REMARK  status: ('A' for Active; 'I' for Inactive)
REMARK    1  A    between atoms: N1_2  and  C2_5 
REMARK    2  A    between atoms: C2_5  and  C3_6 
REMARK    3  A    between atoms: C3_6  and  N2_7 
REMARK    4  A    between atoms: N2_7  and  C4_9 
ROOT
HETATM    1  C4  UNL     1      92.571 -25.416  48.517  1.00  0.00     0.693 A 
HETATM    2  N3  UNL     1      93.220 -25.716  47.346  1.00  0.00    -0.185 N 
ATOM      3  H3  UNL     1      93.893 -25.119  46.866  1.00  0.00     0.185 HD
HETATM    4  C5  UNL     1      92.817 -26.923  46.946  1.00  0.00     0.215 A 
HETATM    5  N4  UNL     1      91.927 -27.387  47.846  1.00  0.00    -0.281 N 
ATOM      6  H4  UNL     1      91.443 -28.285  47.815  1.00  0.00     0.188 HD
HETATM    7  N5  UNL     1      91.804 -26.471  48.761  1.00  0.00    -0.131 N 
ATOM      8  H5  UNL     1      91.190 -26.554  49.572  1.00  0.00     0.205 HD
ENDROOT
BRANCH   1   9
HETATM    9  N2  UNL     1      92.787 -24.322  49.103  1.00  0.00    -0.223 N 
ATOM     10  H2  UNL     1      92.000 -23.673  49.098  1.00  0.00     0.177 HD
BRANCH   9  11
HETATM   11  C3  UNL     1      93.940 -23.844  49.767  1.00  0.00     0.165 C 
BRANCH  11  12
HETATM   12  C2  UNL     1      94.266 -24.810  50.886  1.00  0.00     0.252 C 
BRANCH  12  13
HETATM   13  N1  UNL     1      93.368 -24.694  51.963  1.00  0.00    -0.077 N 
HETATM   14  C1  UNL     1      93.864 -25.279  53.172  1.00  0.00     0.267 C 
ATOM     15  H12 UNL     1      92.455 -25.080  51.719  1.00  0.00     0.276 HD
ATOM     16  H11 UNL     1      93.102 -23.720  52.112  1.00  0.00     0.276 HD
ENDBRANCH  12  13
ENDBRANCH  11  12
ENDBRANCH   9  11
ENDBRANCH   1   9
TORSDOF 4
ENDMDL
MODEL 4
REMARK VINA RESULT: -4.643757485      4.686      7.876
REMARK  4 active torsions:
REMARK  status: ('A' for Active; 'I' for Inactive)
REMARK    1  A    between atoms: N1_2  and  C2_5 
REMARK    2  A    between atoms: C2_5  and  C3_6 
REMARK    3  A    between atoms: C3_6  and  N2_7 
REMARK    4  A    between atoms: N2_7  and  C4_9 
ROOT
HETATM    1  C4  UNL     1      92.573 -25.423  48.471  1.00  0.00     0.693 A 
HETATM    2  N3  UNL     1      93.201 -25.734  47.292  1.00  0.00    -0.185 N 
ATOM      3  H3  UNL     1      93.856 -25.136  46.787  1.00  0.00     0.185 HD
HETATM    4  C5  UNL     1      92.806 -26.952  46.919  1.00  0.00     0.215 A 
HETATM    5  N4  UNL     1      91.942 -27.413  47.846  1.00  0.00    -0.281 N 
ATOM      6  H4  UNL     1      91.469 -28.317  47.840  1.00  0.00     0.188 HD
HETATM    7  N5  UNL     1      91.826 -26.484  48.748  1.00  0.00    -0.131 N 
ATOM      8  H5  UNL     1      91.231 -26.562  49.573  1.00  0.00     0.205 HD
ENDROOT
BRANCH   1   9
HETATM    9  N2  UNL     1      92.788 -24.317  49.035  1.00  0.00    -0.223 N 
ATOM     10  H2  UNL     1      91.992 -23.679  49.036  1.00  0.00     0.177 HD
BRANCH   9  11
HETATM   11  C3  UNL     1      93.948 -23.814  49.666  1.00  0.00     0.165 C 
BRANCH  11  12
HETATM   12  C2  UNL     1      94.110 -24.537  50.986  1.00  0.00     0.252 C 
BRANCH  12  13
HETATM   13  N1  UNL     1      94.524 -23.671  52.016  1.00  0.00    -0.077 N 
HETATM   14  C1  UNL     1      95.647 -22.861  51.649  1.00  0.00     0.267 C 
ATOM     15  H12 UNL     1      94.714 -24.190  52.874  1.00  0.00     0.276 HD
ATOM     16  H11 UNL     1      93.748 -23.092  52.339  1.00  0.00     0.276 HD
ENDBRANCH  12  13
ENDBRANCH  11  12
ENDBRANCH   9  11
ENDBRANCH   1   9
TORSDOF 4
ENDMDL
MODEL 5
REMARK VINA RESULT: -4.593950007      2.620      5.752
REMARK  4 active torsions:
REMARK  status: ('A' for Active; 'I' for Inactive)
REMARK    1  A    between atoms: N1_2  and  C2_5 
REMARK    2  A    between atoms: C2_5  and  C3_6 
REMARK    3  A    between atoms: C3_6  and  N2_7 
REMARK    4  A    between atoms: N2_7  and  C4_9 
ROOT
HETATM    1  C4  UNL     1      93.968 -23.904  50.393  1.00  0.00     0.693 A 
HETATM    2  N3  UNL     1      93.057 -24.804  50.884  1.00  0.00    -0.185 N 
ATOM      3  H3  UNL     1      92.989 -25.118  51.852  1.00  0.00     0.185 HD
HETATM    4  C5  UNL     1      92.278 -25.198  49.876  1.00  0.00     0.215 A 
HETATM    5  N4  UNL     1      92.682 -24.559  48.760  1.00  0.00    -0.281 N 
ATOM      6  H4  UNL     1      92.280 -24.651  47.827  1.00  0.00     0.188 HD
HETATM    7  N5  UNL     1      93.684 -23.803  49.101  1.00  0.00    -0.131 N 
ATOM      8  H5  UNL     1      94.192 -23.202  48.451  1.00  0.00     0.205 HD
ENDROOT
BRANCH   1   9
HETATM    9  N2  UNL     1      94.820 -23.378  51.158  1.00  0.00    -0.223 N 
ATOM     10  H2  UNL     1      95.191 -24.001  51.875  1.00  0.00     0.177 HD
BRANCH   9  11
HETATM   11  C3  UNL     1      95.346 -22.066  51.187  1.00  0.00     0.165 C 
BRANCH  11  12
HETATM   12  C2  UNL     1      96.451 -22.032  52.221  1.00  0.00     0.252 C 
BRANCH  12  13
HETATM   13  N1  UNL     1      97.275 -20.899  52.077  1.00  0.00    -0.077 N 
HETATM   14  C1  UNL     1      98.515 -21.015  52.784  1.00  0.00     0.267 C 
ATOM     15  H12 UNL     1      96.778 -20.051  52.349  1.00  0.00     0.276 HD
ATOM     16  H11 UNL     1      97.437 -20.689  51.091  1.00  0.00     0.276 HD
ENDBRANCH  12  13
ENDBRANCH  11  12
ENDBRANCH   9  11
ENDBRANCH   1   9
TORSDOF 4
ENDMDL
