MODEL 1
REMARK VINA RESULT: -4.225851104      0.000      0.000
REMARK  4 active torsions:
REMARK  status: ('A' for Active; 'I' for Inactive)
REMARK    1  A    between atoms: N1_2  and  C2_5 
REMARK    2  A    between atoms: C2_5  and  C3_6 
REMARK    3  A    between atoms: C3_6  and  C4_7 
REMARK    4  A    between atoms: C6_12  and  N3_13 
ROOT
HETATM    1  C4  UNL     1      93.123 -26.229  47.995  1.00  0.00     0.219 C 
HETATM    2  N2  UNL     1      94.448 -26.720  48.217  1.00  0.00    -0.067 N 
ATOM      3  H21 UNL     1      94.767 -26.992  49.146  1.00  0.00     0.277 HD
ATOM      4  H22 UNL     1      95.261 -26.108  48.152  1.00  0.00     0.277 HD
HETATM    5  C5  UNL     1      94.153 -27.723  47.178  1.00  0.00     0.267 C 
HETATM    6  C6  UNL     1      92.714 -27.658  47.696  1.00  0.00     0.239 C 
ENDROOT
BRANCH   1   7
HETATM    7  C3  UNL     1      92.420 -25.571  49.124  1.00  0.00     0.062 C 
BRANCH   7   8
HETATM    8  C2  UNL     1      93.261 -24.689  49.976  1.00  0.00     0.233 C 
BRANCH   8   9
HETATM    9  N1  UNL     1      93.637 -23.526  49.156  1.00  0.00    -0.079 N 
HETATM   10  C1  UNL     1      94.622 -22.711  49.809  1.00  0.00     0.266 C 
ATOM     11  H12 UNL     1      92.818 -22.979  48.890  1.00  0.00     0.276 HD
ATOM     12  H11 UNL     1      93.947 -23.811  48.227  1.00  0.00     0.276 HD
ENDBRANCH   8   9
ENDBRANCH   7   8
ENDBRANCH   1   7
BRANCH   6  13
HETATM   13  N3  UNL     1      91.709 -27.685  46.673  1.00  0.00    -0.071 N 
ATOM     14  H33 UNL     1      90.883 -27.147  46.937  1.00  0.00     0.274 HD
ATOM     15  H32 UNL     1      91.985 -27.144  45.854  1.00  0.00     0.274 HD
ATOM     16  H31 UNL     1      91.475 -28.648  46.432  1.00  0.00     0.274 HD
ENDBRANCH   6  13
TORSDOF 4
ENDMDL
MODEL 2
REMARK VINA RESULT: -4.208863669      5.935      8.381
REMARK  4 active torsions:
REMARK  status: ('A' for Active; 'I' for Inactive)
REMARK    1  A    between atoms: N1_2  and  C2_5 
REMARK    2  A    between atoms: C2_5  and  C3_6 
REMARK    3  A    between atoms: C3_6  and  C4_7 
REMARK    4  A    between atoms: C6_12  and  N3_13 
ROOT
HETATM    1  C4  UNL     1      97.000 -20.697  53.883  1.00  0.00     0.219 C 
HETATM    2  N2  UNL     1      98.113 -21.575  53.698  1.00  0.00    -0.067 N 
ATOM      3  H21 UNL     1      98.023 -22.447  53.177  1.00  0.00     0.277 HD
ATOM      4  H22 UNL     1      98.501 -22.114  54.471  1.00  0.00     0.277 HD
HETATM    5  C5  UNL     1      98.821 -20.412  53.136  1.00  0.00     0.267 C 
HETATM    6  C6  UNL     1      97.446 -19.973  52.628  1.00  0.00     0.239 C 
ENDROOT
BRANCH   1   7
HETATM    7  C3  UNL     1      95.634 -21.278  53.851  1.00  0.00     0.062 C 
BRANCH   7   8
HETATM    8  C2  UNL     1      95.466 -22.560  54.586  1.00  0.00     0.233 C 
BRANCH   8   9
HETATM    9  N1  UNL     1      94.754 -23.483  53.688  1.00  0.00    -0.079 N 
HETATM   10  C1  UNL     1      95.651 -24.138  52.778  1.00  0.00     0.266 C 
ATOM     11  H12 UNL     1      94.000 -23.010  53.190  1.00  0.00     0.276 HD
ATOM     12  H11 UNL     1      94.198 -24.159  54.213  1.00  0.00     0.276 HD
ENDBRANCH   8   9
ENDBRANCH   7   8
ENDBRANCH   1   7
BRANCH   6  13
HETATM   13  N3  UNL     1      97.185 -18.567  52.745  1.00  0.00    -0.071 N 
ATOM     14  H33 UNL     1      96.186 -18.361  52.724  1.00  0.00     0.274 HD
ATOM     15  H32 UNL     1      97.390 -18.219  53.682  1.00  0.00     0.274 HD
ATOM     16  H31 UNL     1      97.696 -18.051  52.028  1.00  0.00     0.274 HD
ENDBRANCH   6  13
TORSDOF 4
ENDMDL
MODEL 3
REMARK VINA RESULT: -4.195869856      2.333      2.838
REMARK  4 active torsions:
REMARK  status: ('A' for Active; 'I' for Inactive)
REMARK    1  A    between atoms: N1_2  and  C2_5 
REMARK    2  A    between atoms: C2_5  and  C3_6 
REMARK    3  A    between atoms: C3_6  and  C4_7 
REMARK    4  A    between atoms: C6_12  and  N3_13 
ROOT
HETATM    1  C4  UNL     1      93.339 -24.755  49.154  1.00  0.00     0.219 C 
HETATM    2  N2  UNL     1      94.166 -25.124  48.048  1.00  0.00    -0.067 N 
ATOM      3  H21 UNL     1      95.126 -25.441  48.182  1.00  0.00     0.277 HD
ATOM      4  H22 UNL     1      94.523 -24.428  47.393  1.00  0.00     0.277 HD
HETATM    5  C5  UNL     1      93.091 -26.058  47.671  1.00  0.00     0.267 C 
HETATM    6  C6  UNL     1      92.842 -26.187  49.177  1.00  0.00     0.239 C 
ENDROOT
BRANCH   1   7
HETATM    7  C3  UNL     1      93.998 -24.273  50.394  1.00  0.00     0.062 C 
BRANCH   7   8
HETATM    8  C2  UNL     1      94.280 -25.315  51.417  1.00  0.00     0.233 C 
BRANCH   8   9
HETATM    9  N1  UNL     1      93.493 -24.972  52.612  1.00  0.00    -0.079 N 
HETATM   10  C1  UNL     1      94.100 -25.475  53.812  1.00  0.00     0.266 C 
ATOM     11  H12 UNL     1      92.527 -25.289  52.524  1.00  0.00     0.276 HD
ATOM     12  H11 UNL     1      93.326 -23.968  52.671  1.00  0.00     0.276 HD
ENDBRANCH   8   9
ENDBRANCH   7   8
ENDBRANCH   1   7
BRANCH   6  13
HETATM   13  N3  UNL     1      91.459 -26.229  49.553  1.00  0.00    -0.071 N 
ATOM     14  H33 UNL     1      91.333 -26.105  50.558  1.00  0.00     0.274 HD
ATOM     15  H32 UNL     1      90.953 -25.402  49.236  1.00  0.00     0.274 HD
ATOM     16  H31 UNL     1      91.027 -27.090  49.218  1.00  0.00     0.274 HD
ENDBRANCH   6  13
TORSDOF 4
ENDMDL
MODEL 4
REMARK VINA RESULT: -4.184580710      4.754      8.148
REMARK  4 active torsions:
REMARK  status: ('A' for Active; 'I' for Inactive)
REMARK    1  A    between atoms: N1_2  and  C2_5 
REMARK    2  A    between atoms: C2_5  and  C3_6 
REMARK    3  A    between atoms: C3_6  and  C4_7 
REMARK    4  A    between atoms: C6_12  and  N3_13 
ROOT
HETATM    1  C4  UNL     1      96.293 -20.843  53.124  1.00  0.00     0.219 C 
HETATM    2  N2  UNL     1      95.876 -21.062  54.473  1.00  0.00    -0.067 N 
ATOM      3  H21 UNL     1      96.356 -21.727  55.079  1.00  0.00     0.277 HD
ATOM      4  H22 UNL     1      95.004 -21.543  54.691  1.00  0.00     0.277 HD
HETATM    5  C5  UNL     1      96.021 -19.607  54.659  1.00  0.00     0.267 C 
HETATM    6  C6  UNL     1      97.162 -19.714  53.644  1.00  0.00     0.239 C 
ENDROOT
BRANCH   1   7
HETATM    7  C3  UNL     1      97.001 -21.941  52.421  1.00  0.00     0.062 C 
BRANCH   7   8
HETATM    8  C2  UNL     1      96.129 -22.926  51.726  1.00  0.00     0.233 C 
BRANCH   8   9
HETATM    9  N1  UNL     1      94.990 -22.178  51.171  1.00  0.00    -0.079 N 
HETATM   10  C1  UNL     1      94.619 -22.662  49.871  1.00  0.00     0.266 C 
ATOM     11  H12 UNL     1      95.176 -21.175  51.155  1.00  0.00     0.276 HD
ATOM     12  H11 UNL     1      94.195 -22.182  51.811  1.00  0.00     0.276 HD
ENDBRANCH   8   9
ENDBRANCH   7   8
ENDBRANCH   1   7
BRANCH   6  13
HETATM   13  N3  UNL     1      97.214 -18.646  52.689  1.00  0.00    -0.071 N 
ATOM     14  H33 UNL     1      98.172 -18.426  52.415  1.00  0.00     0.274 HD
ATOM     15  H32 UNL     1      96.860 -18.932  51.776  1.00  0.00     0.274 HD
ATOM     16  H31 UNL     1      96.723 -17.826  53.047  1.00  0.00     0.274 HD
ENDBRANCH   6  13
TORSDOF 4
ENDMDL
MODEL 5
REMARK VINA RESULT: -4.178116371      1.496      4.107
REMARK  4 active torsions:
REMARK  status: ('A' for Active; 'I' for Inactive)
REMARK    1  A    between atoms: N1_2  and  C2_5 
REMARK    2  A    between atoms: C2_5  and  C3_6 
REMARK    3  A    between atoms: C3_6  and  C4_7 
REMARK    4  A    between atoms: C6_12  and  N3_13 
ROOT
HETATM    1  C4  UNL     1      94.406 -25.558  49.545  1.00  0.00     0.219 C 
HETATM    2  N2  UNL     1      94.398 -24.495  48.590  1.00  0.00    -0.067 N 
ATOM      3  H21 UNL     1      93.757 -24.495  47.797  1.00  0.00     0.277 HD
ATOM      4  H22 UNL     1      95.164 -24.366  47.929  1.00  0.00     0.277 HD
HETATM    5  C5  UNL     1      94.207 -23.588  49.735  1.00  0.00     0.267 C 
HETATM    6  C6  UNL     1      93.424 -24.744  50.363  1.00  0.00     0.239 C 
ENDROOT
BRANCH   1   7
HETATM    7  C3  UNL     1      93.940 -26.898  49.109  1.00  0.00     0.062 C 
BRANCH   7   8
HETATM    8  C2  UNL     1      92.468 -27.044  48.949  1.00  0.00     0.233 C 
BRANCH   8   9
HETATM    9  N1  UNL     1      92.215 -27.340  47.530  1.00  0.00    -0.079 N 
HETATM   10  C1  UNL     1      93.429 -27.640  46.824  1.00  0.00     0.266 C 
ATOM     11  H12 UNL     1      91.700 -26.585  47.079  1.00  0.00     0.276 HD
ATOM     12  H11 UNL     1      91.528 -28.088  47.423  1.00  0.00     0.276 HD
ENDBRANCH   8   9
ENDBRANCH   7   8
ENDBRANCH   1   7
BRANCH   6  13
HETATM   13  N3  UNL     1      93.663 -24.936  51.765  1.00  0.00    -0.071 N 
ATOM     14  H33 UNL     1      94.544 -24.518  52.062  1.00  0.00     0.274 HD
ATOM     15  H32 UNL     1      93.031 -24.379  52.339  1.00  0.00     0.274 HD
ATOM     16  H31 UNL     1      93.614 -25.928  51.999  1.00  0.00     0.274 HD
ENDBRANCH   6  13
TORSDOF 4
ENDMDL
