MODEL 1
REMARK VINA RESULT: -5.092522254      0.000      0.000
REMARK  3 active torsions:
REMARK  status: ('A' for Active; 'I' for Inactive)
REMARK    1  A    between atoms: C2_4  and  C3_5 
REMARK    2  A    between atoms: C3_5  and  N2_6 
REMARK    3  A    between atoms: N2_6  and  C4_8 
ROOT
HETATM    1  C3  UNL     1      98.199 -21.136  53.297  1.00  0.00     0.181 C 
ENDROOT
BRANCH   1   2
HETATM    2  C2  UNL     1      96.998 -22.017  53.141  1.00  0.00     0.043 A 
HETATM    3  N1  UNL     1      96.672 -22.771  52.074  1.00  0.00    -0.353 N 
HETATM    4  C1  UNL     1      95.520 -23.411  52.333  1.00  0.00     0.180 A 
ATOM      5  H1  UNL     1      97.212 -22.845  51.212  1.00  0.00     0.166 HD
HETATM    6  N5  UNL     1      95.079 -23.088  53.563  1.00  0.00    -0.360 N 
HETATM    7  C5  UNL     1      95.995 -22.228  54.055  1.00  0.00     0.115 A 
ATOM      8  H5  UNL     1      94.233 -23.422  54.025  1.00  0.00     0.166 HD
ENDBRANCH   1   2
BRANCH   1   9
HETATM    9  N2  UNL     1      98.019 -19.921  52.554  1.00  0.00    -0.354 N 
ATOM     10  H2  UNL     1      98.623 -19.750  51.751  1.00  0.00     0.163 HD
BRANCH   9  11
HETATM   11  C4  UNL     1      97.041 -18.950  52.881  1.00  0.00     0.209 A 
HETATM   12  N3  UNL     1      96.348 -17.939  52.476  1.00  0.00    -0.267 N 
HETATM   13  N4  UNL     1      96.114 -18.314  53.751  1.00  0.00    -0.267 N 
ATOM     14  H3  UNL     1      96.128 -17.297  51.715  1.00  0.00     0.190 HD
ATOM     15  H4  UNL     1      95.639 -18.216  54.647  1.00  0.00     0.190 HD
ENDBRANCH   9  11
ENDBRANCH   1   9
TORSDOF 3
ENDMDL
MODEL 2
REMARK VINA RESULT: -5.065998674      0.796      1.154
REMARK  3 active torsions:
REMARK  status: ('A' for Active; 'I' for Inactive)
REMARK    1  A    between atoms: C2_4  and  C3_5 
REMARK    2  A    between atoms: C3_5  and  N2_6 
REMARK    3  A    between atoms: N2_6  and  C4_8 
ROOT
HETATM    1  C3  UNL     1      98.208 -21.196  53.193  1.00  0.00     0.181 C 
ENDROOT
BRANCH   1   2
HETATM    2  C2  UNL     1      96.980 -22.041  53.341  1.00  0.00     0.043 A 
HETATM    3  N1  UNL     1      96.402 -22.446  54.489  1.00  0.00    -0.353 N 
HETATM    4  C1  UNL     1      95.322 -23.186  54.190  1.00  0.00     0.180 A 
ATOM      5  H1  UNL     1      96.731 -22.226  55.429  1.00  0.00     0.166 HD
HETATM    6  N5  UNL     1      95.177 -23.274  52.855  1.00  0.00    -0.360 N 
HETATM    7  C5  UNL     1      96.203 -22.566  52.338  1.00  0.00     0.115 A 
ATOM      8  H5  UNL     1      94.448 -23.770  52.342  1.00  0.00     0.166 HD
ENDBRANCH   1   2
BRANCH   1   9
HETATM    9  N2  UNL     1      97.907 -20.020  52.428  1.00  0.00    -0.354 N 
ATOM     10  H2  UNL     1      98.359 -19.902  51.521  1.00  0.00     0.163 HD
BRANCH   9  11
HETATM   11  C4  UNL     1      97.012 -19.015  52.870  1.00  0.00     0.209 A 
HETATM   12  N3  UNL     1      96.330 -17.965  52.555  1.00  0.00    -0.267 N 
HETATM   13  N4  UNL     1      96.204 -18.361  53.839  1.00  0.00    -0.267 N 
ATOM     14  H3  UNL     1      96.067 -17.295  51.833  1.00  0.00     0.190 HD
ATOM     15  H4  UNL     1      95.823 -18.265  54.780  1.00  0.00     0.190 HD
ENDBRANCH   9  11
ENDBRANCH   1   9
TORSDOF 3
ENDMDL
MODEL 3
REMARK VINA RESULT: -5.057965599      1.800      2.199
REMARK  3 active torsions:
REMARK  status: ('A' for Active; 'I' for Inactive)
REMARK    1  A    between atoms: C2_4  and  C3_5 
REMARK    2  A    between atoms: C3_5  and  N2_6 
REMARK    3  A    between atoms: N2_6  and  C4_8 
ROOT
HETATM    1  C3  UNL     1      95.684 -21.619  53.388  1.00  0.00     0.181 C 
ENDROOT
BRANCH   1   2
HETATM    2  C2  UNL     1      95.517 -23.014  53.909  1.00  0.00     0.043 A 
HETATM    3  N1  UNL     1      94.633 -23.941  53.490  1.00  0.00    -0.353 N 
HETATM    4  C1  UNL     1      94.807 -25.060  54.213  1.00  0.00     0.180 A 
ATOM      5  H1  UNL     1      93.946 -23.814  52.747  1.00  0.00     0.166 HD
HETATM    6  N5  UNL     1      95.799 -24.884  55.105  1.00  0.00    -0.360 N 
HETATM    7  C5  UNL     1      96.232 -23.620  54.913  1.00  0.00     0.115 A 
ATOM      8  H5  UNL     1      96.149 -25.561  55.783  1.00  0.00     0.166 HD
ENDBRANCH   1   2
BRANCH   1   9
HETATM    9  N2  UNL     1      95.865 -20.705  54.479  1.00  0.00    -0.354 N 
ATOM     10  H2  UNL     1      95.961 -21.086  55.420  1.00  0.00     0.163 HD
BRANCH   9  11
HETATM   11  C4  UNL     1      95.918 -19.300  54.312  1.00  0.00     0.209 A 
HETATM   12  N3  UNL     1      96.092 -18.317  53.493  1.00  0.00    -0.267 N 
HETATM   13  N4  UNL     1      95.846 -17.956  54.769  1.00  0.00    -0.267 N 
ATOM     14  H3  UNL     1      96.283 -18.019  52.537  1.00  0.00     0.190 HD
ATOM     15  H4  UNL     1      95.712 -17.257  55.499  1.00  0.00     0.190 HD
ENDBRANCH   9  11
ENDBRANCH   1   9
TORSDOF 3
ENDMDL
MODEL 4
REMARK VINA RESULT: -4.915348486      1.068      1.175
REMARK  3 active torsions:
REMARK  status: ('A' for Active; 'I' for Inactive)
REMARK    1  A    between atoms: C2_4  and  C3_5 
REMARK    2  A    between atoms: C3_5  and  N2_6 
REMARK    3  A    between atoms: N2_6  and  C4_8 
ROOT
HETATM    1  C3  UNL     1      97.776 -21.416  52.845  1.00  0.00     0.181 C 
ENDROOT
BRANCH   1   2
HETATM    2  C2  UNL     1      96.607 -22.066  52.171  1.00  0.00     0.043 A 
HETATM    3  N1  UNL     1      96.102 -21.778  50.956  1.00  0.00    -0.353 N 
HETATM    4  C1  UNL     1      95.056 -22.586  50.721  1.00  0.00     0.180 A 
ATOM      5  H1  UNL     1      96.456 -21.063  50.320  1.00  0.00     0.166 HD
HETATM    6  N5  UNL     1      94.863 -23.409  51.768  1.00  0.00    -0.360 N 
HETATM    7  C5  UNL     1      95.823 -23.082  52.659  1.00  0.00     0.115 A 
ATOM      8  H5  UNL     1      94.145 -24.127  51.868  1.00  0.00     0.166 HD
ENDBRANCH   1   2
BRANCH   1   9
HETATM    9  N2  UNL     1      97.877 -20.043  52.440  1.00  0.00    -0.354 N 
ATOM     10  H2  UNL     1      98.618 -19.782  51.789  1.00  0.00     0.163 HD
BRANCH   9  11
HETATM   11  C4  UNL     1      96.997 -19.032  52.899  1.00  0.00     0.209 A 
HETATM   12  N3  UNL     1      96.319 -17.975  52.598  1.00  0.00    -0.267 N 
HETATM   13  N4  UNL     1      96.210 -18.375  53.883  1.00  0.00    -0.267 N 
ATOM     14  H3  UNL     1      96.050 -17.301  51.882  1.00  0.00     0.190 HD
ATOM     15  H4  UNL     1      95.844 -18.278  54.830  1.00  0.00     0.190 HD
ENDBRANCH   9  11
ENDBRANCH   1   9
TORSDOF 3
ENDMDL
MODEL 5
REMARK VINA RESULT: -4.901983548      1.754      2.270
REMARK  3 active torsions:
REMARK  status: ('A' for Active; 'I' for Inactive)
REMARK    1  A    between atoms: C2_4  and  C3_5 
REMARK    2  A    between atoms: C3_5  and  N2_6 
REMARK    3  A    between atoms: N2_6  and  C4_8 
ROOT
HETATM    1  C3  UNL     1      96.178 -21.796  54.229  1.00  0.00     0.181 C 
ENDROOT
BRANCH   1   2
HETATM    2  C2  UNL     1      95.485 -23.098  53.967  1.00  0.00     0.043 A 
HETATM    3  N1  UNL     1      94.400 -23.586  54.599  1.00  0.00    -0.353 N 
HETATM    4  C1  UNL     1      94.093 -24.781  54.068  1.00  0.00     0.180 A 
ATOM      5  H1  UNL     1      93.895 -23.124  55.355  1.00  0.00     0.166 HD
HETATM    6  N5  UNL     1      94.964 -25.089  53.089  1.00  0.00    -0.360 N 
HETATM    7  C5  UNL     1      95.820 -24.047  53.033  1.00  0.00     0.115 A 
ATOM      8  H5  UNL     1      94.976 -25.931  52.513  1.00  0.00     0.166 HD
ENDBRANCH   1   2
BRANCH   1   9
HETATM    9  N2  UNL     1      95.428 -20.715  53.655  1.00  0.00    -0.354 N 
ATOM     10  H2  UNL     1      94.681 -20.938  52.998  1.00  0.00     0.163 HD
BRANCH   9  11
HETATM   11  C4  UNL     1      95.676 -19.354  53.955  1.00  0.00     0.209 A 
HETATM   12  N3  UNL     1      96.061 -18.204  53.510  1.00  0.00    -0.267 N 
HETATM   13  N4  UNL     1      95.726 -18.224  54.817  1.00  0.00    -0.267 N 
ATOM     14  H3  UNL     1      96.391 -17.656  52.716  1.00  0.00     0.190 HD
ATOM     15  H4  UNL     1      95.603 -17.775  55.724  1.00  0.00     0.190 HD
ENDBRANCH   9  11
ENDBRANCH   1   9
TORSDOF 3
ENDMDL
