MODEL 1
REMARK VINA RESULT: -4.635631859      0.000      0.000
REMARK  5 active torsions:
REMARK  status: ('A' for Active; 'I' for Inactive)
REMARK    1  A    between atoms: N1_2  and  N2_4 
REMARK    2  A    between atoms: C2_6  and  N3_7 
REMARK    3  A    between atoms: N3_7  and  C3_9 
REMARK    4  A    between atoms: C3_9  and  C4_10 
REMARK    5  A    between atoms: C6_12  and  N4_13 
ROOT
HETATM    1  N3  UNL     1      93.564 -24.272  48.736  1.00  0.00    -0.385 N 
ATOM      2  H3  UNL     1      92.892 -23.861  48.088  1.00  0.00     0.160 HD
ENDROOT
BRANCH   1   3
HETATM    3  C2  UNL     1      94.316 -23.468  49.664  1.00  0.00     0.192 C 
HETATM    4  N2  UNL     1      94.285 -23.818  50.896  1.00  0.00    -0.301 N 
ATOM      5  H2  UNL     1      93.742 -24.636  51.175  1.00  0.00     0.187 HD
BRANCH   4   6
HETATM    6  N1  UNL     1      94.981 -23.098  51.855  1.00  0.00    -0.340 N 
HETATM    7  C1  UNL     1      95.874 -22.038  51.470  1.00  0.00     0.167 C 
ATOM      8  H1  UNL     1      94.858 -23.321  52.843  1.00  0.00     0.179 HD
ENDBRANCH   4   6
ENDBRANCH   1   3
BRANCH   1   9
HETATM    9  C3  UNL     1      93.813 -25.667  48.774  1.00  0.00     0.127 C 
BRANCH   9  10
HETATM   10  C4  UNL     1      93.446 -26.381  47.539  1.00  0.00     0.036 A 
HETATM   11  C5  UNL     1      94.088 -27.698  47.215  1.00  0.00     0.041 A 
HETATM   12  C6  UNL     1      92.644 -27.662  47.580  1.00  0.00     0.189 A 
BRANCH  12  13
HETATM   13  N4  UNL     1      91.657 -27.754  46.513  1.00  0.00    -0.075 N 
ATOM     14  H43 UNL     1      90.931 -28.431  46.748  1.00  0.00     0.274 HD
ATOM     15  H42 UNL     1      91.089 -26.908  46.470  1.00  0.00     0.274 HD
ATOM     16  H41 UNL     1      92.068 -27.963  45.604  1.00  0.00     0.274 HD
ENDBRANCH  12  13
ENDBRANCH   9  10
ENDBRANCH   1   9
TORSDOF 5
ENDMDL
MODEL 2
REMARK VINA RESULT: -4.582764226      2.651      4.119
REMARK  5 active torsions:
REMARK  status: ('A' for Active; 'I' for Inactive)
REMARK    1  A    between atoms: N1_2  and  N2_4 
REMARK    2  A    between atoms: C2_6  and  N3_7 
REMARK    3  A    between atoms: N3_7  and  C3_9 
REMARK    4  A    between atoms: C3_9  and  C4_10 
REMARK    5  A    between atoms: C6_12  and  N4_13 
ROOT
HETATM    1  N3  UNL     1      95.125 -22.214  51.987  1.00  0.00    -0.385 N 
ATOM      2  H3  UNL     1      94.369 -22.599  52.553  1.00  0.00     0.160 HD
ENDROOT
BRANCH   1   3
HETATM    3  C2  UNL     1      96.264 -21.561  52.579  1.00  0.00     0.192 C 
HETATM    4  N2  UNL     1      97.005 -20.863  51.800  1.00  0.00    -0.301 N 
ATOM      5  H2  UNL     1      96.770 -20.792  50.810  1.00  0.00     0.187 HD
BRANCH   4   6
HETATM    6  N1  UNL     1      98.121 -20.202  52.289  1.00  0.00    -0.340 N 
HETATM    7  C1  UNL     1      98.904 -20.774  53.353  1.00  0.00     0.167 C 
ATOM      8  H1  UNL     1      98.391 -19.303  51.891  1.00  0.00     0.179 HD
ENDBRANCH   4   6
ENDBRANCH   1   3
BRANCH   1   9
HETATM    9  C3  UNL     1      95.115 -22.291  50.572  1.00  0.00     0.127 C 
BRANCH   9  10
HETATM   10  C4  UNL     1      94.953 -23.656  50.041  1.00  0.00     0.036 A 
HETATM   11  C5  UNL     1      94.047 -24.628  50.736  1.00  0.00     0.041 A 
HETATM   12  C6  UNL     1      93.659 -24.100  49.398  1.00  0.00     0.189 A 
BRANCH  12  13
HETATM   13  N4  UNL     1      93.862 -24.950  48.232  1.00  0.00    -0.075 N 
ATOM     14  H43 UNL     1      94.844 -24.961  47.957  1.00  0.00     0.274 HD
ATOM     15  H42 UNL     1      93.745 -25.934  48.476  1.00  0.00     0.274 HD
ATOM     16  H41 UNL     1      93.266 -24.698  47.444  1.00  0.00     0.274 HD
ENDBRANCH  12  13
ENDBRANCH   9  10
ENDBRANCH   1   9
TORSDOF 5
ENDMDL
MODEL 3
REMARK VINA RESULT: -4.564696556      5.172      6.765
REMARK  5 active torsions:
REMARK  status: ('A' for Active; 'I' for Inactive)
REMARK    1  A    between atoms: N1_2  and  N2_4 
REMARK    2  A    between atoms: C2_6  and  N3_7 
REMARK    3  A    between atoms: N3_7  and  C3_9 
REMARK    4  A    between atoms: C3_9  and  C4_10 
REMARK    5  A    between atoms: C6_12  and  N4_13 
ROOT
HETATM    1  N3  UNL     1      98.422 -20.544  52.454  1.00  0.00    -0.385 N 
ATOM      2  H3  UNL     1      99.158 -20.097  51.907  1.00  0.00     0.160 HD
ENDROOT
BRANCH   1   3
HETATM    3  C2  UNL     1      97.549 -19.789  53.316  1.00  0.00     0.192 C 
HETATM    4  N2  UNL     1      96.968 -18.767  52.807  1.00  0.00    -0.301 N 
ATOM      5  H2  UNL     1      97.137 -18.525  51.830  1.00  0.00     0.187 HD
BRANCH   4   6
HETATM    6  N1  UNL     1      96.112 -17.987  53.568  1.00  0.00    -0.340 N 
HETATM    7  C1  UNL     1      95.492 -18.520  54.752  1.00  0.00     0.167 C 
ATOM      8  H1  UNL     1      95.920 -17.025  53.287  1.00  0.00     0.179 HD
ENDBRANCH   4   6
ENDBRANCH   1   3
BRANCH   1   9
HETATM    9  C3  UNL     1      98.199 -21.943  52.409  1.00  0.00     0.127 C 
BRANCH   9  10
HETATM   10  C4  UNL     1      96.785 -22.326  52.257  1.00  0.00     0.036 A 
HETATM   11  C5  UNL     1      96.427 -23.648  51.644  1.00  0.00     0.041 A 
HETATM   12  C6  UNL     1      96.174 -23.426  53.096  1.00  0.00     0.189 A 
BRANCH  12  13
HETATM   13  N4  UNL     1      94.814 -23.131  53.525  1.00  0.00    -0.075 N 
ATOM     14  H43 UNL     1      94.784 -22.933  54.525  1.00  0.00     0.274 HD
ATOM     15  H42 UNL     1      94.508 -22.226  53.166  1.00  0.00     0.274 HD
ATOM     16  H41 UNL     1      94.149 -23.863  53.279  1.00  0.00     0.274 HD
ENDBRANCH  12  13
ENDBRANCH   9  10
ENDBRANCH   1   9
TORSDOF 5
ENDMDL
MODEL 4
REMARK VINA RESULT: -4.543199789      4.177      7.610
REMARK  5 active torsions:
REMARK  status: ('A' for Active; 'I' for Inactive)
REMARK    1  A    between atoms: N1_2  and  N2_4 
REMARK    2  A    between atoms: C2_6  and  N3_7 
REMARK    3  A    between atoms: N3_7  and  C3_9 
REMARK    4  A    between atoms: C3_9  and  C4_10 
REMARK    5  A    between atoms: C6_12  and  N4_13 
ROOT
HETATM    1  N3  UNL     1      96.538 -23.010  54.646  1.00  0.00    -0.385 N 
ATOM      2  H3  UNL     1      97.311 -23.203  55.282  1.00  0.00     0.160 HD
ENDROOT
BRANCH   1   3
HETATM    3  C2  UNL     1      95.741 -24.065  54.074  1.00  0.00     0.192 C 
HETATM    4  N2  UNL     1      94.656 -23.721  53.486  1.00  0.00    -0.301 N 
ATOM      5  H2  UNL     1      94.397 -22.735  53.441  1.00  0.00     0.187 HD
BRANCH   4   6
HETATM    6  N1  UNL     1      93.831 -24.674  52.910  1.00  0.00    -0.340 N 
HETATM    7  C1  UNL     1      94.238 -25.375  51.721  1.00  0.00     0.167 C 
ATOM      8  H1  UNL     1      92.926 -24.882  53.333  1.00  0.00     0.179 HD
ENDBRANCH   4   6
ENDBRANCH   1   3
BRANCH   1   9
HETATM    9  C3  UNL     1      96.186 -21.689  54.273  1.00  0.00     0.127 C 
BRANCH   9  10
HETATM   10  C4  UNL     1      97.326 -20.851  53.863  1.00  0.00     0.036 A 
HETATM   11  C5  UNL     1      98.218 -21.296  52.741  1.00  0.00     0.041 A 
HETATM   12  C6  UNL     1      97.327 -20.118  52.541  1.00  0.00     0.189 A 
BRANCH  12  13
HETATM   13  N4  UNL     1      97.910 -18.786  52.626  1.00  0.00    -0.075 N 
ATOM     14  H43 UNL     1      98.261 -18.602  53.566  1.00  0.00     0.274 HD
ATOM     15  H42 UNL     1      98.786 -18.739  52.106  1.00  0.00     0.274 HD
ATOM     16  H41 UNL     1      97.271 -18.049  52.327  1.00  0.00     0.274 HD
ENDBRANCH  12  13
ENDBRANCH   9  10
ENDBRANCH   1   9
TORSDOF 5
ENDMDL
MODEL 5
REMARK VINA RESULT: -4.538339125      2.539      5.102
REMARK  5 active torsions:
REMARK  status: ('A' for Active; 'I' for Inactive)
REMARK    1  A    between atoms: N1_2  and  N2_4 
REMARK    2  A    between atoms: C2_6  and  N3_7 
REMARK    3  A    between atoms: N3_7  and  C3_9 
REMARK    4  A    between atoms: C3_9  and  C4_10 
REMARK    5  A    between atoms: C6_12  and  N4_13 
ROOT
HETATM    1  N3  UNL     1      96.266 -24.826  49.166  1.00  0.00    -0.385 N 
ATOM      2  H3  UNL     1      96.971 -24.414  48.556  1.00  0.00     0.160 HD
ENDROOT
BRANCH   1   3
HETATM    3  C2  UNL     1      95.183 -25.622  48.649  1.00  0.00     0.192 C 
HETATM    4  N2  UNL     1      94.419 -25.072  47.780  1.00  0.00    -0.301 N 
ATOM      5  H2  UNL     1      94.597 -24.111  47.488  1.00  0.00     0.187 HD
BRANCH   4   6
HETATM    6  N1  UNL     1      93.353 -25.769  47.233  1.00  0.00    -0.340 N 
HETATM    7  C1  UNL     1      93.443 -27.186  47.003  1.00  0.00     0.167 C 
ATOM      8  H1  UNL     1      92.495 -25.272  46.992  1.00  0.00     0.179 HD
ENDBRANCH   4   6
ENDBRANCH   1   3
BRANCH   1   9
HETATM    9  C3  UNL     1      96.296 -24.649  50.572  1.00  0.00     0.127 C 
BRANCH   9  10
HETATM   10  C4  UNL     1      95.205 -25.329  51.290  1.00  0.00     0.036 A 
HETATM   11  C5  UNL     1      95.521 -26.295  52.395  1.00  0.00     0.041 A 
HETATM   12  C6  UNL     1      94.879 -24.991  52.728  1.00  0.00     0.189 A 
BRANCH  12  13
HETATM   13  N4  UNL     1      93.449 -24.973  53.002  1.00  0.00    -0.075 N 
ATOM     14  H43 UNL     1      93.197 -25.708  53.663  1.00  0.00     0.274 HD
ATOM     15  H42 UNL     1      93.197 -24.155  53.557  1.00  0.00     0.274 HD
ATOM     16  H41 UNL     1      92.879 -25.031  52.159  1.00  0.00     0.274 HD
ENDBRANCH  12  13
ENDBRANCH   9  10
ENDBRANCH   1   9
TORSDOF 5
ENDMDL
