MODEL 1
REMARK VINA RESULT: -8.518293361      0.000      0.000
REMARK  10 active torsions:
REMARK  status: ('A' for Active; 'I' for Inactive)
REMARK    1  A    between atoms: C2_2  and  N1_3 
REMARK    2  A    between atoms: C2_2  and  C14_41 
REMARK       I    between atoms: N1_3  and  C3_5 
REMARK    3  A    between atoms: C3_5  and  C4_7 
REMARK    4  A    between atoms: C6_9  and  N2_10 
REMARK    5  A    between atoms: N3_13  and  C7_14 
REMARK    6  A    between atoms: C7_14  and  C8_15 
REMARK    7  A    between atoms: C9_18  and  N5_19 
REMARK    8  A    between atoms: N10_32  and  O3_34 
REMARK    9  A    between atoms: C14_41  and  O5_42 
REMARK   10  A    between atoms: C14_41  and  O6_44 
ROOT
HETATM    1  C7  UNL     1      24.740  -0.963  16.218  1.00  0.00     0.195 C 
ENDROOT
BRANCH   1   2
HETATM    2  N3  UNL     1      24.127  -2.282  16.529  1.00  0.00    -0.280 N 
HETATM    3  C6  UNL     1      24.450  -3.387  15.867  1.00  0.00     0.107 A 
HETATM    4  C5  UNL     1      23.922  -4.635  16.219  1.00  0.00     0.083 A 
HETATM    5  C4  UNL     1      23.054  -4.753  17.260  1.00  0.00     0.108 A 
HETATM    6  N11 UNL     1      22.737  -3.624  17.920  1.00  0.00    -0.304 N 
HETATM    7  C13 UNL     1      23.269  -2.437  17.551  1.00  0.00     0.329 A 
ATOM      8  H11 UNL     1      22.089  -3.663  18.707  1.00  0.00     0.171 HD
HETATM    9  O4  UNL     1      22.909  -1.449  18.246  1.00  0.00    -0.246 OA
BRANCH   3  10
HETATM   10  N2  UNL     1      25.273  -3.357  14.859  1.00  0.00    -0.385 N 
ATOM     11  H22 UNL     1      26.207  -2.957  14.948  1.00  0.00     0.157 HD
ATOM     12  H21 UNL     1      24.940  -3.749  13.978  1.00  0.00     0.157 HD
ENDBRANCH   3  10
BRANCH   5  13
HETATM   13  C3  UNL     1      22.509  -6.053  17.620  1.00  0.00     0.268 C 
HETATM   14  N1  UNL     1      21.141  -6.323  17.824  1.00  0.00    -0.347 N 
ATOM     15  H1  UNL     1      20.474  -5.560  17.713  1.00  0.00     0.163 HD
HETATM   16  O1  UNL     1      23.305  -7.018  17.766  1.00  0.00    -0.266 OA
BRANCH  14  17
HETATM   17  C2  UNL     1      20.641  -7.620  18.180  1.00  0.00     0.135 C 
HETATM   18  C1  UNL     1      20.293  -8.442  16.934  1.00  0.00     0.037 C 
BRANCH  17  19
HETATM   19  C14 UNL     1      19.343  -7.498  18.959  1.00  0.00     0.276 C 
BRANCH  19  20
HETATM   20  O5  UNL     1      19.561  -7.506  20.341  1.00  0.00    -0.369 OA
ATOM     21  H5  UNL     1      18.887  -7.026  20.808  1.00  0.00     0.212 HD
ENDBRANCH  19  20
BRANCH  19  22
HETATM   22  O6  UNL     1      18.460  -8.510  18.669  1.00  0.00    -0.369 OA
ATOM     23  H6  UNL     1      18.766  -9.357  18.971  1.00  0.00     0.212 HD
ENDBRANCH  19  22
ENDBRANCH  17  19
ENDBRANCH  14  17
ENDBRANCH   5  13
ENDBRANCH   1   2
BRANCH   1  24
HETATM   24  C8  UNL     1      26.009  -0.933  16.920  1.00  0.00     0.062 A 
HETATM   25  N4  UNL     1      26.109  -1.368  18.221  1.00  0.00    -0.338 N 
HETATM   26  C9  UNL     1      27.205  -1.224  18.980  1.00  0.00     0.171 A 
ATOM     27  H4  UNL     1      25.299  -1.829  18.634  1.00  0.00     0.167 HD
HETATM   28  C10 UNL     1      28.291  -0.611  18.435  1.00  0.00     0.312 A 
HETATM   29  O2  UNL     1      29.334  -0.462  19.132  1.00  0.00    -0.262 OA
HETATM   30  N6  UNL     1      28.272  -0.164  17.170  1.00  0.00    -0.196 N 
HETATM   31  N7  UNL     1      29.345   0.388  16.638  1.00  0.00    -0.218 N 
HETATM   32  C12 UNL     1      27.144  -0.318  16.398  1.00  0.00     0.133 A 
HETATM   33  N8  UNL     1      29.369   0.792  15.393  1.00  0.00    -0.226 N 
ATOM     34  H7  UNL     1      30.179   0.505  17.213  1.00  0.00     0.210 HD
HETATM   35  N9  UNL     1      28.335   0.670  14.605  1.00  0.00    -0.266 N 
ATOM     36  H8  UNL     1      30.222   1.214  15.027  1.00  0.00     0.210 HD
HETATM   37  C11 UNL     1      27.199   0.110  15.094  1.00  0.00     0.172 A 
ATOM     38  H9  UNL     1      28.379   0.992  13.639  1.00  0.00     0.190 HD
HETATM   39  N10 UNL     1      26.208  -0.069  14.303  1.00  0.00    -0.250 N 
ATOM     40  H10 UNL     1      25.344  -0.488  14.647  1.00  0.00     0.196 HD
BRANCH  26  41
HETATM   41  N5  UNL     1      27.204  -1.669  20.216  1.00  0.00    -0.381 N 
ATOM     42  H52 UNL     1      27.801  -2.442  20.513  1.00  0.00     0.157 HD
ATOM     43  H51 UNL     1      26.594  -1.237  20.909  1.00  0.00     0.157 HD
ENDBRANCH  26  41
BRANCH  39  44
HETATM   44  O3  UNL     1      26.318   0.305  12.994  1.00  0.00    -0.288 OA
ATOM     45  H3  UNL     1      27.051  -0.011  12.477  1.00  0.00     0.244 HD
ENDBRANCH  39  44
ENDBRANCH   1  24
TORSDOF 10
ENDMDL
MODEL 2
REMARK VINA RESULT: -8.480387627      1.192      1.545
REMARK  10 active torsions:
REMARK  status: ('A' for Active; 'I' for Inactive)
REMARK    1  A    between atoms: C2_2  and  N1_3 
REMARK    2  A    between atoms: C2_2  and  C14_41 
REMARK       I    between atoms: N1_3  and  C3_5 
REMARK    3  A    between atoms: C3_5  and  C4_7 
REMARK    4  A    between atoms: C6_9  and  N2_10 
REMARK    5  A    between atoms: N3_13  and  C7_14 
REMARK    6  A    between atoms: C7_14  and  C8_15 
REMARK    7  A    between atoms: C9_18  and  N5_19 
REMARK    8  A    between atoms: N10_32  and  O3_34 
REMARK    9  A    between atoms: C14_41  and  O5_42 
REMARK   10  A    between atoms: C14_41  and  O6_44 
ROOT
HETATM    1  C7  UNL     1      24.662  -1.240  15.963  1.00  0.00     0.195 C 
ENDROOT
BRANCH   1   2
HETATM    2  N3  UNL     1      24.109  -2.543  16.419  1.00  0.00    -0.280 N 
HETATM    3  C6  UNL     1      23.164  -2.624  17.348  1.00  0.00     0.107 A 
HETATM    4  C5  UNL     1      22.599  -3.852  17.716  1.00  0.00     0.083 A 
HETATM    5  C4  UNL     1      23.006  -5.009  17.126  1.00  0.00     0.108 A 
HETATM    6  N11 UNL     1      23.965  -4.908  16.185  1.00  0.00    -0.304 N 
HETATM    7  C13 UNL     1      24.485  -3.704  15.857  1.00  0.00     0.329 A 
ATOM      8  H11 UNL     1      24.303  -5.748  15.716  1.00  0.00     0.171 HD
HETATM    9  O4  UNL     1      25.369  -3.728  14.959  1.00  0.00    -0.246 OA
BRANCH   3  10
HETATM   10  N2  UNL     1      22.722  -1.564  17.960  1.00  0.00    -0.385 N 
ATOM     11  H22 UNL     1      22.213  -1.633  18.841  1.00  0.00     0.157 HD
ATOM     12  H21 UNL     1      22.907  -0.664  17.518  1.00  0.00     0.157 HD
ENDBRANCH   3  10
BRANCH   5  13
HETATM   13  C3  UNL     1      22.415  -6.280  17.512  1.00  0.00     0.268 C 
HETATM   14  N1  UNL     1      21.047  -6.482  17.781  1.00  0.00    -0.347 N 
ATOM     15  H1  UNL     1      20.414  -5.686  17.702  1.00  0.00     0.163 HD
HETATM   16  O1  UNL     1      23.168  -7.284  17.620  1.00  0.00    -0.266 OA
BRANCH  14  17
HETATM   17  C2  UNL     1      20.500  -7.753  18.162  1.00  0.00     0.135 C 
HETATM   18  C1  UNL     1      20.040  -8.549  16.935  1.00  0.00     0.037 C 
BRANCH  17  19
HETATM   19  C14 UNL     1      19.257  -7.568  19.013  1.00  0.00     0.276 C 
BRANCH  19  20
HETATM   20  O5  UNL     1      19.562  -7.522  20.378  1.00  0.00    -0.369 OA
ATOM     21  H5  UNL     1      18.828  -7.209  20.894  1.00  0.00     0.212 HD
ENDBRANCH  19  20
BRANCH  19  22
HETATM   22  O6  UNL     1      18.337  -8.570  18.823  1.00  0.00    -0.369 OA
ATOM     23  H6  UNL     1      17.917  -8.836  19.632  1.00  0.00     0.212 HD
ENDBRANCH  19  22
ENDBRANCH  17  19
ENDBRANCH  14  17
ENDBRANCH   5  13
ENDBRANCH   1   2
BRANCH   1  24
HETATM   24  C8  UNL     1      25.932  -1.079  16.647  1.00  0.00     0.062 A 
HETATM   25  N4  UNL     1      26.000  -1.085  18.021  1.00  0.00    -0.338 N 
HETATM   26  C9  UNL     1      27.105  -0.786  18.720  1.00  0.00     0.171 A 
ATOM     27  H4  UNL     1      25.158  -1.332  18.541  1.00  0.00     0.167 HD
HETATM   28  C10 UNL     1      28.233  -0.457  18.033  1.00  0.00     0.312 A 
HETATM   29  O2  UNL     1      29.285  -0.170  18.670  1.00  0.00    -0.262 OA
HETATM   30  N6  UNL     1      28.246  -0.435  16.692  1.00  0.00    -0.196 N 
HETATM   31  N7  UNL     1      29.357  -0.158  16.037  1.00  0.00    -0.218 N 
HETATM   32  C12 UNL     1      27.108  -0.744  15.983  1.00  0.00     0.133 A 
HETATM   33  N8  UNL     1      29.409  -0.173  14.730  1.00  0.00    -0.226 N 
ATOM     34  H7  UNL     1      30.198   0.075  16.564  1.00  0.00     0.210 HD
HETATM   35  N9  UNL     1      28.367  -0.464  13.997  1.00  0.00    -0.266 N 
ATOM     36  H8  UNL     1      30.291   0.049  14.268  1.00  0.00     0.210 HD
HETATM   37  C11 UNL     1      27.193  -0.758  14.613  1.00  0.00     0.172 A 
ATOM     38  H9  UNL     1      28.435  -0.470  12.980  1.00  0.00     0.190 HD
HETATM   39  N10 UNL     1      26.191  -1.108  13.896  1.00  0.00    -0.250 N 
ATOM     40  H10 UNL     1      25.298  -1.333  14.336  1.00  0.00     0.196 HD
BRANCH  26  41
HETATM   41  N5  UNL     1      27.072  -0.815  20.033  1.00  0.00    -0.381 N 
ATOM     42  H52 UNL     1      27.222   0.022  20.597  1.00  0.00     0.157 HD
ATOM     43  H51 UNL     1      26.891  -1.695  20.515  1.00  0.00     0.157 HD
ENDBRANCH  26  41
BRANCH  39  44
HETATM   44  O3  UNL     1      26.328  -1.177  12.539  1.00  0.00    -0.288 OA
ATOM     45  H3  UNL     1      25.725  -1.712  12.036  1.00  0.00     0.244 HD
ENDBRANCH  39  44
ENDBRANCH   1  24
TORSDOF 10
ENDMDL
MODEL 3
REMARK VINA RESULT: -8.143540105      2.054      3.840
REMARK  10 active torsions:
REMARK  status: ('A' for Active; 'I' for Inactive)
REMARK    1  A    between atoms: C2_2  and  N1_3 
REMARK    2  A    between atoms: C2_2  and  C14_41 
REMARK       I    between atoms: N1_3  and  C3_5 
REMARK    3  A    between atoms: C3_5  and  C4_7 
REMARK    4  A    between atoms: C6_9  and  N2_10 
REMARK    5  A    between atoms: N3_13  and  C7_14 
REMARK    6  A    between atoms: C7_14  and  C8_15 
REMARK    7  A    between atoms: C9_18  and  N5_19 
REMARK    8  A    between atoms: N10_32  and  O3_34 
REMARK    9  A    between atoms: C14_41  and  O5_42 
REMARK   10  A    between atoms: C14_41  and  O6_44 
ROOT
HETATM    1  C7  UNL     1      24.536  -3.701  18.993  1.00  0.00     0.195 C 
ENDROOT
BRANCH   1   2
HETATM    2  N3  UNL     1      23.590  -4.669  18.374  1.00  0.00    -0.280 N 
HETATM    3  C6  UNL     1      23.838  -5.973  18.332  1.00  0.00     0.107 A 
HETATM    4  C5  UNL     1      22.906  -6.881  17.814  1.00  0.00     0.083 A 
HETATM    5  C4  UNL     1      21.708  -6.449  17.334  1.00  0.00     0.108 A 
HETATM    6  N11 UNL     1      21.473  -5.124  17.385  1.00  0.00    -0.304 N 
HETATM    7  C13 UNL     1      22.397  -4.280  17.894  1.00  0.00     0.329 A 
ATOM      8  H11 UNL     1      20.589  -4.754  17.035  1.00  0.00     0.171 HD
HETATM    9  O4  UNL     1      22.067  -3.063  17.899  1.00  0.00    -0.246 OA
BRANCH   3  10
HETATM   10  N2  UNL     1      24.960  -6.464  18.770  1.00  0.00    -0.385 N 
ATOM     11  H22 UNL     1      24.985  -7.116  19.555  1.00  0.00     0.157 HD
ATOM     12  H21 UNL     1      25.812  -6.167  18.295  1.00  0.00     0.157 HD
ENDBRANCH   3  10
BRANCH   5  13
HETATM   13  C3  UNL     1      20.745  -7.398  16.797  1.00  0.00     0.268 C 
HETATM   14  N1  UNL     1      19.700  -7.988  17.536  1.00  0.00    -0.347 N 
ATOM     15  H1  UNL     1      19.601  -7.738  18.520  1.00  0.00     0.163 HD
HETATM   16  O1  UNL     1      20.839  -7.728  15.586  1.00  0.00    -0.266 OA
BRANCH  14  17
HETATM   17  C2  UNL     1      18.769  -8.922  16.971  1.00  0.00     0.135 C 
HETATM   18  C1  UNL     1      17.328  -8.418  17.103  1.00  0.00     0.037 C 
BRANCH  17  19
HETATM   19  C14 UNL     1      18.807 -10.239  17.727  1.00  0.00     0.276 C 
BRANCH  19  20
HETATM   20  O5  UNL     1      18.032 -10.193  18.892  1.00  0.00    -0.369 OA
ATOM     21  H5  UNL     1      18.563 -10.300  19.673  1.00  0.00     0.212 HD
ENDBRANCH  19  20
BRANCH  19  22
HETATM   22  O6  UNL     1      20.081 -10.602  18.085  1.00  0.00    -0.369 OA
ATOM     23  H6  UNL     1      20.454 -11.249  17.497  1.00  0.00     0.212 HD
ENDBRANCH  19  22
ENDBRANCH  17  19
ENDBRANCH  14  17
ENDBRANCH   5  13
ENDBRANCH   1   2
BRANCH   1  24
HETATM   24  C8  UNL     1      25.062  -2.900  17.903  1.00  0.00     0.062 A 
HETATM   25  N4  UNL     1      24.716  -3.166  16.599  1.00  0.00    -0.338 N 
HETATM   26  C9  UNL     1      25.281  -2.575  15.536  1.00  0.00     0.171 A 
ATOM     27  H4  UNL     1      23.984  -3.855  16.429  1.00  0.00     0.167 HD
HETATM   28  C10 UNL     1      26.258  -1.653  15.755  1.00  0.00     0.312 A 
HETATM   29  O2  UNL     1      26.807  -1.085  14.769  1.00  0.00    -0.262 OA
HETATM   30  N6  UNL     1      26.646  -1.337  16.999  1.00  0.00    -0.196 N 
HETATM   31  N7  UNL     1      27.563  -0.410  17.200  1.00  0.00    -0.218 N 
HETATM   32  C12 UNL     1      26.060  -1.947  18.083  1.00  0.00     0.133 A 
HETATM   33  N8  UNL     1      27.929  -0.050  18.404  1.00  0.00    -0.226 N 
ATOM     34  H7  UNL     1      28.000   0.038  16.395  1.00  0.00     0.210 HD
HETATM   35  N9  UNL     1      27.408  -0.585  19.476  1.00  0.00    -0.266 N 
ATOM     36  H8  UNL     1      28.642   0.671  18.510  1.00  0.00     0.210 HD
HETATM   37  C11 UNL     1      26.459  -1.546  19.335  1.00  0.00     0.172 A 
ATOM     38  H9  UNL     1      27.709  -0.286  20.403  1.00  0.00     0.190 HD
HETATM   39  N10 UNL     1      25.902  -2.022  20.385  1.00  0.00    -0.250 N 
ATOM     40  H10 UNL     1      25.187  -2.746  20.305  1.00  0.00     0.196 HD
BRANCH  26  41
HETATM   41  N5  UNL     1      24.886  -2.897  14.325  1.00  0.00    -0.381 N 
ATOM     42  H52 UNL     1      25.313  -2.493  13.491  1.00  0.00     0.157 HD
ATOM     43  H51 UNL     1      24.131  -3.571  14.203  1.00  0.00     0.157 HD
ENDBRANCH  26  41
BRANCH  39  44
HETATM   44  O3  UNL     1      26.273  -1.554  21.613  1.00  0.00    -0.288 OA
ATOM     45  H3  UNL     1      26.668  -0.693  21.685  1.00  0.00     0.244 HD
ENDBRANCH  39  44
ENDBRANCH   1  24
TORSDOF 10
ENDMDL
MODEL 4
REMARK VINA RESULT: -8.037243795      1.471      1.933
REMARK  10 active torsions:
REMARK  status: ('A' for Active; 'I' for Inactive)
REMARK    1  A    between atoms: C2_2  and  N1_3 
REMARK    2  A    between atoms: C2_2  and  C14_41 
REMARK       I    between atoms: N1_3  and  C3_5 
REMARK    3  A    between atoms: C3_5  and  C4_7 
REMARK    4  A    between atoms: C6_9  and  N2_10 
REMARK    5  A    between atoms: N3_13  and  C7_14 
REMARK    6  A    between atoms: C7_14  and  C8_15 
REMARK    7  A    between atoms: C9_18  and  N5_19 
REMARK    8  A    between atoms: N10_32  and  O3_34 
REMARK    9  A    between atoms: C14_41  and  O5_42 
REMARK   10  A    between atoms: C14_41  and  O6_44 
ROOT
HETATM    1  C7  UNL     1      24.792  -0.637  15.899  1.00  0.00     0.195 C 
ENDROOT
BRANCH   1   2
HETATM    2  N3  UNL     1      24.211  -2.007  15.918  1.00  0.00    -0.280 N 
HETATM    3  C6  UNL     1      23.136  -2.311  16.635  1.00  0.00     0.107 A 
HETATM    4  C5  UNL     1      22.555  -3.584  16.586  1.00  0.00     0.083 A 
HETATM    5  C4  UNL     1      23.082  -4.557  15.794  1.00  0.00     0.108 A 
HETATM    6  N11 UNL     1      24.172  -4.232  15.073  1.00  0.00    -0.304 N 
HETATM    7  C13 UNL     1      24.702  -2.991  15.146  1.00  0.00     0.329 A 
ATOM      8  H11 UNL     1      24.602  -4.930  14.465  1.00  0.00     0.171 HD
HETATM    9  O4  UNL     1      25.715  -2.797  14.422  1.00  0.00    -0.246 OA
BRANCH   3  10
HETATM   10  N2  UNL     1      22.574  -1.436  17.418  1.00  0.00    -0.385 N 
ATOM     11  H22 UNL     1      22.560  -0.443  17.182  1.00  0.00     0.157 HD
ATOM     12  H21 UNL     1      22.152  -1.787  18.277  1.00  0.00     0.157 HD
ENDBRANCH   3  10
BRANCH   5  13
HETATM   13  C3  UNL     1      22.474  -5.878  15.747  1.00  0.00     0.268 C 
HETATM   14  N1  UNL     1      21.134  -6.158  16.083  1.00  0.00    -0.347 N 
ATOM     15  H1  UNL     1      20.537  -5.388  16.380  1.00  0.00     0.163 HD
HETATM   16  O1  UNL     1      23.184  -6.853  15.384  1.00  0.00    -0.266 OA
BRANCH  14  17
HETATM   17  C2  UNL     1      20.570  -7.477  16.026  1.00  0.00     0.135 C 
HETATM   18  C1  UNL     1      19.055  -7.422  15.803  1.00  0.00     0.037 C 
BRANCH  17  19
HETATM   19  C14 UNL     1      20.758  -8.197  17.349  1.00  0.00     0.276 C 
BRANCH  19  20
HETATM   20  O5  UNL     1      20.644  -7.325  18.438  1.00  0.00    -0.369 OA
ATOM     21  H5  UNL     1      20.003  -7.629  19.069  1.00  0.00     0.212 HD
ENDBRANCH  19  20
BRANCH  19  22
HETATM   22  O6  UNL     1      21.978  -8.821  17.438  1.00  0.00    -0.369 OA
ATOM     23  H6  UNL     1      22.678  -8.220  17.661  1.00  0.00     0.212 HD
ENDBRANCH  19  22
ENDBRANCH  17  19
ENDBRANCH  14  17
ENDBRANCH   5  13
ENDBRANCH   1   2
BRANCH   1  24
HETATM   24  C8  UNL     1      26.021  -0.711  16.668  1.00  0.00     0.062 A 
HETATM   25  N4  UNL     1      26.017  -1.163  17.966  1.00  0.00    -0.338 N 
HETATM   26  C9  UNL     1      27.078  -1.110  18.784  1.00  0.00     0.171 A 
ATOM     27  H4  UNL     1      25.153  -1.564  18.331  1.00  0.00     0.167 HD
HETATM   28  C10 UNL     1      28.236  -0.578  18.304  1.00  0.00     0.312 A 
HETATM   29  O2  UNL     1      29.248  -0.516  19.057  1.00  0.00    -0.262 OA
HETATM   30  N6  UNL     1      28.318  -0.121  17.046  1.00  0.00    -0.196 N 
HETATM   31  N7  UNL     1      29.458   0.352  16.579  1.00  0.00    -0.218 N 
HETATM   32  C12 UNL     1      27.225  -0.180  16.214  1.00  0.00     0.133 A 
HETATM   33  N8  UNL     1      29.579   0.763  15.342  1.00  0.00    -0.226 N 
ATOM     34  H7  UNL     1      30.266   0.400  17.198  1.00  0.00     0.210 HD
HETATM   35  N9  UNL     1      28.582   0.728  14.499  1.00  0.00    -0.266 N 
ATOM     36  H8  UNL     1      30.480   1.121  15.026  1.00  0.00     0.210 HD
HETATM   37  C11 UNL     1      27.382   0.252  14.920  1.00  0.00     0.172 A 
ATOM     38  H9  UNL     1      28.703   1.053  13.540  1.00  0.00     0.190 HD
HETATM   39  N10 UNL     1      26.425   0.157  14.075  1.00  0.00    -0.250 N 
ATOM     40  H10 UNL     1      25.513  -0.197  14.368  1.00  0.00     0.196 HD
BRANCH  26  41
HETATM   41  N5  UNL     1      26.977  -1.565  20.012  1.00  0.00    -0.381 N 
ATOM     42  H52 UNL     1      26.473  -1.055  20.738  1.00  0.00     0.157 HD
ATOM     43  H51 UNL     1      27.411  -2.454  20.260  1.00  0.00     0.157 HD
ENDBRANCH  26  41
BRANCH  39  44
HETATM   44  O3  UNL     1      26.633   0.532  12.779  1.00  0.00    -0.288 OA
ATOM     45  H3  UNL     1      26.505   1.440  12.529  1.00  0.00     0.244 HD
ENDBRANCH  39  44
ENDBRANCH   1  24
TORSDOF 10
ENDMDL
MODEL 5
REMARK VINA RESULT: -7.712452976      1.886      3.564
REMARK  10 active torsions:
REMARK  status: ('A' for Active; 'I' for Inactive)
REMARK    1  A    between atoms: C2_2  and  N1_3 
REMARK    2  A    between atoms: C2_2  and  C14_41 
REMARK       I    between atoms: N1_3  and  C3_5 
REMARK    3  A    between atoms: C3_5  and  C4_7 
REMARK    4  A    between atoms: C6_9  and  N2_10 
REMARK    5  A    between atoms: N3_13  and  C7_14 
REMARK    6  A    between atoms: C7_14  and  C8_15 
REMARK    7  A    between atoms: C9_18  and  N5_19 
REMARK    8  A    between atoms: N10_32  and  O3_34 
REMARK    9  A    between atoms: C14_41  and  O5_42 
REMARK   10  A    between atoms: C14_41  and  O6_44 
ROOT
HETATM    1  C7  UNL     1      24.512  -2.555  18.993  1.00  0.00     0.195 C 
ENDROOT
BRANCH   1   2
HETATM    2  N3  UNL     1      23.690  -3.692  18.497  1.00  0.00    -0.280 N 
HETATM    3  C6  UNL     1      22.475  -3.519  17.991  1.00  0.00     0.107 A 
HETATM    4  C5  UNL     1      21.742  -4.587  17.460  1.00  0.00     0.083 A 
HETATM    5  C4  UNL     1      22.259  -5.846  17.447  1.00  0.00     0.108 A 
HETATM    6  N11 UNL     1      23.493  -6.003  17.964  1.00  0.00    -0.304 N 
HETATM    7  C13 UNL     1      24.169  -4.947  18.466  1.00  0.00     0.329 A 
ATOM      8  H11 UNL     1      23.921  -6.929  17.977  1.00  0.00     0.171 HD
HETATM    9  O4  UNL     1      25.317  -5.209  18.915  1.00  0.00    -0.246 OA
BRANCH   3  10
HETATM   10  N2  UNL     1      21.911  -2.346  17.968  1.00  0.00    -0.385 N 
ATOM     11  H22 UNL     1      22.450  -1.494  18.123  1.00  0.00     0.157 HD
ATOM     12  H21 UNL     1      20.907  -2.319  17.790  1.00  0.00     0.157 HD
ENDBRANCH   3  10
BRANCH   5  13
HETATM   13  C3  UNL     1      21.493  -6.951  16.894  1.00  0.00     0.268 C 
HETATM   14  N1  UNL     1      20.315  -7.477  17.463  1.00  0.00    -0.347 N 
ATOM     15  H1  UNL     1      19.965  -7.061  18.325  1.00  0.00     0.163 HD
HETATM   16  O1  UNL     1      21.897  -7.489  15.830  1.00  0.00    -0.266 OA
BRANCH  14  17
HETATM   17  C2  UNL     1      19.586  -8.571  16.887  1.00  0.00     0.135 C 
HETATM   18  C1  UNL     1      18.302  -8.085  16.206  1.00  0.00     0.037 C 
BRANCH  17  19
HETATM   19  C14 UNL     1      19.129  -9.537  17.967  1.00  0.00     0.276 C 
BRANCH  19  20
HETATM   20  O5  UNL     1      19.118  -8.937  19.231  1.00  0.00    -0.369 OA
ATOM     21  H5  UNL     1      19.349  -9.553  19.916  1.00  0.00     0.212 HD
ENDBRANCH  19  20
BRANCH  19  22
HETATM   22  O6  UNL     1      19.922 -10.655  18.040  1.00  0.00    -0.369 OA
ATOM     23  H6  UNL     1      19.551 -11.328  18.599  1.00  0.00     0.212 HD
ENDBRANCH  19  22
ENDBRANCH  17  19
ENDBRANCH  14  17
ENDBRANCH   5  13
ENDBRANCH   1   2
BRANCH   1  24
HETATM   24  C8  UNL     1      25.246  -2.058  17.844  1.00  0.00     0.062 A 
HETATM   25  N4  UNL     1      24.787  -2.271  16.565  1.00  0.00    -0.338 N 
HETATM   26  C9  UNL     1      25.486  -1.982  15.458  1.00  0.00     0.171 A 
ATOM     27  H4  UNL     1      23.857  -2.673  16.452  1.00  0.00     0.167 HD
HETATM   28  C10 UNL     1      26.727  -1.443  15.601  1.00  0.00     0.312 A 
HETATM   29  O2  UNL     1      27.405  -1.165  14.572  1.00  0.00    -0.262 OA
HETATM   30  N6  UNL     1      27.241  -1.202  16.816  1.00  0.00    -0.196 N 
HETATM   31  N7  UNL     1      28.428  -0.638  16.941  1.00  0.00    -0.218 N 
HETATM   32  C12 UNL     1      26.517  -1.499  17.946  1.00  0.00     0.133 A 
HETATM   33  N8  UNL     1      28.934  -0.350  18.113  1.00  0.00    -0.226 N 
ATOM     34  H7  UNL     1      28.966  -0.422  16.102  1.00  0.00     0.210 HD
HETATM   35  N9  UNL     1      28.297  -0.601  19.225  1.00  0.00    -0.266 N 
ATOM     36  H8  UNL     1      29.856   0.085  18.160  1.00  0.00     0.210 HD
HETATM   37  C11 UNL     1      27.070  -1.181  19.162  1.00  0.00     0.172 A 
ATOM     38  H9  UNL     1      28.713  -0.366  20.126  1.00  0.00     0.190 HD
HETATM   39  N10 UNL     1      26.418  -1.366  20.249  1.00  0.00    -0.250 N 
ATOM     40  H10 UNL     1      25.496  -1.800  20.227  1.00  0.00     0.196 HD
BRANCH  26  41
HETATM   41  N5  UNL     1      24.964  -2.225  14.277  1.00  0.00    -0.381 N 
ATOM     42  H52 UNL     1      24.509  -1.496  13.726  1.00  0.00     0.157 HD
ATOM     43  H51 UNL     1      25.010  -3.166  13.887  1.00  0.00     0.157 HD
ENDBRANCH  26  41
BRANCH  39  44
HETATM   44  O3  UNL     1      26.969  -0.976  21.437  1.00  0.00    -0.288 OA
ATOM     45  H3  UNL     1      26.909  -1.552  22.190  1.00  0.00     0.244 HD
ENDBRANCH  39  44
ENDBRANCH   1  24
TORSDOF 10
ENDMDL
