MODEL 1
REMARK VINA RESULT: -8.622149655      0.000      0.000
REMARK  11 active torsions:
REMARK  status: ('A' for Active; 'I' for Inactive)
REMARK    1  A    between atoms: N1_1  and  C1_4 
REMARK    2  A    between atoms: C2_7  and  C3_8 
REMARK    3  A    between atoms: C3_8  and  N3_9 
REMARK    4  A    between atoms: C3_8  and  C12_41 
REMARK    5  A    between atoms: C5_14  and  N5_15 
REMARK    6  A    between atoms: C7_17  and  C8_18 
REMARK       I    between atoms: C8_18  and  N6_20 
REMARK    7  A    between atoms: N6_20  and  N7_22 
REMARK       I    between atoms: N7_22  and  C9_24 
REMARK    8  A    between atoms: C9_24  and  C10_26 
REMARK    9  A    between atoms: C11_35  and  N11_36 
REMARK   10  A    between atoms: C12_41  and  O5_42 
REMARK   11  A    between atoms: C12_41  and  O6_44 
ROOT
HETATM    1  N3  UNL     1      26.374  -1.813  16.964  1.00  0.00    -0.208 N 
ATOM      2  H3  UNL     1      26.835  -2.651  16.609  1.00  0.00     0.178 HD
HETATM    3  C4  UNL     1      25.208  -2.045  17.357  1.00  0.00     0.708 A 
HETATM    4  N4  UNL     1      24.728  -3.341  17.262  1.00  0.00    -0.019 N 
ATOM      5  H4  UNL     1      25.346  -4.052  16.872  1.00  0.00     0.203 HD
HETATM    6  C5  UNL     1      23.505  -3.719  17.651  1.00  0.00     0.733 A 
HETATM    7  N10 UNL     1      22.696  -2.768  18.164  1.00  0.00    -0.020 N 
ATOM      8  H10 UNL     1      21.757  -3.025  18.469  1.00  0.00     0.203 HD
HETATM    9  C11 UNL     1      23.095  -1.500  18.283  1.00  0.00     0.705 A 
HETATM   10  N12 UNL     1      24.353  -1.158  17.876  1.00  0.00    -0.022 N 
ATOM     11  H12 UNL     1      24.652  -0.188  17.972  1.00  0.00     0.203 HD
ENDROOT
BRANCH   1  12
HETATM   12  C3  UNL     1      27.182  -0.707  16.894  1.00  0.00     0.231 C 
BRANCH  12  13
HETATM   13  C2  UNL     1      28.058  -0.518  15.713  1.00  0.00     0.190 A 
HETATM   14  N2  UNL     1      27.996   0.510  14.857  1.00  0.00    -0.168 N 
HETATM   15  C1  UNL     1      28.972   0.264  13.945  1.00  0.00     0.698 A 
ATOM     16  H2  UNL     1      27.356   1.304  14.883  1.00  0.00     0.186 HD
HETATM   17  N13 UNL     1      29.587  -0.881  14.264  1.00  0.00    -0.090 N 
HETATM   18  O7  UNL     1      29.033  -1.344  15.327  1.00  0.00    -0.207 OA
ATOM     19  H13 UNL     1      30.359  -1.311  13.755  1.00  0.00     0.213 HD
BRANCH  15  20
HETATM   20  N1  UNL     1      29.242   1.023  12.932  1.00  0.00    -0.233 N 
ATOM     21  H12 UNL     1      28.568   1.541  12.368  1.00  0.00     0.174 HD
ATOM     22  H11 UNL     1      30.180   1.203  12.574  1.00  0.00     0.174 HD
ENDBRANCH  15  20
ENDBRANCH  12  13
BRANCH  12  23
HETATM   23  C12 UNL     1      28.106  -0.576  18.131  1.00  0.00     0.285 C 
BRANCH  23  24
HETATM   24  O5  UNL     1      27.348  -0.251  19.233  1.00  0.00    -0.369 OA
ATOM     25  H5  UNL     1      27.881   0.239  19.847  1.00  0.00     0.212 HD
ENDBRANCH  23  24
BRANCH  23  26
HETATM   26  O6  UNL     1      29.125   0.301  17.862  1.00  0.00    -0.369 OA
ATOM     27  H6  UNL     1      29.839   0.164  18.473  1.00  0.00     0.212 HD
ENDBRANCH  23  26
ENDBRANCH  12  23
ENDBRANCH   1  12
BRANCH   6  28
HETATM   28  N5  UNL     1      23.101  -5.077  17.545  1.00  0.00    -0.080 N 
HETATM   29  C6  UNL     1      21.902  -5.550  17.211  1.00  0.00     0.173 A 
HETATM   30  C7  UNL     1      21.964  -6.940  17.206  1.00  0.00     0.137 A 
HETATM   31  N8  UNL     1      23.246  -7.234  17.552  1.00  0.00    -0.279 N 
HETATM   32  N9  UNL     1      23.907  -6.119  17.750  1.00  0.00    -0.221 N 
ATOM     33  H8  UNL     1      23.632  -8.173  17.644  1.00  0.00     0.189 HD
ATOM     34  H9  UNL     1      24.888  -6.058  18.019  1.00  0.00     0.209 HD
BRANCH  30  35
HETATM   35  C8  UNL     1      20.903  -7.884  16.890  1.00  0.00     0.289 C 
HETATM   36  O1  UNL     1      20.465  -7.974  15.721  1.00  0.00    -0.264 OA
HETATM   37  N6  UNL     1      20.354  -8.714  17.892  1.00  0.00    -0.262 N 
ATOM     38  H6  UNL     1      20.723  -8.624  18.839  1.00  0.00     0.190 HD
BRANCH  37  39
HETATM   39  N7  UNL     1      19.351  -9.640  17.679  1.00  0.00    -0.258 N 
HETATM   40  C9  UNL     1      17.975  -9.332  17.929  1.00  0.00     0.336 C 
HETATM   41  O2  UNL     1      17.696  -8.186  18.348  1.00  0.00    -0.259 OA
ATOM     42  H7  UNL     1      19.598 -10.568  17.334  1.00  0.00     0.190 HD
BRANCH  40  43
HETATM   43  C10 UNL     1      16.917 -10.292  17.714  1.00  0.00     0.271 C 
HETATM   44  O3  UNL     1      15.916 -10.338  18.511  1.00  0.00    -0.640 OA
HETATM   45  O4  UNL     1      16.993 -11.161  16.643  1.00  0.00    -0.640 OA
ENDBRANCH  40  43
ENDBRANCH  37  39
ENDBRANCH  30  35
ENDBRANCH   6  28
BRANCH   9  46
HETATM   46  N11 UNL     1      22.358  -0.544  18.770  1.00  0.00    -0.234 N 
ATOM     47 2H11 UNL     1      21.349  -0.634  18.646  1.00  0.00     0.174 HD
ATOM     48 1H11 UNL     1      22.727   0.273  19.257  1.00  0.00     0.174 HD
ENDBRANCH   9  46
TORSDOF 11
ENDMDL
MODEL 2
REMARK VINA RESULT: -8.339449887      1.651      1.866
REMARK  11 active torsions:
REMARK  status: ('A' for Active; 'I' for Inactive)
REMARK    1  A    between atoms: N1_1  and  C1_4 
REMARK    2  A    between atoms: C2_7  and  C3_8 
REMARK    3  A    between atoms: C3_8  and  N3_9 
REMARK    4  A    between atoms: C3_8  and  C12_41 
REMARK    5  A    between atoms: C5_14  and  N5_15 
REMARK    6  A    between atoms: C7_17  and  C8_18 
REMARK       I    between atoms: C8_18  and  N6_20 
REMARK    7  A    between atoms: N6_20  and  N7_22 
REMARK       I    between atoms: N7_22  and  C9_24 
REMARK    8  A    between atoms: C9_24  and  C10_26 
REMARK    9  A    between atoms: C11_35  and  N11_36 
REMARK   10  A    between atoms: C12_41  and  O5_42 
REMARK   11  A    between atoms: C12_41  and  O6_44 
ROOT
HETATM    1  N3  UNL     1      25.773  -1.114  16.201  1.00  0.00    -0.208 N 
ATOM      2  H3  UNL     1      25.343  -1.592  15.408  1.00  0.00     0.178 HD
HETATM    3  C4  UNL     1      25.587  -1.722  17.279  1.00  0.00     0.708 A 
HETATM    4  N4  UNL     1      24.860  -2.902  17.251  1.00  0.00    -0.019 N 
ATOM      5  H4  UNL     1      24.504  -3.223  16.350  1.00  0.00     0.203 HD
HETATM    6  C5  UNL     1      24.595  -3.646  18.330  1.00  0.00     0.733 A 
HETATM    7  N10 UNL     1      25.069  -3.209  19.516  1.00  0.00    -0.020 N 
ATOM      8  H10 UNL     1      24.884  -3.755  20.358  1.00  0.00     0.203 HD
HETATM    9  C11 UNL     1      25.776  -2.081  19.614  1.00  0.00     0.705 A 
HETATM   10  N12 UNL     1      26.025  -1.352  18.487  1.00  0.00    -0.022 N 
ATOM     11  H12 UNL     1      26.567  -0.493  18.569  1.00  0.00     0.203 HD
ENDROOT
BRANCH   1  12
HETATM   12  C3  UNL     1      26.414   0.039  15.825  1.00  0.00     0.231 C 
BRANCH  12  13
HETATM   13  C2  UNL     1      27.252   0.043  14.603  1.00  0.00     0.190 A 
HETATM   14  N2  UNL     1      27.113  -0.790  13.564  1.00  0.00    -0.168 N 
HETATM   15  C1  UNL     1      28.088  -0.426  12.691  1.00  0.00     0.698 A 
ATOM     16  H2  UNL     1      26.426  -1.536  13.452  1.00  0.00     0.186 HD
HETATM   17  N13 UNL     1      28.779   0.596  13.212  1.00  0.00    -0.090 N 
HETATM   18  O7  UNL     1      28.270   0.872  14.359  1.00  0.00    -0.207 OA
ATOM     19  H13 UNL     1      29.568   1.073  12.775  1.00  0.00     0.213 HD
BRANCH  15  20
HETATM   20  N1  UNL     1      28.305  -0.995  11.549  1.00  0.00    -0.233 N 
ATOM     21  H12 UNL     1      28.189  -1.985  11.335  1.00  0.00     0.174 HD
ATOM     22  H11 UNL     1      28.616  -0.509  10.708  1.00  0.00     0.174 HD
ENDBRANCH  15  20
ENDBRANCH  12  13
BRANCH  12  23
HETATM   23  C12 UNL     1      27.312   0.605  16.955  1.00  0.00     0.285 C 
BRANCH  23  24
HETATM   24  O5  UNL     1      27.330   1.979  16.876  1.00  0.00    -0.369 OA
ATOM     25  H5  UNL     1      28.228   2.277  16.794  1.00  0.00     0.212 HD
ENDBRANCH  23  24
BRANCH  23  26
HETATM   26  O6  UNL     1      28.549   0.015  16.908  1.00  0.00    -0.369 OA
ATOM     27  H6  UNL     1      29.224   0.667  17.052  1.00  0.00     0.212 HD
ENDBRANCH  23  26
ENDBRANCH  12  23
ENDBRANCH   1  12
BRANCH   6  28
HETATM   28  N5  UNL     1      23.866  -4.859  18.210  1.00  0.00    -0.080 N 
HETATM   29  C6  UNL     1      22.600  -5.020  17.831  1.00  0.00     0.173 A 
HETATM   30  C7  UNL     1      22.310  -6.380  17.830  1.00  0.00     0.137 A 
HETATM   31  N8  UNL     1      23.464  -6.983  18.223  1.00  0.00    -0.279 N 
HETATM   32  N9  UNL     1      24.376  -6.069  18.445  1.00  0.00    -0.221 N 
ATOM     33  H8  UNL     1      23.597  -7.989  18.330  1.00  0.00     0.189 HD
ATOM     34  H9  UNL     1      25.331  -6.254  18.751  1.00  0.00     0.209 HD
BRANCH  30  35
HETATM   35  C8  UNL     1      21.058  -7.031  17.474  1.00  0.00     0.289 C 
HETATM   36  O1  UNL     1      20.685  -7.073  16.280  1.00  0.00    -0.264 OA
HETATM   37  N6  UNL     1      20.247  -7.625  18.466  1.00  0.00    -0.262 N 
ATOM     38  H6  UNL     1      20.568  -7.577  19.433  1.00  0.00     0.190 HD
BRANCH  37  39
HETATM   39  N7  UNL     1      19.050  -8.266  18.217  1.00  0.00    -0.258 N 
HETATM   40  C9  UNL     1      18.987  -9.673  17.960  1.00  0.00     0.336 C 
HETATM   41  O2  UNL     1      20.059 -10.320  17.969  1.00  0.00    -0.259 OA
ATOM     42  H7  UNL     1      18.186  -7.722  18.217  1.00  0.00     0.190 HD
BRANCH  40  43
HETATM   43  C10 UNL     1      17.742 -10.356  17.693  1.00  0.00     0.271 C 
HETATM   44  O3  UNL     1      16.767 -10.266  18.517  1.00  0.00    -0.640 OA
HETATM   45  O4  UNL     1      17.612 -11.110  16.542  1.00  0.00    -0.640 OA
ENDBRANCH  40  43
ENDBRANCH  37  39
ENDBRANCH  30  35
ENDBRANCH   6  28
BRANCH   9  46
HETATM   46  N11 UNL     1      26.256  -1.613  20.730  1.00  0.00    -0.234 N 
ATOM     47 2H11 UNL     1      26.117  -2.184  21.564  1.00  0.00     0.174 HD
ATOM     48 1H11 UNL     1      26.752  -0.726  20.814  1.00  0.00     0.174 HD
ENDBRANCH   9  46
TORSDOF 11
ENDMDL
MODEL 3
REMARK VINA RESULT: -8.278811942      1.766      2.301
REMARK  11 active torsions:
REMARK  status: ('A' for Active; 'I' for Inactive)
REMARK    1  A    between atoms: N1_1  and  C1_4 
REMARK    2  A    between atoms: C2_7  and  C3_8 
REMARK    3  A    between atoms: C3_8  and  N3_9 
REMARK    4  A    between atoms: C3_8  and  C12_41 
REMARK    5  A    between atoms: C5_14  and  N5_15 
REMARK    6  A    between atoms: C7_17  and  C8_18 
REMARK       I    between atoms: C8_18  and  N6_20 
REMARK    7  A    between atoms: N6_20  and  N7_22 
REMARK       I    between atoms: N7_22  and  C9_24 
REMARK    8  A    between atoms: C9_24  and  C10_26 
REMARK    9  A    between atoms: C11_35  and  N11_36 
REMARK   10  A    between atoms: C12_41  and  O5_42 
REMARK   11  A    between atoms: C12_41  and  O6_44 
ROOT
HETATM    1  N3  UNL     1      26.730  -0.761  16.100  1.00  0.00    -0.208 N 
ATOM      2  H3  UNL     1      26.267  -1.254  15.336  1.00  0.00     0.178 HD
HETATM    3  C4  UNL     1      26.443  -1.243  17.219  1.00  0.00     0.708 A 
HETATM    4  N4  UNL     1      25.579  -2.326  17.265  1.00  0.00    -0.019 N 
ATOM      5  H4  UNL     1      25.212  -2.682  16.383  1.00  0.00     0.203 HD
HETATM    6  C5  UNL     1      25.198  -2.934  18.393  1.00  0.00     0.733 A 
HETATM    7  N10 UNL     1      25.689  -2.452  19.555  1.00  0.00    -0.020 N 
ATOM      8  H10 UNL     1      25.416  -2.894  20.433  1.00  0.00     0.203 HD
HETATM    9  C11 UNL     1      26.525  -1.411  19.582  1.00  0.00     0.705 A 
HETATM   10  N12 UNL     1      26.890  -0.821  18.406  1.00  0.00    -0.022 N 
ATOM     11  H12 UNL     1      27.530  -0.028  18.434  1.00  0.00     0.203 HD
ENDROOT
BRANCH   1  12
HETATM   12  C3  UNL     1      27.517   0.270  15.651  1.00  0.00     0.231 C 
BRANCH  12  13
HETATM   13  C2  UNL     1      28.164   0.168  14.322  1.00  0.00     0.190 A 
HETATM   14  N2  UNL     1      27.835  -0.707  13.363  1.00  0.00    -0.168 N 
HETATM   15  C1  UNL     1      28.685  -0.439  12.338  1.00  0.00     0.698 A 
ATOM     16  H2  UNL     1      27.105  -1.420  13.396  1.00  0.00     0.186 HD
HETATM   17  N13 UNL     1      29.490   0.570  12.694  1.00  0.00    -0.090 N 
HETATM   18  O7  UNL     1      29.171   0.929  13.885  1.00  0.00    -0.207 OA
ATOM     19  H13 UNL     1      30.227   0.981  12.121  1.00  0.00     0.213 HD
BRANCH  15  20
HETATM   20  N1  UNL     1      28.704  -1.075  11.211  1.00  0.00    -0.233 N 
ATOM     21  H12 UNL     1      27.892  -1.389  10.680  1.00  0.00     0.174 HD
ATOM     22  H11 UNL     1      29.551  -1.336  10.706  1.00  0.00     0.174 HD
ENDBRANCH  15  20
ENDBRANCH  12  13
BRANCH  12  23
HETATM   23  C12 UNL     1      28.651   0.619  16.648  1.00  0.00     0.285 C 
BRANCH  23  24
HETATM   24  O5  UNL     1      29.031   1.929  16.464  1.00  0.00    -0.369 OA
ATOM     25  H5  UNL     1      28.935   2.401  17.283  1.00  0.00     0.212 HD
ENDBRANCH  23  24
BRANCH  23  26
HETATM   26  O6  UNL     1      29.670  -0.292  16.532  1.00  0.00    -0.369 OA
ATOM     27  H6  UNL     1      30.024  -0.491  17.391  1.00  0.00     0.212 HD
ENDBRANCH  23  26
ENDBRANCH  12  23
ENDBRANCH   1  12
BRANCH   6  28
HETATM   28  N5  UNL     1      24.330  -4.058  18.351  1.00  0.00    -0.080 N 
HETATM   29  C6  UNL     1      23.292  -4.261  17.543  1.00  0.00     0.173 A 
HETATM   30  C7  UNL     1      22.747  -5.509  17.831  1.00  0.00     0.137 A 
HETATM   31  N8  UNL     1      23.520  -6.003  18.835  1.00  0.00    -0.279 N 
HETATM   32  N9  UNL     1      24.453  -5.133  19.131  1.00  0.00    -0.221 N 
ATOM     33  H8  UNL     1      23.392  -6.909  19.286  1.00  0.00     0.189 HD
ATOM     34  H9  UNL     1      25.165  -5.257  19.850  1.00  0.00     0.209 HD
BRANCH  30  35
HETATM   35  C8  UNL     1      21.611  -6.160  17.197  1.00  0.00     0.289 C 
HETATM   36  O1  UNL     1      21.263  -5.837  16.039  1.00  0.00    -0.264 OA
HETATM   37  N6  UNL     1      20.886  -7.165  17.874  1.00  0.00    -0.262 N 
ATOM     38  H6  UNL     1      21.184  -7.411  18.818  1.00  0.00     0.190 HD
BRANCH  37  39
HETATM   39  N7  UNL     1      19.801  -7.837  17.347  1.00  0.00    -0.258 N 
HETATM   40  C9  UNL     1      18.869  -8.536  18.180  1.00  0.00     0.336 C 
HETATM   41  O2  UNL     1      19.060  -8.520  19.417  1.00  0.00    -0.259 OA
ATOM     42  H7  UNL     1      19.660  -7.836  16.336  1.00  0.00     0.190 HD
BRANCH  40  43
HETATM   43  C10 UNL     1      17.733  -9.247  17.641  1.00  0.00     0.271 C 
HETATM   44  O3  UNL     1      17.267  -8.943  16.489  1.00  0.00    -0.640 OA
HETATM   45  O4  UNL     1      17.150 -10.259  18.381  1.00  0.00    -0.640 OA
ENDBRANCH  40  43
ENDBRANCH  37  39
ENDBRANCH  30  35
ENDBRANCH   6  28
BRANCH   9  46
HETATM   46  N11 UNL     1      27.028  -0.905  20.671  1.00  0.00    -0.234 N 
ATOM     47 2H11 UNL     1      26.634  -0.020  20.990  1.00  0.00     0.174 HD
ATOM     48 1H11 UNL     1      27.779  -1.337  21.209  1.00  0.00     0.174 HD
ENDBRANCH   9  46
TORSDOF 11
ENDMDL
MODEL 4
REMARK VINA RESULT: -8.194373564      1.489      1.942
REMARK  11 active torsions:
REMARK  status: ('A' for Active; 'I' for Inactive)
REMARK    1  A    between atoms: N1_1  and  C1_4 
REMARK    2  A    between atoms: C2_7  and  C3_8 
REMARK    3  A    between atoms: C3_8  and  N3_9 
REMARK    4  A    between atoms: C3_8  and  C12_41 
REMARK    5  A    between atoms: C5_14  and  N5_15 
REMARK    6  A    between atoms: C7_17  and  C8_18 
REMARK       I    between atoms: C8_18  and  N6_20 
REMARK    7  A    between atoms: N6_20  and  N7_22 
REMARK       I    between atoms: N7_22  and  C9_24 
REMARK    8  A    between atoms: C9_24  and  C10_26 
REMARK    9  A    between atoms: C11_35  and  N11_36 
REMARK   10  A    between atoms: C12_41  and  O5_42 
REMARK   11  A    between atoms: C12_41  and  O6_44 
ROOT
HETATM    1  N3  UNL     1      26.150  -2.161  18.944  1.00  0.00    -0.208 N 
ATOM      2  H3  UNL     1      26.698  -3.021  18.922  1.00  0.00     0.178 HD
HETATM    3  C4  UNL     1      24.950  -2.356  18.648  1.00  0.00     0.708 A 
HETATM    4  N4  UNL     1      24.549  -3.649  18.347  1.00  0.00    -0.019 N 
ATOM      5  H4  UNL     1      25.253  -4.386  18.376  1.00  0.00     0.203 HD
HETATM    6  C5  UNL     1      23.298  -3.989  18.021  1.00  0.00     0.733 A 
HETATM    7  N10 UNL     1      22.376  -3.004  17.984  1.00  0.00    -0.020 N 
ATOM      8  H10 UNL     1      21.412  -3.232  17.738  1.00  0.00     0.203 HD
HETATM    9  C11 UNL     1      22.694  -1.738  18.262  1.00  0.00     0.705 A 
HETATM   10  N12 UNL     1      23.984  -1.434  18.592  1.00  0.00    -0.022 N 
ATOM     11  H12 UNL     1      24.219  -0.465  18.805  1.00  0.00     0.203 HD
ENDROOT
BRANCH   1  12
HETATM   12  C3  UNL     1      26.908  -1.071  19.290  1.00  0.00     0.231 C 
BRANCH  12  13
HETATM   13  C2  UNL     1      27.936  -0.569  18.347  1.00  0.00     0.190 A 
HETATM   14  N2  UNL     1      27.776  -0.429  17.025  1.00  0.00    -0.168 N 
HETATM   15  C1  UNL     1      28.966   0.050  16.578  1.00  0.00     0.698 A 
ATOM     16  H2  UNL     1      26.942  -0.636  16.475  1.00  0.00     0.186 HD
HETATM   17  N13 UNL     1      29.799   0.185  17.617  1.00  0.00    -0.090 N 
HETATM   18  O7  UNL     1      29.174  -0.189  18.675  1.00  0.00    -0.207 OA
ATOM     19  H13 UNL     1      30.760   0.525  17.576  1.00  0.00     0.213 HD
BRANCH  15  20
HETATM   20  N1  UNL     1      29.233   0.318  15.340  1.00  0.00    -0.233 N 
ATOM     21  H12 UNL     1      30.051   0.005  14.817  1.00  0.00     0.174 HD
ATOM     22  H11 UNL     1      28.643   0.879  14.726  1.00  0.00     0.174 HD
ENDBRANCH  15  20
ENDBRANCH  12  13
BRANCH  12  23
HETATM   23  C12 UNL     1      27.636  -1.269  20.643  1.00  0.00     0.285 C 
BRANCH  23  24
HETATM   24  O5  UNL     1      28.444  -2.380  20.567  1.00  0.00    -0.369 OA
ATOM     25  H5  UNL     1      28.663  -2.547  19.658  1.00  0.00     0.212 HD
ENDBRANCH  23  24
BRANCH  23  26
HETATM   26  O6  UNL     1      26.722  -1.298  21.665  1.00  0.00    -0.369 OA
ATOM     27  H6  UNL     1      25.970  -1.820  21.411  1.00  0.00     0.212 HD
ENDBRANCH  23  26
ENDBRANCH  12  23
ENDBRANCH   1  12
BRANCH   6  28
HETATM   28  N5  UNL     1      22.964  -5.344  17.754  1.00  0.00    -0.080 N 
HETATM   29  C6  UNL     1      21.763  -5.916  17.799  1.00  0.00     0.173 A 
HETATM   30  C7  UNL     1      21.897  -7.253  17.436  1.00  0.00     0.137 A 
HETATM   31  N8  UNL     1      23.224  -7.414  17.185  1.00  0.00    -0.279 N 
HETATM   32  N9  UNL     1      23.842  -6.275  17.377  1.00  0.00    -0.221 N 
ATOM     33  H8  UNL     1      23.667  -8.284  16.892  1.00  0.00     0.189 HD
ATOM     34  H9  UNL     1      24.843  -6.122  17.257  1.00  0.00     0.209 HD
BRANCH  30  35
HETATM   35  C8  UNL     1      20.855  -8.263  17.331  1.00  0.00     0.289 C 
HETATM   36  O1  UNL     1      21.071  -9.435  17.713  1.00  0.00    -0.264 OA
HETATM   37  N6  UNL     1      19.588  -7.938  16.799  1.00  0.00    -0.262 N 
ATOM     38  H6  UNL     1      19.434  -6.978  16.491  1.00  0.00     0.190 HD
BRANCH  37  39
HETATM   39  N7  UNL     1      18.543  -8.831  16.668  1.00  0.00    -0.258 N 
HETATM   40  C9  UNL     1      17.406  -8.794  17.538  1.00  0.00     0.336 C 
HETATM   41  O2  UNL     1      17.378  -7.918  18.432  1.00  0.00    -0.259 OA
ATOM     42  H7  UNL     1      18.581  -9.536  15.931  1.00  0.00     0.190 HD
BRANCH  40  43
HETATM   43  C10 UNL     1      16.307  -9.725  17.415  1.00  0.00     0.271 C 
HETATM   44  O3  UNL     1      15.795 -10.261  18.459  1.00  0.00    -0.640 OA
HETATM   45  O4  UNL     1      15.814 -10.034  16.163  1.00  0.00    -0.640 OA
ENDBRANCH  40  43
ENDBRANCH  37  39
ENDBRANCH  30  35
ENDBRANCH   6  28
BRANCH   9  46
HETATM   46  N11 UNL     1      21.847  -0.749  18.241  1.00  0.00    -0.234 N 
ATOM     47 2H11 UNL     1      21.333  -0.568  19.103  1.00  0.00     0.174 HD
ATOM     48 1H11 UNL     1      21.674  -0.160  17.427  1.00  0.00     0.174 HD
ENDBRANCH   9  46
TORSDOF 11
ENDMDL
MODEL 5
REMARK VINA RESULT: -8.190335874      1.288      1.331
REMARK  11 active torsions:
REMARK  status: ('A' for Active; 'I' for Inactive)
REMARK    1  A    between atoms: N1_1  and  C1_4 
REMARK    2  A    between atoms: C2_7  and  C3_8 
REMARK    3  A    between atoms: C3_8  and  N3_9 
REMARK    4  A    between atoms: C3_8  and  C12_41 
REMARK    5  A    between atoms: C5_14  and  N5_15 
REMARK    6  A    between atoms: C7_17  and  C8_18 
REMARK       I    between atoms: C8_18  and  N6_20 
REMARK    7  A    between atoms: N6_20  and  N7_22 
REMARK       I    between atoms: N7_22  and  C9_24 
REMARK    8  A    between atoms: C9_24  and  C10_26 
REMARK    9  A    between atoms: C11_35  and  N11_36 
REMARK   10  A    between atoms: C12_41  and  O5_42 
REMARK   11  A    between atoms: C12_41  and  O6_44 
ROOT
HETATM    1  N3  UNL     1      26.402  -1.617  16.912  1.00  0.00    -0.208 N 
ATOM      2  H3  UNL     1      26.252  -2.089  16.020  1.00  0.00     0.178 HD
HETATM    3  C4  UNL     1      25.778  -2.165  17.848  1.00  0.00     0.708 A 
HETATM    4  N4  UNL     1      25.008  -3.281  17.559  1.00  0.00    -0.019 N 
ATOM      5  H4  UNL     1      24.980  -3.606  16.593  1.00  0.00     0.203 HD
HETATM    6  C5  UNL     1      24.298  -3.959  18.468  1.00  0.00     0.733 A 
HETATM    7  N10 UNL     1      24.340  -3.517  19.744  1.00  0.00    -0.020 N 
ATOM      8  H10 UNL     1      23.809  -4.013  20.460  1.00  0.00     0.203 HD
HETATM    9  C11 UNL     1      25.061  -2.449  20.090  1.00  0.00     0.705 A 
HETATM   10  N12 UNL     1      25.773  -1.787  19.130  1.00  0.00    -0.022 N 
ATOM     11  H12 UNL     1      26.323  -0.973  19.403  1.00  0.00     0.203 HD
ENDROOT
BRANCH   1  12
HETATM   12  C3  UNL     1      27.239  -0.536  16.794  1.00  0.00     0.231 C 
BRANCH  12  13
HETATM   13  C2  UNL     1      28.092  -0.403  15.590  1.00  0.00     0.190 A 
HETATM   14  N2  UNL     1      28.115   0.653  14.767  1.00  0.00    -0.168 N 
HETATM   15  C1  UNL     1      29.029   0.335  13.814  1.00  0.00     0.698 A 
ATOM     16  H2  UNL     1      27.565   1.510  14.839  1.00  0.00     0.186 HD
HETATM   17  N13 UNL     1      29.527  -0.880  14.078  1.00  0.00    -0.090 N 
HETATM   18  O7  UNL     1      28.960  -1.316  15.146  1.00  0.00    -0.207 OA
ATOM     19  H13 UNL     1      30.232  -1.372  13.530  1.00  0.00     0.213 HD
BRANCH  15  20
HETATM   20  N1  UNL     1      29.347   1.093  12.815  1.00  0.00    -0.233 N 
ATOM     21  H12 UNL     1      29.300   2.112  12.790  1.00  0.00     0.174 HD
ATOM     22  H11 UNL     1      29.697   0.756  11.919  1.00  0.00     0.174 HD
ENDBRANCH  15  20
ENDBRANCH  12  13
BRANCH  12  23
HETATM   23  C12 UNL     1      28.194  -0.400  18.007  1.00  0.00     0.285 C 
BRANCH  23  24
HETATM   24  O5  UNL     1      27.632   0.444  18.937  1.00  0.00    -0.369 OA
ATOM     25  H5  UNL     1      26.784   0.104  19.197  1.00  0.00     0.212 HD
ENDBRANCH  23  24
BRANCH  23  26
HETATM   26  O6  UNL     1      29.442  -0.025  17.578  1.00  0.00    -0.369 OA
ATOM     27  H6  UNL     1      29.613   0.875  17.828  1.00  0.00     0.212 HD
ENDBRANCH  23  26
ENDBRANCH  12  23
ENDBRANCH   1  12
BRANCH   6  28
HETATM   28  N5  UNL     1      23.556  -5.111  18.093  1.00  0.00    -0.080 N 
HETATM   29  C6  UNL     1      22.294  -5.172  17.677  1.00  0.00     0.173 A 
HETATM   30  C7  UNL     1      21.987  -6.500  17.392  1.00  0.00     0.137 A 
HETATM   31  N8  UNL     1      23.129  -7.186  17.665  1.00  0.00    -0.279 N 
HETATM   32  N9  UNL     1      24.049  -6.350  18.079  1.00  0.00    -0.221 N 
ATOM     33  H8  UNL     1      23.250  -8.194  17.563  1.00  0.00     0.189 HD
ATOM     34  H9  UNL     1      24.998  -6.608  18.350  1.00  0.00     0.209 HD
BRANCH  30  35
HETATM   35  C8  UNL     1      20.733  -7.045  16.898  1.00  0.00     0.289 C 
HETATM   36  O1  UNL     1      20.240  -6.625  15.827  1.00  0.00    -0.264 OA
HETATM   37  N6  UNL     1      20.054  -8.056  17.614  1.00  0.00    -0.262 N 
ATOM     38  H6  UNL     1      20.472  -8.382  18.486  1.00  0.00     0.190 HD
BRANCH  37  39
HETATM   39  N7  UNL     1      18.865  -8.633  17.216  1.00  0.00    -0.258 N 
HETATM   40  C9  UNL     1      17.612  -8.259  17.801  1.00  0.00     0.336 C 
HETATM   41  O2  UNL     1      17.619  -7.381  18.693  1.00  0.00    -0.259 OA
ATOM     42  H7  UNL     1      18.878  -9.344  16.484  1.00  0.00     0.190 HD
BRANCH  40  43
HETATM   43  C10 UNL     1      16.361  -8.857  17.397  1.00  0.00     0.271 C 
HETATM   44  O3  UNL     1      15.703  -9.592  18.213  1.00  0.00    -0.640 OA
HETATM   45  O4  UNL     1      15.878  -8.631  16.122  1.00  0.00    -0.640 OA
ENDBRANCH  40  43
ENDBRANCH  37  39
ENDBRANCH  30  35
ENDBRANCH   6  28
BRANCH   9  46
HETATM   46  N11 UNL     1      25.138  -1.980  21.302  1.00  0.00    -0.234 N 
ATOM     47 2H11 UNL     1      25.613  -2.564  21.990  1.00  0.00     0.174 HD
ATOM     48 1H11 UNL     1      24.756  -1.080  21.594  1.00  0.00     0.174 HD
ENDBRANCH   9  46
TORSDOF 11
ENDMDL
