MODEL 1
REMARK VINA RESULT: -8.777389896      0.000      0.000
REMARK  13 active torsions:
REMARK  status: ('A' for Active; 'I' for Inactive)
REMARK    1  A    between atoms: N1_2  and  C2_4 
REMARK    2  A    between atoms: C4_8  and  C5_9 
REMARK    3  A    between atoms: C5_9  and  O1_10 
REMARK    4  A    between atoms: C5_9  and  O2_12 
REMARK    5  A    between atoms: C7_15  and  N3_16 
REMARK    6  A    between atoms: N3_16  and  C8_18 
REMARK    7  A    between atoms: C8_18  and  O3_19 
REMARK    8  A    between atoms: C8_18  and  C9_21 
REMARK    9  A    between atoms: N6_27  and  O4_28 
REMARK   10  A    between atoms: C12_30  and  N7_31 
REMARK   11  A    between atoms: N7_31  and  O5_32 
REMARK   12  A    between atoms: N7_31  and  N8_34 
REMARK   13  A    between atoms: N8_34  and  O6_35 
ROOT
HETATM    1  C9  UNL     1      27.986  -0.277  15.357  1.00  0.00     0.134 A 
HETATM    2  N4  UNL     1      26.852  -0.974  15.548  1.00  0.00    -0.337 N 
ATOM      3  H4  UNL     1      26.238  -1.186  14.761  1.00  0.00     0.167 HD
HETATM    4  C10 UNL     1      26.539  -1.387  16.789  1.00  0.00     0.110 A 
HETATM    5  C11 UNL     1      25.373  -2.106  17.008  1.00  0.00     0.176 A 
HETATM    6  N5  UNL     1      24.523  -2.395  15.906  1.00  0.00    -0.077 NA
HETATM    7  N6  UNL     1      25.117  -2.488  18.271  1.00  0.00    -0.177 N 
HETATM    8  C12 UNL     1      25.928  -2.205  19.298  1.00  0.00     0.232 A 
HETATM    9  N9  UNL     1      27.059  -1.515  19.124  1.00  0.00    -0.321 N 
ATOM     10  H9  UNL     1      27.672  -1.303  19.912  1.00  0.00     0.169 HD
HETATM   11  C13 UNL     1      27.367  -1.103  17.869  1.00  0.00     0.134 A 
HETATM   12  C14 UNL     1      28.531  -0.387  17.664  1.00  0.00     0.276 A 
HETATM   13  O7  UNL     1      29.321  -0.100  18.598  1.00  0.00    -0.266 OA
HETATM   14  N10 UNL     1      28.798   0.002  16.405  1.00  0.00    -0.307 N 
ATOM     15  H10 UNL     1      29.651   0.532  16.231  1.00  0.00     0.170 HD
ENDROOT
BRANCH   1  16
HETATM   16  C8  UNL     1      28.369   0.200  13.992  1.00  0.00     0.287 C 
BRANCH  16  17
HETATM   17  N3  UNL     1      28.953  -0.800  13.176  1.00  0.00    -0.356 N 
ATOM     18  H3  UNL     1      29.217  -1.660  13.656  1.00  0.00     0.162 HD
BRANCH  17  19
HETATM   19  C7  UNL     1      29.194  -0.775  11.920  1.00  0.00     0.060 A 
HETATM   20  C2  UNL     1      28.256  -1.242  11.004  1.00  0.00     0.070 A 
HETATM   21  C3  UNL     1      28.542  -1.197   9.667  1.00  0.00     0.119 A 
HETATM   22  N2  UNL     1      29.710  -0.713   9.183  1.00  0.00    -0.363 N 
HETATM   23  C4  UNL     1      30.635  -0.257  10.024  1.00  0.00     0.066 A 
ATOM     24  H2  UNL     1      29.881  -0.699   8.177  1.00  0.00     0.165 HD
HETATM   25  C6  UNL     1      30.364  -0.294  11.389  1.00  0.00     0.061 A 
BRANCH  20  26
HETATM   26  N1  UNL     1      27.007  -1.764  11.464  1.00  0.00    -0.391 N 
HETATM   27  C1  UNL     1      26.274  -2.761  10.710  1.00  0.00     0.146 C 
ATOM     28  H1  UNL     1      26.622  -1.426  12.347  1.00  0.00     0.159 HD
ENDBRANCH  20  26
BRANCH  23  29
HETATM   29  C5  UNL     1      31.933   0.282   9.504  1.00  0.00     0.305 C 
BRANCH  29  30
HETATM   30  O1  UNL     1      32.876   0.388  10.508  1.00  0.00    -0.366 OA
ATOM     31  H1  UNL     1      33.717   0.672  10.168  1.00  0.00     0.213 HD
ENDBRANCH  29  30
BRANCH  29  32
HETATM   32  O2  UNL     1      32.357  -0.582   8.492  1.00  0.00    -0.366 OA
ATOM     33  H2  UNL     1      31.800  -0.421   7.739  1.00  0.00     0.213 HD
ENDBRANCH  29  32
ENDBRANCH  23  29
ENDBRANCH  17  19
ENDBRANCH  16  17
BRANCH  16  34
HETATM   34  O3  UNL     1      29.210   1.305  14.127  1.00  0.00    -0.370 OA
ATOM     35  H3  UNL     1      28.732   2.120  14.030  1.00  0.00     0.212 HD
ENDBRANCH  16  34
ENDBRANCH   1  16
BRANCH   7  36
HETATM   36  O4  UNL     1      23.950  -3.205  18.471  1.00  0.00    -0.279 OA
ATOM     37  H4  UNL     1      24.048  -4.079  18.831  1.00  0.00     0.245 HD
ENDBRANCH   7  36
BRANCH   8  38
HETATM   38  N7  UNL     1      25.602  -2.634  20.609  1.00  0.00    -0.011 NA
BRANCH  38  39
HETATM   39  O5  UNL     1      24.387  -2.138  20.922  1.00  0.00    -0.288 OA
ATOM     40  H5  UNL     1      24.509  -1.277  21.305  1.00  0.00     0.239 HD
ENDBRANCH  38  39
BRANCH  38  41
HETATM   41  N8  UNL     1      26.618  -2.183  21.446  1.00  0.00     0.026 NA
BRANCH  41  42
HETATM   42  O6  UNL     1      26.265  -1.151  22.212  1.00  0.00    -0.279 OA
ATOM     43  H6  UNL     1      25.889  -1.404  23.047  1.00  0.00     0.240 HD
ENDBRANCH  41  42
ENDBRANCH  38  41
ENDBRANCH   8  38
TORSDOF 13
ENDMDL
MODEL 2
REMARK VINA RESULT: -8.282151442      2.424      2.925
REMARK  13 active torsions:
REMARK  status: ('A' for Active; 'I' for Inactive)
REMARK    1  A    between atoms: N1_2  and  C2_4 
REMARK    2  A    between atoms: C4_8  and  C5_9 
REMARK    3  A    between atoms: C5_9  and  O1_10 
REMARK    4  A    between atoms: C5_9  and  O2_12 
REMARK    5  A    between atoms: C7_15  and  N3_16 
REMARK    6  A    between atoms: N3_16  and  C8_18 
REMARK    7  A    between atoms: C8_18  and  O3_19 
REMARK    8  A    between atoms: C8_18  and  C9_21 
REMARK    9  A    between atoms: N6_27  and  O4_28 
REMARK   10  A    between atoms: C12_30  and  N7_31 
REMARK   11  A    between atoms: N7_31  and  O5_32 
REMARK   12  A    between atoms: N7_31  and  N8_34 
REMARK   13  A    between atoms: N8_34  and  O6_35 
ROOT
HETATM    1  C9  UNL     1      26.367  -1.054  15.058  1.00  0.00     0.134 A 
HETATM    2  N4  UNL     1      25.542  -1.988  15.562  1.00  0.00    -0.337 N 
ATOM      3  H4  UNL     1      24.957  -2.548  14.942  1.00  0.00     0.167 HD
HETATM    4  C10 UNL     1      25.499  -2.173  16.894  1.00  0.00     0.110 A 
HETATM    5  C11 UNL     1      24.653  -3.131  17.434  1.00  0.00     0.176 A 
HETATM    6  N5  UNL     1      23.840  -3.905  16.562  1.00  0.00    -0.077 NA
HETATM    7  N6  UNL     1      24.656  -3.266  18.772  1.00  0.00    -0.177 N 
HETATM    8  C12 UNL     1      25.427  -2.527  19.579  1.00  0.00     0.232 A 
HETATM    9  N9  UNL     1      26.254  -1.596  19.093  1.00  0.00    -0.321 N 
ATOM     10  H9  UNL     1      26.839  -1.036  19.714  1.00  0.00     0.169 HD
HETATM   11  C13 UNL     1      26.291  -1.416  17.749  1.00  0.00     0.134 A 
HETATM   12  C14 UNL     1      27.137  -0.459  17.223  1.00  0.00     0.276 A 
HETATM   13  O7  UNL     1      27.879   0.257  17.942  1.00  0.00    -0.266 OA
HETATM   14  N10 UNL     1      27.143  -0.313  15.886  1.00  0.00    -0.307 N 
ATOM     15  H10 UNL     1      27.759   0.388  15.477  1.00  0.00     0.170 HD
ENDROOT
BRANCH   1  16
HETATM   16  C8  UNL     1      26.444  -0.818  13.583  1.00  0.00     0.287 C 
BRANCH  16  17
HETATM   17  N3  UNL     1      25.701  -1.744  12.812  1.00  0.00    -0.356 N 
ATOM     18  H3  UNL     1      24.778  -1.980  13.178  1.00  0.00     0.162 HD
BRANCH  17  19
HETATM   19  C7  UNL     1      26.025  -2.326  11.720  1.00  0.00     0.060 A 
HETATM   20  C2  UNL     1      25.913  -3.708  11.589  1.00  0.00     0.070 A 
HETATM   21  C3  UNL     1      26.263  -4.301  10.407  1.00  0.00     0.119 A 
HETATM   22  N2  UNL     1      26.720  -3.600   9.341  1.00  0.00    -0.363 N 
HETATM   23  C4  UNL     1      26.842  -2.278   9.425  1.00  0.00     0.066 A 
ATOM     24  H2  UNL     1      26.969  -4.084   8.479  1.00  0.00     0.165 HD
HETATM   25  C6  UNL     1      26.492  -1.654  10.620  1.00  0.00     0.061 A 
BRANCH  20  26
HETATM   26  N1  UNL     1      25.437  -4.493  12.684  1.00  0.00    -0.391 N 
HETATM   27  C1  UNL     1      25.535  -5.939  12.683  1.00  0.00     0.146 C 
ATOM     28  H1  UNL     1      25.018  -4.024  13.488  1.00  0.00     0.159 HD
ENDBRANCH  20  26
BRANCH  23  29
HETATM   29  C5  UNL     1      27.346  -1.488   8.256  1.00  0.00     0.305 C 
BRANCH  29  30
HETATM   30  O1  UNL     1      26.312  -0.875   7.574  1.00  0.00    -0.366 OA
ATOM     31  H1  UNL     1      26.540  -0.715   6.666  1.00  0.00     0.213 HD
ENDBRANCH  29  30
BRANCH  29  32
HETATM   32  O2  UNL     1      28.254  -0.553   8.757  1.00  0.00    -0.366 OA
ATOM     33  H2  UNL     1      28.139   0.243   8.251  1.00  0.00     0.213 HD
ENDBRANCH  29  32
ENDBRANCH  23  29
ENDBRANCH  17  19
ENDBRANCH  16  17
BRANCH  16  34
HETATM   34  O3  UNL     1      27.788  -0.799  13.206  1.00  0.00    -0.370 OA
ATOM     35  H3  UNL     1      28.248  -1.567  13.522  1.00  0.00     0.212 HD
ENDBRANCH  16  34
ENDBRANCH   1  16
BRANCH   7  36
HETATM   36  O4  UNL     1      23.806  -4.227  19.293  1.00  0.00    -0.279 OA
ATOM     37  H4  UNL     1      23.840  -5.085  18.887  1.00  0.00     0.245 HD
ENDBRANCH   7  36
BRANCH   8  38
HETATM   38  N7  UNL     1      25.384  -2.715  20.983  1.00  0.00    -0.011 NA
BRANCH  38  39
HETATM   39  O5  UNL     1      24.221  -2.203  21.438  1.00  0.00    -0.288 OA
ATOM     40  H5  UNL     1      24.123  -2.458  22.348  1.00  0.00     0.239 HD
ENDBRANCH  38  39
BRANCH  38  41
HETATM   41  N8  UNL     1      26.509  -2.089  21.509  1.00  0.00     0.026 NA
BRANCH  41  42
HETATM   42  O6  UNL     1      26.231  -1.031  22.270  1.00  0.00    -0.279 OA
ATOM     43  H6  UNL     1      26.982  -0.686  22.738  1.00  0.00     0.240 HD
ENDBRANCH  41  42
ENDBRANCH  38  41
ENDBRANCH   8  38
TORSDOF 13
ENDMDL
MODEL 3
REMARK VINA RESULT: -8.229077311      2.203      2.932
REMARK  13 active torsions:
REMARK  status: ('A' for Active; 'I' for Inactive)
REMARK    1  A    between atoms: N1_2  and  C2_4 
REMARK    2  A    between atoms: C4_8  and  C5_9 
REMARK    3  A    between atoms: C5_9  and  O1_10 
REMARK    4  A    between atoms: C5_9  and  O2_12 
REMARK    5  A    between atoms: C7_15  and  N3_16 
REMARK    6  A    between atoms: N3_16  and  C8_18 
REMARK    7  A    between atoms: C8_18  and  O3_19 
REMARK    8  A    between atoms: C8_18  and  C9_21 
REMARK    9  A    between atoms: N6_27  and  O4_28 
REMARK   10  A    between atoms: C12_30  and  N7_31 
REMARK   11  A    between atoms: N7_31  and  O5_32 
REMARK   12  A    between atoms: N7_31  and  N8_34 
REMARK   13  A    between atoms: N8_34  and  O6_35 
ROOT
HETATM    1  C9  UNL     1      26.330  -0.916  14.927  1.00  0.00     0.134 A 
HETATM    2  N4  UNL     1      25.476  -1.836  15.407  1.00  0.00    -0.337 N 
ATOM      3  H4  UNL     1      24.868  -2.356  14.774  1.00  0.00     0.167 HD
HETATM    4  C10 UNL     1      25.434  -2.063  16.733  1.00  0.00     0.110 A 
HETATM    5  C11 UNL     1      24.559  -3.007  17.248  1.00  0.00     0.176 A 
HETATM    6  N5  UNL     1      23.714  -3.725  16.358  1.00  0.00    -0.077 NA
HETATM    7  N6  UNL     1      24.565  -3.185  18.581  1.00  0.00    -0.177 N 
HETATM    8  C12 UNL     1      25.367  -2.499  19.405  1.00  0.00     0.232 A 
HETATM    9  N9  UNL     1      26.222  -1.582  18.943  1.00  0.00    -0.321 N 
ATOM     10  H9  UNL     1      26.830  -1.063  19.578  1.00  0.00     0.169 HD
HETATM   11  C13 UNL     1      26.257  -1.361  17.605  1.00  0.00     0.134 A 
HETATM   12  C14 UNL     1      27.133  -0.418  17.104  1.00  0.00     0.276 A 
HETATM   13  O7  UNL     1      27.903   0.249  17.840  1.00  0.00    -0.266 OA
HETATM   14  N10 UNL     1      27.136  -0.229  15.773  1.00  0.00    -0.307 N 
ATOM     15  H10 UNL     1      27.774   0.463  15.381  1.00  0.00     0.170 HD
ENDROOT
BRANCH   1  16
HETATM   16  C8  UNL     1      26.406  -0.636  13.460  1.00  0.00     0.287 C 
BRANCH  16  17
HETATM   17  N3  UNL     1      27.642  -0.995  12.868  1.00  0.00    -0.356 N 
ATOM     18  H3  UNL     1      28.388  -1.235  13.521  1.00  0.00     0.162 HD
BRANCH  17  19
HETATM   19  C7  UNL     1      27.952  -1.061  11.629  1.00  0.00     0.060 A 
HETATM   20  C2  UNL     1      29.226  -0.704  11.194  1.00  0.00     0.070 A 
HETATM   21  C3  UNL     1      29.529  -0.790   9.863  1.00  0.00     0.119 A 
HETATM   22  N2  UNL     1      28.639  -1.211   8.933  1.00  0.00    -0.363 N 
HETATM   23  C4  UNL     1      27.411  -1.562   9.307  1.00  0.00     0.066 A 
ATOM     24  H2  UNL     1      28.909  -1.260   7.951  1.00  0.00     0.165 HD
HETATM   25  C6  UNL     1      27.081  -1.482  10.657  1.00  0.00     0.061 A 
BRANCH  20  26
HETATM   26  N1  UNL     1      30.202  -0.251  12.136  1.00  0.00    -0.391 N 
HETATM   27  C1  UNL     1      30.046   1.001  12.849  1.00  0.00     0.146 C 
ATOM     28  H1  UNL     1      31.028  -0.823  12.310  1.00  0.00     0.159 HD
ENDBRANCH  20  26
BRANCH  23  29
HETATM   29  C5  UNL     1      26.414  -2.031   8.291  1.00  0.00     0.305 C 
BRANCH  29  30
HETATM   30  O1  UNL     1      25.345  -2.669   8.887  1.00  0.00    -0.366 OA
ATOM     31  H1  UNL     1      25.189  -3.524   8.501  1.00  0.00     0.213 HD
ENDBRANCH  29  30
BRANCH  29  32
HETATM   32  O2  UNL     1      26.004  -0.905   7.573  1.00  0.00    -0.366 OA
ATOM     33  H2  UNL     1      25.252  -1.166   7.055  1.00  0.00     0.213 HD
ENDBRANCH  29  32
ENDBRANCH  23  29
ENDBRANCH  17  19
ENDBRANCH  16  17
BRANCH  16  34
HETATM   34  O3  UNL     1      26.111   0.712  13.249  1.00  0.00    -0.370 OA
ATOM     35  H3  UNL     1      25.174   0.858  13.191  1.00  0.00     0.212 HD
ENDBRANCH  16  34
ENDBRANCH   1  16
BRANCH   7  36
HETATM   36  O4  UNL     1      23.685  -4.132  19.078  1.00  0.00    -0.279 OA
ATOM     37  H4  UNL     1      23.825  -5.028  18.792  1.00  0.00     0.245 HD
ENDBRANCH   7  36
BRANCH   8  38
HETATM   38  N7  UNL     1      25.325  -2.730  20.803  1.00  0.00    -0.011 NA
BRANCH  38  39
HETATM   39  O5  UNL     1      24.204  -2.158  21.288  1.00  0.00    -0.288 OA
ATOM     40  H5  UNL     1      23.480  -2.756  21.142  1.00  0.00     0.239 HD
ENDBRANCH  38  39
BRANCH  38  41
HETATM   41  N8  UNL     1      26.495  -2.198  21.335  1.00  0.00     0.026 NA
BRANCH  41  42
HETATM   42  O6  UNL     1      26.293  -1.171  22.160  1.00  0.00    -0.279 OA
ATOM     43  H6  UNL     1      25.969  -0.390  21.728  1.00  0.00     0.240 HD
ENDBRANCH  41  42
ENDBRANCH  38  41
ENDBRANCH   8  38
TORSDOF 13
ENDMDL
MODEL 4
REMARK VINA RESULT: -8.215456671      1.829      2.731
REMARK  13 active torsions:
REMARK  status: ('A' for Active; 'I' for Inactive)
REMARK    1  A    between atoms: N1_2  and  C2_4 
REMARK    2  A    between atoms: C4_8  and  C5_9 
REMARK    3  A    between atoms: C5_9  and  O1_10 
REMARK    4  A    between atoms: C5_9  and  O2_12 
REMARK    5  A    between atoms: C7_15  and  N3_16 
REMARK    6  A    between atoms: N3_16  and  C8_18 
REMARK    7  A    between atoms: C8_18  and  O3_19 
REMARK    8  A    between atoms: C8_18  and  C9_21 
REMARK    9  A    between atoms: N6_27  and  O4_28 
REMARK   10  A    between atoms: C12_30  and  N7_31 
REMARK   11  A    between atoms: N7_31  and  O5_32 
REMARK   12  A    between atoms: N7_31  and  N8_34 
REMARK   13  A    between atoms: N8_34  and  O6_35 
ROOT
HETATM    1  C9  UNL     1      28.184  -0.201  14.832  1.00  0.00     0.134 A 
HETATM    2  N4  UNL     1      27.079  -0.939  15.032  1.00  0.00    -0.337 N 
ATOM      3  H4  UNL     1      26.493  -1.214  14.244  1.00  0.00     0.167 HD
HETATM    4  C10 UNL     1      26.756  -1.308  16.285  1.00  0.00     0.110 A 
HETATM    5  C11 UNL     1      25.618  -2.068  16.514  1.00  0.00     0.176 A 
HETATM    6  N5  UNL     1      24.807  -2.446  15.409  1.00  0.00    -0.077 NA
HETATM    7  N6  UNL     1      25.350  -2.403  17.788  1.00  0.00    -0.177 N 
HETATM    8  C12 UNL     1      26.125  -2.037  18.817  1.00  0.00     0.232 A 
HETATM    9  N9  UNL     1      27.228  -1.305  18.634  1.00  0.00    -0.321 N 
ATOM     10  H9  UNL     1      27.814  -1.030  19.423  1.00  0.00     0.169 HD
HETATM   11  C13 UNL     1      27.546  -0.938  17.367  1.00  0.00     0.134 A 
HETATM   12  C14 UNL     1      28.681  -0.181  17.153  1.00  0.00     0.276 A 
HETATM   13  O7  UNL     1      29.437   0.185  18.088  1.00  0.00    -0.266 OA
HETATM   14  N10 UNL     1      28.960   0.162  15.883  1.00  0.00    -0.307 N 
ATOM     15  H10 UNL     1      29.793   0.722  15.701  1.00  0.00     0.170 HD
ENDROOT
BRANCH   1  16
HETATM   16  C8  UNL     1      28.577   0.229  13.454  1.00  0.00     0.287 C 
BRANCH  16  17
HETATM   17  N3  UNL     1      29.012  -0.831  12.622  1.00  0.00    -0.356 N 
ATOM     18  H3  UNL     1      29.443  -1.620  13.105  1.00  0.00     0.162 HD
BRANCH  17  19
HETATM   19  C7  UNL     1      28.939  -0.938  11.349  1.00  0.00     0.060 A 
HETATM   20  C2  UNL     1      30.040  -0.652  10.546  1.00  0.00     0.070 A 
HETATM   21  C3  UNL     1      29.932  -0.781   9.189  1.00  0.00     0.119 A 
HETATM   22  N2  UNL     1      28.791  -1.178   8.578  1.00  0.00    -0.363 N 
HETATM   23  C4  UNL     1      27.716  -1.461   9.308  1.00  0.00     0.066 A 
ATOM     24  H2  UNL     1      28.756  -1.260   7.562  1.00  0.00     0.165 HD
HETATM   25  C6  UNL     1      27.803  -1.337  10.692  1.00  0.00     0.061 A 
BRANCH  20  26
HETATM   26  N1  UNL     1      31.268  -0.227  11.143  1.00  0.00    -0.391 N 
HETATM   27  C1  UNL     1      32.278   0.480  10.382  1.00  0.00     0.146 C 
ATOM     28  H1  UNL     1      31.438  -0.427  12.129  1.00  0.00     0.159 HD
ENDBRANCH  20  26
BRANCH  23  29
HETATM   29  C5  UNL     1      26.445  -1.902   8.648  1.00  0.00     0.305 C 
BRANCH  29  30
HETATM   30  O1  UNL     1      26.014  -0.982   7.712  1.00  0.00    -0.366 OA
ATOM     31  H1  UNL     1      25.367  -0.390   8.078  1.00  0.00     0.213 HD
ENDBRANCH  29  30
BRANCH  29  32
HETATM   32  O2  UNL     1      26.700  -3.145   8.064  1.00  0.00    -0.366 OA
ATOM     33  H2  UNL     1      27.572  -3.405   8.335  1.00  0.00     0.213 HD
ENDBRANCH  29  32
ENDBRANCH  23  29
ENDBRANCH  17  19
ENDBRANCH  16  17
BRANCH  16  34
HETATM   34  O3  UNL     1      29.547   1.227  13.560  1.00  0.00    -0.370 OA
ATOM     35  H3  UNL     1      29.184   2.085  13.379  1.00  0.00     0.212 HD
ENDBRANCH  16  34
ENDBRANCH   1  16
BRANCH   7  36
HETATM   36  O4  UNL     1      24.212  -3.162  17.997  1.00  0.00    -0.279 OA
ATOM     37  H4  UNL     1      23.381  -2.712  17.895  1.00  0.00     0.245 HD
ENDBRANCH   7  36
BRANCH   8  38
HETATM   38  N7  UNL     1      25.788  -2.419  20.139  1.00  0.00    -0.011 NA
BRANCH  38  39
HETATM   39  O5  UNL     1      24.540  -1.978  20.398  1.00  0.00    -0.288 OA
ATOM     40  H5  UNL     1      24.337  -1.287  19.778  1.00  0.00     0.239 HD
ENDBRANCH  38  39
BRANCH  38  41
HETATM   41  N8  UNL     1      26.755  -1.871  20.976  1.00  0.00     0.026 NA
BRANCH  41  42
HETATM   42  O6  UNL     1      26.258  -1.315  22.081  1.00  0.00    -0.279 OA
ATOM     43  H6  UNL     1      26.802  -0.626  22.442  1.00  0.00     0.240 HD
ENDBRANCH  41  42
ENDBRANCH  38  41
ENDBRANCH   8  38
TORSDOF 13
ENDMDL
MODEL 5
REMARK VINA RESULT: -8.214332874      1.791      3.806
REMARK  13 active torsions:
REMARK  status: ('A' for Active; 'I' for Inactive)
REMARK    1  A    between atoms: N1_2  and  C2_4 
REMARK    2  A    between atoms: C4_8  and  C5_9 
REMARK    3  A    between atoms: C5_9  and  O1_10 
REMARK    4  A    between atoms: C5_9  and  O2_12 
REMARK    5  A    between atoms: C7_15  and  N3_16 
REMARK    6  A    between atoms: N3_16  and  C8_18 
REMARK    7  A    between atoms: C8_18  and  O3_19 
REMARK    8  A    between atoms: C8_18  and  C9_21 
REMARK    9  A    between atoms: N6_27  and  O4_28 
REMARK   10  A    between atoms: C12_30  and  N7_31 
REMARK   11  A    between atoms: N7_31  and  O5_32 
REMARK   12  A    between atoms: N7_31  and  N8_34 
REMARK   13  A    between atoms: N8_34  and  O6_35 
ROOT
HETATM    1  C9  UNL     1      27.829  -0.400  15.490  1.00  0.00     0.134 A 
HETATM    2  N4  UNL     1      26.687  -1.072  15.715  1.00  0.00    -0.337 N 
ATOM      3  H4  UNL     1      26.062  -1.300  14.942  1.00  0.00     0.167 HD
HETATM    4  C10 UNL     1      26.381  -1.441  16.972  1.00  0.00     0.110 A 
HETATM    5  C11 UNL     1      25.206  -2.135  17.225  1.00  0.00     0.176 A 
HETATM    6  N5  UNL     1      24.340  -2.445  16.141  1.00  0.00    -0.077 NA
HETATM    7  N6  UNL     1      24.958  -2.473  18.503  1.00  0.00    -0.177 N 
HETATM    8  C12 UNL     1      25.785  -2.172  19.512  1.00  0.00     0.232 A 
HETATM    9  N9  UNL     1      26.924  -1.505  19.304  1.00  0.00    -0.321 N 
ATOM     10  H9  UNL     1      27.549  -1.279  20.078  1.00  0.00     0.169 HD
HETATM   11  C13 UNL     1      27.225  -1.137  18.034  1.00  0.00     0.134 A 
HETATM   12  C14 UNL     1      28.397  -0.447  17.795  1.00  0.00     0.276 A 
HETATM   13  O7  UNL     1      29.202  -0.143  18.710  1.00  0.00    -0.266 OA
HETATM   14  N10 UNL     1      28.657  -0.101  16.521  1.00  0.00    -0.307 N 
ATOM     15  H10 UNL     1      29.517   0.409  16.322  1.00  0.00     0.170 HD
ENDROOT
BRANCH   1  16
HETATM   16  C8  UNL     1      28.205   0.027  14.107  1.00  0.00     0.287 C 
BRANCH  16  17
HETATM   17  N3  UNL     1      27.135  -0.012  13.181  1.00  0.00    -0.356 N 
ATOM     18  H3  UNL     1      26.669   0.880  13.009  1.00  0.00     0.162 HD
BRANCH  17  19
HETATM   19  C7  UNL     1      26.669  -1.010  12.530  1.00  0.00     0.060 A 
HETATM   20  C2  UNL     1      27.254  -1.415  11.333  1.00  0.00     0.070 A 
HETATM   21  C3  UNL     1      26.736  -2.489  10.662  1.00  0.00     0.119 A 
HETATM   22  N2  UNL     1      25.667  -3.189  11.112  1.00  0.00    -0.363 N 
HETATM   23  C4  UNL     1      25.079  -2.835  12.251  1.00  0.00     0.066 A 
ATOM     24  H2  UNL     1      25.315  -3.983  10.579  1.00  0.00     0.165 HD
HETATM   25  C6  UNL     1      25.590  -1.744  12.950  1.00  0.00     0.061 A 
BRANCH  20  26
HETATM   26  N1  UNL     1      28.384  -0.709  10.815  1.00  0.00    -0.391 N 
HETATM   27  C1  UNL     1      29.496  -1.402  10.197  1.00  0.00     0.146 C 
ATOM     28  H1  UNL     1      28.408   0.309  10.882  1.00  0.00     0.159 HD
ENDBRANCH  20  26
BRANCH  23  29
HETATM   29  C5  UNL     1      23.895  -3.599  12.762  1.00  0.00     0.305 C 
BRANCH  29  30
HETATM   30  O1  UNL     1      24.257  -4.493  13.751  1.00  0.00    -0.366 OA
ATOM     31  H1  UNL     1      24.472  -5.345  13.389  1.00  0.00     0.213 HD
ENDBRANCH  29  30
BRANCH  29  32
HETATM   32  O2  UNL     1      22.977  -2.658  13.234  1.00  0.00    -0.366 OA
ATOM     33  H2  UNL     1      22.732  -2.927  14.112  1.00  0.00     0.213 HD
ENDBRANCH  29  32
ENDBRANCH  23  29
ENDBRANCH  17  19
ENDBRANCH  16  17
BRANCH  16  34
HETATM   34  O3  UNL     1      29.281  -0.751  13.679  1.00  0.00    -0.370 OA
ATOM     35  H3  UNL     1      29.961  -0.219  13.284  1.00  0.00     0.212 HD
ENDBRANCH  16  34
ENDBRANCH   1  16
BRANCH   7  36
HETATM   36  O4  UNL     1      23.782  -3.165  18.737  1.00  0.00    -0.279 OA
ATOM     37  H4  UNL     1      23.854  -4.111  18.794  1.00  0.00     0.245 HD
ENDBRANCH   7  36
BRANCH   8  38
HETATM   38  N7  UNL     1      25.466  -2.554  20.839  1.00  0.00    -0.011 NA
BRANCH  38  39
HETATM   39  O5  UNL     1      24.263  -2.028  21.148  1.00  0.00    -0.288 OA
ATOM     40  H5  UNL     1      24.275  -1.784  22.067  1.00  0.00     0.239 HD
ENDBRANCH  38  39
BRANCH  38  41
HETATM   41  N8  UNL     1      26.498  -2.095  21.650  1.00  0.00     0.026 NA
BRANCH  41  42
HETATM   42  O6  UNL     1      26.201  -0.983  22.322  1.00  0.00    -0.279 OA
ATOM     43  H6  UNL     1      26.620  -0.926  23.173  1.00  0.00     0.240 HD
ENDBRANCH  41  42
ENDBRANCH  38  41
ENDBRANCH   8  38
TORSDOF 13
ENDMDL
