MODEL 1
REMARK VINA RESULT: -8.453729570      0.000      0.000
REMARK  11 active torsions:
REMARK  status: ('A' for Active; 'I' for Inactive)
REMARK    1  A    between atoms: N1_1  and  C1_4 
REMARK    2  A    between atoms: N3_8  and  N4_9 
REMARK    3  A    between atoms: N4_9  and  S1_11 
REMARK    4  A    between atoms: S1_11  and  N5_14 
REMARK    5  A    between atoms: N5_14  and  C3_16 
REMARK    6  A    between atoms: C3_16  and  N6_17 
REMARK    7  A    between atoms: C3_16  and  C4_20 
REMARK    8  A    between atoms: N6_17  and  O3_18 
REMARK    9  A    between atoms: C5_25  and  N8_26 
REMARK   10  A    between atoms: C8_32  and  O7_33 
REMARK   11  A    between atoms: C10_38  and  N11_39 
ROOT
HETATM    1  C1  UNL     1      26.307  -2.603  19.448  1.00  0.00     0.679 A 
HETATM    2  N2  UNL     1      25.892  -1.734  18.498  1.00  0.00    -0.171 N 
ATOM      3  H2  UNL     1      26.453  -0.901  18.318  1.00  0.00     0.186 HD
HETATM    4  C2  UNL     1      24.778  -1.921  17.789  1.00  0.00     0.192 A 
HETATM    5  N3  UNL     1      24.379  -1.050  16.857  1.00  0.00    -0.152 N 
HETATM    6  N7  UNL     1      23.268  -1.297  16.194  1.00  0.00    -0.106 N 
ATOM      7  H7  UNL     1      22.966  -0.632  15.483  1.00  0.00     0.208 HD
HETATM    8  C5  UNL     1      22.527  -2.374  16.414  1.00  0.00     0.722 A 
HETATM    9  N10 UNL     1      22.864  -3.291  17.333  1.00  0.00    -0.181 N 
ATOM     10  H10 UNL     1      22.277  -4.113  17.481  1.00  0.00     0.184 HD
HETATM   11  C9  UNL     1      23.978  -3.119  18.052  1.00  0.00     0.141 A 
HETATM   12  C10 UNL     1      24.420  -3.991  19.021  1.00  0.00     0.146 A 
HETATM   13  N12 UNL     1      25.559  -3.695  19.673  1.00  0.00    -0.175 N 
ATOM     14  H12 UNL     1      25.877  -4.347  20.390  1.00  0.00     0.186 HD
ENDROOT
BRANCH   5  15
HETATM   15  N4  UNL     1      25.150   0.083  16.590  1.00  0.00    -0.186 N 
ATOM     16  H4  UNL     1      25.251   0.807  17.301  1.00  0.00     0.204 HD
BRANCH  15  17
HETATM   17  S1  UNL     1      25.920   0.260  15.086  1.00  0.00     0.336 S 
HETATM   18  O1  UNL     1      25.294   1.432  14.339  1.00  0.00    -0.181 OA
HETATM   19  O2  UNL     1      25.649  -0.998  14.273  1.00  0.00    -0.181 OA
BRANCH  17  20
HETATM   20  N5  UNL     1      27.593   0.566  15.157  1.00  0.00    -0.270 N 
ATOM     21  H5  UNL     1      28.061   1.364  14.726  1.00  0.00     0.176 HD
BRANCH  20  22
HETATM   22  C3  UNL     1      28.245  -0.462  15.912  1.00  0.00     0.316 C 
BRANCH  22  23
HETATM   23  N6  UNL     1      29.309  -1.113  15.162  1.00  0.00    -0.066 NA
BRANCH  23  24
HETATM   24  O3  UNL     1      29.263  -0.747  13.866  1.00  0.00    -0.294 OA
ATOM     25  H3  UNL     1      30.020  -0.217  13.644  1.00  0.00     0.238 HD
ENDBRANCH  23  24
ENDBRANCH  22  23
BRANCH  22  26
HETATM   26  C4  UNL     1      28.801   0.023  17.207  1.00  0.00     0.216 C 
HETATM   27  O4  UNL     1      28.009   0.240  18.147  1.00  0.00    -0.645 OA
HETATM   28  O5  UNL     1      30.167   0.213  17.313  1.00  0.00    -0.645 OA
ENDBRANCH  22  26
ENDBRANCH  20  22
ENDBRANCH  17  20
ENDBRANCH  15  17
ENDBRANCH   5  15
BRANCH   8  29
HETATM   29  N8  UNL     1      21.340  -2.582  15.642  1.00  0.00    -0.059 N 
HETATM   30  N9  UNL     1      20.351  -1.716  15.491  1.00  0.00    -0.243 N 
HETATM   31  C6  UNL     1      19.397  -2.233  14.705  1.00  0.00     0.264 A 
ATOM     32  H9  UNL     1      20.319  -0.788  15.913  1.00  0.00     0.191 HD
HETATM   33  O6  UNL     1      18.312  -1.696  14.342  1.00  0.00    -0.267 OA
HETATM   34  C7  UNL     1      19.818  -3.488  14.348  1.00  0.00     0.134 A 
HETATM   35  C8  UNL     1      21.042  -3.683  14.951  1.00  0.00     0.185 A 
BRANCH  35  36
HETATM   36  O7  UNL     1      21.792  -4.832  14.832  1.00  0.00    -0.344 OA
ATOM     37  H7  UNL     1      21.618  -5.682  15.218  1.00  0.00     0.219 HD
ENDBRANCH  35  36
ENDBRANCH   8  29
BRANCH   1  38
HETATM   38  N1  UNL     1      27.404  -2.384  20.130  1.00  0.00    -0.234 N 
ATOM     39  H12 UNL     1      28.304  -2.284  19.661  1.00  0.00     0.174 HD
ATOM     40  H11 UNL     1      27.384  -2.312  21.147  1.00  0.00     0.174 HD
ENDBRANCH   1  38
BRANCH  12  41
HETATM   41  N11 UNL     1      23.734  -5.053  19.274  1.00  0.00    -0.383 N 
ATOM     42 2H11 UNL     1      22.750  -5.019  19.539  1.00  0.00     0.157 HD
ATOM     43 1H11 UNL     1      24.185  -5.966  19.206  1.00  0.00     0.157 HD
ENDBRANCH  12  41
TORSDOF 11
ENDMDL
MODEL 2
REMARK VINA RESULT: -8.324154801      2.044      2.634
REMARK  11 active torsions:
REMARK  status: ('A' for Active; 'I' for Inactive)
REMARK    1  A    between atoms: N1_1  and  C1_4 
REMARK    2  A    between atoms: N3_8  and  N4_9 
REMARK    3  A    between atoms: N4_9  and  S1_11 
REMARK    4  A    between atoms: S1_11  and  N5_14 
REMARK    5  A    between atoms: N5_14  and  C3_16 
REMARK    6  A    between atoms: C3_16  and  N6_17 
REMARK    7  A    between atoms: C3_16  and  C4_20 
REMARK    8  A    between atoms: N6_17  and  O3_18 
REMARK    9  A    between atoms: C5_25  and  N8_26 
REMARK   10  A    between atoms: C8_32  and  O7_33 
REMARK   11  A    between atoms: C10_38  and  N11_39 
ROOT
HETATM    1  C1  UNL     1      27.749  -2.005  20.028  1.00  0.00     0.679 A 
HETATM    2  N2  UNL     1      27.673  -1.788  18.695  1.00  0.00    -0.171 N 
ATOM      3  H2  UNL     1      28.539  -1.690  18.165  1.00  0.00     0.186 HD
HETATM    4  C2  UNL     1      26.512  -1.697  18.046  1.00  0.00     0.192 A 
HETATM    5  N3  UNL     1      26.453  -1.479  16.728  1.00  0.00    -0.152 N 
HETATM    6  N7  UNL     1      25.273  -1.399  16.151  1.00  0.00    -0.106 N 
ATOM      7  H7  UNL     1      25.231  -1.234  15.146  1.00  0.00     0.208 HD
HETATM    8  C5  UNL     1      24.137  -1.526  16.823  1.00  0.00     0.722 A 
HETATM    9  N10 UNL     1      24.117  -1.747  18.146  1.00  0.00    -0.181 N 
ATOM     10  H10 UNL     1      23.228  -1.843  18.639  1.00  0.00     0.184 HD
HETATM   11  C9  UNL     1      25.272  -1.841  18.813  1.00  0.00     0.141 A 
HETATM   12  C10 UNL     1      25.372  -2.064  20.167  1.00  0.00     0.146 A 
HETATM   13  N12 UNL     1      26.600  -2.134  20.711  1.00  0.00    -0.175 N 
ATOM     14  H12 UNL     1      26.663  -2.298  21.716  1.00  0.00     0.186 HD
ENDROOT
BRANCH   5  15
HETATM   15  N4  UNL     1      27.634  -1.361  15.992  1.00  0.00    -0.186 N 
ATOM     16  H4  UNL     1      28.356  -2.077  16.071  1.00  0.00     0.204 HD
BRANCH  15  17
HETATM   17  S1  UNL     1      27.873  -0.028  14.965  1.00  0.00     0.336 S 
HETATM   18  O1  UNL     1      26.859   1.056  15.310  1.00  0.00    -0.181 OA
HETATM   19  O2  UNL     1      27.591  -0.483  13.540  1.00  0.00    -0.181 OA
BRANCH  17  20
HETATM   20  N5  UNL     1      29.410   0.696  15.059  1.00  0.00    -0.270 N 
ATOM     21  H5  UNL     1      30.039   0.840  14.269  1.00  0.00     0.176 HD
BRANCH  20  22
HETATM   22  C3  UNL     1      29.690   1.072  16.413  1.00  0.00     0.316 C 
BRANCH  22  23
HETATM   23  N6  UNL     1      29.972  -0.076  17.263  1.00  0.00    -0.066 NA
BRANCH  23  24
HETATM   24  O3  UNL     1      29.650   0.196  18.543  1.00  0.00    -0.294 OA
ATOM     25  H3  UNL     1      28.979  -0.403  18.850  1.00  0.00     0.238 HD
ENDBRANCH  23  24
ENDBRANCH  22  23
BRANCH  22  26
HETATM   26  C4  UNL     1      30.815   2.042  16.532  1.00  0.00     0.216 C 
HETATM   27  O4  UNL     1      31.174   2.394  17.674  1.00  0.00    -0.645 OA
HETATM   28  O5  UNL     1      31.413   2.510  15.376  1.00  0.00    -0.645 OA
ENDBRANCH  22  26
ENDBRANCH  20  22
ENDBRANCH  17  20
ENDBRANCH  15  17
ENDBRANCH   5  15
BRANCH   8  29
HETATM   29  N8  UNL     1      22.891  -1.443  16.124  1.00  0.00    -0.059 N 
HETATM   30  N9  UNL     1      22.734  -1.486  14.810  1.00  0.00    -0.243 N 
HETATM   31  C6  UNL     1      21.436  -1.383  14.494  1.00  0.00     0.264 A 
ATOM     32  H9  UNL     1      23.493  -1.583  14.136  1.00  0.00     0.191 HD
HETATM   33  O6  UNL     1      20.913  -1.386  13.344  1.00  0.00    -0.267 OA
HETATM   34  C7  UNL     1      20.750  -1.270  15.676  1.00  0.00     0.134 A 
HETATM   35  C8  UNL     1      21.689  -1.311  16.685  1.00  0.00     0.185 A 
BRANCH  35  36
HETATM   36  O7  UNL     1      21.391  -1.226  18.027  1.00  0.00    -0.344 OA
ATOM     37  H7  UNL     1      21.242  -1.940  18.636  1.00  0.00     0.219 HD
ENDBRANCH  35  36
ENDBRANCH   8  29
BRANCH   1  38
HETATM   38  N1  UNL     1      28.907  -2.083  20.634  1.00  0.00    -0.234 N 
ATOM     39  H12 UNL     1      29.319  -2.986  20.868  1.00  0.00     0.174 HD
ATOM     40  H11 UNL     1      29.424  -1.242  20.890  1.00  0.00     0.174 HD
ENDBRANCH   1  38
BRANCH  12  41
HETATM   41  N11 UNL     1      24.297  -2.193  20.866  1.00  0.00    -0.383 N 
ATOM     42 2H11 UNL     1      23.553  -1.495  20.861  1.00  0.00     0.157 HD
ATOM     43 1H11 UNL     1      24.176  -3.023  21.447  1.00  0.00     0.157 HD
ENDBRANCH  12  41
TORSDOF 11
ENDMDL
MODEL 3
REMARK VINA RESULT: -8.287147036      2.140      3.201
REMARK  11 active torsions:
REMARK  status: ('A' for Active; 'I' for Inactive)
REMARK    1  A    between atoms: N1_1  and  C1_4 
REMARK    2  A    between atoms: N3_8  and  N4_9 
REMARK    3  A    between atoms: N4_9  and  S1_11 
REMARK    4  A    between atoms: S1_11  and  N5_14 
REMARK    5  A    between atoms: N5_14  and  C3_16 
REMARK    6  A    between atoms: C3_16  and  N6_17 
REMARK    7  A    between atoms: C3_16  and  C4_20 
REMARK    8  A    between atoms: N6_17  and  O3_18 
REMARK    9  A    between atoms: C5_25  and  N8_26 
REMARK   10  A    between atoms: C8_32  and  O7_33 
REMARK   11  A    between atoms: C10_38  and  N11_39 
ROOT
HETATM    1  C1  UNL     1      27.787  -1.913  20.060  1.00  0.00     0.679 A 
HETATM    2  N2  UNL     1      27.706  -1.598  18.747  1.00  0.00    -0.171 N 
ATOM      3  H2  UNL     1      28.568  -1.404  18.237  1.00  0.00     0.186 HD
HETATM    4  C2  UNL     1      26.546  -1.530  18.094  1.00  0.00     0.192 A 
HETATM    5  N3  UNL     1      26.482  -1.213  16.797  1.00  0.00    -0.152 N 
HETATM    6  N7  UNL     1      25.303  -1.164  16.214  1.00  0.00    -0.106 N 
ATOM      7  H7  UNL     1      25.257  -0.923  15.224  1.00  0.00     0.208 HD
HETATM    8  C5  UNL     1      24.173  -1.414  16.861  1.00  0.00     0.722 A 
HETATM    9  N10 UNL     1      24.158  -1.738  18.162  1.00  0.00    -0.181 N 
ATOM     10  H10 UNL     1      23.275  -1.928  18.636  1.00  0.00     0.184 HD
HETATM   11  C9  UNL     1      25.313  -1.811  18.833  1.00  0.00     0.141 A 
HETATM   12  C10 UNL     1      25.418  -2.132  20.167  1.00  0.00     0.146 A 
HETATM   13  N12 UNL     1      26.645  -2.167  20.718  1.00  0.00    -0.175 N 
ATOM     14  H12 UNL     1      26.712  -2.404  21.708  1.00  0.00     0.186 HD
ENDROOT
BRANCH   5  15
HETATM   15  N4  UNL     1      27.658  -0.964  16.085  1.00  0.00    -0.186 N 
ATOM     16  H4  UNL     1      28.243  -1.743  15.783  1.00  0.00     0.204 HD
BRANCH  15  17
HETATM   17  S1  UNL     1      28.117   0.631  15.722  1.00  0.00     0.336 S 
HETATM   18  O1  UNL     1      29.186   1.081  16.711  1.00  0.00    -0.181 OA
HETATM   19  O2  UNL     1      26.900   1.523  15.925  1.00  0.00    -0.181 OA
BRANCH  17  20
HETATM   20  N5  UNL     1      28.765   0.865  14.165  1.00  0.00    -0.270 N 
ATOM     21  H5  UNL     1      29.368   1.640  13.892  1.00  0.00     0.176 HD
BRANCH  20  22
HETATM   22  C3  UNL     1      28.336  -0.191  13.296  1.00  0.00     0.316 C 
BRANCH  22  23
HETATM   23  N6  UNL     1      26.936  -0.066  12.917  1.00  0.00    -0.066 NA
BRANCH  23  24
HETATM   24  O3  UNL     1      26.281  -1.220  13.152  1.00  0.00    -0.294 OA
ATOM     25  H3  UNL     1      26.311  -1.435  14.077  1.00  0.00     0.238 HD
ENDBRANCH  23  24
ENDBRANCH  22  23
BRANCH  22  26
HETATM   26  C4  UNL     1      29.158  -0.300  12.057  1.00  0.00     0.216 C 
HETATM   27  O4  UNL     1      30.380  -0.058  12.135  1.00  0.00    -0.645 OA
HETATM   28  O5  UNL     1      28.535  -0.665  10.876  1.00  0.00    -0.645 OA
ENDBRANCH  22  26
ENDBRANCH  20  22
ENDBRANCH  17  20
ENDBRANCH  15  17
ENDBRANCH   5  15
BRANCH   8  29
HETATM   29  N8  UNL     1      22.929  -1.355  16.156  1.00  0.00    -0.059 N 
HETATM   30  N9  UNL     1      22.782  -1.352  14.841  1.00  0.00    -0.243 N 
HETATM   31  C6  UNL     1      21.483  -1.291  14.519  1.00  0.00     0.264 A 
ATOM     32  H9  UNL     1      23.548  -1.391  14.168  1.00  0.00     0.191 HD
HETATM   33  O6  UNL     1      20.967  -1.270  13.365  1.00  0.00    -0.267 OA
HETATM   34  C7  UNL     1      20.786  -1.254  15.699  1.00  0.00     0.134 A 
HETATM   35  C8  UNL     1      21.720  -1.296  16.713  1.00  0.00     0.185 A 
BRANCH  35  36
HETATM   36  O7  UNL     1      21.410  -1.276  18.054  1.00  0.00    -0.344 OA
ATOM     37  H7  UNL     1      20.584  -1.505  18.464  1.00  0.00     0.219 HD
ENDBRANCH  35  36
ENDBRANCH   8  29
BRANCH   1  38
HETATM   38  N1  UNL     1      28.944  -1.965  20.672  1.00  0.00    -0.234 N 
ATOM     39  H12 UNL     1      29.017  -1.797  21.675  1.00  0.00     0.174 HD
ATOM     40  H11 UNL     1      29.801  -2.172  20.158  1.00  0.00     0.174 HD
ENDBRANCH   1  38
BRANCH  12  41
HETATM   41  N11 UNL     1      24.349  -2.382  20.841  1.00  0.00    -0.383 N 
ATOM     42 2H11 UNL     1      23.788  -3.219  20.687  1.00  0.00     0.157 HD
ATOM     43 1H11 UNL     1      24.047  -1.724  21.561  1.00  0.00     0.157 HD
ENDBRANCH  12  41
TORSDOF 11
ENDMDL
MODEL 4
REMARK VINA RESULT: -8.275541680      2.423      5.324
REMARK  11 active torsions:
REMARK  status: ('A' for Active; 'I' for Inactive)
REMARK    1  A    between atoms: N1_1  and  C1_4 
REMARK    2  A    between atoms: N3_8  and  N4_9 
REMARK    3  A    between atoms: N4_9  and  S1_11 
REMARK    4  A    between atoms: S1_11  and  N5_14 
REMARK    5  A    between atoms: N5_14  and  C3_16 
REMARK    6  A    between atoms: C3_16  and  N6_17 
REMARK    7  A    between atoms: C3_16  and  C4_20 
REMARK    8  A    between atoms: N6_17  and  O3_18 
REMARK    9  A    between atoms: C5_25  and  N8_26 
REMARK   10  A    between atoms: C8_32  and  O7_33 
REMARK   11  A    between atoms: C10_38  and  N11_39 
ROOT
HETATM    1  C1  UNL     1      21.483  -1.932  14.829  1.00  0.00     0.679 A 
HETATM    2  N2  UNL     1      22.696  -1.334  14.849  1.00  0.00    -0.171 N 
ATOM      3  H2  UNL     1      22.985  -0.787  14.038  1.00  0.00     0.186 HD
HETATM    4  C2  UNL     1      23.529  -1.429  15.886  1.00  0.00     0.192 A 
HETATM    5  N3  UNL     1      24.726  -0.835  15.889  1.00  0.00    -0.152 N 
HETATM    6  N7  UNL     1      25.499  -0.972  16.946  1.00  0.00    -0.106 N 
ATOM      7  H7  UNL     1      26.411  -0.517  16.946  1.00  0.00     0.208 HD
HETATM    8  C5  UNL     1      25.139  -1.677  18.009  1.00  0.00     0.722 A 
HETATM    9  N10 UNL     1      23.954  -2.301  18.079  1.00  0.00    -0.181 N 
ATOM     10  H10 UNL     1      23.701  -2.836  18.911  1.00  0.00     0.184 HD
HETATM   11  C9  UNL     1      23.107  -2.215  17.049  1.00  0.00     0.141 A 
HETATM   12  C10 UNL     1      21.868  -2.814  17.008  1.00  0.00     0.146 A 
HETATM   13  N12 UNL     1      21.116  -2.647  15.905  1.00  0.00    -0.175 N 
ATOM     14  H12 UNL     1      20.201  -3.097  15.885  1.00  0.00     0.186 HD
ENDROOT
BRANCH   5  15
HETATM   15  N4  UNL     1      25.123  -0.070  14.790  1.00  0.00    -0.186 N 
ATOM     16  H4  UNL     1      24.545   0.711  14.480  1.00  0.00     0.204 HD
BRANCH  15  17
HETATM   17  S1  UNL     1      26.565  -0.435  13.969  1.00  0.00     0.336 S 
HETATM   18  O1  UNL     1      26.837   0.649  12.932  1.00  0.00    -0.181 OA
HETATM   19  O2  UNL     1      26.355  -1.743  13.219  1.00  0.00    -0.181 OA
BRANCH  17  20
HETATM   20  N5  UNL     1      27.954  -0.532  14.947  1.00  0.00    -0.270 N 
ATOM     21  H5  UNL     1      28.480  -1.386  15.134  1.00  0.00     0.176 HD
BRANCH  20  22
HETATM   22  C3  UNL     1      28.275   0.763  15.468  1.00  0.00     0.316 C 
BRANCH  22  23
HETATM   23  N6  UNL     1      27.127   1.418  16.077  1.00  0.00    -0.066 NA
BRANCH  23  24
HETATM   24  O3  UNL     1      27.196   1.335  17.420  1.00  0.00    -0.294 OA
ATOM     25  H3  UNL     1      28.090   1.470  17.715  1.00  0.00     0.238 HD
ENDBRANCH  23  24
ENDBRANCH  22  23
BRANCH  22  26
HETATM   26  C4  UNL     1      29.391   0.738  16.456  1.00  0.00     0.216 C 
HETATM   27  O4  UNL     1      29.591  -0.315  17.095  1.00  0.00    -0.645 OA
HETATM   28  O5  UNL     1      30.156   1.879  16.623  1.00  0.00    -0.645 OA
ENDBRANCH  22  26
ENDBRANCH  20  22
ENDBRANCH  17  20
ENDBRANCH  15  17
ENDBRANCH   5  15
BRANCH   8  29
HETATM   29  N8  UNL     1      26.027  -1.767  19.128  1.00  0.00    -0.059 N 
HETATM   30  N9  UNL     1      27.328  -1.524  19.108  1.00  0.00    -0.243 N 
HETATM   31  C6  UNL     1      27.852  -1.703  20.328  1.00  0.00     0.264 A 
ATOM     32  H9  UNL     1      27.855  -1.241  18.282  1.00  0.00     0.191 HD
HETATM   33  O6  UNL     1      29.057  -1.562  20.685  1.00  0.00    -0.267 OA
HETATM   34  C7  UNL     1      26.821  -2.077  21.150  1.00  0.00     0.134 A 
HETATM   35  C8  UNL     1      25.684  -2.110  20.370  1.00  0.00     0.185 A 
BRANCH  35  36
HETATM   36  O7  UNL     1      24.433  -2.445  20.836  1.00  0.00    -0.344 OA
ATOM     37  H7  UNL     1      24.059  -3.314  20.926  1.00  0.00     0.219 HD
ENDBRANCH  35  36
ENDBRANCH   8  29
BRANCH   1  38
HETATM   38  N1  UNL     1      20.693  -1.822  13.791  1.00  0.00    -0.234 N 
ATOM     39  H12 UNL     1      20.779  -1.037  13.146  1.00  0.00     0.174 HD
ATOM     40  H11 UNL     1      19.970  -2.516  13.605  1.00  0.00     0.174 HD
ENDBRANCH   1  38
BRANCH  12  41
HETATM   41  N11 UNL     1      21.472  -3.512  18.017  1.00  0.00    -0.383 N 
ATOM     42 2H11 UNL     1      21.896  -4.405  18.265  1.00  0.00     0.157 HD
ATOM     43 1H11 UNL     1      20.708  -3.162  18.596  1.00  0.00     0.157 HD
ENDBRANCH  12  41
TORSDOF 11
ENDMDL
MODEL 5
REMARK VINA RESULT: -8.255853693      2.306      3.494
REMARK  11 active torsions:
REMARK  status: ('A' for Active; 'I' for Inactive)
REMARK    1  A    between atoms: N1_1  and  C1_4 
REMARK    2  A    between atoms: N3_8  and  N4_9 
REMARK    3  A    between atoms: N4_9  and  S1_11 
REMARK    4  A    between atoms: S1_11  and  N5_14 
REMARK    5  A    between atoms: N5_14  and  C3_16 
REMARK    6  A    between atoms: C3_16  and  N6_17 
REMARK    7  A    between atoms: C3_16  and  C4_20 
REMARK    8  A    between atoms: N6_17  and  O3_18 
REMARK    9  A    between atoms: C5_25  and  N8_26 
REMARK   10  A    between atoms: C8_32  and  O7_33 
REMARK   11  A    between atoms: C10_38  and  N11_39 
ROOT
HETATM    1  C1  UNL     1      26.321  -1.738  20.133  1.00  0.00     0.679 A 
HETATM    2  N2  UNL     1      26.572  -1.183  18.926  1.00  0.00    -0.171 N 
ATOM      3  H2  UNL     1      27.223  -0.399  18.873  1.00  0.00     0.186 HD
HETATM    4  C2  UNL     1      26.003  -1.618  17.801  1.00  0.00     0.192 A 
HETATM    5  N3  UNL     1      26.259  -1.057  16.615  1.00  0.00    -0.152 N 
HETATM    6  N7  UNL     1      25.661  -1.536  15.545  1.00  0.00    -0.106 N 
ATOM      7  H7  UNL     1      25.859  -1.107  14.642  1.00  0.00     0.208 HD
HETATM    8  C5  UNL     1      24.814  -2.554  15.594  1.00  0.00     0.722 A 
HETATM    9  N10 UNL     1      24.508  -3.168  16.747  1.00  0.00    -0.181 N 
ATOM     10  H10 UNL     1      23.854  -3.951  16.756  1.00  0.00     0.184 HD
HETATM   11  C9  UNL     1      25.070  -2.745  17.883  1.00  0.00     0.141 A 
HETATM   12  C10 UNL     1      24.831  -3.296  19.122  1.00  0.00     0.146 A 
HETATM   13  N12 UNL     1      25.463  -2.769  20.186  1.00  0.00    -0.175 N 
ATOM     14  H12 UNL     1      25.277  -3.184  21.099  1.00  0.00     0.186 HD
ENDROOT
BRANCH   5  15
HETATM   15  N4  UNL     1      27.162   0.005  16.531  1.00  0.00    -0.186 N 
ATOM     16  H4  UNL     1      26.920   0.911  16.931  1.00  0.00     0.204 HD
BRANCH  15  17
HETATM   17  S1  UNL     1      28.664  -0.208  15.765  1.00  0.00     0.336 S 
HETATM   18  O1  UNL     1      28.877  -1.691  15.487  1.00  0.00    -0.181 OA
HETATM   19  O2  UNL     1      29.749   0.237  16.735  1.00  0.00    -0.181 OA
BRANCH  17  20
HETATM   20  N5  UNL     1      28.840   0.596  14.275  1.00  0.00    -0.270 N 
ATOM     21  H5  UNL     1      29.332   1.479  14.140  1.00  0.00     0.176 HD
BRANCH  20  22
HETATM   22  C3  UNL     1      28.195  -0.154  13.238  1.00  0.00     0.316 C 
BRANCH  22  23
HETATM   23  N6  UNL     1      27.011   0.518  12.720  1.00  0.00    -0.066 NA
BRANCH  23  24
HETATM   24  O3  UNL     1      26.062   0.596  13.673  1.00  0.00    -0.294 OA
ATOM     25  H3  UNL     1      25.613  -0.236  13.763  1.00  0.00     0.238 HD
ENDBRANCH  23  24
ENDBRANCH  22  23
BRANCH  22  26
HETATM   26  C4  UNL     1      29.099  -0.475  12.097  1.00  0.00     0.216 C 
HETATM   27  O4  UNL     1      30.309  -0.666  12.337  1.00  0.00    -0.645 OA
HETATM   28  O5  UNL     1      28.562  -0.548  10.824  1.00  0.00    -0.645 OA
ENDBRANCH  22  26
ENDBRANCH  20  22
ENDBRANCH  17  20
ENDBRANCH  15  17
ENDBRANCH   5  15
BRANCH   8  29
HETATM   29  N8  UNL     1      24.214  -3.031  14.385  1.00  0.00    -0.059 N 
HETATM   30  N9  UNL     1      23.068  -3.685  14.293  1.00  0.00    -0.243 N 
HETATM   31  C6  UNL     1      22.803  -3.980  13.013  1.00  0.00     0.264 A 
ATOM     32  H9  UNL     1      22.471  -3.930  15.083  1.00  0.00     0.191 HD
HETATM   33  O6  UNL     1      21.802  -4.595  12.547  1.00  0.00    -0.267 OA
HETATM   34  C7  UNL     1      23.842  -3.482  12.270  1.00  0.00     0.134 A 
HETATM   35  C8  UNL     1      24.716  -2.889  13.158  1.00  0.00     0.185 A 
BRANCH  35  36
HETATM   36  O7  UNL     1      25.891  -2.271  12.794  1.00  0.00    -0.344 OA
ATOM     37  H7  UNL     1      26.155  -1.989  11.926  1.00  0.00     0.219 HD
ENDBRANCH  35  36
ENDBRANCH   8  29
BRANCH   1  38
HETATM   38  N1  UNL     1      26.894  -1.281  21.218  1.00  0.00    -0.234 N 
ATOM     39  H12 UNL     1      26.393  -0.665  21.858  1.00  0.00     0.174 HD
ATOM     40  H11 UNL     1      27.856  -1.527  21.448  1.00  0.00     0.174 HD
ENDBRANCH   1  38
BRANCH  12  41
HETATM   41  N11 UNL     1      24.013  -4.287  19.223  1.00  0.00    -0.383 N 
ATOM     42 2H11 UNL     1      23.117  -4.310  18.737  1.00  0.00     0.157 HD
ATOM     43 1H11 UNL     1      24.266  -5.085  19.807  1.00  0.00     0.157 HD
ENDBRANCH  12  41
TORSDOF 11
ENDMDL
