MODEL 1
REMARK VINA RESULT: -7.998410183      0.000      0.000
REMARK  13 active torsions:
REMARK  status: ('A' for Active; 'I' for Inactive)
REMARK    1  A    between atoms: C6_9  and  O2_10 
REMARK    2  A    between atoms: C7_12  and  O3_13 
REMARK    3  A    between atoms: C8_15  and  O4_16 
REMARK    4  A    between atoms: C10_19  and  N2_20 
REMARK    5  A    between atoms: N2_20  and  N3_22 
REMARK    6  A    between atoms: C11_26  and  C12_27 
REMARK       I    between atoms: C12_27  and  N6_29 
REMARK    7  A    between atoms: N6_29  and  C13_31 
REMARK    8  A    between atoms: C13_31  and  O6_32 
REMARK    9  A    between atoms: C13_31  and  C14_34 
REMARK   10  A    between atoms: C14_34  and  O7_35 
REMARK   11  A    between atoms: C14_34  and  C15_37 
REMARK   12  A    between atoms: C15_37  and  O8_38 
REMARK   13  A    between atoms: C16_40  and  O9_41 
ROOT
HETATM    1  N3  UNL     1      23.997  -4.062  18.589  1.00  0.00    -0.153 N 
HETATM    2  N4  UNL     1      24.960  -4.948  18.831  1.00  0.00     0.004 NA
HETATM    3  N5  UNL     1      24.576  -6.178  18.543  1.00  0.00    -0.274 N 
ATOM      4  H5  UNL     1      25.145  -7.018  18.650  1.00  0.00     0.184 HD
HETATM    5  C11 UNL     1      23.315  -6.142  18.090  1.00  0.00     0.168 A 
HETATM    6  C16 UNL     1      22.960  -4.814  18.122  1.00  0.00     0.211 A 
ENDROOT
BRANCH   1   7
HETATM    7  N2  UNL     1      24.023  -2.681  18.781  1.00  0.00    -0.273 N 
ATOM      8  H2  UNL     1      23.634  -2.275  19.631  1.00  0.00     0.189 HD
BRANCH   7   9
HETATM    9  C10 UNL     1      24.587  -1.855  17.801  1.00  0.00     0.131 C 
HETATM   10  C1  UNL     1      23.644  -1.639  16.669  1.00  0.00     0.270 C 
HETATM   11  O1  UNL     1      22.444  -1.973  16.830  1.00  0.00    -0.266 OA
HETATM   12  N1  UNL     1      23.977  -1.085  15.411  1.00  0.00    -0.352 N 
HETATM   13  C2  UNL     1      24.903  -0.040  15.070  1.00  0.00     0.151 C 
ATOM     14  H1  UNL     1      23.481  -1.492  14.618  1.00  0.00     0.163 HD
HETATM   15  C3  UNL     1      26.117   0.004  15.899  1.00  0.00     0.005 C 
HETATM   16  C4  UNL     1      26.507  -0.513  17.041  1.00  0.00    -0.020 A 
HETATM   17  C5  UNL     1      27.795  -0.104  17.327  1.00  0.00     0.051 A 
HETATM   18  C9  UNL     1      25.798  -1.342  17.895  1.00  0.00     0.044 A 
HETATM   19  C6  UNL     1      28.419  -0.507  18.473  1.00  0.00     0.102 A 
HETATM   20  C7  UNL     1      27.748  -1.326  19.340  1.00  0.00     0.133 A 
HETATM   21  C8  UNL     1      26.452  -1.738  19.051  1.00  0.00     0.115 A 
BRANCH  19  22
HETATM   22  O2  UNL     1      29.706  -0.118  18.790  1.00  0.00    -0.358 OA
ATOM     23  H2  UNL     1      30.156  -0.432  19.566  1.00  0.00     0.217 HD
ENDBRANCH  19  22
BRANCH  20  24
HETATM   24  O3  UNL     1      28.336  -1.765  20.518  1.00  0.00    -0.356 OA
ATOM     25  H3  UNL     1      28.572  -2.677  20.643  1.00  0.00     0.218 HD
ENDBRANCH  20  24
BRANCH  21  26
HETATM   26  O4  UNL     1      25.849  -2.546  19.952  1.00  0.00    -0.357 OA
ATOM     27  H4  UNL     1      26.389  -3.208  20.368  1.00  0.00     0.217 HD
ENDBRANCH  21  26
ENDBRANCH   7   9
ENDBRANCH   1   7
BRANCH   6  28
HETATM   28  O9  UNL     1      21.728  -4.301  17.738  1.00  0.00    -0.342 OA
ATOM     29  H9  UNL     1      20.922  -4.803  17.709  1.00  0.00     0.219 HD
ENDBRANCH   6  28
BRANCH   5  30
HETATM   30  C12 UNL     1      22.433  -7.212  17.640  1.00  0.00     0.275 C 
HETATM   31  O5  UNL     1      22.850  -8.093  16.842  1.00  0.00    -0.266 OA
HETATM   32  N6  UNL     1      21.081  -7.308  18.074  1.00  0.00    -0.327 N 
ATOM     33  H6  UNL     1      20.708  -6.613  18.720  1.00  0.00     0.165 HD
BRANCH  32  34
HETATM   34  C13 UNL     1      20.240  -8.371  17.614  1.00  0.00     0.251 C 
BRANCH  34  35
HETATM   35  O6  UNL     1      20.859  -9.595  17.878  1.00  0.00    -0.374 OA
ATOM     36  H6  UNL     1      20.318 -10.097  18.476  1.00  0.00     0.212 HD
ENDBRANCH  34  35
BRANCH  34  37
HETATM   37  C14 UNL     1      18.879  -8.368  18.260  1.00  0.00     0.190 C 
BRANCH  37  38
HETATM   38  O7  UNL     1      18.634  -9.587  18.888  1.00  0.00    -0.389 OA
ATOM     39  H7  UNL     1      18.755  -9.508  19.827  1.00  0.00     0.210 HD
ENDBRANCH  37  38
BRANCH  37  40
HETATM   40  C15 UNL     1      18.729  -7.235  19.252  1.00  0.00     0.200 C 
BRANCH  40  41
HETATM   41  O8  UNL     1      19.442  -7.542  20.415  1.00  0.00    -0.398 OA
ATOM     42  H8  UNL     1      20.328  -7.794  20.182  1.00  0.00     0.209 HD
ENDBRANCH  40  41
ENDBRANCH  37  40
ENDBRANCH  34  37
ENDBRANCH  32  34
ENDBRANCH   5  30
TORSDOF 13
ENDMDL
MODEL 2
REMARK VINA RESULT: -7.962655631      5.025      9.094
REMARK  13 active torsions:
REMARK  status: ('A' for Active; 'I' for Inactive)
REMARK    1  A    between atoms: C6_9  and  O2_10 
REMARK    2  A    between atoms: C7_12  and  O3_13 
REMARK    3  A    between atoms: C8_15  and  O4_16 
REMARK    4  A    between atoms: C10_19  and  N2_20 
REMARK    5  A    between atoms: N2_20  and  N3_22 
REMARK    6  A    between atoms: C11_26  and  C12_27 
REMARK       I    between atoms: C12_27  and  N6_29 
REMARK    7  A    between atoms: N6_29  and  C13_31 
REMARK    8  A    between atoms: C13_31  and  O6_32 
REMARK    9  A    between atoms: C13_31  and  C14_34 
REMARK   10  A    between atoms: C14_34  and  O7_35 
REMARK   11  A    between atoms: C14_34  and  C15_37 
REMARK   12  A    between atoms: C15_37  and  O8_38 
REMARK   13  A    between atoms: C16_40  and  O9_41 
ROOT
HETATM    1  N3  UNL     1      25.809  -1.175  14.230  1.00  0.00    -0.153 N 
HETATM    2  N4  UNL     1      25.414  -2.436  14.066  1.00  0.00     0.004 NA
HETATM    3  N5  UNL     1      25.710  -2.887  12.861  1.00  0.00    -0.274 N 
ATOM      4  H5  UNL     1      25.502  -3.822  12.510  1.00  0.00     0.184 HD
HETATM    5  C11 UNL     1      26.326  -1.915  12.174  1.00  0.00     0.168 A 
HETATM    6  C16 UNL     1      26.384  -0.847  13.038  1.00  0.00     0.211 A 
ENDROOT
BRANCH   1   7
HETATM    7  N2  UNL     1      25.660  -0.361  15.352  1.00  0.00    -0.273 N 
ATOM      8  H2  UNL     1      24.923   0.343  15.380  1.00  0.00     0.189 HD
BRANCH   7   9
HETATM    9  C10 UNL     1      26.528  -0.514  16.441  1.00  0.00     0.131 C 
HETATM   10  C1  UNL     1      27.838   0.147  16.185  1.00  0.00     0.270 C 
HETATM   11  O1  UNL     1      27.919   0.935  15.211  1.00  0.00    -0.266 OA
HETATM   12  N1  UNL     1      29.016  -0.033  16.946  1.00  0.00    -0.352 N 
HETATM   13  C2  UNL     1      29.191  -0.227  18.359  1.00  0.00     0.151 C 
ATOM     14  H1  UNL     1      29.881  -0.024  16.405  1.00  0.00     0.163 HD
HETATM   15  C3  UNL     1      28.129  -1.009  19.011  1.00  0.00     0.005 C 
HETATM   16  C4  UNL     1      26.916  -1.403  18.705  1.00  0.00    -0.020 A 
HETATM   17  C5  UNL     1      26.381  -2.134  19.747  1.00  0.00     0.051 A 
HETATM   18  C9  UNL     1      26.201  -1.161  17.543  1.00  0.00     0.044 A 
HETATM   19  C6  UNL     1      25.118  -2.648  19.668  1.00  0.00     0.102 A 
HETATM   20  C7  UNL     1      24.383  -2.427  18.534  1.00  0.00     0.133 A 
HETATM   21  C8  UNL     1      24.922  -1.691  17.485  1.00  0.00     0.115 A 
BRANCH  19  22
HETATM   22  O2  UNL     1      24.553  -3.384  20.691  1.00  0.00    -0.358 OA
ATOM     23  H2  UNL     1      24.742  -3.213  21.605  1.00  0.00     0.217 HD
ENDBRANCH  19  22
BRANCH  20  24
HETATM   24  O3  UNL     1      23.095  -2.926  18.401  1.00  0.00    -0.356 OA
ATOM     25  H3  UNL     1      22.753  -3.192  17.555  1.00  0.00     0.218 HD
ENDBRANCH  20  24
BRANCH  21  26
HETATM   26  O4  UNL     1      24.141  -1.511  16.396  1.00  0.00    -0.357 OA
ATOM     27  H4  UNL     1      23.274  -1.150  16.540  1.00  0.00     0.217 HD
ENDBRANCH  21  26
ENDBRANCH   7   9
ENDBRANCH   1   7
BRANCH   6  28
HETATM   28  O9  UNL     1      26.944   0.391  12.751  1.00  0.00    -0.342 OA
ATOM     29  H9  UNL     1      27.822   0.517  12.411  1.00  0.00     0.219 HD
ENDBRANCH   6  28
BRANCH   5  30
HETATM   30  C12 UNL     1      26.853  -1.895  10.816  1.00  0.00     0.275 C 
HETATM   31  O5  UNL     1      26.177  -2.362   9.859  1.00  0.00    -0.266 OA
HETATM   32  N6  UNL     1      28.134  -1.357  10.510  1.00  0.00    -0.327 N 
ATOM     33  H6  UNL     1      28.710  -0.970  11.258  1.00  0.00     0.165 HD
BRANCH  32  34
HETATM   34  C13 UNL     1      28.624  -1.352   9.166  1.00  0.00     0.251 C 
BRANCH  34  35
HETATM   35  O6  UNL     1      27.745  -0.626   8.359  1.00  0.00    -0.374 OA
ATOM     36  H6  UNL     1      27.312  -1.218   7.756  1.00  0.00     0.212 HD
ENDBRANCH  34  35
BRANCH  34  37
HETATM   37  C14 UNL     1      30.001  -0.755   9.041  1.00  0.00     0.190 C 
BRANCH  37  38
HETATM   38  O7  UNL     1      30.693  -0.866  10.245  1.00  0.00    -0.389 OA
ATOM     39  H7  UNL     1      31.477  -0.330  10.230  1.00  0.00     0.210 HD
ENDBRANCH  37  38
BRANCH  37  40
HETATM   40  C15 UNL     1      30.795  -1.400   7.926  1.00  0.00     0.200 C 
BRANCH  40  41
HETATM   41  O8  UNL     1      32.137  -1.025   8.038  1.00  0.00    -0.398 OA
ATOM     42  H8  UNL     1      32.526  -1.470   8.783  1.00  0.00     0.209 HD
ENDBRANCH  40  41
ENDBRANCH  37  40
ENDBRANCH  34  37
ENDBRANCH  32  34
ENDBRANCH   5  30
TORSDOF 13
ENDMDL
MODEL 3
REMARK VINA RESULT: -7.842448433      1.550      2.884
REMARK  13 active torsions:
REMARK  status: ('A' for Active; 'I' for Inactive)
REMARK    1  A    between atoms: C6_9  and  O2_10 
REMARK    2  A    between atoms: C7_12  and  O3_13 
REMARK    3  A    between atoms: C8_15  and  O4_16 
REMARK    4  A    between atoms: C10_19  and  N2_20 
REMARK    5  A    between atoms: N2_20  and  N3_22 
REMARK    6  A    between atoms: C11_26  and  C12_27 
REMARK       I    between atoms: C12_27  and  N6_29 
REMARK    7  A    between atoms: N6_29  and  C13_31 
REMARK    8  A    between atoms: C13_31  and  O6_32 
REMARK    9  A    between atoms: C13_31  and  C14_34 
REMARK   10  A    between atoms: C14_34  and  O7_35 
REMARK   11  A    between atoms: C14_34  and  C15_37 
REMARK   12  A    between atoms: C15_37  and  O8_38 
REMARK   13  A    between atoms: C16_40  and  O9_41 
ROOT
HETATM    1  N3  UNL     1      24.028  -4.140  18.455  1.00  0.00    -0.153 N 
HETATM    2  N4  UNL     1      24.866  -5.071  18.904  1.00  0.00     0.004 NA
HETATM    3  N5  UNL     1      24.414  -6.289  18.672  1.00  0.00    -0.274 N 
ATOM      4  H5  UNL     1      24.886  -7.156  18.928  1.00  0.00     0.184 HD
HETATM    5  C11 UNL     1      23.232  -6.199  18.045  1.00  0.00     0.168 A 
HETATM    6  C16 UNL     1      22.998  -4.851  17.914  1.00  0.00     0.211 A 
ENDROOT
BRANCH   1   7
HETATM    7  N2  UNL     1      24.153  -2.753  18.531  1.00  0.00    -0.273 N 
ATOM      8  H2  UNL     1      23.333  -2.158  18.413  1.00  0.00     0.189 HD
BRANCH   7   9
HETATM    9  C10 UNL     1      25.409  -2.182  18.769  1.00  0.00     0.131 C 
HETATM   10  C1  UNL     1      25.732  -2.173  20.222  1.00  0.00     0.270 C 
HETATM   11  O1  UNL     1      25.018  -2.867  20.988  1.00  0.00    -0.266 OA
HETATM   12  N1  UNL     1      26.781  -1.445  20.831  1.00  0.00    -0.352 N 
HETATM   13  C2  UNL     1      28.104  -1.146  20.356  1.00  0.00     0.151 C 
ATOM     14  H1  UNL     1      26.564  -1.073  21.756  1.00  0.00     0.163 HD
HETATM   15  C3  UNL     1      28.202  -0.920  18.905  1.00  0.00     0.005 C 
HETATM   16  C4  UNL     1      27.445  -1.139  17.857  1.00  0.00    -0.020 A 
HETATM   17  C5  UNL     1      28.086  -0.702  16.714  1.00  0.00     0.051 A 
HETATM   18  C9  UNL     1      26.189  -1.722  17.810  1.00  0.00     0.044 A 
HETATM   19  C6  UNL     1      27.499  -0.831  15.488  1.00  0.00     0.102 A 
HETATM   20  C7  UNL     1      26.258  -1.402  15.405  1.00  0.00     0.133 A 
HETATM   21  C8  UNL     1      25.613  -1.842  16.555  1.00  0.00     0.115 A 
BRANCH  19  22
HETATM   22  O2  UNL     1      28.111  -0.404  14.325  1.00  0.00    -0.358 OA
ATOM     23  H2  UNL     1      28.293   0.512  14.154  1.00  0.00     0.217 HD
ENDBRANCH  19  22
BRANCH  20  24
HETATM   24  O3  UNL     1      25.615  -1.558  14.185  1.00  0.00    -0.356 OA
ATOM     25  H3  UNL     1      25.904  -2.207  13.554  1.00  0.00     0.218 HD
ENDBRANCH  20  24
BRANCH  21  26
HETATM   26  O4  UNL     1      24.389  -2.398  16.400  1.00  0.00    -0.357 OA
ATOM     27  H4  UNL     1      24.353  -3.256  15.992  1.00  0.00     0.217 HD
ENDBRANCH  21  26
ENDBRANCH   7   9
ENDBRANCH   1   7
BRANCH   6  28
HETATM   28  O9  UNL     1      21.879  -4.283  17.319  1.00  0.00    -0.342 OA
ATOM     29  H9  UNL     1      21.847  -3.973  16.421  1.00  0.00     0.219 HD
ENDBRANCH   6  28
BRANCH   5  30
HETATM   30  C12 UNL     1      22.324  -7.236  17.570  1.00  0.00     0.275 C 
HETATM   31  O5  UNL     1      22.707  -8.080  16.715  1.00  0.00    -0.266 OA
HETATM   32  N6  UNL     1      20.986  -7.340  18.040  1.00  0.00    -0.327 N 
ATOM     33  H6  UNL     1      20.641  -6.675  18.731  1.00  0.00     0.165 HD
BRANCH  32  34
HETATM   34  C13 UNL     1      20.119  -8.369  17.553  1.00  0.00     0.251 C 
BRANCH  34  35
HETATM   35  O6  UNL     1      20.725  -9.612  17.747  1.00  0.00    -0.374 OA
ATOM     36  H6  UNL     1      20.240 -10.275  17.270  1.00  0.00     0.212 HD
ENDBRANCH  34  35
BRANCH  34  37
HETATM   37  C14 UNL     1      18.773  -8.377  18.231  1.00  0.00     0.190 C 
BRANCH  37  38
HETATM   38  O7  UNL     1      18.548  -9.602  18.856  1.00  0.00    -0.389 OA
ATOM     39  H7  UNL     1      17.740  -9.992  18.543  1.00  0.00     0.210 HD
ENDBRANCH  37  38
BRANCH  37  40
HETATM   40  C15 UNL     1      18.643  -7.251  19.235  1.00  0.00     0.200 C 
BRANCH  40  41
HETATM   41  O8  UNL     1      19.418  -7.545  20.360  1.00  0.00    -0.398 OA
ATOM     42  H8  UNL     1      18.897  -8.045  20.978  1.00  0.00     0.209 HD
ENDBRANCH  40  41
ENDBRANCH  37  40
ENDBRANCH  34  37
ENDBRANCH  32  34
ENDBRANCH   5  30
TORSDOF 13
ENDMDL
MODEL 4
REMARK VINA RESULT: -7.820891246      1.133      1.319
REMARK  13 active torsions:
REMARK  status: ('A' for Active; 'I' for Inactive)
REMARK    1  A    between atoms: C6_9  and  O2_10 
REMARK    2  A    between atoms: C7_12  and  O3_13 
REMARK    3  A    between atoms: C8_15  and  O4_16 
REMARK    4  A    between atoms: C10_19  and  N2_20 
REMARK    5  A    between atoms: N2_20  and  N3_22 
REMARK    6  A    between atoms: C11_26  and  C12_27 
REMARK       I    between atoms: C12_27  and  N6_29 
REMARK    7  A    between atoms: N6_29  and  C13_31 
REMARK    8  A    between atoms: C13_31  and  O6_32 
REMARK    9  A    between atoms: C13_31  and  C14_34 
REMARK   10  A    between atoms: C14_34  and  O7_35 
REMARK   11  A    between atoms: C14_34  and  C15_37 
REMARK   12  A    between atoms: C15_37  and  O8_38 
REMARK   13  A    between atoms: C16_40  and  O9_41 
ROOT
HETATM    1  N3  UNL     1      23.537  -4.613  18.345  1.00  0.00    -0.153 N 
HETATM    2  N4  UNL     1      24.378  -5.490  18.890  1.00  0.00     0.004 NA
HETATM    3  N5  UNL     1      23.993  -6.734  18.674  1.00  0.00    -0.274 N 
ATOM      4  H5  UNL     1      24.480  -7.570  18.997  1.00  0.00     0.184 HD
HETATM    5  C11 UNL     1      22.858  -6.718  17.961  1.00  0.00     0.168 A 
HETATM    6  C16 UNL     1      22.580  -5.387  17.760  1.00  0.00     0.211 A 
ENDROOT
BRANCH   1   7
HETATM    7  N2  UNL     1      23.600  -3.220  18.375  1.00  0.00    -0.273 N 
ATOM      8  H2  UNL     1      22.879  -2.685  18.857  1.00  0.00     0.189 HD
BRANCH   7   9
HETATM    9  C10 UNL     1      24.659  -2.560  17.739  1.00  0.00     0.131 C 
HETATM   10  C1  UNL     1      24.408  -2.417  16.278  1.00  0.00     0.270 C 
HETATM   11  O1  UNL     1      23.247  -2.645  15.855  1.00  0.00    -0.266 OA
HETATM   12  N1  UNL     1      25.367  -2.044  15.307  1.00  0.00    -0.352 N 
HETATM   13  C2  UNL     1      26.461  -1.116  15.389  1.00  0.00     0.151 C 
ATOM     14  H1  UNL     1      25.266  -2.509  14.405  1.00  0.00     0.163 HD
HETATM   15  C3  UNL     1      27.125  -1.057  16.701  1.00  0.00     0.005 C 
HETATM   16  C4  UNL     1      26.854  -1.458  17.920  1.00  0.00    -0.020 A 
HETATM   17  C5  UNL     1      27.886  -1.109  18.770  1.00  0.00     0.051 A 
HETATM   18  C9  UNL     1      25.730  -2.126  18.376  1.00  0.00     0.044 A 
HETATM   19  C6  UNL     1      27.832  -1.413  20.100  1.00  0.00     0.102 A 
HETATM   20  C7  UNL     1      26.735  -2.073  20.585  1.00  0.00     0.133 A 
HETATM   21  C8  UNL     1      25.697  -2.424  19.729  1.00  0.00     0.115 A 
BRANCH  19  22
HETATM   22  O2  UNL     1      28.846  -1.080  20.977  1.00  0.00    -0.358 OA
ATOM     23  H2  UNL     1      29.061  -0.179  21.187  1.00  0.00     0.217 HD
ENDBRANCH  19  22
BRANCH  20  24
HETATM   24  O3  UNL     1      26.628  -2.406  21.928  1.00  0.00    -0.356 OA
ATOM     25  H3  UNL     1      26.742  -1.753  22.609  1.00  0.00     0.218 HD
ENDBRANCH  20  24
BRANCH  21  26
HETATM   26  O4  UNL     1      24.643  -3.073  20.275  1.00  0.00    -0.357 OA
ATOM     27  H4  UNL     1      24.774  -3.467  21.130  1.00  0.00     0.217 HD
ENDBRANCH  21  26
ENDBRANCH   7   9
ENDBRANCH   1   7
BRANCH   6  28
HETATM   28  O9  UNL     1      21.486  -4.890  17.064  1.00  0.00    -0.342 OA
ATOM     29  H9  UNL     1      21.276  -3.966  16.982  1.00  0.00     0.219 HD
ENDBRANCH   6  28
BRANCH   5  30
HETATM   30  C12 UNL     1      22.030  -7.810  17.462  1.00  0.00     0.275 C 
HETATM   31  O5  UNL     1      22.465  -8.588  16.571  1.00  0.00    -0.266 OA
HETATM   32  N6  UNL     1      20.715  -8.043  17.951  1.00  0.00    -0.327 N 
ATOM     33  H6  UNL     1      20.329  -7.434  18.672  1.00  0.00     0.165 HD
BRANCH  32  34
HETATM   34  C13 UNL     1      19.927  -9.123  17.441  1.00  0.00     0.251 C 
BRANCH  34  35
HETATM   35  O6  UNL     1      20.402 -10.327  17.965  1.00  0.00    -0.374 OA
ATOM     36  H6  UNL     1      21.192 -10.580  17.502  1.00  0.00     0.212 HD
ENDBRANCH  34  35
BRANCH  34  37
HETATM   37  C14 UNL     1      18.463  -8.995  17.774  1.00  0.00     0.190 C 
BRANCH  37  38
HETATM   38  O7  UNL     1      18.134  -9.817  18.850  1.00  0.00    -0.389 OA
ATOM     39  H7  UNL     1      18.357  -9.396  19.672  1.00  0.00     0.210 HD
ENDBRANCH  37  38
BRANCH  37  40
HETATM   40  C15 UNL     1      18.079  -7.563  18.081  1.00  0.00     0.200 C 
BRANCH  40  41
HETATM   41  O8  UNL     1      18.358  -7.287  19.422  1.00  0.00    -0.398 OA
ATOM     42  H8  UNL     1      17.993  -6.440  19.651  1.00  0.00     0.209 HD
ENDBRANCH  40  41
ENDBRANCH  37  40
ENDBRANCH  34  37
ENDBRANCH  32  34
ENDBRANCH   5  30
TORSDOF 13
ENDMDL
MODEL 5
REMARK VINA RESULT: -7.797111450      2.883      8.126
REMARK  13 active torsions:
REMARK  status: ('A' for Active; 'I' for Inactive)
REMARK    1  A    between atoms: C6_9  and  O2_10 
REMARK    2  A    between atoms: C7_12  and  O3_13 
REMARK    3  A    between atoms: C8_15  and  O4_16 
REMARK    4  A    between atoms: C10_19  and  N2_20 
REMARK    5  A    between atoms: N2_20  and  N3_22 
REMARK    6  A    between atoms: C11_26  and  C12_27 
REMARK       I    between atoms: C12_27  and  N6_29 
REMARK    7  A    between atoms: N6_29  and  C13_31 
REMARK    8  A    between atoms: C13_31  and  O6_32 
REMARK    9  A    between atoms: C13_31  and  C14_34 
REMARK   10  A    between atoms: C14_34  and  O7_35 
REMARK   11  A    between atoms: C14_34  and  C15_37 
REMARK   12  A    between atoms: C15_37  and  O8_38 
REMARK   13  A    between atoms: C16_40  and  O9_41 
ROOT
HETATM    1  N3  UNL     1      24.464  -2.963  19.036  1.00  0.00    -0.153 N 
HETATM    2  N4  UNL     1      25.200  -3.116  20.134  1.00  0.00     0.004 NA
HETATM    3  N5  UNL     1      26.388  -2.553  20.009  1.00  0.00    -0.274 N 
ATOM      4  H5  UNL     1      27.118  -2.545  20.720  1.00  0.00     0.184 HD
HETATM    5  C11 UNL     1      26.476  -1.996  18.793  1.00  0.00     0.168 A 
HETATM    6  C16 UNL     1      25.268  -2.257  18.190  1.00  0.00     0.211 A 
ENDROOT
BRANCH   1   7
HETATM    7  N2  UNL     1      23.173  -3.428  18.787  1.00  0.00    -0.273 N 
ATOM      8  H2  UNL     1      22.394  -3.107  19.362  1.00  0.00     0.189 HD
BRANCH   7   9
HETATM    9  C10 UNL     1      22.951  -4.336  17.745  1.00  0.00     0.131 C 
HETATM   10  C1  UNL     1      23.655  -5.625  17.993  1.00  0.00     0.270 C 
HETATM   11  O1  UNL     1      24.111  -5.835  19.144  1.00  0.00    -0.266 OA
HETATM   12  N1  UNL     1      23.861  -6.650  17.040  1.00  0.00    -0.352 N 
HETATM   13  C2  UNL     1      23.015  -7.114  15.975  1.00  0.00     0.151 C 
ATOM     14  H1  UNL     1      24.753  -7.139  17.122  1.00  0.00     0.163 HD
HETATM   15  C3  UNL     1      22.216  -6.066  15.320  1.00  0.00     0.005 C 
HETATM   16  C4  UNL     1      21.876  -4.827  15.584  1.00  0.00    -0.020 A 
HETATM   17  C5  UNL     1      21.084  -4.330  14.568  1.00  0.00     0.051 A 
HETATM   18  C9  UNL     1      22.206  -4.063  16.691  1.00  0.00     0.044 A 
HETATM   19  C6  UNL     1      20.595  -3.056  14.620  1.00  0.00     0.102 A 
HETATM   20  C7  UNL     1      20.902  -2.272  15.700  1.00  0.00     0.133 A 
HETATM   21  C8  UNL     1      21.699  -2.773  16.723  1.00  0.00     0.115 A 
BRANCH  19  22
HETATM   22  O2  UNL     1      19.801  -2.526  13.621  1.00  0.00    -0.358 OA
ATOM     23  H2  UNL     1      20.162  -2.197  12.806  1.00  0.00     0.217 HD
ENDBRANCH  19  22
BRANCH  20  24
HETATM   24  O3  UNL     1      20.431  -0.971  15.804  1.00  0.00    -0.356 OA
ATOM     25  H3  UNL     1      20.102  -0.629  16.627  1.00  0.00     0.218 HD
ENDBRANCH  20  24
BRANCH  21  26
HETATM   26  O4  UNL     1      21.962  -1.945  17.759  1.00  0.00    -0.357 OA
ATOM     27  H4  UNL     1      21.350  -1.956  18.486  1.00  0.00     0.217 HD
ENDBRANCH  21  26
ENDBRANCH   7   9
ENDBRANCH   1   7
BRANCH   6  28
HETATM   28  O9  UNL     1      24.907  -1.866  16.908  1.00  0.00    -0.342 OA
ATOM     29  H9  UNL     1      25.035  -0.992  16.557  1.00  0.00     0.219 HD
ENDBRANCH   6  28
BRANCH   5  30
HETATM   30  C12 UNL     1      27.562  -1.259  18.158  1.00  0.00     0.275 C 
HETATM   31  O5  UNL     1      28.376  -0.594  18.854  1.00  0.00    -0.266 OA
HETATM   32  N6  UNL     1      27.749  -1.255  16.748  1.00  0.00    -0.327 N 
ATOM     33  H6  UNL     1      27.109  -1.782  16.153  1.00  0.00     0.165 HD
BRANCH  32  34
HETATM   34  C13 UNL     1      28.825  -0.522  16.156  1.00  0.00     0.251 C 
BRANCH  34  35
HETATM   35  O6  UNL     1      29.443  -1.313  15.185  1.00  0.00    -0.374 OA
ATOM     36  H6  UNL     1      30.163  -1.789  15.581  1.00  0.00     0.212 HD
ENDBRANCH  34  35
BRANCH  34  37
HETATM   37  C14 UNL     1      28.379   0.767  15.516  1.00  0.00     0.190 C 
BRANCH  37  38
HETATM   38  O7  UNL     1      28.485   0.686  14.129  1.00  0.00    -0.389 OA
ATOM     39  H7  UNL     1      28.994   1.414  13.791  1.00  0.00     0.210 HD
ENDBRANCH  37  38
BRANCH  37  40
HETATM   40  C15 UNL     1      26.962   1.128  15.907  1.00  0.00     0.200 C 
BRANCH  40  41
HETATM   41  O8  UNL     1      26.969   1.719  17.174  1.00  0.00    -0.398 OA
ATOM     42  H8  UNL     1      26.784   1.057  17.830  1.00  0.00     0.209 HD
ENDBRANCH  40  41
ENDBRANCH  37  40
ENDBRANCH  34  37
ENDBRANCH  32  34
ENDBRANCH   5  30
TORSDOF 13
ENDMDL
