MODEL 1
REMARK VINA RESULT: -7.154717120      0.000      0.000
REMARK  5 active torsions:
REMARK  status: ('A' for Active; 'I' for Inactive)
REMARK    1  A    between atoms: C2_2  and  C4_4 
REMARK    2  A    between atoms: C4_4  and  C5_5 
REMARK    3  A    between atoms: C7_10  and  C8_11 
REMARK    4  A    between atoms: C8_11  and  C9_12 
REMARK    5  A    between atoms: C15_21  and  C16_22 
ROOT
HETATM    1  C5  UNL     1       2.169  39.367  22.350  1.00  0.00     0.177 C 
HETATM    2  N1  UNL     1       1.834  37.959  22.362  1.00  0.00    -0.346 N 
ATOM      3  H1  UNL     1       0.862  37.736  22.147  1.00  0.00     0.163 HD
HETATM    4  C6  UNL     1       2.664  36.862  22.628  1.00  0.00     0.241 C 
HETATM    5  O1  UNL     1       2.761  35.966  21.710  1.00  0.00    -0.271 OA
HETATM    6  C7  UNL     1       3.461  36.579  23.845  1.00  0.00     0.177 C 
HETATM    7  N2  UNL     1       4.884  36.720  23.664  1.00  0.00    -0.346 N 
ATOM      8  H2  UNL     1       5.244  36.384  22.771  1.00  0.00     0.163 HD
HETATM    9  C14 UNL     1       5.847  37.254  24.536  1.00  0.00     0.249 C 
HETATM   10  O2  UNL     1       6.801  36.475  24.905  1.00  0.00    -0.271 OA
HETATM   11  C15 UNL     1       5.924  38.613  25.102  1.00  0.00     0.280 C 
HETATM   12  N3  UNL     1       7.210  39.216  24.684  1.00  0.00    -0.062 N 
ATOM     13  H31 UNL     1       7.997  38.781  25.164  1.00  0.00     0.278 HD
ATOM     14  H32 UNL     1       7.309  40.166  25.042  1.00  0.00     0.278 HD
HETATM   15  C19 UNL     1       7.381  39.174  23.246  1.00  0.00     0.233 C 
HETATM   16  C20 UNL     1       8.902  39.170  23.029  1.00  0.00     0.027 C 
HETATM   17  C21 UNL     1       9.189  38.807  21.597  1.00  0.00     0.002 C 
HETATM   18  C22 UNL     1       9.537  40.112  20.883  1.00  0.00     0.000 C 
HETATM   19  C23 UNL     1       9.543  39.977  19.393  1.00  0.00     0.000 C 
HETATM   20  C24 UNL     1       8.415  40.809  18.829  1.00  0.00     0.000 C 
HETATM   21  C25 UNL     1       7.248  39.920  18.558  1.00  0.00     0.000 C 
HETATM   22  C26 UNL     1       6.196  40.043  19.608  1.00  0.00     0.002 C 
HETATM   23  C27 UNL     1       4.973  40.772  19.095  1.00  0.00     0.020 C 
HETATM   24  C28 UNL     1       4.055  40.981  20.277  1.00  0.00     0.122 C 
HETATM   25  N4  UNL     1       2.828  40.265  20.020  1.00  0.00    -0.359 N 
ATOM     26  H4  UNL     1       2.642  40.004  19.051  1.00  0.00     0.162 HD
HETATM   27  C29 UNL     1       1.870  39.894  20.967  1.00  0.00     0.240 C 
HETATM   28  O3  UNL     1       0.646  39.988  20.694  1.00  0.00    -0.271 OA
ENDROOT
BRANCH   6  29
HETATM   29  C8  UNL     1       2.921  37.219  25.084  1.00  0.00     0.039 C 
BRANCH  29  30
HETATM   30  C9  UNL     1       2.418  36.170  26.082  1.00  0.00    -0.012 C 
HETATM   31  C10 UNL     1       3.184  36.360  27.350  1.00  0.00     0.005 C 
HETATM   32  C11 UNL     1       2.239  35.964  28.460  1.00  0.00     0.000 C 
HETATM   33  C12 UNL     1       0.918  36.462  27.961  1.00  0.00     0.000 C 
HETATM   34  C13 UNL     1       1.013  36.614  26.476  1.00  0.00     0.005 C 
ENDBRANCH  29  30
ENDBRANCH   6  29
BRANCH   1  35
HETATM   35  C4  UNL     1       1.197  40.148  23.244  1.00  0.00     0.038 C 
BRANCH  35  36
HETATM   36  C2  UNL     1       1.924  41.132  24.109  1.00  0.00    -0.020 C 
HETATM   37  C1  UNL     1       1.626  40.720  25.556  1.00  0.00     0.009 C 
HETATM   38  C3  UNL     1       3.422  41.041  23.952  1.00  0.00     0.009 C 
ENDBRANCH  35  36
ENDBRANCH   1  35
BRANCH  11  39
HETATM   39  C16 UNL     1       5.920  38.707  26.585  1.00  0.00     0.017 C 
HETATM   40  C17 UNL     1       4.844  39.740  26.949  1.00  0.00     0.012 C 
HETATM   41  C18 UNL     1       7.182  39.182  27.224  1.00  0.00     0.012 C 
ENDBRANCH  11  39
TORSDOF 5
ENDMDL
MODEL 2
REMARK VINA RESULT: -7.021606054      2.671      7.605
REMARK  5 active torsions:
REMARK  status: ('A' for Active; 'I' for Inactive)
REMARK    1  A    between atoms: C2_2  and  C4_4 
REMARK    2  A    between atoms: C4_4  and  C5_5 
REMARK    3  A    between atoms: C7_10  and  C8_11 
REMARK    4  A    between atoms: C8_11  and  C9_12 
REMARK    5  A    between atoms: C15_21  and  C16_22 
ROOT
HETATM    1  C5  UNL     1       3.100  37.924  23.673  1.00  0.00     0.177 C 
HETATM    2  N1  UNL     1       3.429  39.276  23.278  1.00  0.00    -0.346 N 
ATOM      3  H1  UNL     1       3.355  39.474  22.280  1.00  0.00     0.163 HD
HETATM    4  C6  UNL     1       3.833  40.351  24.080  1.00  0.00     0.241 C 
HETATM    5  O1  UNL     1       3.110  41.415  24.041  1.00  0.00    -0.271 OA
HETATM    6  C7  UNL     1       5.003  40.440  24.987  1.00  0.00     0.177 C 
HETATM    7  N2  UNL     1       4.664  40.430  26.388  1.00  0.00    -0.346 N 
ATOM      8  H2  UNL     1       3.829  40.959  26.637  1.00  0.00     0.163 HD
HETATM    9  C14 UNL     1       5.317  39.799  27.460  1.00  0.00     0.249 C 
HETATM   10  O2  UNL     1       5.745  40.550  28.412  1.00  0.00    -0.271 OA
HETATM   11  C15 UNL     1       5.585  38.362  27.656  1.00  0.00     0.280 C 
HETATM   12  N3  UNL     1       4.936  37.939  28.918  1.00  0.00    -0.062 N 
ATOM     13  H31 UNL     1       5.419  38.321  29.730  1.00  0.00     0.278 HD
ATOM     14  H32 UNL     1       5.083  36.946  29.096  1.00  0.00     0.278 HD
HETATM   15  C19 UNL     1       3.526  38.274  28.936  1.00  0.00     0.233 C 
HETATM   16  C20 UNL     1       3.174  38.420  30.424  1.00  0.00     0.027 C 
HETATM   17  C21 UNL     1       1.825  39.076  30.543  1.00  0.00     0.002 C 
HETATM   18  C22 UNL     1       0.832  37.963  30.873  1.00  0.00     0.000 C 
HETATM   19  C23 UNL     1      -0.593  38.390  30.717  1.00  0.00     0.000 C 
HETATM   20  C24 UNL     1      -1.207  37.614  29.575  1.00  0.00     0.000 C 
HETATM   21  C25 UNL     1      -1.182  38.460  28.347  1.00  0.00     0.000 C 
HETATM   22  C26 UNL     1      -0.085  38.064  27.418  1.00  0.00     0.002 C 
HETATM   23  C27 UNL     1      -0.619  37.373  26.182  1.00  0.00     0.020 C 
HETATM   24  C28 UNL     1       0.577  36.876  25.402  1.00  0.00     0.122 C 
HETATM   25  N4  UNL     1       0.586  37.547  24.124  1.00  0.00    -0.359 N 
ATOM     26  H4  UNL     1      -0.288  37.981  23.827  1.00  0.00     0.162 HD
HETATM   27  C29 UNL     1       1.674  37.661  23.255  1.00  0.00     0.240 C 
HETATM   28  O3  UNL     1       1.502  37.543  22.014  1.00  0.00    -0.271 OA
ENDROOT
BRANCH   6  29
HETATM   29  C8  UNL     1       6.130  39.534  24.609  1.00  0.00     0.039 C 
BRANCH  29  30
HETATM   30  C9  UNL     1       6.920  40.092  23.419  1.00  0.00    -0.012 C 
HETATM   31  C10 UNL     1       7.906  41.074  23.961  1.00  0.00     0.005 C 
HETATM   32  C11 UNL     1       9.102  41.003  23.041  1.00  0.00     0.000 C 
HETATM   33  C12 UNL     1       9.168  39.545  22.702  1.00  0.00     0.000 C 
HETATM   34  C13 UNL     1       7.818  38.952  22.947  1.00  0.00     0.005 C 
ENDBRANCH  29  30
ENDBRANCH   6  29
BRANCH   1  35
HETATM   35  C4  UNL     1       3.904  36.920  22.835  1.00  0.00     0.038 C 
BRANCH  35  36
HETATM   36  C2  UNL     1       4.313  35.733  23.654  1.00  0.00    -0.020 C 
HETATM   37  C1  UNL     1       4.189  36.170  25.119  1.00  0.00     0.009 C 
HETATM   38  C3  UNL     1       3.372  34.566  23.487  1.00  0.00     0.009 C 
ENDBRANCH  35  36
ENDBRANCH   1  35
BRANCH  11  39
HETATM   39  C16 UNL     1       7.012  37.978  27.812  1.00  0.00     0.017 C 
HETATM   40  C17 UNL     1       7.161  36.598  27.155  1.00  0.00     0.012 C 
HETATM   41  C18 UNL     1       7.511  37.827  29.210  1.00  0.00     0.012 C 
ENDBRANCH  11  39
TORSDOF 5
ENDMDL
MODEL 3
REMARK VINA RESULT: -6.608009590      1.746      2.123
REMARK  5 active torsions:
REMARK  status: ('A' for Active; 'I' for Inactive)
REMARK    1  A    between atoms: C2_2  and  C4_4 
REMARK    2  A    between atoms: C4_4  and  C5_5 
REMARK    3  A    between atoms: C7_10  and  C8_11 
REMARK    4  A    between atoms: C8_11  and  C9_12 
REMARK    5  A    between atoms: C15_21  and  C16_22 
ROOT
HETATM    1  C5  UNL     1       2.694  38.008  22.819  1.00  0.00     0.177 C 
HETATM    2  N1  UNL     1       3.114  36.717  23.319  1.00  0.00    -0.346 N 
ATOM      3  H1  UNL     1       2.503  35.934  23.085  1.00  0.00     0.163 HD
HETATM    4  C6  UNL     1       4.246  36.396  24.079  1.00  0.00     0.241 C 
HETATM    5  O1  UNL     1       5.055  35.525  23.585  1.00  0.00    -0.271 OA
HETATM    6  C7  UNL     1       4.653  36.926  25.402  1.00  0.00     0.177 C 
HETATM    7  N2  UNL     1       5.794  37.805  25.359  1.00  0.00    -0.346 N 
ATOM      8  H2  UNL     1       6.531  37.529  24.710  1.00  0.00     0.163 HD
HETATM    9  C14 UNL     1       6.039  38.986  26.078  1.00  0.00     0.249 C 
HETATM   10  O2  UNL     1       7.084  39.011  26.829  1.00  0.00    -0.271 OA
HETATM   11  C15 UNL     1       5.254  40.234  26.095  1.00  0.00     0.280 C 
HETATM   12  N3  UNL     1       6.130  41.339  25.644  1.00  0.00    -0.062 N 
ATOM     13  H31 UNL     1       6.834  41.565  26.347  1.00  0.00     0.278 HD
ATOM     14  H32 UNL     1       5.629  42.227  25.628  1.00  0.00     0.278 HD
HETATM   15  C19 UNL     1       6.739  41.053  24.361  1.00  0.00     0.233 C 
HETATM   16  C20 UNL     1       8.043  41.866  24.353  1.00  0.00     0.027 C 
HETATM   17  C21 UNL     1       8.902  41.395  23.209  1.00  0.00     0.002 C 
HETATM   18  C22 UNL     1       8.762  42.442  22.107  1.00  0.00     0.000 C 
HETATM   19  C23 UNL     1       9.299  41.976  20.790  1.00  0.00     0.000 C 
HETATM   20  C24 UNL     1       8.148  41.846  19.819  1.00  0.00     0.000 C 
HETATM   21  C25 UNL     1       7.725  40.417  19.759  1.00  0.00     0.000 C 
HETATM   22  C26 UNL     1       6.483  40.170  20.547  1.00  0.00     0.002 C 
HETATM   23  C27 UNL     1       5.291  39.917  19.650  1.00  0.00     0.020 C 
HETATM   24  C28 UNL     1       4.073  39.845  20.543  1.00  0.00     0.122 C 
HETATM   25  N4  UNL     1       3.512  38.520  20.424  1.00  0.00    -0.359 N 
ATOM     26  H4  UNL     1       3.792  37.973  19.610  1.00  0.00     0.162 HD
HETATM   27  C29 UNL     1       2.622  37.913  21.315  1.00  0.00     0.240 C 
HETATM   28  O3  UNL     1       1.668  37.221  20.876  1.00  0.00    -0.271 OA
ENDROOT
BRANCH   6  29
HETATM   29  C8  UNL     1       3.512  37.422  26.231  1.00  0.00     0.039 C 
BRANCH  29  30
HETATM   30  C9  UNL     1       3.340  36.584  27.503  1.00  0.00    -0.012 C 
HETATM   31  C10 UNL     1       2.980  37.522  28.608  1.00  0.00     0.005 C 
HETATM   32  C11 UNL     1       2.090  36.734  29.539  1.00  0.00     0.000 C 
HETATM   33  C12 UNL     1       1.293  35.888  28.594  1.00  0.00     0.000 C 
HETATM   34  C13 UNL     1       2.049  35.795  27.308  1.00  0.00     0.005 C 
ENDBRANCH  29  30
ENDBRANCH   6  29
BRANCH   1  35
HETATM   35  C4  UNL     1       1.240  38.283  23.225  1.00  0.00     0.038 C 
BRANCH  35  36
HETATM   36  C2  UNL     1       1.074  39.681  23.741  1.00  0.00    -0.020 C 
HETATM   37  C1  UNL     1       0.597  39.539  25.192  1.00  0.00     0.009 C 
HETATM   38  C3  UNL     1       2.382  40.430  23.806  1.00  0.00     0.009 C 
ENDBRANCH  35  36
ENDBRANCH   1  35
BRANCH  11  39
HETATM   39  C16 UNL     1       4.742  40.667  27.422  1.00  0.00     0.017 C 
HETATM   40  C17 UNL     1       3.272  41.060  27.209  1.00  0.00     0.012 C 
HETATM   41  C18 UNL     1       5.403  41.857  28.033  1.00  0.00     0.012 C 
ENDBRANCH  11  39
TORSDOF 5
ENDMDL
MODEL 4
REMARK VINA RESULT: -6.563438616      1.939      8.158
REMARK  5 active torsions:
REMARK  status: ('A' for Active; 'I' for Inactive)
REMARK    1  A    between atoms: C2_2  and  C4_4 
REMARK    2  A    between atoms: C4_4  and  C5_5 
REMARK    3  A    between atoms: C7_10  and  C8_11 
REMARK    4  A    between atoms: C8_11  and  C9_12 
REMARK    5  A    between atoms: C15_21  and  C16_22 
ROOT
HETATM    1  C5  UNL     1       5.587  37.762  25.344  1.00  0.00     0.177 C 
HETATM    2  N1  UNL     1       5.487  36.947  24.153  1.00  0.00    -0.346 N 
ATOM      3  H1  UNL     1       6.290  36.348  23.960  1.00  0.00     0.163 HD
HETATM    4  C6  UNL     1       4.436  36.868  23.230  1.00  0.00     0.241 C 
HETATM    5  O1  UNL     1       3.905  35.710  23.046  1.00  0.00    -0.271 OA
HETATM    6  C7  UNL     1       3.837  37.951  22.415  1.00  0.00     0.177 C 
HETATM    7  N2  UNL     1       2.512  38.338  22.832  1.00  0.00    -0.346 N 
ATOM      8  H2  UNL     1       1.906  37.570  23.121  1.00  0.00     0.163 HD
HETATM    9  C14 UNL     1       1.934  39.616  22.897  1.00  0.00     0.249 C 
HETATM   10  O2  UNL     1       0.880  39.821  22.190  1.00  0.00    -0.271 OA
HETATM   11  C15 UNL     1       2.371  40.785  23.683  1.00  0.00     0.280 C 
HETATM   12  N3  UNL     1       1.266  41.174  24.588  1.00  0.00    -0.062 N 
ATOM     13  H31 UNL     1       0.492  41.589  24.071  1.00  0.00     0.278 HD
ATOM     14  H32 UNL     1       1.522  41.975  25.164  1.00  0.00     0.278 HD
HETATM   15  C19 UNL     1       0.821  40.061  25.402  1.00  0.00     0.233 C 
HETATM   16  C20 UNL     1      -0.646  40.377  25.734  1.00  0.00     0.027 C 
HETATM   17  C21 UNL     1      -1.293  39.141  26.301  1.00  0.00     0.002 C 
HETATM   18  C22 UNL     1      -1.368  39.350  27.812  1.00  0.00     0.000 C 
HETATM   19  C23 UNL     1      -1.696  38.094  28.557  1.00  0.00     0.000 C 
HETATM   20  C24 UNL     1      -0.501  37.704  29.395  1.00  0.00     0.000 C 
HETATM   21  C25 UNL     1       0.278  36.658  28.670  1.00  0.00     0.000 C 
HETATM   22  C26 UNL     1       1.498  37.220  28.022  1.00  0.00     0.002 C 
HETATM   23  C27 UNL     1       2.761  36.788  28.734  1.00  0.00     0.020 C 
HETATM   24  C28 UNL     1       3.907  37.541  28.098  1.00  0.00     0.122 C 
HETATM   25  N4  UNL     1       4.795  36.574  27.495  1.00  0.00    -0.359 N 
ATOM     26  H4  UNL     1       4.708  35.609  27.814  1.00  0.00     0.162 HD
HETATM   27  C29 UNL     1       5.761  36.832  26.520  1.00  0.00     0.240 C 
HETATM   28  O3  UNL     1       6.883  36.267  26.582  1.00  0.00    -0.271 OA
ENDROOT
BRANCH   6  29
HETATM   29  C8  UNL     1       4.766  39.091  22.149  1.00  0.00     0.039 C 
BRANCH  29  30
HETATM   30  C9  UNL     1       5.095  39.207  20.655  1.00  0.00    -0.012 C 
HETATM   31  C10 UNL     1       3.992  39.984  20.016  1.00  0.00     0.005 C 
HETATM   32  C11 UNL     1       4.632  40.741  18.877  1.00  0.00     0.000 C 
HETATM   33  C12 UNL     1       5.971  41.109  19.439  1.00  0.00     0.000 C 
HETATM   34  C13 UNL     1       6.273  40.171  20.564  1.00  0.00     0.005 C 
ENDBRANCH  29  30
ENDBRANCH   6  29
BRANCH   1  35
HETATM   35  C4  UNL     1       6.899  38.560  25.328  1.00  0.00     0.038 C 
BRANCH  35  36
HETATM   36  C2  UNL     1       6.642  40.025  25.146  1.00  0.00    -0.020 C 
HETATM   37  C1  UNL     1       6.868  40.665  26.521  1.00  0.00     0.009 C 
HETATM   38  C3  UNL     1       7.637  40.675  24.217  1.00  0.00     0.009 C 
ENDBRANCH  35  36
ENDBRANCH   1  35
BRANCH  11  39
HETATM   39  C16 UNL     1       2.683  42.014  22.908  1.00  0.00     0.017 C 
HETATM   40  C17 UNL     1       4.106  42.429  23.314  1.00  0.00     0.012 C 
HETATM   41  C18 UNL     1       1.817  43.201  23.168  1.00  0.00     0.012 C 
ENDBRANCH  11  39
TORSDOF 5
ENDMDL
MODEL 5
REMARK VINA RESULT: -6.414366146      2.145      8.129
REMARK  5 active torsions:
REMARK  status: ('A' for Active; 'I' for Inactive)
REMARK    1  A    between atoms: C2_2  and  C4_4 
REMARK    2  A    between atoms: C4_4  and  C5_5 
REMARK    3  A    between atoms: C7_10  and  C8_11 
REMARK    4  A    between atoms: C8_11  and  C9_12 
REMARK    5  A    between atoms: C15_21  and  C16_22 
ROOT
HETATM    1  C5  UNL     1       6.530  39.190  27.481  1.00  0.00     0.177 C 
HETATM    2  N1  UNL     1       7.385  38.207  26.853  1.00  0.00    -0.346 N 
ATOM      3  H1  UNL     1       8.289  38.057  27.303  1.00  0.00     0.163 HD
HETATM    4  C6  UNL     1       7.141  37.432  25.712  1.00  0.00     0.241 C 
HETATM    5  O1  UNL     1       7.195  36.153  25.850  1.00  0.00    -0.271 OA
HETATM    6  C7  UNL     1       6.824  37.884  24.337  1.00  0.00     0.177 C 
HETATM    7  N2  UNL     1       5.461  37.644  23.936  1.00  0.00    -0.346 N 
ATOM      8  H2  UNL     1       5.067  36.755  24.247  1.00  0.00     0.163 HD
HETATM    9  C14 UNL     1       4.595  38.453  23.182  1.00  0.00     0.249 C 
HETATM   10  O2  UNL     1       4.138  37.960  22.085  1.00  0.00    -0.271 OA
HETATM   11  C15 UNL     1       4.121  39.818  23.476  1.00  0.00     0.280 C 
HETATM   12  N3  UNL     1       2.643  39.787  23.555  1.00  0.00    -0.062 N 
ATOM     13  H31 UNL     1       2.225  39.650  22.635  1.00  0.00     0.278 HD
ATOM     14  H32 UNL     1       2.264  40.710  23.767  1.00  0.00     0.278 HD
HETATM   15  C19 UNL     1       2.175  38.794  24.500  1.00  0.00     0.233 C 
HETATM   16  C20 UNL     1       0.774  38.406  24.004  1.00  0.00     0.027 C 
HETATM   17  C21 UNL     1       0.332  37.159  24.723  1.00  0.00     0.002 C 
HETATM   18  C22 UNL     1      -0.657  37.609  25.797  1.00  0.00     0.000 C 
HETATM   19  C23 UNL     1      -0.953  36.539  26.800  1.00  0.00     0.000 C 
HETATM   20  C24 UNL     1      -0.407  36.972  28.141  1.00  0.00     0.000 C 
HETATM   21  C25 UNL     1       0.919  36.322  28.355  1.00  0.00     0.000 C 
HETATM   22  C26 UNL     1       2.048  37.265  28.111  1.00  0.00     0.002 C 
HETATM   23  C27 UNL     1       2.731  37.669  29.400  1.00  0.00     0.020 C 
HETATM   24  C28 UNL     1       3.739  38.740  29.049  1.00  0.00     0.122 C 
HETATM   25  N4  UNL     1       5.053  38.237  29.372  1.00  0.00    -0.359 N 
ATOM     26  H4  UNL     1       5.097  37.444  30.012  1.00  0.00     0.162 HD
HETATM   27  C29 UNL     1       6.270  38.731  28.895  1.00  0.00     0.240 C 
HETATM   28  O3  UNL     1       7.259  38.820  29.668  1.00  0.00    -0.271 OA
ENDROOT
BRANCH   6  29
HETATM   29  C8  UNL     1       7.338  39.252  24.017  1.00  0.00     0.039 C 
BRANCH  29  30
HETATM   30  C9  UNL     1       8.410  39.204  22.923  1.00  0.00    -0.012 C 
HETATM   31  C10 UNL     1       7.743  39.545  21.631  1.00  0.00     0.005 C 
HETATM   32  C11 UNL     1       8.792  40.248  20.803  1.00  0.00     0.000 C 
HETATM   33  C12 UNL     1       9.540  41.045  21.827  1.00  0.00     0.000 C 
HETATM   34  C13 UNL     1       9.301  40.419  23.163  1.00  0.00     0.005 C 
ENDBRANCH  29  30
ENDBRANCH   6  29
BRANCH   1  35
HETATM   35  C4  UNL     1       7.294  40.508  27.672  1.00  0.00     0.038 C 
BRANCH  35  36
HETATM   36  C2  UNL     1       6.453  41.685  27.282  1.00  0.00    -0.020 C 
HETATM   37  C1  UNL     1       7.193  42.365  26.124  1.00  0.00     0.009 C 
HETATM   38  C3  UNL     1       5.108  41.277  26.733  1.00  0.00     0.009 C 
ENDBRANCH  35  36
ENDBRANCH   1  35
BRANCH  11  39
HETATM   39  C16 UNL     1       4.430  40.851  22.454  1.00  0.00     0.017 C 
HETATM   40  C17 UNL     1       5.065  42.028  23.210  1.00  0.00     0.012 C 
HETATM   41  C18 UNL     1       3.268  41.418  21.709  1.00  0.00     0.012 C 
ENDBRANCH  11  39
TORSDOF 5
ENDMDL
