MODEL 1
REMARK VINA RESULT: -7.572294408      0.000      0.000
REMARK  8 active torsions:
REMARK  status: ('A' for Active; 'I' for Inactive)
REMARK    1  A    between atoms: C2_2  and  N1_3 
REMARK       I    between atoms: N1_3  and  C3_5 
REMARK       I    between atoms: C3_5  and  N2_7 
REMARK    2  A    between atoms: N2_7  and  C4_9 
REMARK    3  A    between atoms: C5_10  and  O2_11 
REMARK    4  A    between atoms: C8_15  and  O3_16 
REMARK    5  A    between atoms: C15_24  and  C16_25 
REMARK       I    between atoms: C16_25  and  N3_27 
REMARK    6  A    between atoms: C20_32  and  C22_34 
REMARK    7  A    between atoms: C23_35  and  C24_36 
REMARK    8  A    between atoms: C24_36  and  C26_38 
ROOT
HETATM    1  C4  UNL     1       4.153  37.671  27.371  1.00  0.00     0.120 C 
HETATM    2  C5  UNL     1       3.763  38.306  28.657  1.00  0.00     0.146 C 
HETATM    3  C6  UNL     1       2.780  37.398  29.361  1.00  0.00     0.027 C 
HETATM    4  C7  UNL     1       2.631  37.817  30.781  1.00  0.00     0.039 C 
HETATM    5  C8  UNL     1       1.866  39.111  30.938  1.00  0.00     0.118 C 
HETATM    6  C9  UNL     1       0.710  39.230  30.019  1.00  0.00     0.032 C 
HETATM    7  C10 UNL     1       0.981  38.829  28.584  1.00  0.00     0.012 C 
HETATM    8  C11 UNL     1       1.511  37.454  28.547  1.00  0.00    -0.034 C 
HETATM    9  C12 UNL     1       0.490  36.583  29.301  1.00  0.00     0.016 C 
HETATM   10  C13 UNL     1       1.765  36.809  27.244  1.00  0.00     0.002 C 
HETATM   11  C14 UNL     1       0.726  37.010  26.182  1.00  0.00     0.025 C 
HETATM   12  C15 UNL     1       1.404  37.648  24.983  1.00  0.00     0.047 C 
HETATM   13  C18 UNL     1       1.231  36.675  23.817  1.00  0.00     0.021 C 
HETATM   14  C19 UNL     1       2.468  36.784  23.000  1.00  0.00     0.024 C 
HETATM   15  C20 UNL     1       3.521  36.963  24.089  1.00  0.00     0.025 C 
HETATM   16  C21 UNL     1       4.102  35.601  24.312  1.00  0.00     0.029 C 
HETATM   17  C29 UNL     1       2.868  37.649  25.219  1.00  0.00     0.030 C 
HETATM   18  C30 UNL     1       3.058  37.036  26.567  1.00  0.00     0.023 C 
ENDROOT
BRANCH   1  19
HETATM   19  N2  UNL     1       5.220  36.728  27.693  1.00  0.00    -0.336 N 
HETATM   20  C3  UNL     1       6.473  36.706  27.042  1.00  0.00     0.316 C 
HETATM   21  N1  UNL     1       7.437  35.758  27.429  1.00  0.00    -0.343 N 
HETATM   22  O1  UNL     1       6.715  37.523  26.137  1.00  0.00    -0.247 OA
ATOM     23  H1  UNL     1       7.228  35.093  28.173  1.00  0.00     0.164 HD
ATOM     24  H2  UNL     1       5.050  36.045  28.431  1.00  0.00     0.164 HD
BRANCH  21  25
HETATM   25  C2  UNL     1       8.718  35.725  26.777  1.00  0.00     0.120 C 
HETATM   26  C1  UNL     1       9.378  34.367  26.900  1.00  0.00     0.026 C 
ENDBRANCH  21  25
ENDBRANCH   1  19
BRANCH   2  27
HETATM   27  O2  UNL     1       4.913  38.329  29.483  1.00  0.00    -0.393 OA
ATOM     28  H2  UNL     1       5.115  39.240  29.663  1.00  0.00     0.210 HD
ENDBRANCH   2  27
BRANCH  12  29
HETATM   29  C16 UNL     1       0.788  38.948  24.651  1.00  0.00     0.226 C 
HETATM   30  O4  UNL     1       1.548  39.887  24.299  1.00  0.00    -0.273 OA
HETATM   31  N3  UNL     1      -0.583  39.245  24.694  1.00  0.00    -0.365 N 
HETATM   32  C17 UNL     1      -1.119  40.543  24.359  1.00  0.00     0.149 C 
ATOM     33  H3  UNL     1      -1.231  38.509  24.975  1.00  0.00     0.161 HD
ENDBRANCH  12  29
BRANCH  15  34
HETATM   34  C22 UNL     1       4.582  37.796  23.526  1.00  0.00    -0.096 C 
HETATM   35  C23 UNL     1       5.451  38.504  23.049  1.00  0.00    -0.101 C 
BRANCH  35  36
HETATM   36  C24 UNL     1       6.478  39.371  22.470  1.00  0.00     0.064 C 
HETATM   37  C25 UNL     1       5.857  40.735  22.281  1.00  0.00     0.024 C 
BRANCH  36  38
HETATM   38  C26 UNL     1       7.715  39.430  23.334  1.00  0.00    -0.007 C 
HETATM   39  C27 UNL     1       7.925  40.776  23.972  1.00  0.00     0.011 C 
HETATM   40  C28 UNL     1       8.919  39.178  22.427  1.00  0.00     0.011 C 
ENDBRANCH  36  38
ENDBRANCH  35  36
ENDBRANCH  15  34
BRANCH   5  41
HETATM   41  O3  UNL     1       1.384  39.144  32.250  1.00  0.00    -0.396 OA
ATOM     42  H3  UNL     1       2.023  39.621  32.768  1.00  0.00     0.210 HD
ENDBRANCH   5  41
TORSDOF 8
ENDMDL
MODEL 2
REMARK VINA RESULT: -7.540287841      0.650      1.129
REMARK  8 active torsions:
REMARK  status: ('A' for Active; 'I' for Inactive)
REMARK    1  A    between atoms: C2_2  and  N1_3 
REMARK       I    between atoms: N1_3  and  C3_5 
REMARK       I    between atoms: C3_5  and  N2_7 
REMARK    2  A    between atoms: N2_7  and  C4_9 
REMARK    3  A    between atoms: C5_10  and  O2_11 
REMARK    4  A    between atoms: C8_15  and  O3_16 
REMARK    5  A    between atoms: C15_24  and  C16_25 
REMARK       I    between atoms: C16_25  and  N3_27 
REMARK    6  A    between atoms: C20_32  and  C22_34 
REMARK    7  A    between atoms: C23_35  and  C24_36 
REMARK    8  A    between atoms: C24_36  and  C26_38 
ROOT
HETATM    1  C4  UNL     1       4.320  37.659  27.377  1.00  0.00     0.120 C 
HETATM    2  C5  UNL     1       3.869  38.238  28.669  1.00  0.00     0.146 C 
HETATM    3  C6  UNL     1       2.834  37.315  29.273  1.00  0.00     0.027 C 
HETATM    4  C7  UNL     1       2.613  37.667  30.701  1.00  0.00     0.039 C 
HETATM    5  C8  UNL     1       1.860  38.966  30.879  1.00  0.00     0.118 C 
HETATM    6  C9  UNL     1       0.759  39.150  29.904  1.00  0.00     0.032 C 
HETATM    7  C10 UNL     1       1.103  38.814  28.469  1.00  0.00     0.012 C 
HETATM    8  C11 UNL     1       1.613  37.433  28.393  1.00  0.00    -0.034 C 
HETATM    9  C12 UNL     1       0.540  36.545  29.047  1.00  0.00     0.016 C 
HETATM   10  C13 UNL     1       1.930  36.847  27.077  1.00  0.00     0.002 C 
HETATM   11  C14 UNL     1       0.955  37.118  25.970  1.00  0.00     0.025 C 
HETATM   12  C15 UNL     1       1.709  37.800  24.843  1.00  0.00     0.047 C 
HETATM   13  C18 UNL     1       1.586  36.888  23.623  1.00  0.00     0.021 C 
HETATM   14  C19 UNL     1       2.869  37.014  22.882  1.00  0.00     0.024 C 
HETATM   15  C20 UNL     1       3.862  37.121  24.034  1.00  0.00     0.025 C 
HETATM   16  C21 UNL     1       4.409  35.740  24.222  1.00  0.00     0.029 C 
HETATM   17  C29 UNL     1       3.157  37.764  25.159  1.00  0.00     0.030 C 
HETATM   18  C30 UNL     1       3.263  37.084  26.483  1.00  0.00     0.023 C 
ENDROOT
BRANCH   1  19
HETATM   19  N2  UNL     1       5.353  36.683  27.710  1.00  0.00    -0.336 N 
HETATM   20  C3  UNL     1       6.630  36.652  27.108  1.00  0.00     0.316 C 
HETATM   21  N1  UNL     1       7.558  35.671  27.502  1.00  0.00    -0.343 N 
HETATM   22  O1  UNL     1       6.925  37.491  26.238  1.00  0.00    -0.247 OA
ATOM     23  H1  UNL     1       7.305  34.989  28.217  1.00  0.00     0.164 HD
ATOM     24  H2  UNL     1       5.139  35.982  28.420  1.00  0.00     0.164 HD
BRANCH  21  25
HETATM   25  C2  UNL     1       8.862  35.628  26.899  1.00  0.00     0.120 C 
HETATM   26  C1  UNL     1       9.543  34.294  27.122  1.00  0.00     0.026 C 
ENDBRANCH  21  25
ENDBRANCH   1  19
BRANCH   2  27
HETATM   27  O2  UNL     1       4.971  38.201  29.558  1.00  0.00    -0.393 OA
ATOM     28  H2  UNL     1       5.599  38.848  29.258  1.00  0.00     0.210 HD
ENDBRANCH   2  27
BRANCH  12  29
HETATM   29  C16 UNL     1       1.132  39.126  24.542  1.00  0.00     0.226 C 
HETATM   30  O4  UNL     1       1.528  40.108  25.221  1.00  0.00    -0.273 OA
HETATM   31  N3  UNL     1       0.168  39.401  23.560  1.00  0.00    -0.365 N 
HETATM   32  C17 UNL     1      -0.357  40.724  23.321  1.00  0.00     0.149 C 
ATOM     33  H3  UNL     1      -0.178  38.630  22.989  1.00  0.00     0.161 HD
ENDBRANCH  12  29
BRANCH  15  34
HETATM   34  C22 UNL     1       4.965  37.962  23.572  1.00  0.00    -0.096 C 
HETATM   35  C23 UNL     1       5.883  38.673  23.205  1.00  0.00    -0.101 C 
BRANCH  35  36
HETATM   36  C24 UNL     1       6.986  39.539  22.785  1.00  0.00     0.064 C 
HETATM   37  C25 UNL     1       8.270  38.801  23.081  1.00  0.00     0.024 C 
BRANCH  36  38
HETATM   38  C26 UNL     1       6.878  39.920  21.328  1.00  0.00    -0.007 C 
HETATM   39  C27 UNL     1       8.210  39.973  20.632  1.00  0.00     0.011 C 
HETATM   40  C28 UNL     1       6.291  41.329  21.266  1.00  0.00     0.011 C 
ENDBRANCH  36  38
ENDBRANCH  35  36
ENDBRANCH  15  34
BRANCH   5  41
HETATM   41  O3  UNL     1       1.306  38.945  32.162  1.00  0.00    -0.396 OA
ATOM     42  H3  UNL     1       0.363  38.890  32.057  1.00  0.00     0.210 HD
ENDBRANCH   5  41
TORSDOF 8
ENDMDL
MODEL 3
REMARK VINA RESULT: -7.397882304      0.962      1.243
REMARK  8 active torsions:
REMARK  status: ('A' for Active; 'I' for Inactive)
REMARK    1  A    between atoms: C2_2  and  N1_3 
REMARK       I    between atoms: N1_3  and  C3_5 
REMARK       I    between atoms: C3_5  and  N2_7 
REMARK    2  A    between atoms: N2_7  and  C4_9 
REMARK    3  A    between atoms: C5_10  and  O2_11 
REMARK    4  A    between atoms: C8_15  and  O3_16 
REMARK    5  A    between atoms: C15_24  and  C16_25 
REMARK       I    between atoms: C16_25  and  N3_27 
REMARK    6  A    between atoms: C20_32  and  C22_34 
REMARK    7  A    between atoms: C23_35  and  C24_36 
REMARK    8  A    between atoms: C24_36  and  C26_38 
ROOT
HETATM    1  C4  UNL     1       4.245  37.738  27.422  1.00  0.00     0.120 C 
HETATM    2  C5  UNL     1       3.556  38.336  28.596  1.00  0.00     0.146 C 
HETATM    3  C6  UNL     1       2.441  37.407  29.022  1.00  0.00     0.027 C 
HETATM    4  C7  UNL     1       1.958  37.785  30.376  1.00  0.00     0.039 C 
HETATM    5  C8  UNL     1       1.168  39.074  30.384  1.00  0.00     0.118 C 
HETATM    6  C9  UNL     1       0.261  39.219  29.221  1.00  0.00     0.032 C 
HETATM    7  C10 UNL     1       0.867  38.860  27.881  1.00  0.00     0.012 C 
HETATM    8  C11 UNL     1       1.400  37.487  27.932  1.00  0.00    -0.034 C 
HETATM    9  C12 UNL     1       0.237  36.594  28.398  1.00  0.00     0.016 C 
HETATM   10  C13 UNL     1       1.960  36.880  26.709  1.00  0.00     0.002 C 
HETATM   11  C14 UNL     1       1.201  37.112  25.436  1.00  0.00     0.025 C 
HETATM   12  C15 UNL     1       2.139  37.784  24.451  1.00  0.00     0.047 C 
HETATM   13  C18 UNL     1       2.254  36.845  23.250  1.00  0.00     0.021 C 
HETATM   14  C19 UNL     1       3.648  36.978  22.753  1.00  0.00     0.024 C 
HETATM   15  C20 UNL     1       4.413  37.125  24.065  1.00  0.00     0.025 C 
HETATM   16  C21 UNL     1       4.934  35.758  24.381  1.00  0.00     0.029 C 
HETATM   17  C29 UNL     1       3.506  37.778  25.026  1.00  0.00     0.030 C 
HETATM   18  C30 UNL     1       3.376  37.127  26.363  1.00  0.00     0.023 C 
ENDROOT
BRANCH   1  19
HETATM   19  N2  UNL     1       5.211  36.787  27.960  1.00  0.00    -0.336 N 
HETATM   20  C3  UNL     1       6.592  36.817  27.667  1.00  0.00     0.316 C 
HETATM   21  N1  UNL     1       7.443  35.855  28.240  1.00  0.00    -0.343 N 
HETATM   22  O1  UNL     1       7.045  37.692  26.908  1.00  0.00    -0.247 OA
ATOM     23  H1  UNL     1       7.061  35.143  28.862  1.00  0.00     0.164 HD
ATOM     24  H2  UNL     1       4.869  36.057  28.585  1.00  0.00     0.164 HD
BRANCH  21  25
HETATM   25  C2  UNL     1       8.852  35.875  27.952  1.00  0.00     0.120 C 
HETATM   26  C1  UNL     1       9.246  34.774  26.989  1.00  0.00     0.026 C 
ENDBRANCH  21  25
ENDBRANCH   1  19
BRANCH   2  27
HETATM   27  O2  UNL     1       4.478  38.335  29.671  1.00  0.00    -0.393 OA
ATOM     28  H2  UNL     1       4.442  39.193  30.077  1.00  0.00     0.210 HD
ENDBRANCH   2  27
BRANCH  12  29
HETATM   29  C16 UNL     1       1.610  39.093  24.019  1.00  0.00     0.226 C 
HETATM   30  O4  UNL     1       2.051  40.124  24.590  1.00  0.00    -0.273 OA
HETATM   31  N3  UNL     1       0.646  39.303  23.022  1.00  0.00    -0.365 N 
HETATM   32  C17 UNL     1       0.169  40.615  22.651  1.00  0.00     0.149 C 
ATOM     33  H3  UNL     1       0.264  38.492  22.536  1.00  0.00     0.161 HD
ENDBRANCH  12  29
BRANCH  15  34
HETATM   34  C22 UNL     1       5.571  37.975  23.792  1.00  0.00    -0.096 C 
HETATM   35  C23 UNL     1       6.543  38.678  23.584  1.00  0.00    -0.101 C 
BRANCH  35  36
HETATM   36  C24 UNL     1       7.722  39.515  23.355  1.00  0.00     0.064 C 
HETATM   37  C25 UNL     1       8.064  39.412  21.888  1.00  0.00     0.024 C 
BRANCH  36  38
HETATM   38  C26 UNL     1       7.486  40.944  23.781  1.00  0.00    -0.007 C 
HETATM   39  C27 UNL     1       8.681  41.830  23.555  1.00  0.00     0.011 C 
HETATM   40  C28 UNL     1       7.221  40.936  25.285  1.00  0.00     0.011 C 
ENDBRANCH  36  38
ENDBRANCH  35  36
ENDBRANCH  15  34
BRANCH   5  41
HETATM   41  O3  UNL     1       0.389  39.069  31.545  1.00  0.00    -0.396 OA
ATOM     42  H3  UNL     1       0.000  39.933  31.622  1.00  0.00     0.210 HD
ENDBRANCH   5  41
TORSDOF 8
ENDMDL
MODEL 4
REMARK VINA RESULT: -7.203242166      2.025      2.466
REMARK  8 active torsions:
REMARK  status: ('A' for Active; 'I' for Inactive)
REMARK    1  A    between atoms: C2_2  and  N1_3 
REMARK       I    between atoms: N1_3  and  C3_5 
REMARK       I    between atoms: C3_5  and  N2_7 
REMARK    2  A    between atoms: N2_7  and  C4_9 
REMARK    3  A    between atoms: C5_10  and  O2_11 
REMARK    4  A    between atoms: C8_15  and  O3_16 
REMARK    5  A    between atoms: C15_24  and  C16_25 
REMARK       I    between atoms: C16_25  and  N3_27 
REMARK    6  A    between atoms: C20_32  and  C22_34 
REMARK    7  A    between atoms: C23_35  and  C24_36 
REMARK    8  A    between atoms: C24_36  and  C26_38 
ROOT
HETATM    1  C4  UNL     1       4.394  38.458  28.142  1.00  0.00     0.120 C 
HETATM    2  C5  UNL     1       3.307  38.904  29.053  1.00  0.00     0.146 C 
HETATM    3  C6  UNL     1       2.686  37.682  29.692  1.00  0.00     0.027 C 
HETATM    4  C7  UNL     1       1.845  38.089  30.850  1.00  0.00     0.039 C 
HETATM    5  C8  UNL     1       0.565  38.780  30.437  1.00  0.00     0.118 C 
HETATM    6  C9  UNL     1      -0.078  38.172  29.248  1.00  0.00     0.032 C 
HETATM    7  C10 UNL     1       0.858  37.845  28.103  1.00  0.00     0.012 C 
HETATM    8  C11 UNL     1       1.943  36.972  28.587  1.00  0.00    -0.034 C 
HETATM    9  C12 UNL     1       1.256  35.766  29.253  1.00  0.00     0.016 C 
HETATM   10  C13 UNL     1       2.932  36.443  27.628  1.00  0.00     0.002 C 
HETATM   11  C14 UNL     1       2.397  35.954  26.315  1.00  0.00     0.025 C 
HETATM   12  C15 UNL     1       3.084  36.738  25.211  1.00  0.00     0.047 C 
HETATM   13  C18 UNL     1       3.834  35.718  24.355  1.00  0.00     0.021 C 
HETATM   14  C19 UNL     1       5.076  36.395  23.899  1.00  0.00     0.024 C 
HETATM   15  C20 UNL     1       5.433  37.213  25.135  1.00  0.00     0.025 C 
HETATM   16  C21 UNL     1       6.457  36.404  25.870  1.00  0.00     0.029 C 
HETATM   17  C29 UNL     1       4.170  37.546  25.818  1.00  0.00     0.030 C 
HETATM   18  C30 UNL     1       4.112  37.263  27.282  1.00  0.00     0.023 C 
ENDROOT
BRANCH   1  19
HETATM   19  N2  UNL     1       5.572  38.270  28.981  1.00  0.00    -0.336 N 
HETATM   20  C3  UNL     1       6.787  38.968  28.800  1.00  0.00     0.316 C 
HETATM   21  N1  UNL     1       7.866  38.716  29.666  1.00  0.00    -0.343 N 
HETATM   22  O1  UNL     1       6.892  39.798  27.880  1.00  0.00    -0.247 OA
ATOM     23  H1  UNL     1       7.768  38.033  30.417  1.00  0.00     0.164 HD
ATOM     24  H2  UNL     1       5.516  37.594  29.743  1.00  0.00     0.164 HD
BRANCH  21  25
HETATM   25  C2  UNL     1       9.108  39.420  29.495  1.00  0.00     0.120 C 
HETATM   26  C1  UNL     1       9.211  40.615  30.419  1.00  0.00     0.026 C 
ENDBRANCH  21  25
ENDBRANCH   1  19
BRANCH   2  27
HETATM   27  O2  UNL     1       3.912  39.619  30.116  1.00  0.00    -0.393 OA
ATOM     28  H2  UNL     1       3.469  39.366  30.917  1.00  0.00     0.210 HD
ENDBRANCH   2  27
BRANCH  12  29
HETATM   29  C16 UNL     1       2.102  37.467  24.384  1.00  0.00     0.226 C 
HETATM   30  O4  UNL     1       1.004  36.902  24.139  1.00  0.00    -0.273 OA
HETATM   31  N3  UNL     1       2.276  38.746  23.834  1.00  0.00    -0.365 N 
HETATM   32  C17 UNL     1       1.272  39.400  23.029  1.00  0.00     0.149 C 
ATOM     33  H3  UNL     1       3.153  39.235  24.011  1.00  0.00     0.161 HD
ENDBRANCH  12  29
BRANCH  15  34
HETATM   34  C22 UNL     1       6.100  38.427  24.667  1.00  0.00    -0.096 C 
HETATM   35  C23 UNL     1       6.663  39.428  24.261  1.00  0.00    -0.101 C 
BRANCH  35  36
HETATM   36  C24 UNL     1       7.346  40.618  23.753  1.00  0.00     0.064 C 
HETATM   37  C25 UNL     1       7.280  41.668  24.836  1.00  0.00     0.024 C 
BRANCH  36  38
HETATM   38  C26 UNL     1       8.769  40.317  23.345  1.00  0.00    -0.007 C 
HETATM   39  C27 UNL     1       9.554  41.551  22.992  1.00  0.00     0.011 C 
HETATM   40  C28 UNL     1       8.711  39.454  22.085  1.00  0.00     0.011 C 
ENDBRANCH  36  38
ENDBRANCH  35  36
ENDBRANCH  15  34
BRANCH   5  41
HETATM   41  O3  UNL     1      -0.322  38.674  31.512  1.00  0.00    -0.396 OA
ATOM     42  H3  UNL     1       0.122  39.030  32.274  1.00  0.00     0.210 HD
ENDBRANCH   5  41
TORSDOF 8
ENDMDL
MODEL 5
REMARK VINA RESULT: -6.972848512      2.011      2.564
REMARK  8 active torsions:
REMARK  status: ('A' for Active; 'I' for Inactive)
REMARK    1  A    between atoms: C2_2  and  N1_3 
REMARK       I    between atoms: N1_3  and  C3_5 
REMARK       I    between atoms: C3_5  and  N2_7 
REMARK    2  A    between atoms: N2_7  and  C4_9 
REMARK    3  A    between atoms: C5_10  and  O2_11 
REMARK    4  A    between atoms: C8_15  and  O3_16 
REMARK    5  A    between atoms: C15_24  and  C16_25 
REMARK       I    between atoms: C16_25  and  N3_27 
REMARK    6  A    between atoms: C20_32  and  C22_34 
REMARK    7  A    between atoms: C23_35  and  C24_36 
REMARK    8  A    between atoms: C24_36  and  C26_38 
ROOT
HETATM    1  C4  UNL     1       4.361  38.476  28.189  1.00  0.00     0.120 C 
HETATM    2  C5  UNL     1       3.264  38.911  29.093  1.00  0.00     0.146 C 
HETATM    3  C6  UNL     1       2.650  37.682  29.727  1.00  0.00     0.027 C 
HETATM    4  C7  UNL     1       1.798  38.080  30.879  1.00  0.00     0.039 C 
HETATM    5  C8  UNL     1       0.515  38.760  30.459  1.00  0.00     0.118 C 
HETATM    6  C9  UNL     1      -0.115  38.148  29.265  1.00  0.00     0.032 C 
HETATM    7  C10 UNL     1       0.832  37.831  28.126  1.00  0.00     0.012 C 
HETATM    8  C11 UNL     1       1.921  36.967  28.616  1.00  0.00    -0.034 C 
HETATM    9  C12 UNL     1       1.241  35.754  29.275  1.00  0.00     0.016 C 
HETATM   10  C13 UNL     1       2.921  36.449  27.662  1.00  0.00     0.002 C 
HETATM   11  C14 UNL     1       2.399  35.957  26.345  1.00  0.00     0.025 C 
HETATM   12  C15 UNL     1       3.086  36.749  25.247  1.00  0.00     0.047 C 
HETATM   13  C18 UNL     1       3.850  35.737  24.394  1.00  0.00     0.021 C 
HETATM   14  C19 UNL     1       5.090  36.426  23.947  1.00  0.00     0.024 C 
HETATM   15  C20 UNL     1       5.432  37.245  25.187  1.00  0.00     0.025 C 
HETATM   16  C21 UNL     1       6.457  36.444  25.927  1.00  0.00     0.029 C 
HETATM   17  C29 UNL     1       4.160  37.566  25.862  1.00  0.00     0.030 C 
HETATM   18  C30 UNL     1       4.096  37.280  27.325  1.00  0.00     0.023 C 
ENDROOT
BRANCH   1  19
HETATM   19  N2  UNL     1       5.536  38.297  29.036  1.00  0.00    -0.336 N 
HETATM   20  C3  UNL     1       6.764  38.964  28.829  1.00  0.00     0.316 C 
HETATM   21  N1  UNL     1       7.838  38.725  29.705  1.00  0.00    -0.343 N 
HETATM   22  O1  UNL     1       6.885  39.757  27.879  1.00  0.00    -0.247 OA
ATOM     23  H1  UNL     1       7.726  38.072  30.481  1.00  0.00     0.164 HD
ATOM     24  H2  UNL     1       5.467  37.652  29.823  1.00  0.00     0.164 HD
BRANCH  21  25
HETATM   25  C2  UNL     1       9.093  39.397  29.508  1.00  0.00     0.120 C 
HETATM   26  C1  UNL     1       9.213  40.633  30.376  1.00  0.00     0.026 C 
ENDBRANCH  21  25
ENDBRANCH   1  19
BRANCH   2  27
HETATM   27  O2  UNL     1       3.857  39.629  30.161  1.00  0.00    -0.393 OA
ATOM     28  H2  UNL     1       3.595  40.538  30.071  1.00  0.00     0.210 HD
ENDBRANCH   2  27
BRANCH  12  29
HETATM   29  C16 UNL     1       2.103  37.471  24.415  1.00  0.00     0.226 C 
HETATM   30  O4  UNL     1       1.138  36.815  23.943  1.00  0.00    -0.273 OA
HETATM   31  N3  UNL     1       2.141  38.835  24.092  1.00  0.00    -0.365 N 
HETATM   32  C17 UNL     1       1.145  39.478  23.267  1.00  0.00     0.149 C 
ATOM     33  H3  UNL     1       2.908  39.400  24.456  1.00  0.00     0.161 HD
ENDBRANCH  12  29
BRANCH  15  34
HETATM   34  C22 UNL     1       6.090  38.467  24.725  1.00  0.00    -0.096 C 
HETATM   35  C23 UNL     1       6.643  39.474  24.322  1.00  0.00    -0.101 C 
BRANCH  35  36
HETATM   36  C24 UNL     1       7.312  40.673  23.817  1.00  0.00     0.064 C 
HETATM   37  C25 UNL     1       8.596  40.226  23.159  1.00  0.00     0.024 C 
BRANCH  36  38
HETATM   38  C26 UNL     1       6.432  41.448  22.866  1.00  0.00    -0.007 C 
HETATM   39  C27 UNL     1       5.074  41.753  23.437  1.00  0.00     0.011 C 
HETATM   40  C28 UNL     1       6.206  40.572  21.634  1.00  0.00     0.011 C 
ENDBRANCH  36  38
ENDBRANCH  35  36
ENDBRANCH  15  34
BRANCH   5  41
HETATM   41  O3  UNL     1      -0.378  38.644  31.529  1.00  0.00    -0.396 OA
ATOM     42  H3  UNL     1      -0.603  37.724  31.605  1.00  0.00     0.210 HD
ENDBRANCH   5  41
TORSDOF 8
ENDMDL
