MODEL 1
REMARK VINA RESULT: -8.557760476      0.000      0.000
REMARK  7 active torsions:
REMARK  status: ('A' for Active; 'I' for Inactive)
REMARK    1  A    between atoms: N1_1  and  C1_5 
REMARK    2  A    between atoms: C1_5  and  C2_6 
REMARK    3  A    between atoms: C3_7  and  C4_8 
REMARK    4  A    between atoms: C4_8  and  O1_9 
REMARK    5  A    between atoms: C4_8  and  C5_11 
REMARK    6  A    between atoms: C14_23  and  C15_24 
REMARK       I    between atoms: C15_24  and  N3_26 
REMARK       I    between atoms: N4_29  and  C18_30 
REMARK       I    between atoms: C18_30  and  N5_32 
REMARK    7  A    between atoms: N5_32  and  C19_34 
ROOT
HETATM    1  C5  UNL     1       6.418  37.274  27.198  1.00  0.00     0.018 C 
HETATM    2  C6  UNL     1       5.035  36.813  26.928  1.00  0.00     0.007 C 
HETATM    3  C7  UNL     1       4.177  36.406  28.053  1.00  0.00     0.000 C 
HETATM    4  C8  UNL     1       2.763  36.242  27.542  1.00  0.00     0.000 C 
HETATM    5  C9  UNL     1       2.268  37.321  26.648  1.00  0.00     0.000 C 
HETATM    6  C10 UNL     1       2.298  36.975  25.170  1.00  0.00     0.000 C 
HETATM    7  C11 UNL     1       2.110  38.126  24.257  1.00  0.00     0.002 C 
HETATM    8  C12 UNL     1       3.381  38.767  23.746  1.00  0.00     0.027 C 
HETATM    9  C13 UNL     1       4.263  37.884  22.955  1.00  0.00     0.233 C 
HETATM   10  N2  UNL     1       5.543  37.573  23.548  1.00  0.00    -0.062 N 
ATOM     11  H21 UNL     1       6.049  36.884  22.991  1.00  0.00     0.278 HD
ATOM     12  H22 UNL     1       5.430  37.036  24.408  1.00  0.00     0.278 HD
HETATM   13  C14 UNL     1       6.345  38.757  23.771  1.00  0.00     0.277 C 
HETATM   14  C27 UNL     1       6.657  38.846  25.257  1.00  0.00     0.043 C 
HETATM   15  C28 UNL     1       7.044  37.510  25.825  1.00  0.00     0.010 C 
ENDROOT
BRANCH  13  16
HETATM   16  C15 UNL     1       7.655  38.571  23.097  1.00  0.00     0.250 C 
HETATM   17  O2  UNL     1       8.420  37.609  23.479  1.00  0.00    -0.271 OA
HETATM   18  N3  UNL     1       8.139  39.371  22.061  1.00  0.00    -0.347 N 
HETATM   19  C16 UNL     1       9.479  39.192  21.549  1.00  0.00     0.145 C 
HETATM   20  C26 UNL     1       7.311  40.365  21.439  1.00  0.00     0.145 C 
HETATM   21  C17 UNL     1      10.205  40.536  21.521  1.00  0.00     0.147 C 
HETATM   22  N4  UNL     1       9.356  41.432  20.753  1.00  0.00    -0.331 N 
HETATM   23  C18 UNL     1       9.899  42.070  19.614  1.00  0.00     0.318 C 
HETATM   24  C25 UNL     1       8.024  41.674  21.227  1.00  0.00     0.147 C 
HETATM   25  O3  UNL     1      11.149  41.939  19.378  1.00  0.00    -0.247 OA
HETATM   26  N5  UNL     1       9.149  42.855  18.696  1.00  0.00    -0.338 N 
ATOM     27  H5  UNL     1       8.145  42.965  18.840  1.00  0.00     0.164 HD
BRANCH  26  28
HETATM   28  C19 UNL     1       9.774  43.503  17.559  1.00  0.00     0.086 C 
HETATM   29  C20 UNL     1      10.362  44.827  17.839  1.00  0.00     0.025 C 
HETATM   30  C21 UNL     1      10.403  45.667  16.565  1.00  0.00     0.002 C 
HETATM   31  C22 UNL     1       8.965  46.033  16.222  1.00  0.00     0.000 C 
HETATM   32  C23 UNL     1       8.054  44.835  16.407  1.00  0.00     0.002 C 
HETATM   33  C24 UNL     1       8.829  43.556  16.362  1.00  0.00     0.025 C 
ENDBRANCH  26  28
ENDBRANCH  13  16
BRANCH   1  34
HETATM   34  C4  UNL     1       7.243  36.347  28.050  1.00  0.00     0.144 C 
BRANCH  34  35
HETATM   35  C3  UNL     1       8.482  35.914  27.385  1.00  0.00     0.002 C 
HETATM   36  C2  UNL     1       9.295  35.080  28.001  1.00  0.00    -0.001 C 
BRANCH  36  37
HETATM   37  C1  UNL     1       9.048  34.530  29.349  1.00  0.00     0.256 C 
BRANCH  37  38
HETATM   38  N1  UNL     1      10.269  34.584  30.132  1.00  0.00    -0.076 N 
ATOM     39  H13 UNL     1      10.871  35.357  29.850  1.00  0.00     0.274 HD
ATOM     40  H12 UNL     1      10.096  34.875  31.094  1.00  0.00     0.274 HD
ATOM     41  H11 UNL     1      10.749  33.685  30.083  1.00  0.00     0.274 HD
ENDBRANCH  37  38
ENDBRANCH  36  37
ENDBRANCH  34  35
BRANCH  34  42
HETATM   42  O1  UNL     1       7.625  37.087  29.183  1.00  0.00    -0.391 OA
ATOM     43  H1  UNL     1       7.099  37.878  29.186  1.00  0.00     0.210 HD
ENDBRANCH  34  42
ENDBRANCH   1  34
TORSDOF 7
ENDMDL
MODEL 2
REMARK VINA RESULT: -8.392796855      1.147      1.262
REMARK  7 active torsions:
REMARK  status: ('A' for Active; 'I' for Inactive)
REMARK    1  A    between atoms: N1_1  and  C1_5 
REMARK    2  A    between atoms: C1_5  and  C2_6 
REMARK    3  A    between atoms: C3_7  and  C4_8 
REMARK    4  A    between atoms: C4_8  and  O1_9 
REMARK    5  A    between atoms: C4_8  and  C5_11 
REMARK    6  A    between atoms: C14_23  and  C15_24 
REMARK       I    between atoms: C15_24  and  N3_26 
REMARK       I    between atoms: N4_29  and  C18_30 
REMARK       I    between atoms: C18_30  and  N5_32 
REMARK    7  A    between atoms: N5_32  and  C19_34 
ROOT
HETATM    1  C5  UNL     1       5.630  37.919  27.620  1.00  0.00     0.018 C 
HETATM    2  C6  UNL     1       4.509  36.978  27.384  1.00  0.00     0.007 C 
HETATM    3  C7  UNL     1       3.598  36.648  28.492  1.00  0.00     0.000 C 
HETATM    4  C8  UNL     1       2.411  35.898  27.929  1.00  0.00     0.000 C 
HETATM    5  C9  UNL     1       1.818  36.462  26.688  1.00  0.00     0.000 C 
HETATM    6  C10 UNL     1       2.228  35.744  25.414  1.00  0.00     0.000 C 
HETATM    7  C11 UNL     1       1.908  36.466  24.161  1.00  0.00     0.002 C 
HETATM    8  C12 UNL     1       3.024  37.314  23.595  1.00  0.00     0.027 C 
HETATM    9  C13 UNL     1       4.251  36.580  23.224  1.00  0.00     0.233 C 
HETATM   10  N2  UNL     1       5.428  36.880  24.007  1.00  0.00    -0.062 N 
ATOM     11  H21 UNL     1       6.203  36.266  23.758  1.00  0.00     0.278 HD
ATOM     12  H22 UNL     1       5.305  36.600  24.980  1.00  0.00     0.278 HD
HETATM   13  C14 UNL     1       5.811  38.273  23.907  1.00  0.00     0.277 C 
HETATM   14  C27 UNL     1       5.793  38.872  25.305  1.00  0.00     0.043 C 
HETATM   15  C28 UNL     1       6.419  37.950  26.313  1.00  0.00     0.010 C 
ENDROOT
BRANCH  13  16
HETATM   16  C15 UNL     1       7.225  38.341  23.460  1.00  0.00     0.250 C 
HETATM   17  O2  UNL     1       8.055  37.454  23.886  1.00  0.00    -0.271 OA
HETATM   18  N3  UNL     1       7.744  39.307  22.598  1.00  0.00    -0.347 N 
HETATM   19  C16 UNL     1       9.161  39.368  22.316  1.00  0.00     0.145 C 
HETATM   20  C26 UNL     1       6.887  40.244  21.927  1.00  0.00     0.145 C 
HETATM   21  C17 UNL     1       9.670  40.792  22.531  1.00  0.00     0.147 C 
HETATM   22  N4  UNL     1       8.831  41.645  21.706  1.00  0.00    -0.331 N 
HETATM   23  C18 UNL     1       9.447  42.472  20.739  1.00  0.00     0.318 C 
HETATM   24  C25 UNL     1       7.418  41.652  21.958  1.00  0.00     0.147 C 
HETATM   25  O3  UNL     1      10.725  42.537  20.716  1.00  0.00    -0.247 OA
HETATM   26  N5  UNL     1       8.745  43.245  19.774  1.00  0.00    -0.338 N 
ATOM     27  H5  UNL     1       7.727  43.203  19.748  1.00  0.00     0.164 HD
BRANCH  26  28
HETATM   28  C19 UNL     1       9.440  44.093  18.824  1.00  0.00     0.086 C 
HETATM   29  C20 UNL     1       8.921  45.470  18.719  1.00  0.00     0.025 C 
HETATM   30  C21 UNL     1       9.239  46.050  17.343  1.00  0.00     0.002 C 
HETATM   31  C22 UNL     1       8.368  45.312  16.334  1.00  0.00     0.000 C 
HETATM   32  C23 UNL     1       8.352  43.826  16.633  1.00  0.00     0.002 C 
HETATM   33  C24 UNL     1       9.538  43.428  17.455  1.00  0.00     0.025 C 
ENDBRANCH  26  28
ENDBRANCH  13  16
BRANCH   1  34
HETATM   34  C4  UNL     1       6.500  37.588  28.804  1.00  0.00     0.144 C 
BRANCH  34  35
HETATM   35  C3  UNL     1       7.914  37.925  28.582  1.00  0.00     0.002 C 
HETATM   36  C2  UNL     1       8.814  36.962  28.541  1.00  0.00    -0.001 C 
BRANCH  36  37
HETATM   37  C1  UNL     1       8.498  35.529  28.705  1.00  0.00     0.256 C 
BRANCH  37  38
HETATM   38  N1  UNL     1       9.384  34.942  29.693  1.00  0.00    -0.076 N 
ATOM     39  H13 UNL     1       9.323  35.417  30.594  1.00  0.00     0.274 HD
ATOM     40  H12 UNL     1       9.069  34.019  29.992  1.00  0.00     0.274 HD
ATOM     41  H11 UNL     1      10.339  34.923  29.333  1.00  0.00     0.274 HD
ENDBRANCH  37  38
ENDBRANCH  36  37
ENDBRANCH  34  35
BRANCH  34  42
HETATM   42  O1  UNL     1       6.048  38.396  29.863  1.00  0.00    -0.391 OA
ATOM     43  H1  UNL     1       5.551  39.106  29.475  1.00  0.00     0.210 HD
ENDBRANCH  34  42
ENDBRANCH   1  34
TORSDOF 7
ENDMDL
MODEL 3
REMARK VINA RESULT: -8.001270901      1.955      2.206
REMARK  7 active torsions:
REMARK  status: ('A' for Active; 'I' for Inactive)
REMARK    1  A    between atoms: N1_1  and  C1_5 
REMARK    2  A    between atoms: C1_5  and  C2_6 
REMARK    3  A    between atoms: C3_7  and  C4_8 
REMARK    4  A    between atoms: C4_8  and  O1_9 
REMARK    5  A    between atoms: C4_8  and  C5_11 
REMARK    6  A    between atoms: C14_23  and  C15_24 
REMARK       I    between atoms: C15_24  and  N3_26 
REMARK       I    between atoms: N4_29  and  C18_30 
REMARK       I    between atoms: C18_30  and  N5_32 
REMARK    7  A    between atoms: N5_32  and  C19_34 
ROOT
HETATM    1  C5  UNL     1       5.092  39.625  26.989  1.00  0.00     0.018 C 
HETATM    2  C6  UNL     1       4.236  38.435  27.217  1.00  0.00     0.007 C 
HETATM    3  C7  UNL     1       3.263  38.447  28.322  1.00  0.00     0.000 C 
HETATM    4  C8  UNL     1       2.352  37.250  28.170  1.00  0.00     0.000 C 
HETATM    5  C9  UNL     1       1.839  36.996  26.797  1.00  0.00     0.000 C 
HETATM    6  C10 UNL     1       2.567  35.893  26.050  1.00  0.00     0.000 C 
HETATM    7  C11 UNL     1       2.288  35.837  24.596  1.00  0.00     0.002 C 
HETATM    8  C12 UNL     1       3.274  36.569  23.714  1.00  0.00     0.027 C 
HETATM    9  C13 UNL     1       4.667  36.083  23.781  1.00  0.00     0.233 C 
HETATM   10  N2  UNL     1       5.631  36.999  24.345  1.00  0.00    -0.062 N 
ATOM     11  H21 UNL     1       6.545  36.556  24.448  1.00  0.00     0.278 HD
ATOM     12  H22 UNL     1       5.430  37.188  25.327  1.00  0.00     0.278 HD
HETATM   13  C14 UNL     1       5.728  38.228  23.585  1.00  0.00     0.277 C 
HETATM   14  C27 UNL     1       5.385  39.386  24.509  1.00  0.00     0.043 C 
HETATM   15  C28 UNL     1       6.037  39.235  25.855  1.00  0.00     0.010 C 
ENDROOT
BRANCH  13  16
HETATM   16  C15 UNL     1       7.146  38.430  23.197  1.00  0.00     0.250 C 
HETATM   17  O2  UNL     1       8.047  37.668  23.712  1.00  0.00    -0.271 OA
HETATM   18  N3  UNL     1       7.598  39.401  22.301  1.00  0.00    -0.347 N 
HETATM   19  C16 UNL     1       9.011  39.606  22.079  1.00  0.00     0.145 C 
HETATM   20  C26 UNL     1       6.677  40.196  21.539  1.00  0.00     0.145 C 
HETATM   21  C17 UNL     1       9.349  41.088  22.229  1.00  0.00     0.147 C 
HETATM   22  N4  UNL     1       8.463  41.793  21.318  1.00  0.00    -0.331 N 
HETATM   23  C18 UNL     1       9.031  42.631  20.331  1.00  0.00     0.318 C 
HETATM   24  C25 UNL     1       7.047  41.655  21.507  1.00  0.00     0.147 C 
HETATM   25  O3  UNL     1      10.294  42.838  20.361  1.00  0.00    -0.247 OA
HETATM   26  N5  UNL     1       8.298  43.265  19.291  1.00  0.00    -0.338 N 
ATOM     27  H5  UNL     1       7.293  43.106  19.224  1.00  0.00     0.164 HD
BRANCH  26  28
HETATM   28  C19 UNL     1       8.942  44.133  18.324  1.00  0.00     0.086 C 
HETATM   29  C20 UNL     1       8.136  45.288  17.886  1.00  0.00     0.025 C 
HETATM   30  C21 UNL     1       8.572  45.739  16.495  1.00  0.00     0.002 C 
HETATM   31  C22 UNL     1       8.127  44.662  15.514  1.00  0.00     0.000 C 
HETATM   32  C23 UNL     1       8.412  43.283  16.075  1.00  0.00     0.002 C 
HETATM   33  C24 UNL     1       9.470  43.339  17.132  1.00  0.00     0.025 C 
ENDBRANCH  26  28
ENDBRANCH  13  16
BRANCH   1  34
HETATM   34  C4  UNL     1       5.832  40.117  28.205  1.00  0.00     0.144 C 
BRANCH  34  35
HETATM   35  C3  UNL     1       7.292  39.992  28.071  1.00  0.00     0.002 C 
HETATM   36  C2  UNL     1       7.924  39.032  28.714  1.00  0.00    -0.001 C 
BRANCH  36  37
HETATM   37  C1  UNL     1       7.258  38.042  29.585  1.00  0.00     0.256 C 
BRANCH  37  38
HETATM   38  N1  UNL     1       7.669  36.702  29.208  1.00  0.00    -0.076 N 
ATOM     39  H13 UNL     1       7.648  36.564  28.198  1.00  0.00     0.274 HD
ATOM     40  H12 UNL     1       8.667  36.550  29.357  1.00  0.00     0.274 HD
ATOM     41  H11 UNL     1       7.098  36.015  29.702  1.00  0.00     0.274 HD
ENDBRANCH  37  38
ENDBRANCH  36  37
ENDBRANCH  34  35
BRANCH  34  42
HETATM   42  O1  UNL     1       5.547  41.491  28.309  1.00  0.00    -0.391 OA
ATOM     43  H1  UNL     1       4.939  41.592  29.031  1.00  0.00     0.210 HD
ENDBRANCH  34  42
ENDBRANCH   1  34
TORSDOF 7
ENDMDL
MODEL 4
REMARK VINA RESULT: -7.900111589      3.943     11.374
REMARK  7 active torsions:
REMARK  status: ('A' for Active; 'I' for Inactive)
REMARK    1  A    between atoms: N1_1  and  C1_5 
REMARK    2  A    between atoms: C1_5  and  C2_6 
REMARK    3  A    between atoms: C3_7  and  C4_8 
REMARK    4  A    between atoms: C4_8  and  O1_9 
REMARK    5  A    between atoms: C4_8  and  C5_11 
REMARK    6  A    between atoms: C14_23  and  C15_24 
REMARK       I    between atoms: C15_24  and  N3_26 
REMARK       I    between atoms: N4_29  and  C18_30 
REMARK       I    between atoms: C18_30  and  N5_32 
REMARK    7  A    between atoms: N5_32  and  C19_34 
ROOT
HETATM    1  C5  UNL     1      11.673  44.704  18.875  1.00  0.00     0.018 C 
HETATM    2  C6  UNL     1      12.923  44.228  19.515  1.00  0.00     0.007 C 
HETATM    3  C7  UNL     1      14.072  45.141  19.623  1.00  0.00     0.000 C 
HETATM    4  C8  UNL     1      15.101  44.511  20.536  1.00  0.00     0.000 C 
HETATM    5  C9  UNL     1      14.572  43.911  21.789  1.00  0.00     0.000 C 
HETATM    6  C10 UNL     1      14.430  42.400  21.750  1.00  0.00     0.000 C 
HETATM    7  C11 UNL     1      13.626  41.821  22.851  1.00  0.00     0.002 C 
HETATM    8  C12 UNL     1      12.165  41.589  22.538  1.00  0.00     0.027 C 
HETATM    9  C13 UNL     1      11.895  40.650  21.431  1.00  0.00     0.233 C 
HETATM   10  N2  UNL     1      11.287  41.220  20.251  1.00  0.00    -0.062 N 
ATOM     11  H21 UNL     1      11.224  40.534  19.499  1.00  0.00     0.278 HD
ATOM     12  H22 UNL     1      11.910  41.894  19.804  1.00  0.00     0.278 HD
HETATM   13  C14 UNL     1       9.994  41.809  20.532  1.00  0.00     0.277 C 
HETATM   14  C27 UNL     1      10.050  43.281  20.154  1.00  0.00     0.043 C 
HETATM   15  C28 UNL     1      10.746  43.492  18.839  1.00  0.00     0.010 C 
ENDROOT
BRANCH  13  16
HETATM   16  C15 UNL     1       8.993  41.199  19.621  1.00  0.00     0.250 C 
HETATM   17  O2  UNL     1       9.121  41.370  18.352  1.00  0.00    -0.271 OA
HETATM   18  N3  UNL     1       7.897  40.439  20.034  1.00  0.00    -0.347 N 
HETATM   19  C16 UNL     1       6.905  39.989  19.084  1.00  0.00     0.145 C 
HETATM   20  C26 UNL     1       7.742  40.040  21.404  1.00  0.00     0.145 C 
HETATM   21  C17 UNL     1       5.508  40.357  19.582  1.00  0.00     0.147 C 
HETATM   22  N4  UNL     1       5.399  39.791  20.917  1.00  0.00    -0.331 N 
HETATM   23  C18 UNL     1       4.340  38.894  21.189  1.00  0.00     0.318 C 
HETATM   24  C25 UNL     1       6.337  40.222  21.913  1.00  0.00     0.147 C 
HETATM   25  O3  UNL     1       3.445  38.717  20.292  1.00  0.00    -0.247 OA
HETATM   26  N5  UNL     1       4.195  38.161  22.398  1.00  0.00    -0.338 N 
ATOM     27  H5  UNL     1       4.901  38.261  23.128  1.00  0.00     0.164 HD
BRANCH  26  28
HETATM   28  C19 UNL     1       3.070  37.274  22.622  1.00  0.00     0.086 C 
HETATM   29  C20 UNL     1       1.948  37.866  23.375  1.00  0.00     0.025 C 
HETATM   30  C21 UNL     1       1.158  36.773  24.090  1.00  0.00     0.002 C 
HETATM   31  C22 UNL     1       2.040  36.243  25.213  1.00  0.00     0.000 C 
HETATM   32  C23 UNL     1       3.465  36.065  24.729  1.00  0.00     0.002 C 
HETATM   33  C24 UNL     1       3.519  35.953  23.237  1.00  0.00     0.025 C 
ENDBRANCH  26  28
ENDBRANCH  13  16
BRANCH   1  34
HETATM   34  C4  UNL     1      11.852  45.328  17.516  1.00  0.00     0.144 C 
BRANCH  34  35
HETATM   35  C3  UNL     1      11.058  44.657  16.475  1.00  0.00     0.002 C 
HETATM   36  C2  UNL     1      11.616  44.366  15.317  1.00  0.00    -0.001 C 
BRANCH  36  37
HETATM   37  C1  UNL     1      13.021  44.672  14.977  1.00  0.00     0.256 C 
BRANCH  37  38
HETATM   38  N1  UNL     1      13.803  43.450  14.985  1.00  0.00    -0.076 N 
ATOM     39  H13 UNL     1      14.806  43.636  15.016  1.00  0.00     0.274 HD
ATOM     40  H12 UNL     1      13.721  42.947  15.869  1.00  0.00     0.274 HD
ATOM     41  H11 UNL     1      13.545  42.869  14.188  1.00  0.00     0.274 HD
ENDBRANCH  37  38
ENDBRANCH  36  37
ENDBRANCH  34  35
BRANCH  34  42
HETATM   42  O1  UNL     1      11.365  46.643  17.619  1.00  0.00    -0.391 OA
ATOM     43  H1  UNL     1      11.173  46.795  18.536  1.00  0.00     0.210 HD
ENDBRANCH  34  42
ENDBRANCH   1  34
TORSDOF 7
ENDMDL
MODEL 5
REMARK VINA RESULT: -7.769554514      1.387      1.624
REMARK  7 active torsions:
REMARK  status: ('A' for Active; 'I' for Inactive)
REMARK    1  A    between atoms: N1_1  and  C1_5 
REMARK    2  A    between atoms: C1_5  and  C2_6 
REMARK    3  A    between atoms: C3_7  and  C4_8 
REMARK    4  A    between atoms: C4_8  and  O1_9 
REMARK    5  A    between atoms: C4_8  and  C5_11 
REMARK    6  A    between atoms: C14_23  and  C15_24 
REMARK       I    between atoms: C15_24  and  N3_26 
REMARK       I    between atoms: N4_29  and  C18_30 
REMARK       I    between atoms: C18_30  and  N5_32 
REMARK    7  A    between atoms: N5_32  and  C19_34 
ROOT
HETATM    1  C5  UNL     1       6.520  37.233  27.226  1.00  0.00     0.018 C 
HETATM    2  C6  UNL     1       5.136  36.811  26.897  1.00  0.00     0.007 C 
HETATM    3  C7  UNL     1       4.255  36.325  27.970  1.00  0.00     0.000 C 
HETATM    4  C8  UNL     1       2.848  36.220  27.425  1.00  0.00     0.000 C 
HETATM    5  C9  UNL     1       2.381  37.374  26.612  1.00  0.00     0.000 C 
HETATM    6  C10 UNL     1       2.432  37.147  25.112  1.00  0.00     0.000 C 
HETATM    7  C11 UNL     1       2.273  38.371  24.292  1.00  0.00     0.002 C 
HETATM    8  C12 UNL     1       3.559  39.035  23.856  1.00  0.00     0.027 C 
HETATM    9  C13 UNL     1       4.445  38.209  23.011  1.00  0.00     0.233 C 
HETATM   10  N2  UNL     1       5.711  37.835  23.597  1.00  0.00    -0.062 N 
ATOM     11  H21 UNL     1       6.220  37.187  22.996  1.00  0.00     0.278 HD
ATOM     12  H22 UNL     1       5.578  37.232  24.410  1.00  0.00     0.278 HD
HETATM   13  C14 UNL     1       6.522  38.988  23.929  1.00  0.00     0.277 C 
HETATM   14  C27 UNL     1       6.809  38.953  25.422  1.00  0.00     0.043 C 
HETATM   15  C28 UNL     1       7.172  37.571  25.887  1.00  0.00     0.010 C 
ENDROOT
BRANCH  13  16
HETATM   16  C15 UNL     1       7.841  38.841  23.264  1.00  0.00     0.250 C 
HETATM   17  O2  UNL     1       8.415  37.688  23.267  1.00  0.00    -0.271 OA
HETATM   18  N3  UNL     1       8.530  39.871  22.621  1.00  0.00    -0.347 N 
HETATM   19  C16 UNL     1       9.866  39.665  22.109  1.00  0.00     0.145 C 
HETATM   20  C26 UNL     1       7.920  41.153  22.406  1.00  0.00     0.145 C 
HETATM   21  C17 UNL     1      10.788  40.775  22.610  1.00  0.00     0.147 C 
HETATM   22  N4  UNL     1      10.155  42.025  22.223  1.00  0.00    -0.331 N 
HETATM   23  C18 UNL     1      10.884  42.936  21.425  1.00  0.00     0.318 C 
HETATM   24  C25 UNL     1       8.839  42.301  22.724  1.00  0.00     0.147 C 
HETATM   25  O3  UNL     1      12.116  42.686  21.184  1.00  0.00    -0.247 OA
HETATM   26  N5  UNL     1      10.345  44.123  20.858  1.00  0.00    -0.338 N 
ATOM     27  H5  UNL     1       9.361  44.344  21.011  1.00  0.00     0.164 HD
BRANCH  26  28
HETATM   28  C19 UNL     1      11.157  45.028  20.067  1.00  0.00     0.086 C 
HETATM   29  C20 UNL     1      11.323  46.378  20.637  1.00  0.00     0.025 C 
HETATM   30  C21 UNL     1      11.603  47.388  19.527  1.00  0.00     0.002 C 
HETATM   31  C22 UNL     1      10.315  47.545  18.729  1.00  0.00     0.000 C 
HETATM   32  C23 UNL     1       9.672  46.194  18.488  1.00  0.00     0.002 C 
HETATM   33  C24 UNL     1      10.672  45.089  18.622  1.00  0.00     0.025 C 
ENDBRANCH  26  28
ENDBRANCH  13  16
BRANCH   1  34
HETATM   34  C4  UNL     1       7.319  36.229  28.014  1.00  0.00     0.144 C 
BRANCH  34  35
HETATM   35  C3  UNL     1       8.549  35.813  27.321  1.00  0.00     0.002 C 
HETATM   36  C2  UNL     1       9.368  34.961  27.904  1.00  0.00    -0.001 C 
BRANCH  36  37
HETATM   37  C1  UNL     1       9.136  34.375  29.241  1.00  0.00     0.256 C 
BRANCH  37  38
HETATM   38  N1  UNL     1      10.194  34.786  30.145  1.00  0.00    -0.076 N 
ATOM     39  H13 UNL     1      11.100  34.837  29.679  1.00  0.00     0.274 HD
ATOM     40  H12 UNL     1      10.112  35.767  30.413  1.00  0.00     0.274 HD
ATOM     41  H11 UNL     1      10.213  34.168  30.957  1.00  0.00     0.274 HD
ENDBRANCH  37  38
ENDBRANCH  36  37
ENDBRANCH  34  35
BRANCH  34  42
HETATM   42  O1  UNL     1       7.716  36.882  29.194  1.00  0.00    -0.391 OA
ATOM     43  H1  UNL     1       8.658  36.777  29.264  1.00  0.00     0.210 HD
ENDBRANCH  34  42
ENDBRANCH   1  34
TORSDOF 7
ENDMDL
