MODEL 1
REMARK VINA RESULT: -8.005057644      0.000      0.000
REMARK  10 active torsions:
REMARK  status: ('A' for Active; 'I' for Inactive)
REMARK    1  A    between atoms: N1_2  and  C3_4 
REMARK    2  A    between atoms: N2_5  and  C4_7 
REMARK    3  A    between atoms: C4_7  and  C5_8 
REMARK    4  A    between atoms: C5_8  and  N3_9 
REMARK    5  A    between atoms: N3_9  and  C6_11 
REMARK    6  A    between atoms: C7_14  and  N5_15 
REMARK    7  A    between atoms: C8_17  and  C9_18 
REMARK    8  A    between atoms: C9_18  and  C10_19 
REMARK    9  A    between atoms: C13_22  and  N6_23 
REMARK   10  A    between atoms: C15_31  and  N9_32 
ROOT
HETATM    1  C6  UNL     1       4.898  37.177  27.081  1.00  0.00     0.138 A 
HETATM    2  N4  UNL     1       6.224  37.155  26.894  1.00  0.00    -0.175 N 
ATOM      3  H4  UNL     1       6.831  37.430  27.666  1.00  0.00     0.186 HD
HETATM    4  C7  UNL     1       6.802  36.777  25.703  1.00  0.00     0.685 A 
HETATM    5  N8  UNL     1       6.016  36.416  24.686  1.00  0.00    -0.174 N 
ATOM      6  H8  UNL     1       6.430  36.134  23.798  1.00  0.00     0.186 HD
HETATM    7  C15 UNL     1       4.655  36.422  24.833  1.00  0.00     0.148 A 
HETATM    8  C20 UNL     1       4.084  36.803  26.029  1.00  0.00     0.100 A 
HETATM    9 BR1  UNL     1       2.198  36.828  26.278  1.00  0.00    -0.043 Br
ENDROOT
BRANCH   4  10
HETATM   10  N5  UNL     1       8.019  36.794  25.645  1.00  0.00    -0.205 N 
HETATM   11  C8  UNL     1       9.249  36.764  26.208  1.00  0.00     0.083 C 
ATOM     12  H5  UNL     1       8.213  36.870  24.646  1.00  0.00     0.183 HD
BRANCH  11  13
HETATM   13  C9  UNL     1       9.179  36.624  27.728  1.00  0.00     0.085 C 
BRANCH  13  14
HETATM   14  C10 UNL     1       9.499  35.227  28.140  1.00  0.00    -0.038 A 
HETATM   15  C11 UNL     1       9.691  34.200  27.246  1.00  0.00     0.012 A 
HETATM   16  C12 UNL     1       9.989  32.918  27.724  1.00  0.00     0.048 A 
HETATM   17  C13 UNL     1      10.094  32.653  29.073  1.00  0.00     0.098 A 
HETATM   18  N7  UNL     1       9.900  33.677  29.922  1.00  0.00    -0.352 N 
HETATM   19  C14 UNL     1       9.610  34.934  29.478  1.00  0.00     0.097 A 
ATOM     20  H7  UNL     1       9.971  33.509  30.925  1.00  0.00     0.166 HD
BRANCH  17  21
HETATM   21  N6  UNL     1      10.367  31.477  29.528  1.00  0.00    -0.385 N 
ATOM     22  H62 UNL     1       9.614  30.857  29.829  1.00  0.00     0.157 HD
ATOM     23  H61 UNL     1      11.322  31.127  29.603  1.00  0.00     0.157 HD
ENDBRANCH  17  21
ENDBRANCH  13  14
ENDBRANCH  11  13
ENDBRANCH   4  10
BRANCH   1  24
HETATM   24  N3  UNL     1       4.342  37.530  28.191  1.00  0.00    -0.373 N 
ATOM     25  H3  UNL     1       3.814  36.867  28.759  1.00  0.00     0.161 HD
BRANCH  24  26
HETATM   26  C5  UNL     1       4.505  38.917  28.592  1.00  0.00     0.141 C 
BRANCH  26  27
HETATM   27  C4  UNL     1       3.980  39.166  29.986  1.00  0.00     0.140 C 
BRANCH  27  28
HETATM   28  N2  UNL     1       2.941  38.199  30.250  1.00  0.00    -0.385 N 
HETATM   29  C3  UNL     1       2.538  37.886  31.430  1.00  0.00     0.172 C 
ATOM     30  H2  UNL     1       2.500  37.737  29.454  1.00  0.00     0.160 HD
BRANCH  29  31
HETATM   31  N1  UNL     1       1.507  36.918  31.555  1.00  0.00    -0.386 N 
HETATM   32  C1  UNL     1       0.121  37.311  31.404  1.00  0.00     0.149 C 
HETATM   33  C2  UNL     1       1.835  35.550  31.831  1.00  0.00     0.149 C 
ENDBRANCH  29  31
ENDBRANCH  27  28
ENDBRANCH  26  27
ENDBRANCH  24  26
ENDBRANCH   1  24
BRANCH   7  34
HETATM   34  N9  UNL     1       3.800  36.035  23.746  1.00  0.00    -0.317 N 
HETATM   35  C16 UNL     1       3.182  36.892  22.924  1.00  0.00     0.098 A 
HETATM   36  C17 UNL     1       2.462  36.141  22.026  1.00  0.00     0.019 A 
HETATM   37  C18 UNL     1       2.669  34.817  22.335  1.00  0.00     0.019 A 
HETATM   38  C19 UNL     1       3.506  34.784  23.410  1.00  0.00     0.098 A 
ENDBRANCH   7  34
TORSDOF 10
ENDMDL
MODEL 2
REMARK VINA RESULT: -8.002221816      0.519      1.273
REMARK  10 active torsions:
REMARK  status: ('A' for Active; 'I' for Inactive)
REMARK    1  A    between atoms: N1_2  and  C3_4 
REMARK    2  A    between atoms: N2_5  and  C4_7 
REMARK    3  A    between atoms: C4_7  and  C5_8 
REMARK    4  A    between atoms: C5_8  and  N3_9 
REMARK    5  A    between atoms: N3_9  and  C6_11 
REMARK    6  A    between atoms: C7_14  and  N5_15 
REMARK    7  A    between atoms: C8_17  and  C9_18 
REMARK    8  A    between atoms: C9_18  and  C10_19 
REMARK    9  A    between atoms: C13_22  and  N6_23 
REMARK   10  A    between atoms: C15_31  and  N9_32 
ROOT
HETATM    1  C6  UNL     1       4.989  37.181  27.105  1.00  0.00     0.138 A 
HETATM    2  N4  UNL     1       6.305  37.040  26.902  1.00  0.00    -0.175 N 
ATOM      3  H4  UNL     1       6.943  37.228  27.676  1.00  0.00     0.186 HD
HETATM    4  C7  UNL     1       6.834  36.651  25.692  1.00  0.00     0.685 A 
HETATM    5  N8  UNL     1       6.008  36.403  24.672  1.00  0.00    -0.174 N 
ATOM      6  H8  UNL     1       6.386  36.115  23.770  1.00  0.00     0.186 HD
HETATM    7  C15 UNL     1       4.655  36.534  24.836  1.00  0.00     0.148 A 
HETATM    8  C20 UNL     1       4.134  36.924  26.052  1.00  0.00     0.100 A 
HETATM    9 BR1  UNL     1       2.261  37.119  26.323  1.00  0.00    -0.043 Br
ENDROOT
BRANCH   4  10
HETATM   10  N5  UNL     1       8.047  36.554  25.619  1.00  0.00    -0.205 N 
HETATM   11  C8  UNL     1       9.282  36.490  26.169  1.00  0.00     0.083 C 
ATOM     12  H5  UNL     1       8.224  36.484  24.617  1.00  0.00     0.183 HD
BRANCH  11  13
HETATM   13  C9  UNL     1       9.233  36.555  27.695  1.00  0.00     0.085 C 
BRANCH  13  14
HETATM   14  C10 UNL     1       9.531  35.218  28.285  1.00  0.00    -0.038 A 
HETATM   15  C11 UNL     1       9.341  34.919  29.614  1.00  0.00     0.012 A 
HETATM   16  C12 UNL     1       9.648  33.635  30.081  1.00  0.00     0.048 A 
HETATM   17  C13 UNL     1      10.139  32.657  29.243  1.00  0.00     0.098 A 
HETATM   18  N7  UNL     1      10.314  32.980  27.950  1.00  0.00    -0.352 N 
HETATM   19  C14 UNL     1      10.021  34.224  27.473  1.00  0.00     0.097 A 
ATOM     20  H7  UNL     1      10.677  32.275  27.308  1.00  0.00     0.166 HD
BRANCH  17  21
HETATM   21  N6  UNL     1      10.427  31.470  29.659  1.00  0.00    -0.385 N 
ATOM     22  H62 UNL     1       9.961  31.088  30.482  1.00  0.00     0.157 HD
ATOM     23  H61 UNL     1      11.116  30.879  29.193  1.00  0.00     0.157 HD
ENDBRANCH  17  21
ENDBRANCH  13  14
ENDBRANCH  11  13
ENDBRANCH   4  10
BRANCH   1  24
HETATM   24  N3  UNL     1       4.479  37.545  28.233  1.00  0.00    -0.373 N 
ATOM     25  H3  UNL     1       3.928  36.903  28.803  1.00  0.00     0.161 HD
BRANCH  24  26
HETATM   26  C5  UNL     1       4.729  38.914  28.653  1.00  0.00     0.141 C 
BRANCH  26  27
HETATM   27  C4  UNL     1       4.127  39.208  30.006  1.00  0.00     0.140 C 
BRANCH  27  28
HETATM   28  N2  UNL     1       3.078  38.245  30.246  1.00  0.00    -0.385 N 
HETATM   29  C3  UNL     1       2.545  38.039  31.398  1.00  0.00     0.172 C 
ATOM     30  H2  UNL     1       2.740  37.696  29.455  1.00  0.00     0.160 HD
BRANCH  29  31
HETATM   31  N1  UNL     1       1.521  37.062  31.501  1.00  0.00    -0.386 N 
HETATM   32  C1  UNL     1       1.855  35.694  31.841  1.00  0.00     0.149 C 
HETATM   33  C2  UNL     1       0.154  37.426  31.269  1.00  0.00     0.149 C 
ENDBRANCH  29  31
ENDBRANCH  27  28
ENDBRANCH  26  27
ENDBRANCH  24  26
ENDBRANCH   1  24
BRANCH   7  34
HETATM   34  N9  UNL     1       3.758  36.269  23.746  1.00  0.00    -0.317 N 
HETATM   35  C16 UNL     1       3.329  35.050  23.396  1.00  0.00     0.098 A 
HETATM   36  C17 UNL     1       2.494  35.211  22.317  1.00  0.00     0.019 A 
HETATM   37  C18 UNL     1       2.438  36.557  22.036  1.00  0.00     0.019 A 
HETATM   38  C19 UNL     1       3.235  37.188  22.943  1.00  0.00     0.098 A 
ENDBRANCH   7  34
TORSDOF 10
ENDMDL
MODEL 3
REMARK VINA RESULT: -7.929310550      3.219      6.661
REMARK  10 active torsions:
REMARK  status: ('A' for Active; 'I' for Inactive)
REMARK    1  A    between atoms: N1_2  and  C3_4 
REMARK    2  A    between atoms: N2_5  and  C4_7 
REMARK    3  A    between atoms: C4_7  and  C5_8 
REMARK    4  A    between atoms: C5_8  and  N3_9 
REMARK    5  A    between atoms: N3_9  and  C6_11 
REMARK    6  A    between atoms: C7_14  and  N5_15 
REMARK    7  A    between atoms: C8_17  and  C9_18 
REMARK    8  A    between atoms: C9_18  and  C10_19 
REMARK    9  A    between atoms: C13_22  and  N6_23 
REMARK   10  A    between atoms: C15_31  and  N9_32 
ROOT
HETATM    1  C6  UNL     1       4.274  37.819  23.547  1.00  0.00     0.138 A 
HETATM    2  N4  UNL     1       5.562  37.462  23.628  1.00  0.00    -0.175 N 
ATOM      3  H4  UNL     1       6.150  37.560  22.801  1.00  0.00     0.186 HD
HETATM    4  C7  UNL     1       6.126  36.967  24.782  1.00  0.00     0.685 A 
HETATM    5  N8  UNL     1       5.365  36.835  25.872  1.00  0.00    -0.174 N 
ATOM      6  H8  UNL     1       5.769  36.469  26.733  1.00  0.00     0.186 HD
HETATM    7  C15 UNL     1       4.043  37.188  25.834  1.00  0.00     0.148 A 
HETATM    8  C20 UNL     1       3.486  37.683  24.673  1.00  0.00     0.100 A 
HETATM    9 BR1  UNL     1       1.654  38.187  24.575  1.00  0.00    -0.043 Br
ENDROOT
BRANCH   4  10
HETATM   10  N5  UNL     1       7.309  36.674  24.744  1.00  0.00    -0.205 N 
HETATM   11  C8  UNL     1       8.524  36.509  25.316  1.00  0.00     0.083 C 
ATOM     12  H5  UNL     1       7.464  36.420  23.768  1.00  0.00     0.183 HD
BRANCH  11  13
HETATM   13  C9  UNL     1       8.500  36.820  26.811  1.00  0.00     0.085 C 
BRANCH  13  14
HETATM   14  C10 UNL     1       9.022  35.663  27.595  1.00  0.00    -0.038 A 
HETATM   15  C11 UNL     1       9.558  34.537  27.015  1.00  0.00     0.012 A 
HETATM   16  C12 UNL     1      10.024  33.498  27.830  1.00  0.00     0.048 A 
HETATM   17  C13 UNL     1       9.961  33.571  29.205  1.00  0.00     0.098 A 
HETATM   18  N7  UNL     1       9.431  34.683  29.742  1.00  0.00    -0.352 N 
HETATM   19  C14 UNL     1       8.971  35.708  28.967  1.00  0.00     0.097 A 
ATOM     20  H7  UNL     1       9.371  34.764  30.757  1.00  0.00     0.166 HD
BRANCH  17  21
HETATM   21  N6  UNL     1      10.386  32.622  29.969  1.00  0.00    -0.385 N 
ATOM     22  H62 UNL     1      10.790  31.778  29.562  1.00  0.00     0.157 HD
ATOM     23  H61 UNL     1      10.337  32.676  30.987  1.00  0.00     0.157 HD
ENDBRANCH  17  21
ENDBRANCH  13  14
ENDBRANCH  11  13
ENDBRANCH   4  10
BRANCH   1  24
HETATM   24  N3  UNL     1       3.732  38.283  22.472  1.00  0.00    -0.373 N 
ATOM     25  H3  UNL     1       2.887  37.870  22.077  1.00  0.00     0.161 HD
BRANCH  24  26
HETATM   26  C5  UNL     1       4.383  39.424  21.850  1.00  0.00     0.141 C 
BRANCH  26  27
HETATM   27  C4  UNL     1       3.861  39.681  20.457  1.00  0.00     0.140 C 
BRANCH  27  28
HETATM   28  N2  UNL     1       4.993  39.757  19.564  1.00  0.00    -0.385 N 
HETATM   29  C3  UNL     1       6.022  40.500  19.772  1.00  0.00     0.172 C 
ATOM     30  H2  UNL     1       4.976  39.187  18.717  1.00  0.00     0.160 HD
BRANCH  29  31
HETATM   31  N1  UNL     1       7.069  40.484  18.816  1.00  0.00    -0.386 N 
HETATM   32  C1  UNL     1       8.294  39.761  19.094  1.00  0.00     0.149 C 
HETATM   33  C2  UNL     1       6.920  41.182  17.574  1.00  0.00     0.149 C 
ENDBRANCH  29  31
ENDBRANCH  27  28
ENDBRANCH  26  27
ENDBRANCH  24  26
ENDBRANCH   1  24
BRANCH   7  34
HETATM   34  N9  UNL     1       3.215  37.051  26.999  1.00  0.00    -0.317 N 
HETATM   35  C16 UNL     1       3.138  37.952  27.986  1.00  0.00     0.098 A 
HETATM   36  C17 UNL     1       2.248  37.461  28.911  1.00  0.00     0.019 A 
HETATM   37  C18 UNL     1       1.799  36.246  28.449  1.00  0.00     0.019 A 
HETATM   38  C19 UNL     1       2.420  36.019  27.257  1.00  0.00     0.098 A 
ENDBRANCH   7  34
TORSDOF 10
ENDMDL
MODEL 4
REMARK VINA RESULT: -7.798474092      1.916      5.801
REMARK  10 active torsions:
REMARK  status: ('A' for Active; 'I' for Inactive)
REMARK    1  A    between atoms: N1_2  and  C3_4 
REMARK    2  A    between atoms: N2_5  and  C4_7 
REMARK    3  A    between atoms: C4_7  and  C5_8 
REMARK    4  A    between atoms: C5_8  and  N3_9 
REMARK    5  A    between atoms: N3_9  and  C6_11 
REMARK    6  A    between atoms: C7_14  and  N5_15 
REMARK    7  A    between atoms: C8_17  and  C9_18 
REMARK    8  A    between atoms: C9_18  and  C10_19 
REMARK    9  A    between atoms: C13_22  and  N6_23 
REMARK   10  A    between atoms: C15_31  and  N9_32 
ROOT
HETATM    1  C6  UNL     1       3.618  36.217  24.583  1.00  0.00     0.138 A 
HETATM    2  N4  UNL     1       4.944  36.124  24.425  1.00  0.00    -0.175 N 
ATOM      3  H4  UNL     1       5.309  35.516  23.691  1.00  0.00     0.186 HD
HETATM    4  C7  UNL     1       5.838  36.814  25.212  1.00  0.00     0.685 A 
HETATM    5  N8  UNL     1       5.372  37.612  26.177  1.00  0.00    -0.174 N 
ATOM      6  H8  UNL     1       6.022  38.128  26.769  1.00  0.00     0.186 HD
HETATM    7  C15 UNL     1       4.023  37.737  26.373  1.00  0.00     0.148 A 
HETATM    8  C20 UNL     1       3.135  37.042  25.580  1.00  0.00     0.100 A 
HETATM    9 BR1  UNL     1       1.253  37.185  25.818  1.00  0.00    -0.043 Br
ENDROOT
BRANCH   4  10
HETATM   10  N5  UNL     1       7.024  36.655  24.980  1.00  0.00    -0.205 N 
HETATM   11  C8  UNL     1       8.326  36.624  25.348  1.00  0.00     0.083 C 
ATOM     12  H5  UNL     1       7.048  36.425  23.986  1.00  0.00     0.183 HD
BRANCH  11  13
HETATM   13  C9  UNL     1       8.508  36.922  26.835  1.00  0.00     0.085 C 
BRANCH  13  14
HETATM   14  C10 UNL     1       9.031  35.722  27.549  1.00  0.00    -0.038 A 
HETATM   15  C11 UNL     1       9.550  34.624  26.904  1.00  0.00     0.012 A 
HETATM   16  C12 UNL     1      10.019  33.541  27.657  1.00  0.00     0.048 A 
HETATM   17  C13 UNL     1       9.975  33.542  29.035  1.00  0.00     0.098 A 
HETATM   18  N7  UNL     1       9.461  34.628  29.637  1.00  0.00    -0.352 N 
HETATM   19  C14 UNL     1       8.999  35.695  28.923  1.00  0.00     0.097 A 
ATOM     20  H7  UNL     1       9.415  34.656  30.655  1.00  0.00     0.166 HD
BRANCH  17  21
HETATM   21  N6  UNL     1      10.402  32.551  29.742  1.00  0.00    -0.385 N 
ATOM     22  H62 UNL     1      11.398  32.455  29.942  1.00  0.00     0.157 HD
ATOM     23  H61 UNL     1       9.776  31.840  30.122  1.00  0.00     0.157 HD
ENDBRANCH  17  21
ENDBRANCH  13  14
ENDBRANCH  11  13
ENDBRANCH   4  10
BRANCH   1  24
HETATM   24  N3  UNL     1       2.769  35.575  23.853  1.00  0.00    -0.373 N 
ATOM     25  H3  UNL     1       2.118  34.901  24.257  1.00  0.00     0.161 HD
BRANCH  24  26
HETATM   26  C5  UNL     1       2.783  35.860  22.428  1.00  0.00     0.141 C 
BRANCH  26  27
HETATM   27  C4  UNL     1       1.963  37.081  22.088  1.00  0.00     0.140 C 
BRANCH  27  28
HETATM   28  N2  UNL     1       2.819  38.012  21.391  1.00  0.00    -0.385 N 
HETATM   29  C3  UNL     1       3.690  38.759  21.973  1.00  0.00     0.172 C 
ATOM     30  H2  UNL     1       2.728  38.081  20.377  1.00  0.00     0.160 HD
BRANCH  29  31
HETATM   31  N1  UNL     1       4.470  39.633  21.173  1.00  0.00    -0.386 N 
HETATM   32  C1  UNL     1       5.732  40.140  21.672  1.00  0.00     0.149 C 
HETATM   33  C2  UNL     1       4.012  40.017  19.870  1.00  0.00     0.149 C 
ENDBRANCH  29  31
ENDBRANCH  27  28
ENDBRANCH  26  27
ENDBRANCH  24  26
ENDBRANCH   1  24
BRANCH   7  34
HETATM   34  N9  UNL     1       3.511  38.592  27.407  1.00  0.00    -0.317 N 
HETATM   35  C16 UNL     1       3.232  38.192  28.654  1.00  0.00     0.098 A 
HETATM   36  C17 UNL     1       2.766  39.291  29.335  1.00  0.00     0.019 A 
HETATM   37  C18 UNL     1       2.776  40.354  28.460  1.00  0.00     0.019 A 
HETATM   38  C19 UNL     1       3.245  39.886  27.270  1.00  0.00     0.098 A 
ENDBRANCH   7  34
TORSDOF 10
ENDMDL
MODEL 5
REMARK VINA RESULT: -7.755815584      1.310      1.891
REMARK  10 active torsions:
REMARK  status: ('A' for Active; 'I' for Inactive)
REMARK    1  A    between atoms: N1_2  and  C3_4 
REMARK    2  A    between atoms: N2_5  and  C4_7 
REMARK    3  A    between atoms: C4_7  and  C5_8 
REMARK    4  A    between atoms: C5_8  and  N3_9 
REMARK    5  A    between atoms: N3_9  and  C6_11 
REMARK    6  A    between atoms: C7_14  and  N5_15 
REMARK    7  A    between atoms: C8_17  and  C9_18 
REMARK    8  A    between atoms: C9_18  and  C10_19 
REMARK    9  A    between atoms: C13_22  and  N6_23 
REMARK   10  A    between atoms: C15_31  and  N9_32 
ROOT
HETATM    1  C6  UNL     1       3.661  37.337  28.072  1.00  0.00     0.138 A 
HETATM    2  N4  UNL     1       4.962  37.657  28.053  1.00  0.00    -0.175 N 
ATOM      3  H4  UNL     1       5.424  37.878  28.935  1.00  0.00     0.186 HD
HETATM    4  C7  UNL     1       5.701  37.701  26.893  1.00  0.00     0.685 A 
HETATM    5  N8  UNL     1       5.106  37.414  25.733  1.00  0.00    -0.174 N 
ATOM      6  H8  UNL     1       5.641  37.443  24.865  1.00  0.00     0.186 HD
HETATM    7  C15 UNL     1       3.778  37.081  25.705  1.00  0.00     0.148 A 
HETATM    8  C20 UNL     1       3.045  37.040  26.872  1.00  0.00     0.100 A 
HETATM    9 BR1  UNL     1       1.198  36.583  26.881  1.00  0.00    -0.043 Br
ENDROOT
BRANCH   4  10
HETATM   10  N5  UNL     1       6.878  38.003  26.993  1.00  0.00    -0.205 N 
HETATM   11  C8  UNL     1       8.199  37.753  26.841  1.00  0.00     0.083 C 
ATOM     12  H5  UNL     1       6.854  38.934  27.410  1.00  0.00     0.183 HD
BRANCH  11  13
HETATM   13  C9  UNL     1       8.453  36.391  26.197  1.00  0.00     0.085 C 
BRANCH  13  14
HETATM   14  C10 UNL     1       8.965  35.422  27.208  1.00  0.00    -0.038 A 
HETATM   15  C11 UNL     1       9.561  34.227  26.877  1.00  0.00     0.012 A 
HETATM   16  C12 UNL     1      10.013  33.378  27.895  1.00  0.00     0.048 A 
HETATM   17  C13 UNL     1       9.877  33.705  29.227  1.00  0.00     0.098 A 
HETATM   18  N7  UNL     1       9.289  34.878  29.519  1.00  0.00    -0.352 N 
HETATM   19  C14 UNL     1       8.842  35.722  28.544  1.00  0.00     0.097 A 
ATOM     20  H7  UNL     1       9.174  35.145  30.496  1.00  0.00     0.166 HD
BRANCH  17  21
HETATM   21  N6  UNL     1      10.287  32.932  30.175  1.00  0.00    -0.385 N 
ATOM     22  H62 UNL     1      11.176  33.119  30.639  1.00  0.00     0.157 HD
ATOM     23  H61 UNL     1       9.751  32.125  30.493  1.00  0.00     0.157 HD
ENDBRANCH  17  21
ENDBRANCH  13  14
ENDBRANCH  11  13
ENDBRANCH   4  10
BRANCH   1  24
HETATM   24  N3  UNL     1       2.956  37.294  29.151  1.00  0.00    -0.373 N 
ATOM     25  H3  UNL     1       2.477  36.441  29.444  1.00  0.00     0.161 HD
BRANCH  24  26
HETATM   26  C5  UNL     1       2.875  38.518  29.931  1.00  0.00     0.141 C 
BRANCH  26  27
HETATM   27  C4  UNL     1       2.676  38.239  31.401  1.00  0.00     0.140 C 
BRANCH  27  28
HETATM   28  N2  UNL     1       1.272  38.396  31.699  1.00  0.00    -0.385 N 
HETATM   29  C3  UNL     1       0.461  37.412  31.866  1.00  0.00     0.172 C 
ATOM     30  H2  UNL     1       0.902  39.343  31.781  1.00  0.00     0.160 HD
BRANCH  29  31
HETATM   31  N1  UNL     1      -0.898  37.701  32.155  1.00  0.00    -0.386 N 
HETATM   32  C1  UNL     1      -1.877  37.725  31.087  1.00  0.00     0.149 C 
HETATM   33  C2  UNL     1      -1.305  37.971  33.502  1.00  0.00     0.149 C 
ENDBRANCH  29  31
ENDBRANCH  27  28
ENDBRANCH  26  27
ENDBRANCH  24  26
ENDBRANCH   1  24
BRANCH   7  34
HETATM   34  N9  UNL     1       3.127  36.769  24.463  1.00  0.00    -0.317 N 
HETATM   35  C16 UNL     1       3.204  35.586  23.842  1.00  0.00     0.098 A 
HETATM   36  C17 UNL     1       2.454  35.684  22.695  1.00  0.00     0.019 A 
HETATM   37  C18 UNL     1       1.930  36.955  22.651  1.00  0.00     0.019 A 
HETATM   38  C19 UNL     1       2.367  37.606  23.765  1.00  0.00     0.098 A 
ENDBRANCH   7  34
TORSDOF 10
ENDMDL
