MODEL 1
REMARK VINA RESULT: -6.735580553      0.000      0.000
REMARK  12 active torsions:
REMARK  status: ('A' for Active; 'I' for Inactive)
REMARK    1  A    between atoms: C3_3  and  C4_4 
REMARK    2  A    between atoms: C7_7  and  C8_8 
REMARK    3  A    between atoms: C8_8  and  C9_9 
REMARK    4  A    between atoms: C9_9  and  C10_10 
REMARK    5  A    between atoms: C10_10  and  N1_11 
REMARK    6  A    between atoms: C10_10  and  C16_20 
REMARK       I    between atoms: N1_11  and  C11_13 
REMARK    7  A    between atoms: C11_13  and  O2_15 
REMARK    8  A    between atoms: O2_15  and  C12_16 
REMARK       I    between atoms: C16_20  and  N2_22 
REMARK    9  A    between atoms: N2_22  and  C17_24 
REMARK   10  A    between atoms: C17_24  and  O4_26 
REMARK   11  A    between atoms: C17_24  and  C19_28 
REMARK   12  A    between atoms: C19_28  and  C20_30 
ROOT
HETATM    1  C1  UNL     1       3.258  33.789  23.143  1.00  0.00     0.112 C 
HETATM    2  C2  UNL     1       3.657  35.177  23.344  1.00  0.00    -0.104 C 
HETATM    3  C3  UNL     1       3.976  36.325  23.530  1.00  0.00    -0.049 C 
ENDROOT
BRANCH   3   4
HETATM    4  C4  UNL     1       4.354  37.712  23.776  1.00  0.00     0.087 A 
HETATM    5  C5  UNL     1       3.754  38.553  24.685  1.00  0.00     0.041 A 
HETATM    6  C6  UNL     1       4.423  39.777  24.595  1.00  0.00     0.028 A 
HETATM    7  C7  UNL     1       5.391  39.633  23.645  1.00  0.00     0.010 A 
HETATM    8  N3  UNL     1       5.330  38.358  23.157  1.00  0.00    -0.353 N 
ATOM      9  H3  UNL     1       5.937  37.968  22.436  1.00  0.00     0.166 HD
BRANCH   7  10
HETATM   10  C8  UNL     1       6.354  40.626  23.155  1.00  0.00     0.059 C 
BRANCH  10  11
HETATM   11  C9  UNL     1       7.509  40.925  24.028  1.00  0.00     0.041 C 
BRANCH  11  12
HETATM   12  C10 UNL     1       8.769  40.182  23.772  1.00  0.00     0.179 C 
BRANCH  12  13
HETATM   13  N1  UNL     1       9.266  40.372  22.418  1.00  0.00    -0.324 N 
HETATM   14  C11 UNL     1      10.582  40.747  22.112  1.00  0.00     0.362 C 
HETATM   15  O1  UNL     1      11.398  40.936  23.031  1.00  0.00    -0.238 OA
ATOM     16  H1  UNL     1       8.618  40.223  21.645  1.00  0.00     0.165 HD
BRANCH  14  17
HETATM   17  O2  UNL     1      10.986  40.909  20.812  1.00  0.00    -0.294 OA
BRANCH  17  18
HETATM   18  C12 UNL     1      10.521  41.901  19.939  1.00  0.00     0.061 C 
HETATM   19  C13 UNL     1       9.896  43.074  20.609  1.00  0.00     0.046 C 
HETATM   20  C14 UNL     1      11.745  42.405  19.163  1.00  0.00     0.046 C 
HETATM   21  C15 UNL     1       9.563  41.365  18.892  1.00  0.00     0.046 C 
ENDBRANCH  17  18
ENDBRANCH  14  17
ENDBRANCH  12  13
BRANCH  12  22
HETATM   22  C16 UNL     1       8.544  38.743  24.006  1.00  0.00     0.243 C 
HETATM   23  O3  UNL     1       8.692  37.927  23.065  1.00  0.00    -0.271 OA
HETATM   24  N2  UNL     1       8.160  38.273  25.287  1.00  0.00    -0.322 N 
ATOM     25  H2  UNL     1       8.052  38.963  26.030  1.00  0.00     0.166 HD
BRANCH  24  26
HETATM   26  C17 UNL     1       7.911  36.889  25.620  1.00  0.00     0.193 C 
HETATM   27  C18 UNL     1       6.696  36.783  26.551  1.00  0.00     0.080 C 
BRANCH  26  28
HETATM   28  O4  UNL     1       7.499  36.239  24.436  1.00  0.00    -0.365 OA
ATOM     29  H4  UNL     1       8.113  35.534  24.273  1.00  0.00     0.213 HD
ENDBRANCH  26  28
BRANCH  26  30
HETATM   30  C19 UNL     1       9.056  36.164  26.167  1.00  0.00     0.191 C 
HETATM   31  O5  UNL     1      10.054  35.905  25.543  1.00  0.00    -0.292 OA
BRANCH  30  32
HETATM   32  C20 UNL     1       9.026  35.689  27.598  1.00  0.00     0.168 C 
HETATM   33 BR1  UNL     1      10.055  34.083  27.842  1.00  0.00    -0.088 Br
ENDBRANCH  30  32
ENDBRANCH  26  30
ENDBRANCH  24  26
ENDBRANCH  12  22
ENDBRANCH  11  12
ENDBRANCH  10  11
ENDBRANCH   7  10
ENDBRANCH   3   4
TORSDOF 12
ENDMDL
MODEL 2
REMARK VINA RESULT: -6.328628511      2.738      4.135
REMARK  12 active torsions:
REMARK  status: ('A' for Active; 'I' for Inactive)
REMARK    1  A    between atoms: C3_3  and  C4_4 
REMARK    2  A    between atoms: C7_7  and  C8_8 
REMARK    3  A    between atoms: C8_8  and  C9_9 
REMARK    4  A    between atoms: C9_9  and  C10_10 
REMARK    5  A    between atoms: C10_10  and  N1_11 
REMARK    6  A    between atoms: C10_10  and  C16_20 
REMARK       I    between atoms: N1_11  and  C11_13 
REMARK    7  A    between atoms: C11_13  and  O2_15 
REMARK    8  A    between atoms: O2_15  and  C12_16 
REMARK       I    between atoms: C16_20  and  N2_22 
REMARK    9  A    between atoms: N2_22  and  C17_24 
REMARK   10  A    between atoms: C17_24  and  O4_26 
REMARK   11  A    between atoms: C17_24  and  C19_28 
REMARK   12  A    between atoms: C19_28  and  C20_30 
ROOT
HETATM    1  C1  UNL     1       2.161  40.523  20.280  1.00  0.00     0.112 C 
HETATM    2  C2  UNL     1       3.562  40.602  19.881  1.00  0.00    -0.104 C 
HETATM    3  C3  UNL     1       4.722  40.645  19.556  1.00  0.00    -0.049 C 
ENDROOT
BRANCH   3   4
HETATM    4  C4  UNL     1       6.127  40.673  19.162  1.00  0.00     0.087 A 
HETATM    5  C5  UNL     1       6.622  41.248  18.015  1.00  0.00     0.041 A 
HETATM    6  C6  UNL     1       8.005  41.048  18.034  1.00  0.00     0.028 A 
HETATM    7  C7  UNL     1       8.291  40.364  19.179  1.00  0.00     0.010 A 
HETATM    8  N3  UNL     1       7.124  40.146  19.856  1.00  0.00    -0.353 N 
ATOM      9  H3  UNL     1       7.035  39.659  20.747  1.00  0.00     0.166 HD
BRANCH   7  10
HETATM   10  C8  UNL     1       9.591  39.887  19.666  1.00  0.00     0.059 C 
BRANCH  10  11
HETATM   11  C9  UNL     1       9.589  39.106  20.922  1.00  0.00     0.041 C 
BRANCH  11  12
HETATM   12  C10 UNL     1       9.300  39.839  22.180  1.00  0.00     0.179 C 
BRANCH  12  13
HETATM   13  N1  UNL     1      10.506  40.192  22.914  1.00  0.00    -0.324 N 
HETATM   14  C11 UNL     1      11.101  41.461  22.878  1.00  0.00     0.362 C 
HETATM   15  O1  UNL     1      10.592  42.361  22.188  1.00  0.00    -0.238 OA
ATOM     16  H1  UNL     1      10.944  39.472  23.489  1.00  0.00     0.165 HD
BRANCH  14  17
HETATM   17  O2  UNL     1      12.239  41.727  23.595  1.00  0.00    -0.294 OA
BRANCH  17  18
HETATM   18  C12 UNL     1      13.346  42.440  23.118  1.00  0.00     0.061 C 
HETATM   19  C13 UNL     1      13.148  43.914  23.040  1.00  0.00     0.046 C 
HETATM   20  C14 UNL     1      14.491  42.175  24.104  1.00  0.00     0.046 C 
HETATM   21  C15 UNL     1      13.838  41.939  21.773  1.00  0.00     0.046 C 
ENDBRANCH  17  18
ENDBRANCH  14  17
ENDBRANCH  12  13
BRANCH  12  22
HETATM   22  C16 UNL     1       8.437  39.009  23.042  1.00  0.00     0.243 C 
HETATM   23  O3  UNL     1       7.214  38.903  22.783  1.00  0.00    -0.271 OA
HETATM   24  N2  UNL     1       8.977  38.331  24.163  1.00  0.00    -0.322 N 
ATOM     25  H2  UNL     1       9.976  38.436  24.343  1.00  0.00     0.166 HD
BRANCH  24  26
HETATM   26  C17 UNL     1       8.221  37.499  25.072  1.00  0.00     0.193 C 
HETATM   27  C18 UNL     1       7.206  38.352  25.843  1.00  0.00     0.080 C 
BRANCH  26  28
HETATM   28  O4  UNL     1       7.425  36.636  24.287  1.00  0.00    -0.365 OA
ATOM     29  H4  UNL     1       6.551  37.007  24.258  1.00  0.00     0.213 HD
ENDBRANCH  26  28
BRANCH  26  30
HETATM   30  C19 UNL     1       9.021  36.683  25.983  1.00  0.00     0.191 C 
HETATM   31  O5  UNL     1      10.024  36.097  25.663  1.00  0.00    -0.292 OA
BRANCH  30  32
HETATM   32  C20 UNL     1       8.598  36.538  27.423  1.00  0.00     0.168 C 
HETATM   33 BR1  UNL     1       9.640  35.210  28.345  1.00  0.00    -0.088 Br
ENDBRANCH  30  32
ENDBRANCH  26  30
ENDBRANCH  24  26
ENDBRANCH  12  22
ENDBRANCH  11  12
ENDBRANCH  10  11
ENDBRANCH   7  10
ENDBRANCH   3   4
TORSDOF 12
ENDMDL
MODEL 3
REMARK VINA RESULT: -6.214108989      1.648      2.025
REMARK  12 active torsions:
REMARK  status: ('A' for Active; 'I' for Inactive)
REMARK    1  A    between atoms: C3_3  and  C4_4 
REMARK    2  A    between atoms: C7_7  and  C8_8 
REMARK    3  A    between atoms: C8_8  and  C9_9 
REMARK    4  A    between atoms: C9_9  and  C10_10 
REMARK    5  A    between atoms: C10_10  and  N1_11 
REMARK    6  A    between atoms: C10_10  and  C16_20 
REMARK       I    between atoms: N1_11  and  C11_13 
REMARK    7  A    between atoms: C11_13  and  O2_15 
REMARK    8  A    between atoms: O2_15  and  C12_16 
REMARK       I    between atoms: C16_20  and  N2_22 
REMARK    9  A    between atoms: N2_22  and  C17_24 
REMARK   10  A    between atoms: C17_24  and  O4_26 
REMARK   11  A    between atoms: C17_24  and  C19_28 
REMARK   12  A    between atoms: C19_28  and  C20_30 
ROOT
HETATM    1  C1  UNL     1       1.897  36.007  28.354  1.00  0.00     0.112 C 
HETATM    2  C2  UNL     1       2.541  36.539  27.158  1.00  0.00    -0.104 C 
HETATM    3  C3  UNL     1       3.075  36.997  26.180  1.00  0.00    -0.049 C 
ENDROOT
BRANCH   3   4
HETATM    4  C4  UNL     1       3.728  37.572  25.008  1.00  0.00     0.087 A 
HETATM    5  C5  UNL     1       3.866  36.952  23.788  1.00  0.00     0.041 A 
HETATM    6  C6  UNL     1       4.546  37.850  22.960  1.00  0.00     0.028 A 
HETATM    7  C7  UNL     1       4.792  38.967  23.703  1.00  0.00     0.010 A 
HETATM    8  N3  UNL     1       4.280  38.774  24.956  1.00  0.00    -0.353 N 
ATOM      9  H3  UNL     1       4.317  39.445  25.723  1.00  0.00     0.166 HD
BRANCH   7  10
HETATM   10  C8  UNL     1       5.495  40.194  23.314  1.00  0.00     0.059 C 
BRANCH  10  11
HETATM   11  C9  UNL     1       6.649  40.597  24.147  1.00  0.00     0.041 C 
BRANCH  11  12
HETATM   12  C10 UNL     1       7.958  39.963  23.850  1.00  0.00     0.179 C 
BRANCH  12  13
HETATM   13  N1  UNL     1       8.283  39.983  22.433  1.00  0.00    -0.324 N 
HETATM   14  C11 UNL     1       9.070  40.972  21.823  1.00  0.00     0.362 C 
HETATM   15  O1  UNL     1       9.532  41.900  22.509  1.00  0.00    -0.238 OA
ATOM     16  H1  UNL     1       7.917  39.233  21.847  1.00  0.00     0.165 HD
BRANCH  14  17
HETATM   17  O2  UNL     1       9.338  40.931  20.480  1.00  0.00    -0.294 OA
BRANCH  17  18
HETATM   18  C12 UNL     1       8.456  41.330  19.467  1.00  0.00     0.061 C 
HETATM   19  C13 UNL     1       7.225  42.015  19.949  1.00  0.00     0.046 C 
HETATM   20  C14 UNL     1       9.227  42.322  18.586  1.00  0.00     0.046 C 
HETATM   21  C15 UNL     1       8.056  40.190  18.548  1.00  0.00     0.046 C 
ENDBRANCH  17  18
ENDBRANCH  14  17
ENDBRANCH  12  13
BRANCH  12  22
HETATM   22  C16 UNL     1       7.942  38.565  24.321  1.00  0.00     0.243 C 
HETATM   23  O3  UNL     1       8.156  37.631  23.512  1.00  0.00    -0.271 OA
HETATM   24  N2  UNL     1       7.685  38.267  25.684  1.00  0.00    -0.322 N 
ATOM     25  H2  UNL     1       7.519  39.050  26.315  1.00  0.00     0.166 HD
BRANCH  24  26
HETATM   26  C17 UNL     1       7.642  36.936  26.246  1.00  0.00     0.193 C 
HETATM   27  C18 UNL     1       6.667  36.897  27.429  1.00  0.00     0.080 C 
BRANCH  26  28
HETATM   28  O4  UNL     1       7.051  36.092  25.280  1.00  0.00    -0.365 OA
ATOM     29  H4  UNL     1       7.751  35.599  24.870  1.00  0.00     0.213 HD
ENDBRANCH  26  28
BRANCH  26  30
HETATM   30  C19 UNL     1       8.939  36.373  26.615  1.00  0.00     0.191 C 
HETATM   31  O5  UNL     1       9.859  36.232  25.850  1.00  0.00    -0.292 OA
BRANCH  30  32
HETATM   32  C20 UNL     1       9.182  35.925  28.034  1.00  0.00     0.168 C 
HETATM   33 BR1  UNL     1      10.003  34.187  28.106  1.00  0.00    -0.088 Br
ENDBRANCH  30  32
ENDBRANCH  26  30
ENDBRANCH  24  26
ENDBRANCH  12  22
ENDBRANCH  11  12
ENDBRANCH  10  11
ENDBRANCH   7  10
ENDBRANCH   3   4
TORSDOF 12
ENDMDL
MODEL 4
REMARK VINA RESULT: -6.178458286      3.420      7.354
REMARK  12 active torsions:
REMARK  status: ('A' for Active; 'I' for Inactive)
REMARK    1  A    between atoms: C3_3  and  C4_4 
REMARK    2  A    between atoms: C7_7  and  C8_8 
REMARK    3  A    between atoms: C8_8  and  C9_9 
REMARK    4  A    between atoms: C9_9  and  C10_10 
REMARK    5  A    between atoms: C10_10  and  N1_11 
REMARK    6  A    between atoms: C10_10  and  C16_20 
REMARK       I    between atoms: N1_11  and  C11_13 
REMARK    7  A    between atoms: C11_13  and  O2_15 
REMARK    8  A    between atoms: O2_15  and  C12_16 
REMARK       I    between atoms: C16_20  and  N2_22 
REMARK    9  A    between atoms: N2_22  and  C17_24 
REMARK   10  A    between atoms: C17_24  and  O4_26 
REMARK   11  A    between atoms: C17_24  and  C19_28 
REMARK   12  A    between atoms: C19_28  and  C20_30 
ROOT
HETATM    1  C1  UNL     1      10.316  33.404  28.061  1.00  0.00     0.112 C 
HETATM    2  C2  UNL     1       9.666  34.565  27.464  1.00  0.00    -0.104 C 
HETATM    3  C3  UNL     1       9.109  35.517  26.978  1.00  0.00    -0.049 C 
ENDROOT
BRANCH   3   4
HETATM    4  C4  UNL     1       8.415  36.664  26.401  1.00  0.00     0.087 A 
HETATM    5  C5  UNL     1       7.412  37.380  27.012  1.00  0.00     0.041 A 
HETATM    6  C6  UNL     1       7.035  38.383  26.114  1.00  0.00     0.028 A 
HETATM    7  C7  UNL     1       7.815  38.235  25.004  1.00  0.00     0.010 A 
HETATM    8  N3  UNL     1       8.655  37.175  25.203  1.00  0.00    -0.353 N 
ATOM      9  H3  UNL     1       9.351  36.835  24.540  1.00  0.00     0.166 HD
BRANCH   7  10
HETATM   10  C8  UNL     1       7.805  39.017  23.762  1.00  0.00     0.059 C 
BRANCH  10  11
HETATM   11  C9  UNL     1       7.006  40.262  23.762  1.00  0.00     0.041 C 
BRANCH  11  12
HETATM   12  C10 UNL     1       5.696  40.231  23.064  1.00  0.00     0.179 C 
BRANCH  12  13
HETATM   13  N1  UNL     1       5.227  38.878  22.811  1.00  0.00    -0.324 N 
HETATM   14  C11 UNL     1       3.872  38.517  22.750  1.00  0.00     0.362 C 
HETATM   15  O1  UNL     1       2.996  39.383  22.917  1.00  0.00    -0.238 OA
ATOM     16  H1  UNL     1       5.924  38.148  22.670  1.00  0.00     0.165 HD
BRANCH  14  17
HETATM   17  O2  UNL     1       3.498  37.222  22.508  1.00  0.00    -0.294 OA
BRANCH  17  18
HETATM   18  C12 UNL     1       2.870  36.376  23.430  1.00  0.00     0.061 C 
HETATM   19  C13 UNL     1       1.387  36.502  23.479  1.00  0.00     0.046 C 
HETATM   20  C14 UNL     1       3.201  34.940  23.001  1.00  0.00     0.046 C 
HETATM   21  C15 UNL     1       3.421  36.521  24.837  1.00  0.00     0.046 C 
ENDBRANCH  17  18
ENDBRANCH  14  17
ENDBRANCH  12  13
BRANCH  12  22
HETATM   22  C16 UNL     1       5.810  40.950  21.781  1.00  0.00     0.243 C 
HETATM   23  O3  UNL     1       5.214  42.042  21.621  1.00  0.00    -0.271 OA
HETATM   24  N2  UNL     1       6.588  40.415  20.722  1.00  0.00    -0.322 N 
ATOM     25  H2  UNL     1       7.062  39.527  20.887  1.00  0.00     0.166 HD
BRANCH  24  26
HETATM   26  C17 UNL     1       6.760  41.034  19.428  1.00  0.00     0.193 C 
HETATM   27  C18 UNL     1       5.455  40.951  18.628  1.00  0.00     0.080 C 
BRANCH  26  28
HETATM   28  O4  UNL     1       6.948  42.416  19.644  1.00  0.00    -0.365 OA
ATOM     29  H4  UNL     1       6.825  42.852  18.810  1.00  0.00     0.213 HD
ENDBRANCH  26  28
BRANCH  26  30
HETATM   30  C19 UNL     1       7.889  40.534  18.644  1.00  0.00     0.191 C 
HETATM   31  O5  UNL     1       8.166  40.917  17.535  1.00  0.00    -0.292 OA
BRANCH  30  32
HETATM   32  C20 UNL     1       8.788  39.471  19.223  1.00  0.00     0.168 C 
HETATM   33 BR1  UNL     1      10.149  40.222  20.356  1.00  0.00    -0.088 Br
ENDBRANCH  30  32
ENDBRANCH  26  30
ENDBRANCH  24  26
ENDBRANCH  12  22
ENDBRANCH  11  12
ENDBRANCH  10  11
ENDBRANCH   7  10
ENDBRANCH   3   4
TORSDOF 12
ENDMDL
MODEL 5
REMARK VINA RESULT: -6.134046201      3.354      5.889
REMARK  12 active torsions:
REMARK  status: ('A' for Active; 'I' for Inactive)
REMARK    1  A    between atoms: C3_3  and  C4_4 
REMARK    2  A    between atoms: C7_7  and  C8_8 
REMARK    3  A    between atoms: C8_8  and  C9_9 
REMARK    4  A    between atoms: C9_9  and  C10_10 
REMARK    5  A    between atoms: C10_10  and  N1_11 
REMARK    6  A    between atoms: C10_10  and  C16_20 
REMARK       I    between atoms: N1_11  and  C11_13 
REMARK    7  A    between atoms: C11_13  and  O2_15 
REMARK    8  A    between atoms: O2_15  and  C12_16 
REMARK       I    between atoms: C16_20  and  N2_22 
REMARK    9  A    between atoms: N2_22  and  C17_24 
REMARK   10  A    between atoms: C17_24  and  O4_26 
REMARK   11  A    between atoms: C17_24  and  C19_28 
REMARK   12  A    between atoms: C19_28  and  C20_30 
ROOT
HETATM    1  C1  UNL     1      10.153  30.961  27.934  1.00  0.00     0.112 C 
HETATM    2  C2  UNL     1       9.827  32.362  27.688  1.00  0.00    -0.104 C 
HETATM    3  C3  UNL     1       9.573  33.520  27.470  1.00  0.00    -0.049 C 
ENDROOT
BRANCH   3   4
HETATM    4  C4  UNL     1       9.279  34.921  27.188  1.00  0.00     0.087 A 
HETATM    5  C5  UNL     1       9.111  35.907  28.132  1.00  0.00     0.041 A 
HETATM    6  C6  UNL     1       8.848  37.088  27.432  1.00  0.00     0.028 A 
HETATM    7  C7  UNL     1       8.866  36.774  26.104  1.00  0.00     0.010 A 
HETATM    8  N3  UNL     1       9.133  35.440  25.978  1.00  0.00    -0.353 N 
ATOM      9  H3  UNL     1       9.209  34.929  25.099  1.00  0.00     0.166 HD
BRANCH   7  10
HETATM   10  C8  UNL     1       8.627  37.648  24.949  1.00  0.00     0.059 C 
BRANCH  10  11
HETATM   11  C9  UNL     1       7.321  38.339  24.893  1.00  0.00     0.041 C 
BRANCH  11  12
HETATM   12  C10 UNL     1       6.544  38.228  23.633  1.00  0.00     0.179 C 
BRANCH  12  13
HETATM   13  N1  UNL     1       6.546  39.462  22.862  1.00  0.00    -0.324 N 
HETATM   14  C11 UNL     1       7.562  39.824  21.965  1.00  0.00     0.362 C 
HETATM   15  O1  UNL     1       8.533  39.066  21.796  1.00  0.00    -0.238 OA
ATOM     16  H1  UNL     1       5.761  40.102  22.981  1.00  0.00     0.165 HD
BRANCH  14  17
HETATM   17  O2  UNL     1       7.501  41.003  21.269  1.00  0.00    -0.294 OA
BRANCH  17  18
HETATM   18  C12 UNL     1       7.272  41.118  19.892  1.00  0.00     0.061 C 
HETATM   19  C13 UNL     1       7.875  40.033  19.069  1.00  0.00     0.046 C 
HETATM   20  C14 UNL     1       5.751  41.059  19.698  1.00  0.00     0.046 C 
HETATM   21  C15 UNL     1       7.705  42.459  19.331  1.00  0.00     0.046 C 
ENDBRANCH  17  18
ENDBRANCH  14  17
ENDBRANCH  12  13
BRANCH  12  22
HETATM   22  C16 UNL     1       5.151  37.859  23.948  1.00  0.00     0.243 C 
HETATM   23  O3  UNL     1       4.472  38.582  24.716  1.00  0.00    -0.271 OA
HETATM   24  N2  UNL     1       4.571  36.690  23.392  1.00  0.00    -0.322 N 
ATOM     25  H2  UNL     1       5.151  36.127  22.770  1.00  0.00     0.166 HD
BRANCH  24  26
HETATM   26  C17 UNL     1       3.222  36.237  23.640  1.00  0.00     0.193 C 
HETATM   27  C18 UNL     1       3.078  34.767  23.229  1.00  0.00     0.080 C 
BRANCH  26  28
HETATM   28  O4  UNL     1       3.033  36.227  25.040  1.00  0.00    -0.365 OA
ATOM     29  H4  UNL     1       2.201  36.649  25.215  1.00  0.00     0.213 HD
ENDBRANCH  26  28
BRANCH  26  30
HETATM   30  C19 UNL     1       2.170  37.057  23.042  1.00  0.00     0.191 C 
HETATM   31  O5  UNL     1       1.331  37.650  23.672  1.00  0.00    -0.292 OA
BRANCH  30  32
HETATM   32  C20 UNL     1       2.091  37.192  21.542  1.00  0.00     0.168 C 
HETATM   33 BR1  UNL     1       2.849  38.852  20.932  1.00  0.00    -0.088 Br
ENDBRANCH  30  32
ENDBRANCH  26  30
ENDBRANCH  24  26
ENDBRANCH  12  22
ENDBRANCH  11  12
ENDBRANCH  10  11
ENDBRANCH   7  10
ENDBRANCH   3   4
TORSDOF 12
ENDMDL
