MODEL 1
REMARK VINA RESULT: -7.536329347      0.000      0.000
REMARK  8 active torsions:
REMARK  status: ('A' for Active; 'I' for Inactive)
REMARK    1  A    between atoms: C2_2  and  C15_21 
REMARK    2  A    between atoms: C3_3  and  C4_4 
REMARK    3  A    between atoms: C4_4  and  C5_5 
REMARK    4  A    between atoms: C8_9  and  O1_10 
REMARK    5  A    between atoms: O1_10  and  C9_11 
REMARK    6  A    between atoms: C9_11  and  C10_12 
REMARK    7  A    between atoms: C9_11  and  C11_15 
REMARK       I    between atoms: C15_21  and  N2_23 
REMARK    8  A    between atoms: C16_25  and  C17_26 
ROOT
HETATM    1  C4  UNL     1       7.166  40.977  22.248  1.00  0.00     0.067 C 
ENDROOT
BRANCH   1   2
HETATM    2  C3  UNL     1       5.733  40.929  21.896  1.00  0.00    -0.010 C 
HETATM    3  C2  UNL     1       5.293  41.043  20.659  1.00  0.00     0.003 C 
HETATM    4  C1  UNL     1       6.239  41.235  19.530  1.00  0.00     0.054 C 
BRANCH   3   5
HETATM    5  C15 UNL     1       3.860  40.960  20.372  1.00  0.00     0.250 C 
HETATM    6  O5  UNL     1       3.530  40.695  19.177  1.00  0.00    -0.268 OA
HETATM    7  N2  UNL     1       2.868  41.151  21.314  1.00  0.00    -0.331 N 
HETATM    8  C16 UNL     1       2.121  40.400  21.973  1.00  0.00     0.122 C 
ATOM      9  H2  UNL     1       2.710  42.138  21.520  1.00  0.00     0.168 HD
BRANCH   8  10
HETATM   10  C17 UNL     1       2.068  38.960  21.944  1.00  0.00     0.069 A 
HETATM   11  C18 UNL     1       2.074  38.070  22.990  1.00  0.00     0.108 A 
HETATM   12  C19 UNL     1       2.022  36.765  22.498  1.00  0.00     0.262 A 
HETATM   13  O6  UNL     1       2.012  35.703  23.177  1.00  0.00    -0.267 OA
HETATM   14  N3  UNL     1       1.987  36.909  21.169  1.00  0.00    -0.266 N 
HETATM   15  N4  UNL     1       2.013  38.177  20.828  1.00  0.00    -0.296 N 
ATOM     16  H3  UNL     1       1.944  36.135  20.506  1.00  0.00     0.190 HD
ATOM     17  H4  UNL     1       1.995  38.526  19.869  1.00  0.00     0.187 HD
ENDBRANCH   8  10
ENDBRANCH   3   5
ENDBRANCH   1   2
BRANCH   1  18
HETATM   18  C5  UNL     1       7.508  39.804  23.067  1.00  0.00    -0.047 A 
HETATM   19  C6  UNL     1       6.445  39.011  23.523  1.00  0.00     0.029 A 
HETATM   20  C7  UNL     1       6.683  37.908  24.297  1.00  0.00     0.044 A 
HETATM   21 BR1  UNL     1       5.256  36.796  24.943  1.00  0.00    -0.048 Br
HETATM   22  C8  UNL     1       8.011  37.578  24.632  1.00  0.00     0.088 A 
HETATM   23  C12 UNL     1       9.070  38.342  24.195  1.00  0.00     0.045 A 
HETATM   24  C13 UNL     1       8.796  39.465  23.404  1.00  0.00    -0.053 A 
HETATM   25  C14 UNL     1       9.958  40.257  22.955  1.00  0.00     0.049 C 
BRANCH  22  26
HETATM   26  O1  UNL     1       8.140  36.456  25.411  1.00  0.00    -0.325 OA
BRANCH  26  27
HETATM   27  C9  UNL     1       9.165  36.232  26.321  1.00  0.00     0.318 C 
BRANCH  27  28
HETATM   28  C10 UNL     1       8.733  36.594  27.722  1.00  0.00     0.271 C 
HETATM   29  N1  UNL     1       7.383  36.445  28.055  1.00  0.00    -0.059 NA
HETATM   30  O2  UNL     1       9.579  37.009  28.529  1.00  0.00    -0.273 OA
ENDBRANCH  27  28
BRANCH  27  31
HETATM   31  C11 UNL     1       9.600  34.791  26.321  1.00  0.00     0.212 C 
HETATM   32  O3  UNL     1       9.983  34.308  25.235  1.00  0.00    -0.646 OA
HETATM   33  O4  UNL     1       9.597  33.992  27.442  1.00  0.00    -0.646 OA
ENDBRANCH  27  31
ENDBRANCH  26  27
ENDBRANCH  22  26
ENDBRANCH   1  18
TORSDOF 8
ENDMDL
MODEL 2
REMARK VINA RESULT: -7.274449238      2.851      9.009
REMARK  8 active torsions:
REMARK  status: ('A' for Active; 'I' for Inactive)
REMARK    1  A    between atoms: C2_2  and  C15_21 
REMARK    2  A    between atoms: C3_3  and  C4_4 
REMARK    3  A    between atoms: C4_4  and  C5_5 
REMARK    4  A    between atoms: C8_9  and  O1_10 
REMARK    5  A    between atoms: O1_10  and  C9_11 
REMARK    6  A    between atoms: C9_11  and  C10_12 
REMARK    7  A    between atoms: C9_11  and  C11_15 
REMARK       I    between atoms: C15_21  and  N2_23 
REMARK    8  A    between atoms: C16_25  and  C17_26 
ROOT
HETATM    1  C4  UNL     1       5.250  36.807  26.126  1.00  0.00     0.067 C 
ENDROOT
BRANCH   1   2
HETATM    2  C3  UNL     1       6.702  36.550  26.217  1.00  0.00    -0.010 C 
HETATM    3  C2  UNL     1       7.460  37.045  27.175  1.00  0.00     0.003 C 
HETATM    4  C1  UNL     1       6.879  37.910  28.235  1.00  0.00     0.054 C 
BRANCH   3   5
HETATM    5  C15 UNL     1       8.888  36.732  27.225  1.00  0.00     0.250 C 
HETATM    6  O5  UNL     1       9.585  37.366  28.074  1.00  0.00    -0.268 OA
HETATM    7  N2  UNL     1       9.507  35.801  26.413  1.00  0.00    -0.331 N 
HETATM    8  C16 UNL     1       9.905  34.628  26.561  1.00  0.00     0.122 C 
ATOM      9  H2  UNL     1       9.678  36.156  25.472  1.00  0.00     0.168 HD
BRANCH   8  10
HETATM   10  C17 UNL     1       9.827  33.812  27.746  1.00  0.00     0.069 A 
HETATM   11  C18 UNL     1       9.590  34.188  29.046  1.00  0.00     0.108 A 
HETATM   12  C19 UNL     1       9.616  33.065  29.874  1.00  0.00     0.262 A 
HETATM   13  O6  UNL     1       9.437  33.044  31.122  1.00  0.00    -0.267 OA
HETATM   14  N3  UNL     1       9.868  32.045  29.047  1.00  0.00    -0.266 N 
HETATM   15  N4  UNL     1       9.995  32.459  27.806  1.00  0.00    -0.296 N 
ATOM     16  H3  UNL     1       9.951  31.072  29.341  1.00  0.00     0.190 HD
ATOM     17  H4  UNL     1      10.189  31.858  27.006  1.00  0.00     0.187 HD
ENDBRANCH   8  10
ENDBRANCH   3   5
ENDBRANCH   1   2
BRANCH   1  18
HETATM   18  C5  UNL     1       4.949  37.456  24.840  1.00  0.00    -0.047 A 
HETATM   19  C6  UNL     1       5.895  38.365  24.345  1.00  0.00     0.029 A 
HETATM   20  C7  UNL     1       5.681  39.014  23.160  1.00  0.00     0.044 A 
HETATM   21 BR1  UNL     1       6.951  40.266  22.448  1.00  0.00    -0.048 Br
HETATM   22  C8  UNL     1       4.496  38.759  22.442  1.00  0.00     0.088 A 
HETATM   23  C12 UNL     1       3.554  37.870  22.908  1.00  0.00     0.045 A 
HETATM   24  C13 UNL     1       3.800  37.220  24.124  1.00  0.00    -0.053 A 
HETATM   25  C14 UNL     1       2.766  36.274  24.589  1.00  0.00     0.049 C 
BRANCH  22  26
HETATM   26  O1  UNL     1       4.379  39.461  21.269  1.00  0.00    -0.325 OA
BRANCH  26  27
HETATM   27  C9  UNL     1       3.282  40.235  20.910  1.00  0.00     0.318 C 
BRANCH  27  28
HETATM   28  C10 UNL     1       3.065  41.355  21.897  1.00  0.00     0.271 C 
HETATM   29  N1  UNL     1       4.010  42.386  21.944  1.00  0.00    -0.059 NA
HETATM   30  O2  UNL     1       2.066  41.331  22.632  1.00  0.00    -0.273 OA
ENDBRANCH  27  28
BRANCH  27  31
HETATM   31  C11 UNL     1       3.456  40.840  19.542  1.00  0.00     0.212 C 
HETATM   32  O3  UNL     1       2.459  41.389  19.028  1.00  0.00    -0.646 OA
HETATM   33  O4  UNL     1       4.641  40.819  18.842  1.00  0.00    -0.646 OA
ENDBRANCH  27  31
ENDBRANCH  26  27
ENDBRANCH  22  26
ENDBRANCH   1  18
TORSDOF 8
ENDMDL
MODEL 3
REMARK VINA RESULT: -7.273129283      2.569      3.621
REMARK  8 active torsions:
REMARK  status: ('A' for Active; 'I' for Inactive)
REMARK    1  A    between atoms: C2_2  and  C15_21 
REMARK    2  A    between atoms: C3_3  and  C4_4 
REMARK    3  A    between atoms: C4_4  and  C5_5 
REMARK    4  A    between atoms: C8_9  and  O1_10 
REMARK    5  A    between atoms: O1_10  and  C9_11 
REMARK    6  A    between atoms: C9_11  and  C10_12 
REMARK    7  A    between atoms: C9_11  and  C11_15 
REMARK       I    between atoms: C15_21  and  N2_23 
REMARK    8  A    between atoms: C16_25  and  C17_26 
ROOT
HETATM    1  C4  UNL     1       4.397  40.601  26.159  1.00  0.00     0.067 C 
ENDROOT
BRANCH   1   2
HETATM    2  C3  UNL     1       3.265  40.000  25.424  1.00  0.00    -0.010 C 
HETATM    3  C2  UNL     1       2.907  40.386  24.216  1.00  0.00     0.003 C 
HETATM    4  C1  UNL     1       3.639  41.474  23.517  1.00  0.00     0.054 C 
BRANCH   3   5
HETATM    5  C15 UNL     1       1.792  39.732  23.531  1.00  0.00     0.250 C 
HETATM    6  O5  UNL     1       1.637  40.002  22.302  1.00  0.00    -0.268 OA
HETATM    7  N2  UNL     1       0.916  38.854  24.139  1.00  0.00    -0.331 N 
HETATM    8  C16 UNL     1       0.784  37.613  24.159  1.00  0.00     0.122 C 
ATOM      9  H2  UNL     1       0.212  39.331  24.702  1.00  0.00     0.168 HD
BRANCH   8  10
HETATM   10  C17 UNL     1       1.592  36.627  23.488  1.00  0.00     0.069 A 
HETATM   11  C18 UNL     1       2.537  35.778  24.009  1.00  0.00     0.108 A 
HETATM   12  C19 UNL     1       3.085  34.999  22.989  1.00  0.00     0.262 A 
HETATM   13  O6  UNL     1       3.976  34.116  23.110  1.00  0.00    -0.267 OA
HETATM   14  N3  UNL     1       2.451  35.402  21.883  1.00  0.00    -0.266 N 
HETATM   15  N4  UNL     1       1.580  36.348  22.152  1.00  0.00    -0.296 N 
ATOM     16  H3  UNL     1       2.621  35.024  20.951  1.00  0.00     0.190 HD
ATOM     17  H4  UNL     1       0.982  36.807  21.464  1.00  0.00     0.187 HD
ENDBRANCH   8  10
ENDBRANCH   3   5
ENDBRANCH   1   2
BRANCH   1  18
HETATM   18  C5  UNL     1       5.469  39.603  26.305  1.00  0.00    -0.047 A 
HETATM   19  C6  UNL     1       6.430  39.542  25.285  1.00  0.00     0.029 A 
HETATM   20  C7  UNL     1       7.451  38.635  25.346  1.00  0.00     0.044 A 
HETATM   21 BR1  UNL     1       8.786  38.518  23.971  1.00  0.00    -0.048 Br
HETATM   22  C8  UNL     1       7.527  37.760  26.448  1.00  0.00     0.088 A 
HETATM   23  C12 UNL     1       6.596  37.802  27.460  1.00  0.00     0.045 A 
HETATM   24  C13 UNL     1       5.561  38.741  27.371  1.00  0.00    -0.053 A 
HETATM   25  C14 UNL     1       4.584  38.756  28.477  1.00  0.00     0.049 C 
BRANCH  22  26
HETATM   26  O1  UNL     1       8.588  36.890  26.412  1.00  0.00    -0.325 OA
BRANCH  26  27
HETATM   27  C9  UNL     1       8.659  35.692  27.112  1.00  0.00     0.318 C 
BRANCH  27  28
HETATM   28  C10 UNL     1       9.595  34.723  26.432  1.00  0.00     0.271 C 
HETATM   29  N1  UNL     1       9.624  33.401  26.890  1.00  0.00    -0.059 NA
HETATM   30  O2  UNL     1      10.304  35.121  25.495  1.00  0.00    -0.273 OA
ENDBRANCH  27  28
BRANCH  27  31
HETATM   31  C11 UNL     1       9.145  35.903  28.522  1.00  0.00     0.212 C 
HETATM   32  O3  UNL     1       9.864  36.901  28.736  1.00  0.00    -0.646 OA
HETATM   33  O4  UNL     1       8.840  35.063  29.568  1.00  0.00    -0.646 OA
ENDBRANCH  27  31
ENDBRANCH  26  27
ENDBRANCH  22  26
ENDBRANCH   1  18
TORSDOF 8
ENDMDL
MODEL 4
REMARK VINA RESULT: -7.213629256      5.222      7.289
REMARK  8 active torsions:
REMARK  status: ('A' for Active; 'I' for Inactive)
REMARK    1  A    between atoms: C2_2  and  C15_21 
REMARK    2  A    between atoms: C3_3  and  C4_4 
REMARK    3  A    between atoms: C4_4  and  C5_5 
REMARK    4  A    between atoms: C8_9  and  O1_10 
REMARK    5  A    between atoms: O1_10  and  C9_11 
REMARK    6  A    between atoms: C9_11  and  C10_12 
REMARK    7  A    between atoms: C9_11  and  C11_15 
REMARK       I    between atoms: C15_21  and  N2_23 
REMARK    8  A    between atoms: C16_25  and  C17_26 
ROOT
HETATM    1  C4  UNL     1       1.837  37.464  25.877  1.00  0.00     0.067 C 
ENDROOT
BRANCH   1   2
HETATM    2  C3  UNL     1       1.195  37.957  27.113  1.00  0.00    -0.010 C 
HETATM    3  C2  UNL     1      -0.050  37.674  27.438  1.00  0.00     0.003 C 
HETATM    4  C1  UNL     1      -0.893  36.828  26.554  1.00  0.00     0.054 C 
BRANCH   3   5
HETATM    5  C15 UNL     1      -0.619  38.171  28.691  1.00  0.00     0.250 C 
HETATM    6  O5  UNL     1      -1.786  37.773  28.988  1.00  0.00    -0.268 OA
HETATM    7  N2  UNL     1       0.032  39.033  29.551  1.00  0.00    -0.331 N 
HETATM    8  C16 UNL     1       0.643  38.907  30.632  1.00  0.00     0.122 C 
ATOM      9  H2  UNL     1       0.010  40.000  29.226  1.00  0.00     0.168 HD
BRANCH   8  10
HETATM   10  C17 UNL     1       0.874  37.697  31.379  1.00  0.00     0.069 A 
HETATM   11  C18 UNL     1       1.768  36.683  31.136  1.00  0.00     0.108 A 
HETATM   12  C19 UNL     1       1.640  35.696  32.115  1.00  0.00     0.262 A 
HETATM   13  O6  UNL     1       2.303  34.628  32.200  1.00  0.00    -0.267 OA
HETATM   14  N3  UNL     1       0.671  36.147  32.919  1.00  0.00    -0.266 N 
HETATM   15  N4  UNL     1       0.213  37.307  32.508  1.00  0.00    -0.296 N 
ATOM     16  H3  UNL     1       0.331  35.653  33.745  1.00  0.00     0.190 HD
ATOM     17  H4  UNL     1      -0.528  37.840  32.965  1.00  0.00     0.187 HD
ENDBRANCH   8  10
ENDBRANCH   3   5
ENDBRANCH   1   2
BRANCH   1  18
HETATM   18  C5  UNL     1       3.290  37.369  26.086  1.00  0.00    -0.047 A 
HETATM   19  C6  UNL     1       3.815  37.991  27.228  1.00  0.00     0.029 A 
HETATM   20  C7  UNL     1       5.157  37.952  27.485  1.00  0.00     0.044 A 
HETATM   21 BR1  UNL     1       5.916  38.793  29.037  1.00  0.00    -0.048 Br
HETATM   22  C8  UNL     1       6.010  37.279  26.588  1.00  0.00     0.088 A 
HETATM   23  C12 UNL     1       5.517  36.660  25.461  1.00  0.00     0.045 A 
HETATM   24  C13 UNL     1       4.138  36.716  25.223  1.00  0.00    -0.053 A 
HETATM   25  C14 UNL     1       3.649  36.040  24.006  1.00  0.00     0.049 C 
BRANCH  22  26
HETATM   26  O1  UNL     1       7.336  37.300  26.938  1.00  0.00    -0.325 OA
BRANCH  26  27
HETATM   27  C9  UNL     1       8.147  36.178  27.053  1.00  0.00     0.318 C 
BRANCH  27  28
HETATM   28  C10 UNL     1       9.156  36.122  25.933  1.00  0.00     0.271 C 
HETATM   29  N1  UNL     1       9.972  34.990  25.834  1.00  0.00    -0.059 NA
HETATM   30  O2  UNL     1       9.234  37.072  25.138  1.00  0.00    -0.273 OA
ENDBRANCH  27  28
BRANCH  27  31
HETATM   31  C11 UNL     1       8.895  36.168  28.360  1.00  0.00     0.212 C 
HETATM   32  O3  UNL     1       9.604  37.163  28.623  1.00  0.00    -0.646 OA
HETATM   33  O4  UNL     1       8.837  35.133  29.266  1.00  0.00    -0.646 OA
ENDBRANCH  27  31
ENDBRANCH  26  27
ENDBRANCH  22  26
ENDBRANCH   1  18
TORSDOF 8
ENDMDL
MODEL 5
REMARK VINA RESULT: -7.184962856      4.635      9.665
REMARK  8 active torsions:
REMARK  status: ('A' for Active; 'I' for Inactive)
REMARK    1  A    between atoms: C2_2  and  C15_21 
REMARK    2  A    between atoms: C3_3  and  C4_4 
REMARK    3  A    between atoms: C4_4  and  C5_5 
REMARK    4  A    between atoms: C8_9  and  O1_10 
REMARK    5  A    between atoms: O1_10  and  C9_11 
REMARK    6  A    between atoms: C9_11  and  C10_12 
REMARK    7  A    between atoms: C9_11  and  C11_15 
REMARK       I    between atoms: C15_21  and  N2_23 
REMARK    8  A    between atoms: C16_25  and  C17_26 
ROOT
HETATM    1  C4  UNL     1       4.494  36.723  24.768  1.00  0.00     0.067 C 
ENDROOT
BRANCH   1   2
HETATM    2  C3  UNL     1       5.258  36.769  26.031  1.00  0.00    -0.010 C 
HETATM    3  C2  UNL     1       6.574  36.839  26.072  1.00  0.00     0.003 C 
HETATM    4  C1  UNL     1       7.373  36.872  24.820  1.00  0.00     0.054 C 
BRANCH   3   5
HETATM    5  C15 UNL     1       7.271  36.908  27.356  1.00  0.00     0.250 C 
HETATM    6  O5  UNL     1       6.574  36.719  28.398  1.00  0.00    -0.268 OA
HETATM    7  N2  UNL     1       8.622  37.165  27.492  1.00  0.00    -0.331 N 
HETATM    8  C16 UNL     1       9.634  36.470  27.716  1.00  0.00     0.122 C 
ATOM      9  H2  UNL     1       8.844  38.155  27.385  1.00  0.00     0.168 HD
BRANCH   8  10
HETATM   10  C17 UNL     1       9.699  35.044  27.917  1.00  0.00     0.069 A 
HETATM   11  C18 UNL     1       9.640  34.033  26.989  1.00  0.00     0.108 A 
HETATM   12  C19 UNL     1       9.730  32.798  27.631  1.00  0.00     0.262 A 
HETATM   13  O6  UNL     1       9.710  31.661  27.087  1.00  0.00    -0.267 OA
HETATM   14  N3  UNL     1       9.840  33.103  28.929  1.00  0.00    -0.266 N 
HETATM   15  N4  UNL     1       9.823  34.403  29.114  1.00  0.00    -0.296 N 
ATOM     16  H3  UNL     1       9.926  32.415  29.677  1.00  0.00     0.190 HD
ATOM     17  H4  UNL     1       9.893  34.866  30.021  1.00  0.00     0.187 HD
ENDBRANCH   8  10
ENDBRANCH   3   5
ENDBRANCH   1   2
BRANCH   1  18
HETATM   18  C5  UNL     1       3.054  36.754  25.068  1.00  0.00    -0.047 A 
HETATM   19  C6  UNL     1       2.682  36.788  26.420  1.00  0.00     0.029 A 
HETATM   20  C7  UNL     1       1.362  36.809  26.777  1.00  0.00     0.044 A 
HETATM   21 BR1  UNL     1       0.811  36.854  28.616  1.00  0.00    -0.048 Br
HETATM   22  C8  UNL     1       0.377  36.796  25.769  1.00  0.00     0.088 A 
HETATM   23  C12 UNL     1       0.719  36.764  24.436  1.00  0.00     0.045 A 
HETATM   24  C13 UNL     1       2.078  36.743  24.100  1.00  0.00    -0.053 A 
HETATM   25  C14 UNL     1       2.403  36.709  22.660  1.00  0.00     0.049 C 
BRANCH  22  26
HETATM   26  O1  UNL     1      -0.913  36.818  26.234  1.00  0.00    -0.325 OA
BRANCH  26  27
HETATM   27  C9  UNL     1      -2.048  36.776  25.433  1.00  0.00     0.318 C 
BRANCH  27  28
HETATM   28  C10 UNL     1      -2.912  35.589  25.783  1.00  0.00     0.271 C 
HETATM   29  N1  UNL     1      -3.880  35.747  26.781  1.00  0.00    -0.059 NA
HETATM   30  O2  UNL     1      -2.741  34.516  25.183  1.00  0.00    -0.273 OA
ENDBRANCH  27  28
BRANCH  27  31
HETATM   31  C11 UNL     1      -2.879  38.023  25.585  1.00  0.00     0.212 C 
HETATM   32  O3  UNL     1      -2.601  38.785  26.534  1.00  0.00    -0.646 OA
HETATM   33  O4  UNL     1      -3.914  38.358  24.742  1.00  0.00    -0.646 OA
ENDBRANCH  27  31
ENDBRANCH  26  27
ENDBRANCH  22  26
ENDBRANCH   1  18
TORSDOF 8
ENDMDL
