MODEL 1
REMARK VINA RESULT: -9.381599833      0.000      0.000
REMARK  21 active torsions:
REMARK  status: ('A' for Active; 'I' for Inactive)
REMARK    1  A    between atoms: C2_2  and  C4_4 
REMARK    2  A    between atoms: C4_4  and  C5_5 
REMARK    3  A    between atoms: C5_5  and  N1_6 
REMARK    4  A    between atoms: C5_5  and  C13_23 
REMARK    5  A    between atoms: N1_6  and  C6_8 
REMARK    6  A    between atoms: C6_8  and  O1_9 
REMARK    7  A    between atoms: C6_8  and  C7_11 
REMARK    8  A    between atoms: C7_11  and  N2_12 
REMARK    9  A    between atoms: C7_11  and  C8_16 
REMARK       I    between atoms: C8_16  and  N3_18 
REMARK       I    between atoms: C13_23  and  N4_25 
REMARK   10  A    between atoms: N4_25  and  C14_27 
REMARK   11  A    between atoms: C14_27  and  O4_28 
REMARK   12  A    between atoms: C14_27  and  C15_30 
REMARK   13  A    between atoms: C15_30  and  C16_31 
REMARK   14  A    between atoms: C15_30  and  N5_39 
REMARK   15  A    between atoms: C16_31  and  C17_32 
REMARK   16  A    between atoms: N5_39  and  C24_41 
REMARK   17  A    between atoms: C24_41  and  O5_42 
REMARK   18  A    between atoms: C24_41  and  C25_44 
REMARK   19  A    between atoms: C25_44  and  N6_45 
REMARK   20  A    between atoms: C25_44  and  C31_54 
REMARK       I    between atoms: N6_45  and  C26_47 
REMARK   21  A    between atoms: C26_47  and  C27_49 
ROOT
HETATM    1  C27 UNL     1      65.050  22.381 -66.199  1.00  0.00     0.122 C 
HETATM    2  C28 UNL     1      64.521  21.556 -67.372  1.00  0.00     0.041 C 
HETATM    3  C29 UNL     1      65.477  23.708 -66.765  1.00  0.00     0.041 C 
HETATM    4  C30 UNL     1      64.006  22.584 -65.217  1.00  0.00     0.078 C 
HETATM    5  N7  UNL     1      63.180  22.730 -64.421  1.00  0.00    -0.196 NA
ENDROOT
BRANCH   1   6
HETATM    6  C26 UNL     1      66.202  21.712 -65.536  1.00  0.00     0.240 C 
HETATM    7  N6  UNL     1      66.612  22.153 -64.250  1.00  0.00    -0.347 N 
ATOM      8  H6  UNL     1      66.112  22.920 -63.799  1.00  0.00     0.163 HD
HETATM    9  O6  UNL     1      66.774  20.776 -66.142  1.00  0.00    -0.272 OA
BRANCH   7  10
HETATM   10  C25 UNL     1      67.757  21.516 -63.552  1.00  0.00     0.162 C 
BRANCH  10  11
HETATM   11  C24 UNL     1      67.280  20.673 -62.475  1.00  0.00     0.139 C 
BRANCH  11  12
HETATM   12  N5  UNL     1      67.771  19.417 -62.045  1.00  0.00    -0.342 N 
ATOM     13  H5  UNL     1      67.544  18.589 -62.596  1.00  0.00     0.167 HD
BRANCH  12  14
HETATM   14  C15 UNL     1      68.572  19.260 -60.868  1.00  0.00     0.037 C 
BRANCH  14  15
HETATM   15  C14 UNL     1      67.985  18.368 -59.859  1.00  0.00     0.267 C 
BRANCH  15  16
HETATM   16  N4  UNL     1      68.604  18.420 -58.558  1.00  0.00    -0.328 N 
HETATM   17  C13 UNL     1      68.305  19.474 -57.638  1.00  0.00     0.242 C 
HETATM   18  O3  UNL     1      67.458  20.335 -58.059  1.00  0.00    -0.271 OA
ATOM     19  H4  UNL     1      69.266  17.693 -58.289  1.00  0.00     0.165 HD
BRANCH  17  20
HETATM   20  C5  UNL     1      68.854  19.663 -56.291  1.00  0.00     0.176 C 
BRANCH  20  21
HETATM   21  C4  UNL     1      69.267  18.324 -55.704  1.00  0.00     0.038 C 
BRANCH  21  22
HETATM   22  C2  UNL     1      70.719  18.035 -55.753  1.00  0.00    -0.020 C 
HETATM   23  C1  UNL     1      71.196  17.178 -56.880  1.00  0.00     0.009 C 
HETATM   24  C3  UNL     1      71.448  19.379 -55.795  1.00  0.00     0.009 C 
ENDBRANCH  21  22
ENDBRANCH  20  21
BRANCH  20  25
HETATM   25  N1  UNL     1      68.125  20.397 -55.359  1.00  0.00    -0.359 N 
ATOM     26  H1  UNL     1      67.438  19.874 -54.816  1.00  0.00     0.162 HD
BRANCH  25  27
HETATM   27  C6  UNL     1      68.217  21.747 -55.081  1.00  0.00     0.152 C 
BRANCH  27  28
HETATM   28  O1  UNL     1      66.985  22.440 -55.014  1.00  0.00    -0.348 OA
ATOM     29  H1  UNL     1      67.024  23.305 -54.623  1.00  0.00     0.219 HD
ENDBRANCH  27  28
BRANCH  27  30
HETATM   30  C7  UNL     1      69.223  22.618 -55.740  1.00  0.00     0.348 C 
BRANCH  30  31
HETATM   31  N2  UNL     1      68.492  23.221 -56.899  1.00  0.00    -0.059 N 
ATOM     32  H23 UNL     1      68.684  24.212 -57.044  1.00  0.00     0.275 HD
ATOM     33  H22 UNL     1      68.825  22.906 -57.811  1.00  0.00     0.275 HD
ATOM     34  H21 UNL     1      67.511  23.009 -56.717  1.00  0.00     0.275 HD
ENDBRANCH  30  31
BRANCH  30  35
HETATM   35  C8  UNL     1      69.653  23.803 -54.958  1.00  0.00     0.258 C 
HETATM   36  O2  UNL     1      68.845  24.223 -54.064  1.00  0.00    -0.271 OA
HETATM   37  N3  UNL     1      70.872  24.485 -55.129  1.00  0.00    -0.350 N 
HETATM   38  C9  UNL     1      71.933  24.299 -56.091  1.00  0.00     0.126 C 
HETATM   39  C12 UNL     1      71.276  25.573 -54.215  1.00  0.00     0.126 C 
HETATM   40  C10 UNL     1      72.573  25.691 -56.241  1.00  0.00     0.021 C 
HETATM   41  C11 UNL     1      72.432  26.271 -54.861  1.00  0.00     0.021 C 
ENDBRANCH  30  35
ENDBRANCH  27  30
ENDBRANCH  25  27
ENDBRANCH  20  25
ENDBRANCH  17  20
ENDBRANCH  15  16
BRANCH  15  42
HETATM   42  O4  UNL     1      67.982  17.020 -60.267  1.00  0.00    -0.371 OA
ATOM     43  H4  UNL     1      67.362  16.559 -59.713  1.00  0.00     0.212 HD
ENDBRANCH  15  42
ENDBRANCH  14  15
BRANCH  14  44
HETATM   44  C16 UNL     1      70.042  19.063 -61.071  1.00  0.00     0.065 C 
BRANCH  44  45
HETATM   45  C17 UNL     1      70.973  20.106 -60.617  1.00  0.00     0.013 C 
HETATM   46  C18 UNL     1      72.250  19.382 -60.205  1.00  0.00    -0.026 C 
HETATM   47  C19 UNL     1      73.113  19.571 -59.246  1.00  0.00    -0.030 C 
HETATM   48  C20 UNL     1      73.117  20.619 -58.193  1.00  0.00     0.027 C 
HETATM   49  C21 UNL     1      72.792  21.936 -58.807  1.00  0.00     0.004 C 
HETATM   50  C22 UNL     1      71.379  22.132 -59.219  1.00  0.00     0.001 C 
HETATM   51  C23 UNL     1      70.579  20.848 -59.361  1.00  0.00     0.009 C 
ENDBRANCH  44  45
ENDBRANCH  14  44
ENDBRANCH  12  14
ENDBRANCH  11  12
BRANCH  11  52
HETATM   52  O5  UNL     1      66.254  21.092 -61.785  1.00  0.00    -0.348 OA
ATOM     53  H5  UNL     1      66.362  20.987 -60.847  1.00  0.00     0.219 HD
ENDBRANCH  11  52
ENDBRANCH  10  11
BRANCH  10  54
HETATM   54  C31 UNL     1      68.800  22.527 -63.270  1.00  0.00     0.008 C 
HETATM   55  C32 UNL     1      68.935  23.011 -61.865  1.00  0.00     0.012 C 
HETATM   56  C33 UNL     1      70.181  22.059 -63.721  1.00  0.00     0.012 C 
ENDBRANCH  10  54
ENDBRANCH   7  10
ENDBRANCH   1   6
TORSDOF 21
ENDMDL
MODEL 2
REMARK VINA RESULT: -8.886226756      2.871     10.912
REMARK  21 active torsions:
REMARK  status: ('A' for Active; 'I' for Inactive)
REMARK    1  A    between atoms: C2_2  and  C4_4 
REMARK    2  A    between atoms: C4_4  and  C5_5 
REMARK    3  A    between atoms: C5_5  and  N1_6 
REMARK    4  A    between atoms: C5_5  and  C13_23 
REMARK    5  A    between atoms: N1_6  and  C6_8 
REMARK    6  A    between atoms: C6_8  and  O1_9 
REMARK    7  A    between atoms: C6_8  and  C7_11 
REMARK    8  A    between atoms: C7_11  and  N2_12 
REMARK    9  A    between atoms: C7_11  and  C8_16 
REMARK       I    between atoms: C8_16  and  N3_18 
REMARK       I    between atoms: C13_23  and  N4_25 
REMARK   10  A    between atoms: N4_25  and  C14_27 
REMARK   11  A    between atoms: C14_27  and  O4_28 
REMARK   12  A    between atoms: C14_27  and  C15_30 
REMARK   13  A    between atoms: C15_30  and  C16_31 
REMARK   14  A    between atoms: C15_30  and  N5_39 
REMARK   15  A    between atoms: C16_31  and  C17_32 
REMARK   16  A    between atoms: N5_39  and  C24_41 
REMARK   17  A    between atoms: C24_41  and  O5_42 
REMARK   18  A    between atoms: C24_41  and  C25_44 
REMARK   19  A    between atoms: C25_44  and  N6_45 
REMARK   20  A    between atoms: C25_44  and  C31_54 
REMARK       I    between atoms: N6_45  and  C26_47 
REMARK   21  A    between atoms: C26_47  and  C27_49 
ROOT
HETATM    1  C27 UNL     1      72.130  19.900 -58.095  1.00  0.00     0.122 C 
HETATM    2  C28 UNL     1      73.505  20.378 -58.557  1.00  0.00     0.041 C 
HETATM    3  C29 UNL     1      71.581  19.038 -59.199  1.00  0.00     0.041 C 
HETATM    4  C30 UNL     1      72.253  19.118 -56.883  1.00  0.00     0.078 C 
HETATM    5  N7  UNL     1      72.345  18.510 -55.903  1.00  0.00    -0.196 NA
ENDROOT
BRANCH   1   6
HETATM    6  C26 UNL     1      71.214  21.042 -57.832  1.00  0.00     0.240 C 
HETATM    7  N6  UNL     1      70.980  21.994 -58.860  1.00  0.00    -0.347 N 
ATOM      8  H6  UNL     1      71.443  21.881 -59.762  1.00  0.00     0.163 HD
HETATM    9  O6  UNL     1      70.676  21.124 -56.703  1.00  0.00    -0.272 OA
BRANCH   7  10
HETATM   10  C25 UNL     1      70.074  23.150 -58.642  1.00  0.00     0.162 C 
BRANCH  10  11
HETATM   11  C24 UNL     1      69.013  23.148 -59.628  1.00  0.00     0.139 C 
BRANCH  11  12
HETATM   12  N5  UNL     1      68.982  22.529 -60.900  1.00  0.00    -0.342 N 
ATOM     13  H5  UNL     1      69.861  22.394 -61.400  1.00  0.00     0.167 HD
BRANCH  12  14
HETATM   14  C15 UNL     1      67.768  22.083 -61.515  1.00  0.00     0.037 C 
BRANCH  14  15
HETATM   15  C14 UNL     1      67.619  22.501 -62.916  1.00  0.00     0.267 C 
BRANCH  15  16
HETATM   16  N4  UNL     1      66.489  21.934 -63.609  1.00  0.00    -0.328 N 
HETATM   17  C13 UNL     1      66.165  22.330 -64.945  1.00  0.00     0.242 C 
HETATM   18  O3  UNL     1      66.950  23.201 -65.455  1.00  0.00    -0.271 OA
ATOM     19  H4  UNL     1      65.911  21.238 -63.139  1.00  0.00     0.165 HD
BRANCH  17  20
HETATM   20  C5  UNL     1      65.053  21.849 -65.772  1.00  0.00     0.176 C 
BRANCH  20  21
HETATM   21  C4  UNL     1      65.482  21.772 -67.227  1.00  0.00     0.038 C 
BRANCH  21  22
HETATM   22  C2  UNL     1      65.259  20.461 -67.882  1.00  0.00    -0.020 C 
HETATM   23  C1  UNL     1      65.392  20.422 -69.370  1.00  0.00     0.009 C 
HETATM   24  C3  UNL     1      66.243  19.470 -67.259  1.00  0.00     0.009 C 
ENDBRANCH  21  22
ENDBRANCH  20  21
BRANCH  20  25
HETATM   25  N1  UNL     1      63.811  22.468 -65.664  1.00  0.00    -0.359 N 
ATOM     26  H1  UNL     1      63.310  22.314 -64.789  1.00  0.00     0.162 HD
BRANCH  25  27
HETATM   27  C6  UNL     1      63.174  23.264 -66.595  1.00  0.00     0.152 C 
BRANCH  27  28
HETATM   28  O1  UNL     1      62.871  24.578 -66.166  1.00  0.00    -0.348 OA
ATOM     29  H1  UNL     1      62.383  24.639 -65.353  1.00  0.00     0.219 HD
ENDBRANCH  27  28
BRANCH  27  30
HETATM   30  C7  UNL     1      62.050  22.758 -67.424  1.00  0.00     0.348 C 
BRANCH  30  31
HETATM   31  N2  UNL     1      60.940  23.733 -67.181  1.00  0.00    -0.059 N 
ATOM     32  H23 UNL     1      60.854  24.454 -67.899  1.00  0.00     0.275 HD
ATOM     33  H22 UNL     1      60.007  23.340 -67.302  1.00  0.00     0.275 HD
ATOM     34  H21 UNL     1      61.122  24.097 -66.246  1.00  0.00     0.275 HD
ENDBRANCH  30  31
BRANCH  30  35
HETATM   35  C8  UNL     1      62.253  22.835 -68.891  1.00  0.00     0.258 C 
HETATM   36  O2  UNL     1      62.596  23.970 -69.363  1.00  0.00    -0.271 OA
HETATM   37  N3  UNL     1      62.099  21.760 -69.786  1.00  0.00    -0.350 N 
HETATM   38  C9  UNL     1      61.653  20.404 -69.566  1.00  0.00     0.126 C 
HETATM   39  C12 UNL     1      62.453  21.894 -71.213  1.00  0.00     0.126 C 
HETATM   40  C10 UNL     1      61.029  19.977 -70.907  1.00  0.00     0.021 C 
HETATM   41  C11 UNL     1      61.876  20.704 -71.914  1.00  0.00     0.021 C 
ENDBRANCH  30  35
ENDBRANCH  27  30
ENDBRANCH  25  27
ENDBRANCH  20  25
ENDBRANCH  17  20
ENDBRANCH  15  16
BRANCH  15  42
HETATM   42  O4  UNL     1      68.764  22.224 -63.687  1.00  0.00    -0.371 OA
ATOM     43  H4  UNL     1      69.520  22.477 -63.169  1.00  0.00     0.212 HD
ENDBRANCH  15  42
ENDBRANCH  14  15
BRANCH  14  44
HETATM   44  C16 UNL     1      67.358  20.666 -61.257  1.00  0.00     0.065 C 
BRANCH  44  45
HETATM   45  C17 UNL     1      67.989  19.928 -60.153  1.00  0.00     0.013 C 
HETATM   46  C18 UNL     1      68.182  18.502 -60.655  1.00  0.00    -0.026 C 
HETATM   47  C19 UNL     1      68.090  17.334 -60.082  1.00  0.00    -0.030 C 
HETATM   48  C20 UNL     1      67.745  17.016 -58.672  1.00  0.00     0.027 C 
HETATM   49  C21 UNL     1      68.487  17.934 -57.764  1.00  0.00     0.004 C 
HETATM   50  C22 UNL     1      68.011  19.340 -57.729  1.00  0.00     0.001 C 
HETATM   51  C23 UNL     1      67.147  19.744 -58.912  1.00  0.00     0.009 C 
ENDBRANCH  44  45
ENDBRANCH  14  44
ENDBRANCH  12  14
ENDBRANCH  11  12
BRANCH  11  52
HETATM   52  O5  UNL     1      67.919  23.801 -59.342  1.00  0.00    -0.348 OA
ATOM     53  H5  UNL     1      67.154  23.242 -59.273  1.00  0.00     0.219 HD
ENDBRANCH  11  52
ENDBRANCH  10  11
BRANCH  10  54
HETATM   54  C31 UNL     1      70.870  24.381 -58.439  1.00  0.00     0.008 C 
HETATM   55  C32 UNL     1      70.431  25.321 -57.368  1.00  0.00     0.012 C 
HETATM   56  C33 UNL     1      72.344  24.071 -58.191  1.00  0.00     0.012 C 
ENDBRANCH  10  54
ENDBRANCH   7  10
ENDBRANCH   1   6
TORSDOF 21
ENDMDL
MODEL 3
REMARK VINA RESULT: -8.828192669      2.563     10.360
REMARK  21 active torsions:
REMARK  status: ('A' for Active; 'I' for Inactive)
REMARK    1  A    between atoms: C2_2  and  C4_4 
REMARK    2  A    between atoms: C4_4  and  C5_5 
REMARK    3  A    between atoms: C5_5  and  N1_6 
REMARK    4  A    between atoms: C5_5  and  C13_23 
REMARK    5  A    between atoms: N1_6  and  C6_8 
REMARK    6  A    between atoms: C6_8  and  O1_9 
REMARK    7  A    between atoms: C6_8  and  C7_11 
REMARK    8  A    between atoms: C7_11  and  N2_12 
REMARK    9  A    between atoms: C7_11  and  C8_16 
REMARK       I    between atoms: C8_16  and  N3_18 
REMARK       I    between atoms: C13_23  and  N4_25 
REMARK   10  A    between atoms: N4_25  and  C14_27 
REMARK   11  A    between atoms: C14_27  and  O4_28 
REMARK   12  A    between atoms: C14_27  and  C15_30 
REMARK   13  A    between atoms: C15_30  and  C16_31 
REMARK   14  A    between atoms: C15_30  and  N5_39 
REMARK   15  A    between atoms: C16_31  and  C17_32 
REMARK   16  A    between atoms: N5_39  and  C24_41 
REMARK   17  A    between atoms: C24_41  and  O5_42 
REMARK   18  A    between atoms: C24_41  and  C25_44 
REMARK   19  A    between atoms: C25_44  and  N6_45 
REMARK   20  A    between atoms: C25_44  and  C31_54 
REMARK       I    between atoms: N6_45  and  C26_47 
REMARK   21  A    between atoms: C26_47  and  C27_49 
ROOT
HETATM    1  C27 UNL     1      71.184  26.001 -57.109  1.00  0.00     0.122 C 
HETATM    2  C28 UNL     1      70.755  27.029 -58.154  1.00  0.00     0.041 C 
HETATM    3  C29 UNL     1      72.605  26.330 -56.739  1.00  0.00     0.041 C 
HETATM    4  C30 UNL     1      70.342  26.097 -55.935  1.00  0.00     0.078 C 
HETATM    5  N7  UNL     1      69.657  26.158 -55.005  1.00  0.00    -0.196 NA
ENDROOT
BRANCH   1   6
HETATM    6  C26 UNL     1      71.102  24.614 -57.640  1.00  0.00     0.240 C 
HETATM    7  N6  UNL     1      69.871  23.911 -57.553  1.00  0.00    -0.347 N 
ATOM      8  H6  UNL     1      69.062  24.366 -57.129  1.00  0.00     0.163 HD
HETATM    9  O6  UNL     1      72.131  24.110 -58.149  1.00  0.00    -0.272 OA
BRANCH   7  10
HETATM   10  C25 UNL     1      69.743  22.524 -58.068  1.00  0.00     0.162 C 
BRANCH  10  11
HETATM   11  C24 UNL     1      69.257  22.540 -59.432  1.00  0.00     0.139 C 
BRANCH  11  12
HETATM   12  N5  UNL     1      69.963  22.281 -60.631  1.00  0.00    -0.342 N 
ATOM     13  H5  UNL     1      70.852  22.757 -60.788  1.00  0.00     0.167 HD
BRANCH  12  14
HETATM   14  C15 UNL     1      69.482  21.379 -61.634  1.00  0.00     0.037 C 
BRANCH  14  15
HETATM   15  C14 UNL     1      69.368  21.977 -62.972  1.00  0.00     0.267 C 
BRANCH  15  16
HETATM   16  N4  UNL     1      68.116  21.740 -63.646  1.00  0.00    -0.328 N 
HETATM   17  C13 UNL     1      67.635  22.637 -64.652  1.00  0.00     0.242 C 
HETATM   18  O3  UNL     1      68.398  23.633 -64.897  1.00  0.00    -0.271 OA
ATOM     19  H4  UNL     1      67.564  20.918 -63.402  1.00  0.00     0.165 HD
BRANCH  17  20
HETATM   20  C5  UNL     1      66.388  22.531 -65.417  1.00  0.00     0.176 C 
BRANCH  20  21
HETATM   21  C4  UNL     1      66.102  23.841 -66.130  1.00  0.00     0.038 C 
BRANCH  21  22
HETATM   22  C2  UNL     1      66.255  23.804 -67.604  1.00  0.00    -0.020 C 
HETATM   23  C1  UNL     1      65.978  22.498 -68.275  1.00  0.00     0.009 C 
HETATM   24  C3  UNL     1      65.332  24.877 -68.184  1.00  0.00     0.009 C 
ENDBRANCH  21  22
ENDBRANCH  20  21
BRANCH  20  25
HETATM   25  N1  UNL     1      65.241  22.064 -64.781  1.00  0.00    -0.359 N 
ATOM     26  H1  UNL     1      65.376  21.298 -64.121  1.00  0.00     0.162 HD
BRANCH  25  27
HETATM   27  C6  UNL     1      63.943  22.509 -64.934  1.00  0.00     0.152 C 
BRANCH  27  28
HETATM   28  O1  UNL     1      63.205  22.655 -63.736  1.00  0.00    -0.348 OA
ATOM     29  H1  UNL     1      62.260  22.660 -63.837  1.00  0.00     0.219 HD
ENDBRANCH  27  28
BRANCH  27  30
HETATM   30  C7  UNL     1      63.046  21.969 -65.988  1.00  0.00     0.348 C 
BRANCH  30  31
HETATM   31  N2  UNL     1      61.885  21.400 -65.234  1.00  0.00    -0.059 N 
ATOM     32  H23 UNL     1      61.053  21.990 -65.241  1.00  0.00     0.275 HD
ATOM     33  H22 UNL     1      61.454  20.590 -65.681  1.00  0.00     0.275 HD
ATOM     34  H21 UNL     1      62.256  21.214 -64.301  1.00  0.00     0.275 HD
ENDBRANCH  30  31
BRANCH  30  35
HETATM   35  C8  UNL     1      62.413  22.982 -66.869  1.00  0.00     0.258 C 
HETATM   36  O2  UNL     1      62.030  24.065 -66.313  1.00  0.00    -0.271 OA
HETATM   37  N3  UNL     1      62.211  22.835 -68.253  1.00  0.00    -0.350 N 
HETATM   38  C9  UNL     1      62.461  21.716 -69.132  1.00  0.00     0.126 C 
HETATM   39  C12 UNL     1      61.696  23.949 -69.075  1.00  0.00     0.126 C 
HETATM   40  C10 UNL     1      61.431  21.872 -70.266  1.00  0.00     0.021 C 
HETATM   41  C11 UNL     1      61.306  23.364 -70.397  1.00  0.00     0.021 C 
ENDBRANCH  30  35
ENDBRANCH  27  30
ENDBRANCH  25  27
ENDBRANCH  20  25
ENDBRANCH  17  20
ENDBRANCH  15  16
BRANCH  15  42
HETATM   42  O4  UNL     1      70.395  21.560 -63.839  1.00  0.00    -0.371 OA
ATOM     43  H4  UNL     1      70.548  22.267 -64.456  1.00  0.00     0.212 HD
ENDBRANCH  15  42
ENDBRANCH  14  15
BRANCH  14  44
HETATM   44  C16 UNL     1      70.057  19.997 -61.634  1.00  0.00     0.065 C 
BRANCH  44  45
HETATM   45  C17 UNL     1      69.442  18.965 -60.788  1.00  0.00     0.013 C 
HETATM   46  C18 UNL     1      67.980  19.366 -60.630  1.00  0.00    -0.026 C 
HETATM   47  C19 UNL     1      67.136  19.291 -59.638  1.00  0.00    -0.030 C 
HETATM   48  C20 UNL     1      67.356  18.758 -58.269  1.00  0.00     0.027 C 
HETATM   49  C21 UNL     1      68.103  17.474 -58.355  1.00  0.00     0.004 C 
HETATM   50  C22 UNL     1      69.540  17.578 -58.716  1.00  0.00     0.001 C 
HETATM   51  C23 UNL     1      69.935  18.897 -59.361  1.00  0.00     0.009 C 
ENDBRANCH  44  45
ENDBRANCH  14  44
ENDBRANCH  12  14
ENDBRANCH  11  12
BRANCH  11  52
HETATM   52  O5  UNL     1      67.999  22.834 -59.625  1.00  0.00    -0.348 OA
ATOM     53  H5  UNL     1      67.537  22.189 -60.148  1.00  0.00     0.219 HD
ENDBRANCH  11  52
ENDBRANCH  10  11
BRANCH  10  54
HETATM   54  C31 UNL     1      69.058  21.676 -57.067  1.00  0.00     0.008 C 
HETATM   55  C32 UNL     1      69.893  20.729 -56.273  1.00  0.00     0.012 C 
HETATM   56  C33 UNL     1      68.251  22.509 -56.075  1.00  0.00     0.012 C 
ENDBRANCH  10  54
ENDBRANCH   7  10
ENDBRANCH   1   6
TORSDOF 21
ENDMDL
MODEL 4
REMARK VINA RESULT: -8.707780239      2.713     10.400
REMARK  21 active torsions:
REMARK  status: ('A' for Active; 'I' for Inactive)
REMARK    1  A    between atoms: C2_2  and  C4_4 
REMARK    2  A    between atoms: C4_4  and  C5_5 
REMARK    3  A    between atoms: C5_5  and  N1_6 
REMARK    4  A    between atoms: C5_5  and  C13_23 
REMARK    5  A    between atoms: N1_6  and  C6_8 
REMARK    6  A    between atoms: C6_8  and  O1_9 
REMARK    7  A    between atoms: C6_8  and  C7_11 
REMARK    8  A    between atoms: C7_11  and  N2_12 
REMARK    9  A    between atoms: C7_11  and  C8_16 
REMARK       I    between atoms: C8_16  and  N3_18 
REMARK       I    between atoms: C13_23  and  N4_25 
REMARK   10  A    between atoms: N4_25  and  C14_27 
REMARK   11  A    between atoms: C14_27  and  O4_28 
REMARK   12  A    between atoms: C14_27  and  C15_30 
REMARK   13  A    between atoms: C15_30  and  C16_31 
REMARK   14  A    between atoms: C15_30  and  N5_39 
REMARK   15  A    between atoms: C16_31  and  C17_32 
REMARK   16  A    between atoms: N5_39  and  C24_41 
REMARK   17  A    between atoms: C24_41  and  O5_42 
REMARK   18  A    between atoms: C24_41  and  C25_44 
REMARK   19  A    between atoms: C25_44  and  N6_45 
REMARK   20  A    between atoms: C25_44  and  C31_54 
REMARK       I    between atoms: N6_45  and  C26_47 
REMARK   21  A    between atoms: C26_47  and  C27_49 
ROOT
HETATM    1  C27 UNL     1      70.612  23.818 -56.849  1.00  0.00     0.122 C 
HETATM    2  C28 UNL     1      71.435  23.539 -55.593  1.00  0.00     0.041 C 
HETATM    3  C29 UNL     1      69.262  23.192 -56.628  1.00  0.00     0.041 C 
HETATM    4  C30 UNL     1      70.460  25.245 -57.042  1.00  0.00     0.078 C 
HETATM    5  N7  UNL     1      70.355  26.384 -57.211  1.00  0.00    -0.196 NA
ENDROOT
BRANCH   1   6
HETATM    6  C26 UNL     1      71.252  23.240 -58.062  1.00  0.00     0.240 C 
HETATM    7  N6  UNL     1      70.710  22.060 -58.636  1.00  0.00    -0.347 N 
ATOM      8  H6  UNL     1      69.891  21.625 -58.209  1.00  0.00     0.163 HD
HETATM    9  O6  UNL     1      72.256  23.821 -58.537  1.00  0.00    -0.272 OA
BRANCH   7  10
HETATM   10  C25 UNL     1      71.316  21.448 -59.845  1.00  0.00     0.162 C 
BRANCH  10  11
HETATM   11  C24 UNL     1      70.637  21.913 -61.036  1.00  0.00     0.139 C 
BRANCH  11  12
HETATM   12  N5  UNL     1      69.306  22.372 -61.179  1.00  0.00    -0.342 N 
ATOM     13  H5  UNL     1      69.050  23.267 -60.760  1.00  0.00     0.167 HD
BRANCH  12  14
HETATM   14  C15 UNL     1      68.303  21.635 -61.887  1.00  0.00     0.037 C 
BRANCH  14  15
HETATM   15  C14 UNL     1      67.904  22.242 -63.164  1.00  0.00     0.267 C 
BRANCH  15  16
HETATM   16  N4  UNL     1      66.990  21.459 -63.957  1.00  0.00    -0.328 N 
HETATM   17  C13 UNL     1      66.454  21.964 -65.185  1.00  0.00     0.242 C 
HETATM   18  O3  UNL     1      66.856  23.134 -65.508  1.00  0.00    -0.271 OA
ATOM     19  H4  UNL     1      66.720  20.529 -63.638  1.00  0.00     0.165 HD
BRANCH  17  20
HETATM   20  C5  UNL     1      65.519  21.291 -66.092  1.00  0.00     0.176 C 
BRANCH  20  21
HETATM   21  C4  UNL     1      66.026  21.377 -67.521  1.00  0.00     0.038 C 
BRANCH  21  22
HETATM   22  C2  UNL     1      65.749  20.188 -68.361  1.00  0.00    -0.020 C 
HETATM   23  C1  UNL     1      66.072  20.303 -69.815  1.00  0.00     0.009 C 
HETATM   24  C3  UNL     1      66.528  19.017 -67.761  1.00  0.00     0.009 C 
ENDBRANCH  21  22
ENDBRANCH  20  21
BRANCH  20  25
HETATM   25  N1  UNL     1      64.167  21.619 -66.036  1.00  0.00    -0.359 N 
ATOM     26  H1  UNL     1      63.518  20.897 -66.348  1.00  0.00     0.162 HD
BRANCH  25  27
HETATM   27  C6  UNL     1      63.597  22.802 -65.608  1.00  0.00     0.152 C 
BRANCH  27  28
HETATM   28  O1  UNL     1      63.032  22.771 -64.312  1.00  0.00    -0.348 OA
ATOM     29  H1  UNL     1      63.651  22.664 -63.599  1.00  0.00     0.219 HD
ENDBRANCH  27  28
BRANCH  27  30
HETATM   30  C7  UNL     1      62.726  23.619 -66.492  1.00  0.00     0.348 C 
BRANCH  30  31
HETATM   31  N2  UNL     1      62.909  25.022 -66.003  1.00  0.00    -0.059 N 
ATOM     32  H23 UNL     1      63.856  25.384 -66.120  1.00  0.00     0.275 HD
ATOM     33  H22 UNL     1      62.447  25.727 -66.576  1.00  0.00     0.275 HD
ATOM     34  H21 UNL     1      62.590  24.996 -65.034  1.00  0.00     0.275 HD
ENDBRANCH  30  31
BRANCH  30  35
HETATM   35  C8  UNL     1      63.150  23.697 -67.911  1.00  0.00     0.258 C 
HETATM   36  O2  UNL     1      63.808  24.734 -68.256  1.00  0.00    -0.271 OA
HETATM   37  N3  UNL     1      62.884  22.721 -68.889  1.00  0.00    -0.350 N 
HETATM   38  C9  UNL     1      62.111  21.502 -68.822  1.00  0.00     0.126 C 
HETATM   39  C12 UNL     1      63.461  22.817 -70.245  1.00  0.00     0.126 C 
HETATM   40  C10 UNL     1      61.605  21.282 -70.260  1.00  0.00     0.021 C 
HETATM   41  C11 UNL     1      62.732  21.823 -71.094  1.00  0.00     0.021 C 
ENDBRANCH  30  35
ENDBRANCH  27  30
ENDBRANCH  25  27
ENDBRANCH  20  25
ENDBRANCH  17  20
ENDBRANCH  15  16
BRANCH  15  42
HETATM   42  O4  UNL     1      69.006  22.553 -63.983  1.00  0.00    -0.371 OA
ATOM     43  H4  UNL     1      69.261  21.754 -64.429  1.00  0.00     0.212 HD
ENDBRANCH  15  42
ENDBRANCH  14  15
BRANCH  14  44
HETATM   44  C16 UNL     1      68.473  20.148 -61.949  1.00  0.00     0.065 C 
BRANCH  44  45
HETATM   45  C17 UNL     1      67.848  19.313 -60.914  1.00  0.00     0.013 C 
HETATM   46  C18 UNL     1      67.761  20.183 -59.666  1.00  0.00    -0.026 C 
HETATM   47  C19 UNL     1      67.902  19.933 -58.393  1.00  0.00    -0.030 C 
HETATM   48  C20 UNL     1      68.212  18.642 -57.728  1.00  0.00     0.027 C 
HETATM   49  C21 UNL     1      67.382  17.565 -58.333  1.00  0.00     0.004 C 
HETATM   50  C22 UNL     1      67.769  17.134 -59.701  1.00  0.00     0.001 C 
HETATM   51  C23 UNL     1      68.651  18.121 -60.447  1.00  0.00     0.009 C 
ENDBRANCH  44  45
ENDBRANCH  14  44
ENDBRANCH  12  14
ENDBRANCH  11  12
BRANCH  11  52
HETATM   52  O5  UNL     1      71.310  21.919 -62.154  1.00  0.00    -0.348 OA
ATOM     53  H5  UNL     1      71.955  22.616 -62.202  1.00  0.00     0.219 HD
ENDBRANCH  11  52
ENDBRANCH  10  11
BRANCH  10  54
HETATM   54  C31 UNL     1      71.496  19.993 -59.637  1.00  0.00     0.008 C 
HETATM   55  C32 UNL     1      72.544  19.302 -60.441  1.00  0.00     0.012 C 
HETATM   56  C33 UNL     1      71.757  19.658 -58.170  1.00  0.00     0.012 C 
ENDBRANCH  10  54
ENDBRANCH   7  10
ENDBRANCH   1   6
TORSDOF 21
ENDMDL
MODEL 5
REMARK VINA RESULT: -8.654603709      2.285      9.526
REMARK  21 active torsions:
REMARK  status: ('A' for Active; 'I' for Inactive)
REMARK    1  A    between atoms: C2_2  and  C4_4 
REMARK    2  A    between atoms: C4_4  and  C5_5 
REMARK    3  A    between atoms: C5_5  and  N1_6 
REMARK    4  A    between atoms: C5_5  and  C13_23 
REMARK    5  A    between atoms: N1_6  and  C6_8 
REMARK    6  A    between atoms: C6_8  and  O1_9 
REMARK    7  A    between atoms: C6_8  and  C7_11 
REMARK    8  A    between atoms: C7_11  and  N2_12 
REMARK    9  A    between atoms: C7_11  and  C8_16 
REMARK       I    between atoms: C8_16  and  N3_18 
REMARK       I    between atoms: C13_23  and  N4_25 
REMARK   10  A    between atoms: N4_25  and  C14_27 
REMARK   11  A    between atoms: C14_27  and  O4_28 
REMARK   12  A    between atoms: C14_27  and  C15_30 
REMARK   13  A    between atoms: C15_30  and  C16_31 
REMARK   14  A    between atoms: C15_30  and  N5_39 
REMARK   15  A    between atoms: C16_31  and  C17_32 
REMARK   16  A    between atoms: N5_39  and  C24_41 
REMARK   17  A    between atoms: C24_41  and  O5_42 
REMARK   18  A    between atoms: C24_41  and  C25_44 
REMARK   19  A    between atoms: C25_44  and  N6_45 
REMARK   20  A    between atoms: C25_44  and  C31_54 
REMARK       I    between atoms: N6_45  and  C26_47 
REMARK   21  A    between atoms: C26_47  and  C27_49 
ROOT
HETATM    1  C27 UNL     1      70.710  23.989 -56.816  1.00  0.00     0.122 C 
HETATM    2  C28 UNL     1      70.561  25.498 -57.003  1.00  0.00     0.041 C 
HETATM    3  C29 UNL     1      71.685  23.790 -55.687  1.00  0.00     0.041 C 
HETATM    4  C30 UNL     1      69.435  23.399 -56.467  1.00  0.00     0.078 C 
HETATM    5  N7  UNL     1      68.414  22.921 -56.210  1.00  0.00    -0.196 NA
ENDROOT
BRANCH   1   6
HETATM    6  C26 UNL     1      71.216  23.332 -58.052  1.00  0.00     0.240 C 
HETATM    7  N6  UNL     1      70.860  21.983 -58.314  1.00  0.00    -0.347 N 
ATOM      8  H6  UNL     1      70.264  21.484 -57.653  1.00  0.00     0.163 HD
HETATM    9  O6  UNL     1      71.945  23.999 -58.823  1.00  0.00    -0.272 OA
BRANCH   7  10
HETATM   10  C25 UNL     1      71.343  21.287 -59.533  1.00  0.00     0.162 C 
BRANCH  10  11
HETATM   11  C24 UNL     1      70.349  21.370 -60.583  1.00  0.00     0.139 C 
BRANCH  11  12
HETATM   12  N5  UNL     1      69.784  20.329 -61.358  1.00  0.00    -0.342 N 
ATOM     13  H5  UNL     1      70.371  19.859 -62.048  1.00  0.00     0.167 HD
BRANCH  12  14
HETATM   14  C15 UNL     1      68.424  19.906 -61.213  1.00  0.00     0.037 C 
BRANCH  14  15
HETATM   15  C14 UNL     1      67.526  20.410 -62.262  1.00  0.00     0.267 C 
BRANCH  15  16
HETATM   16  N4  UNL     1      68.138  21.300 -63.218  1.00  0.00    -0.328 N 
HETATM   17  C13 UNL     1      67.400  21.808 -64.334  1.00  0.00     0.242 C 
HETATM   18  O3  UNL     1      66.184  21.418 -64.400  1.00  0.00    -0.271 OA
ATOM     19  H4  UNL     1      69.112  21.573 -63.095  1.00  0.00     0.165 HD
BRANCH  17  20
HETATM   20  C5  UNL     1      67.883  22.712 -65.384  1.00  0.00     0.176 C 
BRANCH  20  21
HETATM   21  C4  UNL     1      69.169  23.386 -64.940  1.00  0.00     0.038 C 
BRANCH  21  22
HETATM   22  C2  UNL     1      70.415  22.764 -65.447  1.00  0.00    -0.020 C 
HETATM   23  C1  UNL     1      71.122  23.479 -66.551  1.00  0.00     0.009 C 
HETATM   24  C3  UNL     1      71.362  22.609 -64.256  1.00  0.00     0.009 C 
ENDBRANCH  21  22
ENDBRANCH  20  21
BRANCH  20  25
HETATM   25  N1  UNL     1      67.007  23.647 -65.928  1.00  0.00    -0.359 N 
ATOM     26  H1  UNL     1      66.349  24.075 -65.276  1.00  0.00     0.162 HD
BRANCH  25  27
HETATM   27  C6  UNL     1      66.918  24.066 -67.241  1.00  0.00     0.152 C 
BRANCH  27  28
HETATM   28  O1  UNL     1      66.791  25.463 -67.425  1.00  0.00    -0.348 OA
ATOM     29  H1  UNL     1      66.895  25.768 -68.319  1.00  0.00     0.219 HD
ENDBRANCH  27  28
BRANCH  27  30
HETATM   30  C7  UNL     1      66.058  23.370 -68.231  1.00  0.00     0.348 C 
BRANCH  30  31
HETATM   31  N2  UNL     1      67.021  22.624 -69.102  1.00  0.00    -0.059 N 
ATOM     32  H23 UNL     1      67.248  23.100 -69.975  1.00  0.00     0.275 HD
ATOM     33  H22 UNL     1      67.973  22.594 -68.739  1.00  0.00     0.275 HD
ATOM     34  H21 UNL     1      66.592  21.707 -69.227  1.00  0.00     0.275 HD
ENDBRANCH  30  31
BRANCH  30  35
HETATM   35  C8  UNL     1      65.194  22.296 -67.684  1.00  0.00     0.258 C 
HETATM   36  O2  UNL     1      65.636  21.103 -67.777  1.00  0.00    -0.271 OA
HETATM   37  N3  UNL     1      63.942  22.497 -67.076  1.00  0.00    -0.350 N 
HETATM   38  C9  UNL     1      63.159  23.699 -66.899  1.00  0.00     0.126 C 
HETATM   39  C12 UNL     1      63.211  21.384 -66.437  1.00  0.00     0.126 C 
HETATM   40  C10 UNL     1      61.699  23.210 -66.857  1.00  0.00     0.021 C 
HETATM   41  C11 UNL     1      61.817  21.869 -66.190  1.00  0.00     0.021 C 
ENDBRANCH  30  35
ENDBRANCH  27  30
ENDBRANCH  25  27
ENDBRANCH  20  25
ENDBRANCH  17  20
ENDBRANCH  15  16
BRANCH  15  42
HETATM   42  O4  UNL     1      66.399  21.071 -61.738  1.00  0.00    -0.371 OA
ATOM     43  H4  UNL     1      65.674  20.458 -61.768  1.00  0.00     0.212 HD
ENDBRANCH  15  42
ENDBRANCH  14  15
BRANCH  14  44
HETATM   44  C16 UNL     1      68.194  18.470 -60.857  1.00  0.00     0.065 C 
BRANCH  44  45
HETATM   45  C17 UNL     1      68.262  18.064 -59.446  1.00  0.00     0.013 C 
HETATM   46  C18 UNL     1      67.752  19.252 -58.639  1.00  0.00    -0.026 C 
HETATM   47  C19 UNL     1      68.097  19.764 -57.490  1.00  0.00    -0.030 C 
HETATM   48  C20 UNL     1      69.161  19.318 -56.555  1.00  0.00     0.027 C 
HETATM   49  C21 UNL     1      69.106  17.836 -56.417  1.00  0.00     0.004 C 
HETATM   50  C22 UNL     1      69.584  17.055 -57.586  1.00  0.00     0.001 C 
HETATM   51  C23 UNL     1      69.648  17.838 -58.886  1.00  0.00     0.009 C 
ENDBRANCH  44  45
ENDBRANCH  14  44
ENDBRANCH  12  14
ENDBRANCH  11  12
BRANCH  11  52
HETATM   52  O5  UNL     1      69.889  22.552 -60.890  1.00  0.00    -0.348 OA
ATOM     53  H5  UNL     1      70.162  23.232 -60.286  1.00  0.00     0.219 HD
ENDBRANCH  11  52
ENDBRANCH  10  11
BRANCH  10  54
HETATM   54  C31 UNL     1      71.902  19.966 -59.171  1.00  0.00     0.008 C 
HETATM   55  C32 UNL     1      72.845  19.324 -60.132  1.00  0.00     0.012 C 
HETATM   56  C33 UNL     1      72.595  19.996 -57.811  1.00  0.00     0.012 C 
ENDBRANCH  10  54
ENDBRANCH   7  10
ENDBRANCH   1   6
TORSDOF 21
ENDMDL
