MODEL 1
REMARK VINA RESULT: -8.669803334      0.000      0.000
REMARK  22 active torsions:
REMARK  status: ('A' for Active; 'I' for Inactive)
REMARK    1  A    between atoms: C2_2  and  C30_52 
REMARK    2  A    between atoms: C4_4  and  N1_5 
REMARK    3  A    between atoms: C5_9  and  O1_10 
REMARK    4  A    between atoms: C6_12  and  O2_13 
REMARK    5  A    between atoms: C8_16  and  C9_17 
REMARK    6  A    between atoms: C9_17  and  O3_18 
REMARK    7  A    between atoms: C9_17  and  N2_20 
REMARK    8  A    between atoms: N2_20  and  C10_23 
REMARK    9  A    between atoms: C10_23  and  C11_24 
REMARK   10  A    between atoms: C11_24  and  O4_25 
REMARK   11  A    between atoms: C11_24  and  C12_27 
REMARK   12  A    between atoms: C12_27  and  N3_28 
REMARK   13  A    between atoms: N3_28  and  C13_29 
REMARK   14  A    between atoms: N3_28  and  S2_42 
REMARK   15  A    between atoms: C13_29  and  C14_30 
REMARK   16  A    between atoms: C14_30  and  O5_31 
REMARK   17  A    between atoms: C14_30  and  C15_33 
REMARK   18  A    between atoms: C15_33  and  S1_34 
REMARK   19  A    between atoms: S1_34  and  C16_35 
REMARK   20  A    between atoms: C16_35  and  C17_36 
REMARK   21  A    between atoms: S2_42  and  C23_45 
REMARK   22  A    between atoms: C23_45  and  C24_46 
ROOT
HETATM    1  C11 UNL     1      67.967  19.598 -68.764  1.00  0.00     0.158 C 
ENDROOT
BRANCH   1   2
HETATM    2  C10 UNL     1      66.584  19.115 -69.088  1.00  0.00     0.268 C 
BRANCH   2   3
HETATM    3  N2  UNL     1      65.928  20.170 -69.880  1.00  0.00    -0.046 N 
ATOM      4  H22 UNL     1      66.591  20.676 -70.468  1.00  0.00     0.280 HD
ATOM      5  H21 UNL     1      65.620  20.950 -69.298  1.00  0.00     0.280 HD
BRANCH   3   6
HETATM    6  C9  UNL     1      64.848  19.611 -70.645  1.00  0.00     0.327 C 
BRANCH   6   7
HETATM    7  C8  UNL     1      63.987  20.581 -71.383  1.00  0.00     0.076 C 
HETATM    8  C3  UNL     1      62.722  20.964 -70.675  1.00  0.00    -0.036 C 
HETATM    9  C2  UNL     1      62.412  22.201 -70.400  1.00  0.00    -0.075 C 
HETATM   10  C4  UNL     1      61.835  19.802 -70.426  1.00  0.00     0.244 C 
HETATM   11  C1  UNL     1      61.094  22.588 -69.799  1.00  0.00     0.044 C 
HETATM   12  C5  UNL     1      61.444  19.239 -71.784  1.00  0.00     0.181 C 
HETATM   13  C6  UNL     1      62.597  18.929 -72.670  1.00  0.00     0.150 C 
HETATM   14  C7  UNL     1      63.634  19.990 -72.750  1.00  0.00     0.048 C 
BRANCH   9  15
HETATM   15  C30 UNL     1      63.342  23.377 -70.579  1.00  0.00     0.006 C 
HETATM   16  C31 UNL     1      62.983  24.210 -71.775  1.00  0.00     0.014 C 
HETATM   17  C32 UNL     1      63.144  24.267 -69.331  1.00  0.00     0.014 C 
ENDBRANCH   9  15
BRANCH  10  18
HETATM   18  N1  UNL     1      60.674  19.993 -69.654  1.00  0.00    -0.069 N 
ATOM     19  H13 UNL     1      60.630  19.268 -68.938  1.00  0.00     0.275 HD
ATOM     20  H12 UNL     1      60.792  20.828 -69.081  1.00  0.00     0.275 HD
ATOM     21  H11 UNL     1      59.773  20.043 -70.129  1.00  0.00     0.275 HD
ENDBRANCH  10  18
BRANCH  12  22
HETATM   22  O1  UNL     1      60.474  20.022 -72.386  1.00  0.00    -0.391 OA
ATOM     23  H1  UNL     1      60.718  20.241 -73.277  1.00  0.00     0.210 HD
ENDBRANCH  12  22
BRANCH  13  24
HETATM   24  O2  UNL     1      62.097  18.710 -73.960  1.00  0.00    -0.393 OA
ATOM     25  H2  UNL     1      62.228  17.793 -74.170  1.00  0.00     0.210 HD
ENDBRANCH  13  24
ENDBRANCH   6   7
BRANCH   6  26
HETATM   26  O3  UNL     1      65.587  18.930 -71.708  1.00  0.00    -0.369 OA
ATOM     27  H3  UNL     1      64.918  18.432 -72.162  1.00  0.00     0.212 HD
ENDBRANCH   6  26
ENDBRANCH   3   6
ENDBRANCH   2   3
ENDBRANCH   1   2
BRANCH   1  28
HETATM   28  O4  UNL     1      68.922  18.656 -68.975  1.00  0.00    -0.393 OA
ATOM     29  H4  UNL     1      69.331  18.355 -68.173  1.00  0.00     0.210 HD
ENDBRANCH   1  28
BRANCH   1  30
HETATM   30  C12 UNL     1      68.292  20.963 -69.210  1.00  0.00     0.140 C 
BRANCH  30  31
HETATM   31  N3  UNL     1      68.680  21.927 -68.235  1.00  0.00    -0.205 NA
BRANCH  31  32
HETATM   32  C13 UNL     1      69.603  21.618 -67.249  1.00  0.00     0.139 C 
BRANCH  32  33
HETATM   33  C14 UNL     1      70.879  22.464 -67.192  1.00  0.00     0.141 C 
BRANCH  33  34
HETATM   34  O5  UNL     1      71.994  21.598 -67.232  1.00  0.00    -0.394 OA
ATOM     35  H5  UNL     1      72.326  21.491 -66.348  1.00  0.00     0.210 HD
ENDBRANCH  33  34
BRANCH  33  36
HETATM   36  C15 UNL     1      71.028  23.271 -65.947  1.00  0.00     0.107 C 
BRANCH  36  37
HETATM   37  S1  UNL     1      69.959  22.935 -64.593  1.00  0.00    -0.162 SA
BRANCH  37  38
HETATM   38  C16 UNL     1      70.455  21.954 -63.234  1.00  0.00     0.112 C 
BRANCH  38  39
HETATM   39  C17 UNL     1      69.421  21.126 -62.559  1.00  0.00    -0.049 A 
HETATM   40  C18 UNL     1      68.082  21.250 -62.766  1.00  0.00     0.008 A 
HETATM   41  C19 UNL     1      67.171  20.452 -62.125  1.00  0.00     0.001 A 
HETATM   42  C20 UNL     1      67.593  19.487 -61.241  1.00  0.00     0.000 A 
HETATM   43  C21 UNL     1      68.934  19.335 -61.007  1.00  0.00     0.001 A 
HETATM   44  C22 UNL     1      69.829  20.145 -61.659  1.00  0.00     0.008 A 
ENDBRANCH  38  39
ENDBRANCH  37  38
ENDBRANCH  36  37
ENDBRANCH  33  36
ENDBRANCH  32  33
ENDBRANCH  31  32
BRANCH  31  45
HETATM   45  S2  UNL     1      67.230  22.662 -67.645  1.00  0.00     0.215 S 
HETATM   46  O6  UNL     1      67.639  24.034 -67.112  1.00  0.00    -0.211 OA
HETATM   47  O7  UNL     1      66.236  22.811 -68.707  1.00  0.00    -0.211 OA
BRANCH  45  48
HETATM   48  C23 UNL     1      66.553  21.753 -66.292  1.00  0.00     0.196 C 
BRANCH  48  49
HETATM   49  C24 UNL     1      65.055  21.838 -66.326  1.00  0.00    -0.043 A 
HETATM   50  C25 UNL     1      64.458  22.947 -65.758  1.00  0.00     0.008 A 
HETATM   51  C26 UNL     1      63.101  23.088 -65.759  1.00  0.00     0.001 A 
HETATM   52  C27 UNL     1      62.340  22.093 -66.343  1.00  0.00     0.000 A 
HETATM   53  C28 UNL     1      62.900  20.988 -66.911  1.00  0.00     0.001 A 
HETATM   54  C29 UNL     1      64.283  20.857 -66.903  1.00  0.00     0.008 A 
ENDBRANCH  48  49
ENDBRANCH  45  48
ENDBRANCH  31  45
ENDBRANCH  30  31
ENDBRANCH   1  30
TORSDOF 22
ENDMDL
MODEL 2
REMARK VINA RESULT: -8.661422911      5.105      9.350
REMARK  22 active torsions:
REMARK  status: ('A' for Active; 'I' for Inactive)
REMARK    1  A    between atoms: C2_2  and  C30_52 
REMARK    2  A    between atoms: C4_4  and  N1_5 
REMARK    3  A    between atoms: C5_9  and  O1_10 
REMARK    4  A    between atoms: C6_12  and  O2_13 
REMARK    5  A    between atoms: C8_16  and  C9_17 
REMARK    6  A    between atoms: C9_17  and  O3_18 
REMARK    7  A    between atoms: C9_17  and  N2_20 
REMARK    8  A    between atoms: N2_20  and  C10_23 
REMARK    9  A    between atoms: C10_23  and  C11_24 
REMARK   10  A    between atoms: C11_24  and  O4_25 
REMARK   11  A    between atoms: C11_24  and  C12_27 
REMARK   12  A    between atoms: C12_27  and  N3_28 
REMARK   13  A    between atoms: N3_28  and  C13_29 
REMARK   14  A    between atoms: N3_28  and  S2_42 
REMARK   15  A    between atoms: C13_29  and  C14_30 
REMARK   16  A    between atoms: C14_30  and  O5_31 
REMARK   17  A    between atoms: C14_30  and  C15_33 
REMARK   18  A    between atoms: C15_33  and  S1_34 
REMARK   19  A    between atoms: S1_34  and  C16_35 
REMARK   20  A    between atoms: C16_35  and  C17_36 
REMARK   21  A    between atoms: S2_42  and  C23_45 
REMARK   22  A    between atoms: C23_45  and  C24_46 
ROOT
HETATM    1  C11 UNL     1      68.831  22.699 -59.933  1.00  0.00     0.158 C 
ENDROOT
BRANCH   1   2
HETATM    2  C10 UNL     1      67.707  22.588 -60.921  1.00  0.00     0.268 C 
BRANCH   2   3
HETATM    3  N2  UNL     1      68.311  22.517 -62.262  1.00  0.00    -0.046 N 
ATOM      4  H22 UNL     1      69.130  21.910 -62.282  1.00  0.00     0.280 HD
ATOM      5  H21 UNL     1      68.769  23.392 -62.522  1.00  0.00     0.280 HD
BRANCH   3   6
HETATM    6  C9  UNL     1      67.323  22.120 -63.227  1.00  0.00     0.327 C 
BRANCH   6   7
HETATM    7  C8  UNL     1      67.825  21.790 -64.593  1.00  0.00     0.076 C 
HETATM    8  C3  UNL     1      68.322  22.965 -65.380  1.00  0.00    -0.036 C 
HETATM    9  C2  UNL     1      69.528  23.025 -65.877  1.00  0.00    -0.075 C 
HETATM   10  C4  UNL     1      67.268  23.983 -65.612  1.00  0.00     0.244 C 
HETATM   11  C1  UNL     1      69.981  24.147 -66.761  1.00  0.00     0.044 C 
HETATM   12  C5  UNL     1      66.176  23.315 -66.433  1.00  0.00     0.181 C 
HETATM   13  C6  UNL     1      65.662  22.048 -65.848  1.00  0.00     0.150 C 
HETATM   14  C7  UNL     1      66.707  21.101 -65.378  1.00  0.00     0.048 C 
BRANCH   9  15
HETATM   15  C30 UNL     1      70.627  22.034 -65.580  1.00  0.00     0.006 C 
HETATM   16  C31 UNL     1      71.617  21.928 -66.703  1.00  0.00     0.014 C 
HETATM   17  C32 UNL     1      71.386  22.596 -64.357  1.00  0.00     0.014 C 
ENDBRANCH   9  15
BRANCH  10  18
HETATM   18  N1  UNL     1      67.627  25.198 -66.223  1.00  0.00    -0.069 N 
ATOM     19  H13 UNL     1      66.869  25.868 -66.098  1.00  0.00     0.275 HD
ATOM     20  H12 UNL     1      68.369  25.636 -65.677  1.00  0.00     0.275 HD
ATOM     21  H11 UNL     1      67.902  25.189 -67.206  1.00  0.00     0.275 HD
ENDBRANCH  10  18
BRANCH  12  22
HETATM   22  O1  UNL     1      66.549  23.203 -67.761  1.00  0.00    -0.391 OA
ATOM     23  H1  UNL     1      65.811  23.361 -68.337  1.00  0.00     0.210 HD
ENDBRANCH  12  22
BRANCH  13  24
HETATM   24  O2  UNL     1      64.900  21.403 -66.829  1.00  0.00    -0.393 OA
ATOM     25  H2  UNL     1      65.214  20.509 -66.899  1.00  0.00     0.210 HD
ENDBRANCH  13  24
ENDBRANCH   6   7
BRANCH   6  26
HETATM   26  O3  UNL     1      66.918  20.822 -62.687  1.00  0.00    -0.369 OA
ATOM     27  H3  UNL     1      67.690  20.281 -62.803  1.00  0.00     0.212 HD
ENDBRANCH   6  26
ENDBRANCH   3   6
ENDBRANCH   2   3
ENDBRANCH   1   2
BRANCH   1  28
HETATM   28  O4  UNL     1      68.695  23.756 -59.091  1.00  0.00    -0.393 OA
ATOM     29  H4  UNL     1      68.750  23.511 -58.175  1.00  0.00     0.210 HD
ENDBRANCH   1  28
BRANCH   1  30
HETATM   30  C12 UNL     1      69.276  21.437 -59.321  1.00  0.00     0.140 C 
BRANCH  30  31
HETATM   31  N3  UNL     1      68.368  20.337 -59.284  1.00  0.00    -0.205 NA
BRANCH  31  32
HETATM   32  C13 UNL     1      67.940  19.802 -58.080  1.00  0.00     0.139 C 
BRANCH  32  33
HETATM   33  C14 UNL     1      68.564  20.365 -56.800  1.00  0.00     0.141 C 
BRANCH  33  34
HETATM   34  O5  UNL     1      68.395  19.421 -55.764  1.00  0.00    -0.394 OA
ATOM     35  H5  UNL     1      68.330  18.556 -56.151  1.00  0.00     0.210 HD
ENDBRANCH  33  34
BRANCH  33  36
HETATM   36  C15 UNL     1      67.937  21.628 -56.314  1.00  0.00     0.107 C 
BRANCH  36  37
HETATM   37  S1  UNL     1      68.586  22.387 -54.867  1.00  0.00    -0.162 SA
BRANCH  37  38
HETATM   38  C16 UNL     1      69.460  23.901 -54.920  1.00  0.00     0.112 C 
BRANCH  38  39
HETATM   39  C17 UNL     1      70.400  24.122 -56.052  1.00  0.00    -0.049 A 
HETATM   40  C18 UNL     1      70.560  25.309 -56.696  1.00  0.00     0.008 A 
HETATM   41  C19 UNL     1      71.450  25.462 -57.726  1.00  0.00     0.001 A 
HETATM   42  C20 UNL     1      72.218  24.401 -58.143  1.00  0.00     0.000 A 
HETATM   43  C21 UNL     1      72.083  23.190 -57.519  1.00  0.00     0.001 A 
HETATM   44  C22 UNL     1      71.185  23.059 -56.489  1.00  0.00     0.008 A 
ENDBRANCH  38  39
ENDBRANCH  37  38
ENDBRANCH  36  37
ENDBRANCH  33  36
ENDBRANCH  32  33
ENDBRANCH  31  32
BRANCH  31  45
HETATM   45  S2  UNL     1      68.946  19.166 -60.418  1.00  0.00     0.215 S 
HETATM   46  O6  UNL     1      67.714  18.404 -60.901  1.00  0.00    -0.211 OA
HETATM   47  O7  UNL     1      69.620  19.804 -61.548  1.00  0.00    -0.211 OA
BRANCH  45  48
HETATM   48  C23 UNL     1      70.017  17.996 -59.643  1.00  0.00     0.196 C 
BRANCH  48  49
HETATM   49  C24 UNL     1      71.274  18.682 -59.196  1.00  0.00    -0.043 A 
HETATM   50  C25 UNL     1      72.166  19.096 -60.168  1.00  0.00     0.008 A 
HETATM   51  C26 UNL     1      73.326  19.729 -59.827  1.00  0.00     0.001 A 
HETATM   52  C27 UNL     1      73.585  19.946 -58.488  1.00  0.00     0.000 A 
HETATM   53  C28 UNL     1      72.726  19.550 -57.508  1.00  0.00     0.001 A 
HETATM   54  C29 UNL     1      71.548  18.906 -57.867  1.00  0.00     0.008 A 
ENDBRANCH  48  49
ENDBRANCH  45  48
ENDBRANCH  31  45
ENDBRANCH  30  31
ENDBRANCH   1  30
TORSDOF 22
ENDMDL
MODEL 3
REMARK VINA RESULT: -8.618844943      5.109      8.837
REMARK  22 active torsions:
REMARK  status: ('A' for Active; 'I' for Inactive)
REMARK    1  A    between atoms: C2_2  and  C30_52 
REMARK    2  A    between atoms: C4_4  and  N1_5 
REMARK    3  A    between atoms: C5_9  and  O1_10 
REMARK    4  A    between atoms: C6_12  and  O2_13 
REMARK    5  A    between atoms: C8_16  and  C9_17 
REMARK    6  A    between atoms: C9_17  and  O3_18 
REMARK    7  A    between atoms: C9_17  and  N2_20 
REMARK    8  A    between atoms: N2_20  and  C10_23 
REMARK    9  A    between atoms: C10_23  and  C11_24 
REMARK   10  A    between atoms: C11_24  and  O4_25 
REMARK   11  A    between atoms: C11_24  and  C12_27 
REMARK   12  A    between atoms: C12_27  and  N3_28 
REMARK   13  A    between atoms: N3_28  and  C13_29 
REMARK   14  A    between atoms: N3_28  and  S2_42 
REMARK   15  A    between atoms: C13_29  and  C14_30 
REMARK   16  A    between atoms: C14_30  and  O5_31 
REMARK   17  A    between atoms: C14_30  and  C15_33 
REMARK   18  A    between atoms: C15_33  and  S1_34 
REMARK   19  A    between atoms: S1_34  and  C16_35 
REMARK   20  A    between atoms: C16_35  and  C17_36 
REMARK   21  A    between atoms: S2_42  and  C23_45 
REMARK   22  A    between atoms: C23_45  and  C24_46 
ROOT
HETATM    1  C11 UNL     1      67.228  20.469 -60.644  1.00  0.00     0.158 C 
ENDROOT
BRANCH   1   2
HETATM    2  C10 UNL     1      67.117  20.296 -62.130  1.00  0.00     0.268 C 
BRANCH   2   3
HETATM    3  N2  UNL     1      66.601  21.562 -62.679  1.00  0.00    -0.046 N 
ATOM      4  H22 UNL     1      66.618  22.313 -61.989  1.00  0.00     0.280 HD
ATOM      5  H21 UNL     1      65.593  21.527 -62.836  1.00  0.00     0.280 HD
BRANCH   3   6
HETATM    6  C9  UNL     1      67.320  21.910 -63.873  1.00  0.00     0.327 C 
BRANCH   6   7
HETATM    7  C8  UNL     1      66.536  22.590 -64.945  1.00  0.00     0.076 C 
HETATM    8  C3  UNL     1      65.828  21.665 -65.889  1.00  0.00    -0.036 C 
HETATM    9  C2  UNL     1      64.540  21.714 -66.095  1.00  0.00    -0.075 C 
HETATM   10  C4  UNL     1      66.762  20.778 -66.625  1.00  0.00     0.244 C 
HETATM   11  C1  UNL     1      63.856  20.868 -67.126  1.00  0.00     0.044 C 
HETATM   12  C5  UNL     1      67.666  21.674 -67.457  1.00  0.00     0.181 C 
HETATM   13  C6  UNL     1      68.347  22.743 -66.681  1.00  0.00     0.150 C 
HETATM   14  C7  UNL     1      67.473  23.497 -65.744  1.00  0.00     0.048 C 
BRANCH   9  15
HETATM   15  C30 UNL     1      63.576  22.557 -65.295  1.00  0.00     0.006 C 
HETATM   16  C31 UNL     1      63.297  23.878 -65.950  1.00  0.00     0.014 C 
HETATM   17  C32 UNL     1      62.246  21.772 -65.271  1.00  0.00     0.014 C 
ENDBRANCH   9  15
BRANCH  10  18
HETATM   18  N1  UNL     1      66.227  19.769 -67.447  1.00  0.00    -0.069 N 
ATOM     19  H13 UNL     1      66.084  18.928 -66.888  1.00  0.00     0.275 HD
ATOM     20  H12 UNL     1      65.266  20.012 -67.685  1.00  0.00     0.275 HD
ATOM     21  H11 UNL     1      66.727  19.518 -68.300  1.00  0.00     0.275 HD
ENDBRANCH  10  18
BRANCH  12  22
HETATM   22  O1  UNL     1      67.007  22.137 -68.582  1.00  0.00    -0.391 OA
ATOM     23  H1  UNL     1      67.408  22.934 -68.908  1.00  0.00     0.210 HD
ENDBRANCH  12  22
BRANCH  13  24
HETATM   24  O2  UNL     1      68.894  23.653 -67.594  1.00  0.00    -0.393 OA
ATOM     25  H2  UNL     1      69.655  23.244 -67.991  1.00  0.00     0.210 HD
ENDBRANCH  13  24
ENDBRANCH   6   7
BRANCH   6  26
HETATM   26  O3  UNL     1      68.199  22.965 -63.367  1.00  0.00    -0.369 OA
ATOM     27  H3  UNL     1      68.296  23.549 -64.110  1.00  0.00     0.212 HD
ENDBRANCH   6  26
ENDBRANCH   3   6
ENDBRANCH   2   3
ENDBRANCH   1   2
BRANCH   1  28
HETATM   28  O4  UNL     1      67.338  19.290 -59.978  1.00  0.00    -0.393 OA
ATOM     29  H4  UNL     1      68.237  19.054 -59.786  1.00  0.00     0.210 HD
ENDBRANCH   1  28
BRANCH   1  30
HETATM   30  C12 UNL     1      68.111  21.555 -60.188  1.00  0.00     0.140 C 
BRANCH  30  31
HETATM   31  N3  UNL     1      69.128  21.255 -59.235  1.00  0.00    -0.205 NA
BRANCH  31  32
HETATM   32  C13 UNL     1      69.032  21.689 -57.923  1.00  0.00     0.139 C 
BRANCH  32  33
HETATM   33  C14 UNL     1      68.872  20.619 -56.840  1.00  0.00     0.141 C 
BRANCH  33  34
HETATM   34  O5  UNL     1      67.686  19.895 -57.094  1.00  0.00    -0.394 OA
ATOM     35  H5  UNL     1      67.616  19.749 -58.030  1.00  0.00     0.210 HD
ENDBRANCH  33  34
BRANCH  33  36
HETATM   36  C15 UNL     1      68.737  21.158 -55.455  1.00  0.00     0.107 C 
BRANCH  36  37
HETATM   37  S1  UNL     1      68.321  22.853 -55.250  1.00  0.00    -0.162 SA
BRANCH  37  38
HETATM   38  C16 UNL     1      69.480  24.038 -54.692  1.00  0.00     0.112 C 
BRANCH  38  39
HETATM   39  C17 UNL     1      70.477  24.549 -55.669  1.00  0.00    -0.049 A 
HETATM   40  C18 UNL     1      70.239  25.553 -56.555  1.00  0.00     0.008 A 
HETATM   41  C19 UNL     1      71.199  25.994 -57.428  1.00  0.00     0.001 A 
HETATM   42  C20 UNL     1      72.451  25.426 -57.429  1.00  0.00     0.000 A 
HETATM   43  C21 UNL     1      72.726  24.411 -56.551  1.00  0.00     0.001 A 
HETATM   44  C22 UNL     1      71.750  23.985 -55.686  1.00  0.00     0.008 A 
ENDBRANCH  38  39
ENDBRANCH  37  38
ENDBRANCH  36  37
ENDBRANCH  33  36
ENDBRANCH  32  33
ENDBRANCH  31  32
BRANCH  31  45
HETATM   45  S2  UNL     1      70.645  21.602 -59.989  1.00  0.00     0.215 S 
HETATM   46  O6  UNL     1      70.315  22.074 -61.404  1.00  0.00    -0.211 OA
HETATM   47  O7  UNL     1      71.374  22.645 -59.268  1.00  0.00    -0.211 OA
BRANCH  45  48
HETATM   48  C23 UNL     1      71.637  20.149 -60.138  1.00  0.00     0.196 C 
BRANCH  48  49
HETATM   49  C24 UNL     1      71.549  19.347 -58.873  1.00  0.00    -0.043 A 
HETATM   50  C25 UNL     1      72.314  19.752 -57.796  1.00  0.00     0.008 A 
HETATM   51  C26 UNL     1      72.276  19.069 -56.616  1.00  0.00     0.001 A 
HETATM   52  C27 UNL     1      71.454  17.962 -56.525  1.00  0.00     0.000 A 
HETATM   53  C28 UNL     1      70.689  17.538 -57.570  1.00  0.00     0.001 A 
HETATM   54  C29 UNL     1      70.736  18.243 -58.766  1.00  0.00     0.008 A 
ENDBRANCH  48  49
ENDBRANCH  45  48
ENDBRANCH  31  45
ENDBRANCH  30  31
ENDBRANCH   1  30
TORSDOF 22
ENDMDL
MODEL 4
REMARK VINA RESULT: -8.580150245      5.017      9.040
REMARK  22 active torsions:
REMARK  status: ('A' for Active; 'I' for Inactive)
REMARK    1  A    between atoms: C2_2  and  C30_52 
REMARK    2  A    between atoms: C4_4  and  N1_5 
REMARK    3  A    between atoms: C5_9  and  O1_10 
REMARK    4  A    between atoms: C6_12  and  O2_13 
REMARK    5  A    between atoms: C8_16  and  C9_17 
REMARK    6  A    between atoms: C9_17  and  O3_18 
REMARK    7  A    between atoms: C9_17  and  N2_20 
REMARK    8  A    between atoms: N2_20  and  C10_23 
REMARK    9  A    between atoms: C10_23  and  C11_24 
REMARK   10  A    between atoms: C11_24  and  O4_25 
REMARK   11  A    between atoms: C11_24  and  C12_27 
REMARK   12  A    between atoms: C12_27  and  N3_28 
REMARK   13  A    between atoms: N3_28  and  C13_29 
REMARK   14  A    between atoms: N3_28  and  S2_42 
REMARK   15  A    between atoms: C13_29  and  C14_30 
REMARK   16  A    between atoms: C14_30  and  O5_31 
REMARK   17  A    between atoms: C14_30  and  C15_33 
REMARK   18  A    between atoms: C15_33  and  S1_34 
REMARK   19  A    between atoms: S1_34  and  C16_35 
REMARK   20  A    between atoms: C16_35  and  C17_36 
REMARK   21  A    between atoms: S2_42  and  C23_45 
REMARK   22  A    between atoms: C23_45  and  C24_46 
ROOT
HETATM    1  C11 UNL     1      70.038  21.552 -61.814  1.00  0.00     0.158 C 
ENDROOT
BRANCH   1   2
HETATM    2  C10 UNL     1      68.978  21.438 -62.870  1.00  0.00     0.268 C 
BRANCH   2   3
HETATM    3  N2  UNL     1      68.023  22.538 -62.650  1.00  0.00    -0.046 N 
ATOM      4  H22 UNL     1      68.480  23.450 -62.662  1.00  0.00     0.280 HD
ATOM      5  H21 UNL     1      67.677  22.558 -61.690  1.00  0.00     0.280 HD
BRANCH   3   6
HETATM    6  C9  UNL     1      66.953  22.460 -63.605  1.00  0.00     0.327 C 
BRANCH   6   7
HETATM    7  C8  UNL     1      67.312  21.957 -64.964  1.00  0.00     0.076 C 
HETATM    8  C3  UNL     1      67.766  23.013 -65.925  1.00  0.00    -0.036 C 
HETATM    9  C2  UNL     1      68.920  22.967 -66.533  1.00  0.00    -0.075 C 
HETATM   10  C4  UNL     1      66.725  24.039 -66.178  1.00  0.00     0.244 C 
HETATM   11  C1  UNL     1      69.320  23.962 -67.581  1.00  0.00     0.044 C 
HETATM   12  C5  UNL     1      65.541  23.327 -66.811  1.00  0.00     0.181 C 
HETATM   13  C6  UNL     1      65.048  22.156 -66.037  1.00  0.00     0.150 C 
HETATM   14  C7  UNL     1      66.105  21.228 -65.557  1.00  0.00     0.048 C 
BRANCH   9  15
HETATM   15  C30 UNL     1      70.013  21.973 -66.223  1.00  0.00     0.006 C 
HETATM   16  C31 UNL     1      70.535  21.298 -67.458  1.00  0.00     0.014 C 
HETATM   17  C32 UNL     1      71.179  22.796 -65.629  1.00  0.00     0.014 C 
ENDBRANCH   9  15
BRANCH  10  18
HETATM   18  N1  UNL     1      67.060  25.162 -66.958  1.00  0.00    -0.069 N 
ATOM     19  H13 UNL     1      66.231  25.473 -67.463  1.00  0.00     0.275 HD
ATOM     20  H12 UNL     1      67.224  25.956 -66.340  1.00  0.00     0.275 HD
ATOM     21  H11 UNL     1      67.838  25.087 -67.614  1.00  0.00     0.275 HD
ENDBRANCH  10  18
BRANCH  12  22
HETATM   22  O1  UNL     1      65.783  23.050 -68.145  1.00  0.00    -0.391 OA
ATOM     23  H1  UNL     1      66.158  23.802 -68.587  1.00  0.00     0.210 HD
ENDBRANCH  12  22
BRANCH  13  24
HETATM   24  O2  UNL     1      64.177  21.435 -66.862  1.00  0.00    -0.393 OA
ATOM     25  H2  UNL     1      64.196  20.527 -66.580  1.00  0.00     0.210 HD
ENDBRANCH  13  24
ENDBRANCH   6   7
BRANCH   6  26
HETATM   26  O3  UNL     1      66.154  21.374 -63.036  1.00  0.00    -0.369 OA
ATOM     27  H3  UNL     1      65.261  21.621 -63.245  1.00  0.00     0.212 HD
ENDBRANCH   6  26
ENDBRANCH   3   6
ENDBRANCH   2   3
ENDBRANCH   1   2
BRANCH   1  28
HETATM   28  O4  UNL     1      71.287  21.695 -62.329  1.00  0.00    -0.393 OA
ATOM     29  H4  UNL     1      71.857  22.220 -61.779  1.00  0.00     0.210 HD
ENDBRANCH   1  28
BRANCH   1  30
HETATM   30  C12 UNL     1      69.709  22.409 -60.664  1.00  0.00     0.140 C 
BRANCH  30  31
HETATM   31  N3  UNL     1      69.660  21.822 -59.365  1.00  0.00    -0.205 NA
BRANCH  31  32
HETATM   32  C13 UNL     1      68.486  21.281 -58.867  1.00  0.00     0.139 C 
BRANCH  32  33
HETATM   33  C14 UNL     1      67.905  20.069 -59.601  1.00  0.00     0.141 C 
BRANCH  33  34
HETATM   34  O5  UNL     1      66.824  20.502 -60.400  1.00  0.00    -0.394 OA
ATOM     35  H5  UNL     1      66.108  20.754 -59.828  1.00  0.00     0.210 HD
ENDBRANCH  33  34
BRANCH  33  36
HETATM   36  C15 UNL     1      67.357  19.010 -58.704  1.00  0.00     0.107 C 
BRANCH  36  37
HETATM   37  S1  UNL     1      68.374  17.633 -58.308  1.00  0.00    -0.162 SA
BRANCH  37  38
HETATM   38  C16 UNL     1      69.897  17.809 -57.466  1.00  0.00     0.112 C 
BRANCH  38  39
HETATM   39  C17 UNL     1      71.017  18.474 -58.185  1.00  0.00    -0.049 A 
HETATM   40  C18 UNL     1      72.010  19.177 -57.578  1.00  0.00     0.008 A 
HETATM   41  C19 UNL     1      73.026  19.761 -58.288  1.00  0.00     0.001 A 
HETATM   42  C20 UNL     1      73.070  19.648 -59.658  1.00  0.00     0.000 A 
HETATM   43  C21 UNL     1      72.085  18.948 -60.304  1.00  0.00     0.001 A 
HETATM   44  C22 UNL     1      71.077  18.372 -59.573  1.00  0.00     0.008 A 
ENDBRANCH  38  39
ENDBRANCH  37  38
ENDBRANCH  36  37
ENDBRANCH  33  36
ENDBRANCH  32  33
ENDBRANCH  31  32
BRANCH  31  45
HETATM   45  S2  UNL     1      70.453  22.916 -58.286  1.00  0.00     0.215 S 
HETATM   46  O6  UNL     1      71.912  22.966 -58.732  1.00  0.00    -0.211 OA
HETATM   47  O7  UNL     1      69.861  24.251 -58.349  1.00  0.00    -0.211 OA
BRANCH  45  48
HETATM   48  C23 UNL     1      70.431  22.311 -56.627  1.00  0.00     0.196 C 
BRANCH  48  49
HETATM   49  C24 UNL     1      70.514  23.463 -55.669  1.00  0.00    -0.043 A 
HETATM   50  C25 UNL     1      71.749  24.051 -55.471  1.00  0.00     0.008 A 
HETATM   51  C26 UNL     1      71.891  25.104 -54.616  1.00  0.00     0.001 A 
HETATM   52  C27 UNL     1      70.771  25.568 -53.954  1.00  0.00     0.000 A 
HETATM   53  C28 UNL     1      69.540  25.009 -54.129  1.00  0.00     0.001 A 
HETATM   54  C29 UNL     1      69.408  23.936 -55.002  1.00  0.00     0.008 A 
ENDBRANCH  48  49
ENDBRANCH  45  48
ENDBRANCH  31  45
ENDBRANCH  30  31
ENDBRANCH   1  30
TORSDOF 22
ENDMDL
MODEL 5
REMARK VINA RESULT: -8.539329103      3.537      9.907
REMARK  22 active torsions:
REMARK  status: ('A' for Active; 'I' for Inactive)
REMARK    1  A    between atoms: C2_2  and  C30_52 
REMARK    2  A    between atoms: C4_4  and  N1_5 
REMARK    3  A    between atoms: C5_9  and  O1_10 
REMARK    4  A    between atoms: C6_12  and  O2_13 
REMARK    5  A    between atoms: C8_16  and  C9_17 
REMARK    6  A    between atoms: C9_17  and  O3_18 
REMARK    7  A    between atoms: C9_17  and  N2_20 
REMARK    8  A    between atoms: N2_20  and  C10_23 
REMARK    9  A    between atoms: C10_23  and  C11_24 
REMARK   10  A    between atoms: C11_24  and  O4_25 
REMARK   11  A    between atoms: C11_24  and  C12_27 
REMARK   12  A    between atoms: C12_27  and  N3_28 
REMARK   13  A    between atoms: N3_28  and  C13_29 
REMARK   14  A    between atoms: N3_28  and  S2_42 
REMARK   15  A    between atoms: C13_29  and  C14_30 
REMARK   16  A    between atoms: C14_30  and  O5_31 
REMARK   17  A    between atoms: C14_30  and  C15_33 
REMARK   18  A    between atoms: C15_33  and  S1_34 
REMARK   19  A    between atoms: S1_34  and  C16_35 
REMARK   20  A    between atoms: C16_35  and  C17_36 
REMARK   21  A    between atoms: S2_42  and  C23_45 
REMARK   22  A    between atoms: C23_45  and  C24_46 
ROOT
HETATM    1  C11 UNL     1      70.516  22.609 -63.898  1.00  0.00     0.158 C 
ENDROOT
BRANCH   1   2
HETATM    2  C10 UNL     1      70.029  21.435 -63.100  1.00  0.00     0.268 C 
BRANCH   2   3
HETATM    3  N2  UNL     1      69.181  21.965 -62.018  1.00  0.00    -0.046 N 
ATOM      4  H22 UNL     1      68.523  22.668 -62.357  1.00  0.00     0.280 HD
ATOM      5  H21 UNL     1      69.708  22.554 -61.372  1.00  0.00     0.280 HD
BRANCH   3   6
HETATM    6  C9  UNL     1      68.515  20.887 -61.342  1.00  0.00     0.327 C 
BRANCH   6   7
HETATM    7  C8  UNL     1      68.982  20.582 -59.958  1.00  0.00     0.076 C 
HETATM    8  C3  UNL     1      70.455  20.336 -59.833  1.00  0.00    -0.036 C 
HETATM    9  C2  UNL     1      71.221  21.021 -59.028  1.00  0.00    -0.075 C 
HETATM   10  C4  UNL     1      70.909  19.175 -60.636  1.00  0.00     0.244 C 
HETATM   11  C1  UNL     1      72.669  20.693 -58.819  1.00  0.00     0.044 C 
HETATM   12  C5  UNL     1      70.194  17.948 -60.092  1.00  0.00     0.181 C 
HETATM   13  C6  UNL     1      68.715  18.084 -60.024  1.00  0.00     0.150 C 
HETATM   14  C7  UNL     1      68.225  19.359 -59.437  1.00  0.00     0.048 C 
BRANCH   9  15
HETATM   15  C30 UNL     1      70.784  22.250 -58.268  1.00  0.00     0.006 C 
HETATM   16  C31 UNL     1      70.711  22.009 -56.788  1.00  0.00     0.014 C 
HETATM   17  C32 UNL     1      71.887  23.307 -58.502  1.00  0.00     0.014 C 
ENDBRANCH   9  15
BRANCH  10  18
HETATM   18  N1  UNL     1      72.288  18.908 -60.717  1.00  0.00    -0.069 N 
ATOM     19  H13 UNL     1      72.484  18.444 -61.604  1.00  0.00     0.275 HD
ATOM     20  H12 UNL     1      72.788  19.788 -60.841  1.00  0.00     0.275 HD
ATOM     21  H11 UNL     1      72.729  18.381 -59.963  1.00  0.00     0.275 HD
ENDBRANCH  10  18
BRANCH  12  22
HETATM   22  O1  UNL     1      70.769  17.523 -58.907  1.00  0.00    -0.391 OA
ATOM     23  H1  UNL     1      70.716  18.199 -58.241  1.00  0.00     0.210 HD
ENDBRANCH  12  22
BRANCH  13  24
HETATM   24  O2  UNL     1      68.225  17.030 -59.245  1.00  0.00    -0.393 OA
ATOM     25  H2  UNL     1      68.813  16.916 -58.507  1.00  0.00     0.210 HD
ENDBRANCH  13  24
ENDBRANCH   6   7
BRANCH   6  26
HETATM   26  O3  UNL     1      67.188  21.469 -61.136  1.00  0.00    -0.369 OA
ATOM     27  H3  UNL     1      66.856  21.587 -62.018  1.00  0.00     0.212 HD
ENDBRANCH   6  26
ENDBRANCH   3   6
ENDBRANCH   2   3
ENDBRANCH   1   2
BRANCH   1  28
HETATM   28  O4  UNL     1      71.748  22.412 -64.434  1.00  0.00    -0.393 OA
ATOM     29  H4  UNL     1      72.409  22.986 -64.066  1.00  0.00     0.210 HD
ENDBRANCH   1  28
BRANCH   1  30
HETATM   30  C12 UNL     1      69.521  23.244 -64.777  1.00  0.00     0.140 C 
BRANCH  30  31
HETATM   31  N3  UNL     1      68.827  22.434 -65.724  1.00  0.00    -0.205 NA
BRANCH  31  32
HETATM   32  C13 UNL     1      68.994  22.623 -67.087  1.00  0.00     0.139 C 
BRANCH  32  33
HETATM   33  C14 UNL     1      68.924  21.381 -67.980  1.00  0.00     0.141 C 
BRANCH  33  34
HETATM   34  O5  UNL     1      70.151  20.688 -67.883  1.00  0.00    -0.394 OA
ATOM     35  H5  UNL     1      70.321  20.258 -68.713  1.00  0.00     0.210 HD
ENDBRANCH  33  34
BRANCH  33  36
HETATM   36  C15 UNL     1      68.730  21.676 -69.430  1.00  0.00     0.107 C 
BRANCH  36  37
HETATM   37  S1  UNL     1      67.095  21.684 -70.075  1.00  0.00    -0.162 SA
BRANCH  37  38
HETATM   38  C16 UNL     1      66.289  23.160 -70.554  1.00  0.00     0.112 C 
BRANCH  38  39
HETATM   39  C17 UNL     1      64.851  23.313 -70.203  1.00  0.00    -0.049 A 
HETATM   40  C18 UNL     1      64.344  24.340 -69.470  1.00  0.00     0.008 A 
HETATM   41  C19 UNL     1      63.008  24.438 -69.185  1.00  0.00     0.001 A 
HETATM   42  C20 UNL     1      62.128  23.486 -69.642  1.00  0.00     0.000 A 
HETATM   43  C21 UNL     1      62.603  22.436 -70.383  1.00  0.00     0.001 A 
HETATM   44  C22 UNL     1      63.946  22.357 -70.656  1.00  0.00     0.008 A 
ENDBRANCH  38  39
ENDBRANCH  37  38
ENDBRANCH  36  37
ENDBRANCH  33  36
ENDBRANCH  32  33
ENDBRANCH  31  32
BRANCH  31  45
HETATM   45  S2  UNL     1      67.177  22.360 -65.213  1.00  0.00     0.215 S 
HETATM   46  O6  UNL     1      66.803  20.879 -65.209  1.00  0.00    -0.211 OA
HETATM   47  O7  UNL     1      67.005  22.927 -63.876  1.00  0.00    -0.211 OA
BRANCH  45  48
HETATM   48  C23 UNL     1      66.111  23.168 -66.365  1.00  0.00     0.196 C 
BRANCH  48  49
HETATM   49  C24 UNL     1      64.789  22.459 -66.412  1.00  0.00    -0.043 A 
HETATM   50  C25 UNL     1      63.756  22.966 -65.647  1.00  0.00     0.008 A 
HETATM   51  C26 UNL     1      62.529  22.371 -65.648  1.00  0.00     0.001 A 
HETATM   52  C27 UNL     1      62.345  21.249 -66.433  1.00  0.00     0.000 A 
HETATM   53  C28 UNL     1      63.344  20.726 -67.198  1.00  0.00     0.001 A 
HETATM   54  C29 UNL     1      64.589  21.342 -67.189  1.00  0.00     0.008 A 
ENDBRANCH  48  49
ENDBRANCH  45  48
ENDBRANCH  31  45
ENDBRANCH  30  31
ENDBRANCH   1  30
TORSDOF 22
ENDMDL
