MODEL 1
REMARK VINA RESULT: -9.558644591      0.000      0.000
REMARK  18 active torsions:
REMARK  status: ('A' for Active; 'I' for Inactive)
REMARK    1  A    between atoms: O1_2  and  N1_3 
REMARK    2  A    between atoms: C2_5  and  N2_6 
REMARK    3  A    between atoms: C2_5  and  C8_18 
REMARK    4  A    between atoms: N2_6  and  C3_8 
REMARK    5  A    between atoms: C5_13  and  C6_14 
REMARK    6  A    between atoms: C8_18  and  N4_19 
REMARK    7  A    between atoms: C8_18  and  C28_51 
REMARK       I    between atoms: N4_19  and  C9_21 
REMARK    8  A    between atoms: C9_21  and  C10_23 
REMARK    9  A    between atoms: C10_23  and  N5_24 
REMARK   10  A    between atoms: C10_23  and  C25_48 
REMARK       I    between atoms: N5_24  and  C11_26 
REMARK   11  A    between atoms: C11_26  and  C12_28 
REMARK   12  A    between atoms: C12_28  and  C13_29 
REMARK   13  A    between atoms: C12_28  and  N6_33 
REMARK   14  A    between atoms: C13_29  and  C14_30 
REMARK       I    between atoms: N6_33  and  C17_35 
REMARK   15  A    between atoms: C17_35  and  C18_37 
REMARK   16  A    between atoms: C18_37  and  N7_39 
REMARK       I    between atoms: N7_39  and  C20_41 
REMARK   17  A    between atoms: C20_41  and  O8_43 
REMARK   18  A    between atoms: O8_43  and  C21_44 
ROOT
HETATM    1  C10 UNL     1      69.259  20.857 -62.413  1.00  0.00     0.180 C 
ENDROOT
BRANCH   1   2
HETATM    2  C9  UNL     1      69.704  21.659 -61.186  1.00  0.00     0.241 C 
HETATM    3  N4  UNL     1      70.627  21.085 -60.351  1.00  0.00    -0.347 N 
ATOM      4  H4  UNL     1      70.895  20.179 -60.735  1.00  0.00     0.163 HD
HETATM    5  O4  UNL     1      69.112  22.764 -61.155  1.00  0.00    -0.271 OA
BRANCH   3   6
HETATM    6  C8  UNL     1      71.337  21.295 -59.154  1.00  0.00     0.157 C 
BRANCH   6   7
HETATM    7  C2  UNL     1      70.380  21.352 -57.988  1.00  0.00     0.121 C 
HETATM    8  N1  UNL     1      70.545  20.481 -57.068  1.00  0.00    -0.253 N 
ATOM      9  H1  UNL     1      71.327  19.837 -57.196  1.00  0.00     0.195 HD
BRANCH   8  10
HETATM   10  O1  UNL     1      69.808  20.306 -55.938  1.00  0.00    -0.284 OA
HETATM   11  C1  UNL     1      69.146  19.093 -55.633  1.00  0.00     0.237 C 
ENDBRANCH   8  10
BRANCH   7  12
HETATM   12  N2  UNL     1      69.321  22.274 -57.878  1.00  0.00    -0.370 N 
ATOM     13  H2  UNL     1      68.450  21.986 -58.323  1.00  0.00     0.161 HD
BRANCH  12  14
HETATM   14  C3  UNL     1      69.280  23.531 -57.249  1.00  0.00     0.111 C 
HETATM   15  C4  UNL     1      70.344  24.510 -57.712  1.00  0.00     0.258 C 
HETATM   16  N3  UNL     1      70.128  25.555 -56.706  1.00  0.00    -0.059 N 
HETATM   17  C5  UNL     1      70.296  24.762 -55.499  1.00  0.00     0.287 C 
ATOM     18  H32 UNL     1      70.719  26.382 -56.784  1.00  0.00     0.278 HD
ATOM     19  H31 UNL     1      69.254  26.076 -56.782  1.00  0.00     0.278 HD
HETATM   20  C7  UNL     1      69.342  23.602 -55.771  1.00  0.00     0.071 C 
BRANCH  17  21
HETATM   21  C6  UNL     1      69.880  25.516 -54.290  1.00  0.00     0.204 C 
HETATM   22  O2  UNL     1      68.944  25.067 -53.593  1.00  0.00    -0.646 OA
HETATM   23  O3  UNL     1      70.501  26.677 -53.938  1.00  0.00    -0.646 OA
ENDBRANCH  17  21
ENDBRANCH  12  14
ENDBRANCH   7  12
ENDBRANCH   6   7
BRANCH   6  24
HETATM   24  C28 UNL     1      72.364  20.189 -58.814  1.00  0.00     0.008 C 
HETATM   25  C29 UNL     1      73.729  20.731 -58.552  1.00  0.00     0.012 C 
HETATM   26  C30 UNL     1      72.495  19.232 -59.980  1.00  0.00     0.012 C 
ENDBRANCH   6  24
ENDBRANCH   3   6
ENDBRANCH   1   2
BRANCH   1  27
HETATM   27  N5  UNL     1      68.543  21.702 -63.352  1.00  0.00    -0.346 N 
HETATM   28  C11 UNL     1      69.177  22.094 -64.586  1.00  0.00     0.241 C 
HETATM   29  O5  UNL     1      70.316  21.667 -64.780  1.00  0.00    -0.271 OA
ATOM     30  H5  UNL     1      67.597  22.016 -63.138  1.00  0.00     0.163 HD
BRANCH  28  31
HETATM   31  C12 UNL     1      68.496  22.963 -65.572  1.00  0.00     0.177 C 
BRANCH  31  32
HETATM   32  C13 UNL     1      68.735  24.404 -65.311  1.00  0.00     0.038 C 
BRANCH  32  33
HETATM   33  C14 UNL     1      69.258  25.211 -66.448  1.00  0.00    -0.020 C 
HETATM   34  C15 UNL     1      68.347  25.131 -67.671  1.00  0.00     0.009 C 
HETATM   35  C16 UNL     1      70.592  24.578 -66.880  1.00  0.00     0.009 C 
ENDBRANCH  32  33
ENDBRANCH  31  32
BRANCH  31  36
HETATM   36  N6  UNL     1      67.081  22.604 -65.458  1.00  0.00    -0.346 N 
HETATM   37  C17 UNL     1      66.249  22.148 -66.475  1.00  0.00     0.240 C 
HETATM   38  O6  UNL     1      66.536  21.994 -67.649  1.00  0.00    -0.271 OA
ATOM     39  H6  UNL     1      66.661  22.697 -64.534  1.00  0.00     0.163 HD
BRANCH  37  40
HETATM   40  C18 UNL     1      64.799  21.793 -66.116  1.00  0.00     0.174 C 
HETATM   41  C19 UNL     1      64.417  22.612 -64.904  1.00  0.00     0.042 C 
BRANCH  40  42
HETATM   42  N7  UNL     1      63.913  22.051 -67.198  1.00  0.00    -0.324 N 
HETATM   43  C20 UNL     1      62.745  21.334 -67.544  1.00  0.00     0.362 C 
HETATM   44  O7  UNL     1      62.414  20.351 -66.845  1.00  0.00    -0.238 OA
ATOM     45  H7  UNL     1      64.148  22.846 -67.794  1.00  0.00     0.165 HD
BRANCH  43  46
HETATM   46  O8  UNL     1      61.952  21.675 -68.628  1.00  0.00    -0.294 OA
BRANCH  46  47
HETATM   47  C21 UNL     1      62.004  21.037 -69.890  1.00  0.00     0.061 C 
HETATM   48  C22 UNL     1      61.578  22.069 -70.921  1.00  0.00     0.046 C 
HETATM   49  C23 UNL     1      61.021  19.885 -69.945  1.00  0.00     0.046 C 
HETATM   50  C24 UNL     1      63.368  20.546 -70.233  1.00  0.00     0.046 C 
ENDBRANCH  46  47
ENDBRANCH  43  46
ENDBRANCH  40  42
ENDBRANCH  37  40
ENDBRANCH  31  36
ENDBRANCH  28  31
ENDBRANCH   1  27
BRANCH   1  51
HETATM   51  C25 UNL     1      68.227  19.865 -61.909  1.00  0.00     0.009 C 
HETATM   52  C26 UNL     1      66.953  20.491 -61.434  1.00  0.00     0.012 C 
HETATM   53  C27 UNL     1      68.733  18.893 -60.903  1.00  0.00     0.012 C 
ENDBRANCH   1  51
TORSDOF 18
ENDMDL
MODEL 2
REMARK VINA RESULT: -9.516560816      0.858      1.261
REMARK  18 active torsions:
REMARK  status: ('A' for Active; 'I' for Inactive)
REMARK    1  A    between atoms: O1_2  and  N1_3 
REMARK    2  A    between atoms: C2_5  and  N2_6 
REMARK    3  A    between atoms: C2_5  and  C8_18 
REMARK    4  A    between atoms: N2_6  and  C3_8 
REMARK    5  A    between atoms: C5_13  and  C6_14 
REMARK    6  A    between atoms: C8_18  and  N4_19 
REMARK    7  A    between atoms: C8_18  and  C28_51 
REMARK       I    between atoms: N4_19  and  C9_21 
REMARK    8  A    between atoms: C9_21  and  C10_23 
REMARK    9  A    between atoms: C10_23  and  N5_24 
REMARK   10  A    between atoms: C10_23  and  C25_48 
REMARK       I    between atoms: N5_24  and  C11_26 
REMARK   11  A    between atoms: C11_26  and  C12_28 
REMARK   12  A    between atoms: C12_28  and  C13_29 
REMARK   13  A    between atoms: C12_28  and  N6_33 
REMARK   14  A    between atoms: C13_29  and  C14_30 
REMARK       I    between atoms: N6_33  and  C17_35 
REMARK   15  A    between atoms: C17_35  and  C18_37 
REMARK   16  A    between atoms: C18_37  and  N7_39 
REMARK       I    between atoms: N7_39  and  C20_41 
REMARK   17  A    between atoms: C20_41  and  O8_43 
REMARK   18  A    between atoms: O8_43  and  C21_44 
ROOT
HETATM    1  C10 UNL     1      69.198  21.138 -62.343  1.00  0.00     0.180 C 
ENDROOT
BRANCH   1   2
HETATM    2  C9  UNL     1      69.890  21.953 -61.245  1.00  0.00     0.241 C 
HETATM    3  N4  UNL     1      70.819  21.312 -60.468  1.00  0.00    -0.347 N 
ATOM      4  H4  UNL     1      70.916  20.352 -60.798  1.00  0.00     0.163 HD
HETATM    5  O4  UNL     1      69.459  23.130 -61.246  1.00  0.00    -0.271 OA
BRANCH   3   6
HETATM    6  C8  UNL     1      71.689  21.502 -59.377  1.00  0.00     0.157 C 
BRANCH   6   7
HETATM    7  C2  UNL     1      70.912  21.981 -58.175  1.00  0.00     0.121 C 
HETATM    8  N1  UNL     1      70.600  21.098 -57.305  1.00  0.00    -0.253 N 
ATOM      9  H1  UNL     1      70.925  20.150 -57.494  1.00  0.00     0.195 HD
BRANCH   8  10
HETATM   10  O1  UNL     1      69.888  21.268 -56.158  1.00  0.00    -0.284 OA
HETATM   11  C1  UNL     1      68.696  20.558 -55.882  1.00  0.00     0.237 C 
ENDBRANCH   8  10
BRANCH   7  12
HETATM   12  N2  UNL     1      70.498  23.313 -57.979  1.00  0.00    -0.370 N 
ATOM     13  H2  UNL     1      69.677  23.593 -58.516  1.00  0.00     0.161 HD
BRANCH  12  14
HETATM   14  C3  UNL     1      71.041  24.318 -57.159  1.00  0.00     0.111 C 
HETATM   15  C4  UNL     1      72.505  24.124 -56.802  1.00  0.00     0.258 C 
HETATM   16  N3  UNL     1      72.623  25.188 -55.798  1.00  0.00    -0.059 N 
HETATM   17  C5  UNL     1      71.558  24.782 -54.895  1.00  0.00     0.287 C 
ATOM     18  H32 UNL     1      73.545  25.308 -55.379  1.00  0.00     0.278 HD
ATOM     19  H31 UNL     1      72.572  26.144 -56.151  1.00  0.00     0.278 HD
HETATM   20  C7  UNL     1      70.390  24.625 -55.866  1.00  0.00     0.071 C 
BRANCH  17  21
HETATM   21  C6  UNL     1      71.269  25.834 -53.888  1.00  0.00     0.204 C 
HETATM   22  O2  UNL     1      70.405  26.698 -54.151  1.00  0.00    -0.646 OA
HETATM   23  O3  UNL     1      71.931  25.865 -52.696  1.00  0.00    -0.646 OA
ENDBRANCH  17  21
ENDBRANCH  12  14
ENDBRANCH   7  12
ENDBRANCH   6   7
BRANCH   6  24
HETATM   24  C28 UNL     1      72.439  20.228 -58.924  1.00  0.00     0.008 C 
HETATM   25  C29 UNL     1      73.876  20.484 -58.615  1.00  0.00     0.012 C 
HETATM   26  C30 UNL     1      72.412  19.194 -60.031  1.00  0.00     0.012 C 
ENDBRANCH   6  24
ENDBRANCH   3   6
ENDBRANCH   1   2
BRANCH   1  27
HETATM   27  N5  UNL     1      68.530  22.010 -63.291  1.00  0.00    -0.346 N 
HETATM   28  C11 UNL     1      69.087  22.192 -64.609  1.00  0.00     0.241 C 
HETATM   29  O5  UNL     1      70.119  21.570 -64.862  1.00  0.00    -0.271 OA
ATOM     30  H5  UNL     1      67.671  22.493 -63.026  1.00  0.00     0.163 HD
BRANCH  28  31
HETATM   31  C12 UNL     1      68.452  23.079 -65.609  1.00  0.00     0.177 C 
BRANCH  31  32
HETATM   32  C13 UNL     1      68.716  24.514 -65.337  1.00  0.00     0.038 C 
BRANCH  32  33
HETATM   33  C14 UNL     1      69.257  25.320 -66.466  1.00  0.00    -0.020 C 
HETATM   34  C15 UNL     1      68.355  25.257 -67.696  1.00  0.00     0.009 C 
HETATM   35  C16 UNL     1      70.587  24.673 -66.891  1.00  0.00     0.009 C 
ENDBRANCH  32  33
ENDBRANCH  31  32
BRANCH  31  36
HETATM   36  N6  UNL     1      67.028  22.751 -65.536  1.00  0.00    -0.346 N 
HETATM   37  C17 UNL     1      66.315  21.921 -66.394  1.00  0.00     0.240 C 
HETATM   38  O6  UNL     1      66.737  21.341 -67.379  1.00  0.00    -0.271 OA
ATOM     39  H6  UNL     1      66.501  23.176 -64.773  1.00  0.00     0.163 HD
BRANCH  37  40
HETATM   40  C18 UNL     1      64.825  21.688 -66.101  1.00  0.00     0.174 C 
HETATM   41  C19 UNL     1      64.449  22.570 -64.933  1.00  0.00     0.042 C 
BRANCH  40  42
HETATM   42  N7  UNL     1      64.017  21.979 -67.234  1.00  0.00    -0.324 N 
HETATM   43  C20 UNL     1      62.777  21.394 -67.580  1.00  0.00     0.362 C 
HETATM   44  O7  UNL     1      62.298  20.514 -66.832  1.00  0.00    -0.238 OA
ATOM     45  H7  UNL     1      64.372  22.693 -67.871  1.00  0.00     0.165 HD
BRANCH  43  46
HETATM   46  O8  UNL     1      62.071  21.756 -68.717  1.00  0.00    -0.294 OA
BRANCH  46  47
HETATM   47  C21 UNL     1      62.182  21.105 -69.969  1.00  0.00     0.061 C 
HETATM   48  C22 UNL     1      61.112  20.026 -69.998  1.00  0.00     0.046 C 
HETATM   49  C23 UNL     1      63.533  20.430 -70.100  1.00  0.00     0.046 C 
HETATM   50  C24 UNL     1      61.972  22.027 -71.121  1.00  0.00     0.046 C 
ENDBRANCH  46  47
ENDBRANCH  43  46
ENDBRANCH  40  42
ENDBRANCH  37  40
ENDBRANCH  31  36
ENDBRANCH  28  31
ENDBRANCH   1  27
BRANCH   1  51
HETATM   51  C25 UNL     1      68.082  20.375 -61.653  1.00  0.00     0.009 C 
HETATM   52  C26 UNL     1      68.319  18.900 -61.547  1.00  0.00     0.012 C 
HETATM   53  C27 UNL     1      66.719  20.644 -62.185  1.00  0.00     0.012 C 
ENDBRANCH   1  51
TORSDOF 18
ENDMDL
MODEL 3
REMARK VINA RESULT: -9.446323609      2.453      3.522
REMARK  18 active torsions:
REMARK  status: ('A' for Active; 'I' for Inactive)
REMARK    1  A    between atoms: O1_2  and  N1_3 
REMARK    2  A    between atoms: C2_5  and  N2_6 
REMARK    3  A    between atoms: C2_5  and  C8_18 
REMARK    4  A    between atoms: N2_6  and  C3_8 
REMARK    5  A    between atoms: C5_13  and  C6_14 
REMARK    6  A    between atoms: C8_18  and  N4_19 
REMARK    7  A    between atoms: C8_18  and  C28_51 
REMARK       I    between atoms: N4_19  and  C9_21 
REMARK    8  A    between atoms: C9_21  and  C10_23 
REMARK    9  A    between atoms: C10_23  and  N5_24 
REMARK   10  A    between atoms: C10_23  and  C25_48 
REMARK       I    between atoms: N5_24  and  C11_26 
REMARK   11  A    between atoms: C11_26  and  C12_28 
REMARK   12  A    between atoms: C12_28  and  C13_29 
REMARK   13  A    between atoms: C12_28  and  N6_33 
REMARK   14  A    between atoms: C13_29  and  C14_30 
REMARK       I    between atoms: N6_33  and  C17_35 
REMARK   15  A    between atoms: C17_35  and  C18_37 
REMARK   16  A    between atoms: C18_37  and  N7_39 
REMARK       I    between atoms: N7_39  and  C20_41 
REMARK   17  A    between atoms: C20_41  and  O8_43 
REMARK   18  A    between atoms: O8_43  and  C21_44 
ROOT
HETATM    1  C10 UNL     1      69.246  21.288 -62.225  1.00  0.00     0.180 C 
ENDROOT
BRANCH   1   2
HETATM    2  C9  UNL     1      69.798  21.925 -60.945  1.00  0.00     0.241 C 
HETATM    3  N4  UNL     1      70.695  21.197 -60.209  1.00  0.00    -0.347 N 
ATOM      4  H4  UNL     1      70.873  20.315 -60.689  1.00  0.00     0.163 HD
HETATM    5  O4  UNL     1      69.302  23.065 -60.783  1.00  0.00    -0.271 OA
BRANCH   3   6
HETATM    6  C8  UNL     1      71.460  21.227 -59.027  1.00  0.00     0.157 C 
BRANCH   6   7
HETATM    7  C2  UNL     1      70.550  21.222 -57.823  1.00  0.00     0.121 C 
HETATM    8  N1  UNL     1      70.817  20.372 -56.906  1.00  0.00    -0.253 N 
ATOM      9  H1  UNL     1      71.638  19.787 -57.064  1.00  0.00     0.195 HD
BRANCH   8  10
HETATM   10  O1  UNL     1      70.142  20.152 -55.746  1.00  0.00    -0.284 OA
HETATM   11  C1  UNL     1      69.264  19.058 -55.564  1.00  0.00     0.237 C 
ENDBRANCH   8  10
BRANCH   7  12
HETATM   12  N2  UNL     1      69.432  22.065 -57.672  1.00  0.00    -0.370 N 
ATOM     13  H2  UNL     1      68.551  21.676 -58.005  1.00  0.00     0.161 HD
BRANCH  12  14
HETATM   14  C3  UNL     1      69.344  23.361 -57.133  1.00  0.00     0.111 C 
HETATM   15  C4  UNL     1      70.348  24.353 -57.695  1.00  0.00     0.258 C 
HETATM   16  N3  UNL     1      70.104  25.457 -56.760  1.00  0.00    -0.059 N 
HETATM   17  C5  UNL     1      70.340  24.763 -55.505  1.00  0.00     0.287 C 
ATOM     18  H32 UNL     1      70.652  26.304 -56.914  1.00  0.00     0.278 HD
ATOM     19  H31 UNL     1      69.204  25.929 -56.849  1.00  0.00     0.278 HD
HETATM   20  C7  UNL     1      69.438  23.542 -55.667  1.00  0.00     0.071 C 
BRANCH  17  21
HETATM   21  C6  UNL     1      69.916  25.582 -54.342  1.00  0.00     0.204 C 
HETATM   22  O2  UNL     1      70.496  26.668 -54.127  1.00  0.00    -0.646 OA
HETATM   23  O3  UNL     1      68.913  25.165 -53.518  1.00  0.00    -0.646 OA
ENDBRANCH  17  21
ENDBRANCH  12  14
ENDBRANCH   7  12
ENDBRANCH   6   7
BRANCH   6  24
HETATM   24  C28 UNL     1      72.416  20.024 -58.849  1.00  0.00     0.008 C 
HETATM   25  C29 UNL     1      73.833  20.440 -58.637  1.00  0.00     0.012 C 
HETATM   26  C30 UNL     1      72.399  19.165 -60.097  1.00  0.00     0.012 C 
ENDBRANCH   6  24
ENDBRANCH   3   6
ENDBRANCH   1   2
BRANCH   1  27
HETATM   27  N5  UNL     1      68.842  22.307 -63.177  1.00  0.00    -0.346 N 
HETATM   28  C11 UNL     1      69.673  22.582 -64.323  1.00  0.00     0.241 C 
HETATM   29  O5  UNL     1      70.698  21.910 -64.435  1.00  0.00    -0.271 OA
ATOM     30  H5  UNL     1      67.975  22.826 -63.035  1.00  0.00     0.163 HD
BRANCH  28  31
HETATM   31  C12 UNL     1      69.313  23.619 -65.317  1.00  0.00     0.177 C 
BRANCH  31  32
HETATM   32  C13 UNL     1      67.874  23.976 -65.261  1.00  0.00     0.038 C 
BRANCH  32  33
HETATM   33  C14 UNL     1      67.022  23.491 -66.383  1.00  0.00    -0.020 C 
HETATM   34  C15 UNL     1      66.245  24.629 -67.042  1.00  0.00     0.009 C 
HETATM   35  C16 UNL     1      65.960  22.557 -65.777  1.00  0.00     0.009 C 
ENDBRANCH  32  33
ENDBRANCH  31  32
BRANCH  31  36
HETATM   36  N6  UNL     1      69.694  23.038 -66.605  1.00  0.00    -0.346 N 
HETATM   37  C17 UNL     1      70.546  23.591 -67.554  1.00  0.00     0.240 C 
HETATM   38  O6  UNL     1      71.107  24.672 -67.501  1.00  0.00    -0.271 OA
ATOM     39  H6  UNL     1      69.292  22.129 -66.831  1.00  0.00     0.163 HD
BRANCH  37  40
HETATM   40  C18 UNL     1      70.835  22.780 -68.825  1.00  0.00     0.174 C 
HETATM   41  C19 UNL     1      72.288  22.366 -68.780  1.00  0.00     0.042 C 
BRANCH  40  42
HETATM   42  N7  UNL     1      69.989  21.641 -68.924  1.00  0.00    -0.324 N 
HETATM   43  C20 UNL     1      69.192  21.253 -70.025  1.00  0.00     0.362 C 
HETATM   44  O7  UNL     1      69.200  21.965 -71.053  1.00  0.00    -0.238 OA
ATOM     45  H7  UNL     1      69.954  21.033 -68.105  1.00  0.00     0.165 HD
BRANCH  43  46
HETATM   46  O8  UNL     1      68.399  20.116 -70.010  1.00  0.00    -0.294 OA
BRANCH  46  47
HETATM   47  C21 UNL     1      67.040  20.094 -69.619  1.00  0.00     0.061 C 
HETATM   48  C22 UNL     1      66.973  19.321 -68.312  1.00  0.00     0.046 C 
HETATM   49  C23 UNL     1      66.202  19.355 -70.644  1.00  0.00     0.046 C 
HETATM   50  C24 UNL     1      66.477  21.457 -69.404  1.00  0.00     0.046 C 
ENDBRANCH  46  47
ENDBRANCH  43  46
ENDBRANCH  40  42
ENDBRANCH  37  40
ENDBRANCH  31  36
ENDBRANCH  28  31
ENDBRANCH   1  27
BRANCH   1  51
HETATM   51  C25 UNL     1      67.959  20.592 -61.821  1.00  0.00     0.009 C 
HETATM   52  C26 UNL     1      68.093  19.113 -61.631  1.00  0.00     0.012 C 
HETATM   53  C27 UNL     1      66.785  20.900 -62.681  1.00  0.00     0.012 C 
ENDBRANCH   1  51
TORSDOF 18
ENDMDL
MODEL 4
REMARK VINA RESULT: -9.409394421      2.521     10.952
REMARK  18 active torsions:
REMARK  status: ('A' for Active; 'I' for Inactive)
REMARK    1  A    between atoms: O1_2  and  N1_3 
REMARK    2  A    between atoms: C2_5  and  N2_6 
REMARK    3  A    between atoms: C2_5  and  C8_18 
REMARK    4  A    between atoms: N2_6  and  C3_8 
REMARK    5  A    between atoms: C5_13  and  C6_14 
REMARK    6  A    between atoms: C8_18  and  N4_19 
REMARK    7  A    between atoms: C8_18  and  C28_51 
REMARK       I    between atoms: N4_19  and  C9_21 
REMARK    8  A    between atoms: C9_21  and  C10_23 
REMARK    9  A    between atoms: C10_23  and  N5_24 
REMARK   10  A    between atoms: C10_23  and  C25_48 
REMARK       I    between atoms: N5_24  and  C11_26 
REMARK   11  A    between atoms: C11_26  and  C12_28 
REMARK   12  A    between atoms: C12_28  and  C13_29 
REMARK   13  A    between atoms: C12_28  and  N6_33 
REMARK   14  A    between atoms: C13_29  and  C14_30 
REMARK       I    between atoms: N6_33  and  C17_35 
REMARK   15  A    between atoms: C17_35  and  C18_37 
REMARK   16  A    between atoms: C18_37  and  N7_39 
REMARK       I    between atoms: N7_39  and  C20_41 
REMARK   17  A    between atoms: C20_41  and  O8_43 
REMARK   18  A    between atoms: O8_43  and  C21_44 
ROOT
HETATM    1  C10 UNL     1      68.915  22.133 -62.262  1.00  0.00     0.180 C 
ENDROOT
BRANCH   1   2
HETATM    2  C9  UNL     1      69.577  22.361 -63.625  1.00  0.00     0.241 C 
HETATM    3  N4  UNL     1      68.775  22.321 -64.736  1.00  0.00    -0.347 N 
ATOM      4  H4  UNL     1      67.812  22.167 -64.438  1.00  0.00     0.163 HD
HETATM    5  O4  UNL     1      70.807  22.553 -63.480  1.00  0.00    -0.271 OA
BRANCH   3   6
HETATM    6  C8  UNL     1      68.802  22.416 -66.140  1.00  0.00     0.157 C 
BRANCH   6   7
HETATM    7  C2  UNL     1      67.431  22.125 -66.704  1.00  0.00     0.121 C 
HETATM    8  N1  UNL     1      66.518  21.822 -65.862  1.00  0.00    -0.253 N 
ATOM      9  H1  UNL     1      66.796  21.825 -64.880  1.00  0.00     0.195 HD
BRANCH   8  10
HETATM   10  O1  UNL     1      65.222  21.496 -66.115  1.00  0.00    -0.284 OA
HETATM   11  C1  UNL     1      64.136  22.331 -65.758  1.00  0.00     0.237 C 
ENDBRANCH   8  10
BRANCH   7  12
HETATM   12  N2  UNL     1      67.121  22.143 -68.077  1.00  0.00    -0.370 N 
ATOM     13  H2  UNL     1      66.763  23.032 -68.427  1.00  0.00     0.161 HD
BRANCH  12  14
HETATM   14  C3  UNL     1      67.227  21.125 -69.041  1.00  0.00     0.111 C 
HETATM   15  C4  UNL     1      65.931  20.390 -69.337  1.00  0.00     0.258 C 
HETATM   16  N3  UNL     1      66.480  19.312 -70.165  1.00  0.00    -0.059 N 
HETATM   17  C5  UNL     1      67.465  18.777 -69.239  1.00  0.00     0.287 C 
ATOM     18  H32 UNL     1      65.805  18.644 -70.536  1.00  0.00     0.278 HD
ATOM     19  H31 UNL     1      66.830  19.586 -71.083  1.00  0.00     0.278 HD
HETATM   20  C7  UNL     1      68.219  20.044 -68.845  1.00  0.00     0.071 C 
BRANCH  17  21
HETATM   21  C6  UNL     1      68.371  17.809 -69.906  1.00  0.00     0.204 C 
HETATM   22  O2  UNL     1      68.569  16.699 -69.366  1.00  0.00    -0.646 OA
HETATM   23  O3  UNL     1      68.981  18.117 -71.086  1.00  0.00    -0.646 OA
ENDBRANCH  17  21
ENDBRANCH  12  14
ENDBRANCH   7  12
ENDBRANCH   6   7
BRANCH   6  24
HETATM   24  C28 UNL     1      69.203  23.807 -66.683  1.00  0.00     0.008 C 
HETATM   25  C29 UNL     1      70.681  23.993 -66.756  1.00  0.00     0.012 C 
HETATM   26  C30 UNL     1      68.676  24.890 -65.763  1.00  0.00     0.012 C 
ENDBRANCH   6  24
ENDBRANCH   3   6
ENDBRANCH   1   2
BRANCH   1  27
HETATM   27  N5  UNL     1      69.915  21.950 -61.226  1.00  0.00    -0.346 N 
HETATM   28  C11 UNL     1      69.723  22.558 -59.933  1.00  0.00     0.241 C 
HETATM   29  O5  UNL     1      68.688  23.206 -59.777  1.00  0.00    -0.271 OA
ATOM     30  H5  UNL     1      70.749  21.393 -61.413  1.00  0.00     0.163 HD
BRANCH  28  31
HETATM   31  C12 UNL     1      70.718  22.412 -58.846  1.00  0.00     0.177 C 
BRANCH  31  32
HETATM   32  C13 UNL     1      71.882  21.589 -59.257  1.00  0.00     0.038 C 
BRANCH  32  33
HETATM   33  C14 UNL     1      71.829  20.140 -58.919  1.00  0.00    -0.020 C 
HETATM   34  C15 UNL     1      72.804  19.778 -57.801  1.00  0.00     0.009 C 
HETATM   35  C16 UNL     1      72.311  19.366 -60.159  1.00  0.00     0.009 C 
ENDBRANCH  32  33
ENDBRANCH  31  32
BRANCH  31  36
HETATM   36  N6  UNL     1      69.968  21.806 -57.745  1.00  0.00    -0.346 N 
HETATM   37  C17 UNL     1      70.025  22.156 -56.401  1.00  0.00     0.240 C 
HETATM   38  O6  UNL     1      70.731  23.009 -55.890  1.00  0.00    -0.271 OA
ATOM     39  H6  UNL     1      69.335  21.045 -57.989  1.00  0.00     0.163 HD
BRANCH  37  40
HETATM   40  C18 UNL     1      69.115  21.404 -55.419  1.00  0.00     0.174 C 
HETATM   41  C19 UNL     1      68.052  22.372 -54.953  1.00  0.00     0.042 C 
BRANCH  40  42
HETATM   42  N7  UNL     1      68.526  20.259 -56.023  1.00  0.00    -0.324 N 
HETATM   43  C20 UNL     1      69.068  18.957 -56.111  1.00  0.00     0.362 C 
HETATM   44  O7  UNL     1      70.195  18.741 -55.614  1.00  0.00    -0.238 OA
ATOM     45  H7  UNL     1      67.604  20.394 -56.441  1.00  0.00     0.165 HD
BRANCH  43  46
HETATM   46  O8  UNL     1      68.402  17.910 -56.728  1.00  0.00    -0.294 OA
BRANCH  46  47
HETATM   47  C21 UNL     1      68.066  17.874 -58.102  1.00  0.00     0.061 C 
HETATM   48  C22 UNL     1      67.104  16.713 -58.287  1.00  0.00     0.046 C 
HETATM   49  C23 UNL     1      69.297  17.603 -58.945  1.00  0.00     0.046 C 
HETATM   50  C24 UNL     1      67.408  19.127 -58.569  1.00  0.00     0.046 C 
ENDBRANCH  46  47
ENDBRANCH  43  46
ENDBRANCH  40  42
ENDBRANCH  37  40
ENDBRANCH  31  36
ENDBRANCH  28  31
ENDBRANCH   1  27
BRANCH   1  51
HETATM   51  C25 UNL     1      68.203  20.796 -62.365  1.00  0.00     0.009 C 
HETATM   52  C26 UNL     1      66.790  20.813 -61.867  1.00  0.00     0.012 C 
HETATM   53  C27 UNL     1      68.944  19.646 -61.783  1.00  0.00     0.012 C 
ENDBRANCH   1  51
TORSDOF 18
ENDMDL
MODEL 5
REMARK VINA RESULT: -9.408677009      1.464      3.393
REMARK  18 active torsions:
REMARK  status: ('A' for Active; 'I' for Inactive)
REMARK    1  A    between atoms: O1_2  and  N1_3 
REMARK    2  A    between atoms: C2_5  and  N2_6 
REMARK    3  A    between atoms: C2_5  and  C8_18 
REMARK    4  A    between atoms: N2_6  and  C3_8 
REMARK    5  A    between atoms: C5_13  and  C6_14 
REMARK    6  A    between atoms: C8_18  and  N4_19 
REMARK    7  A    between atoms: C8_18  and  C28_51 
REMARK       I    between atoms: N4_19  and  C9_21 
REMARK    8  A    between atoms: C9_21  and  C10_23 
REMARK    9  A    between atoms: C10_23  and  N5_24 
REMARK   10  A    between atoms: C10_23  and  C25_48 
REMARK       I    between atoms: N5_24  and  C11_26 
REMARK   11  A    between atoms: C11_26  and  C12_28 
REMARK   12  A    between atoms: C12_28  and  C13_29 
REMARK   13  A    between atoms: C12_28  and  N6_33 
REMARK   14  A    between atoms: C13_29  and  C14_30 
REMARK       I    between atoms: N6_33  and  C17_35 
REMARK   15  A    between atoms: C17_35  and  C18_37 
REMARK   16  A    between atoms: C18_37  and  N7_39 
REMARK       I    between atoms: N7_39  and  C20_41 
REMARK   17  A    between atoms: C20_41  and  O8_43 
REMARK   18  A    between atoms: O8_43  and  C21_44 
ROOT
HETATM    1  C10 UNL     1      69.189  21.090 -62.402  1.00  0.00     0.180 C 
ENDROOT
BRANCH   1   2
HETATM    2  C9  UNL     1      69.897  21.925 -61.330  1.00  0.00     0.241 C 
HETATM    3  N4  UNL     1      70.812  21.290 -60.531  1.00  0.00    -0.347 N 
ATOM      4  H4  UNL     1      70.887  20.318 -60.830  1.00  0.00     0.163 HD
HETATM    5  O4  UNL     1      69.493  23.111 -61.369  1.00  0.00    -0.271 OA
BRANCH   3   6
HETATM    6  C8  UNL     1      71.685  21.496 -59.446  1.00  0.00     0.157 C 
BRANCH   6   7
HETATM    7  C2  UNL     1      70.938  22.127 -58.295  1.00  0.00     0.121 C 
HETATM    8  N1  UNL     1      71.586  22.967 -57.583  1.00  0.00    -0.253 N 
ATOM      9  H1  UNL     1      72.547  23.151 -57.872  1.00  0.00     0.195 HD
BRANCH   8  10
HETATM   10  O1  UNL     1      71.152  23.647 -56.487  1.00  0.00    -0.284 OA
HETATM   11  C1  UNL     1      70.672  24.976 -56.548  1.00  0.00     0.237 C 
ENDBRANCH   8  10
BRANCH   7  12
HETATM   12  N2  UNL     1      69.605  21.824 -57.956  1.00  0.00    -0.370 N 
ATOM     13  H2  UNL     1      68.926  22.549 -58.186  1.00  0.00     0.161 HD
BRANCH  12  14
HETATM   14  C3  UNL     1      69.065  20.676 -57.350  1.00  0.00     0.111 C 
HETATM   15  C4  UNL     1      69.923  20.073 -56.251  1.00  0.00     0.258 C 
HETATM   16  N3  UNL     1      69.172  18.829 -56.050  1.00  0.00    -0.059 N 
HETATM   17  C5  UNL     1      69.201  18.312 -57.408  1.00  0.00     0.287 C 
ATOM     18  H32 UNL     1      69.525  18.205 -55.325  1.00  0.00     0.278 HD
ATOM     19  H31 UNL     1      68.249  18.927 -55.627  1.00  0.00     0.278 HD
HETATM   20  C7  UNL     1      68.695  19.518 -58.196  1.00  0.00     0.071 C 
BRANCH  17  21
HETATM   21  C6  UNL     1      68.285  17.155 -57.569  1.00  0.00     0.204 C 
HETATM   22  O2  UNL     1      67.227  17.310 -58.218  1.00  0.00    -0.646 OA
HETATM   23  O3  UNL     1      68.583  15.942 -57.022  1.00  0.00    -0.646 OA
ENDBRANCH  17  21
ENDBRANCH  12  14
ENDBRANCH   7  12
ENDBRANCH   6   7
BRANCH   6  24
HETATM   24  C28 UNL     1      72.328  20.206 -58.885  1.00  0.00     0.008 C 
HETATM   25  C29 UNL     1      73.807  20.323 -58.723  1.00  0.00     0.012 C 
HETATM   26  C30 UNL     1      72.087  19.054 -59.838  1.00  0.00     0.012 C 
ENDBRANCH   6  24
ENDBRANCH   3   6
ENDBRANCH   1   2
BRANCH   1  27
HETATM   27  N5  UNL     1      68.506  21.946 -63.355  1.00  0.00    -0.346 N 
HETATM   28  C11 UNL     1      69.087  22.171 -64.656  1.00  0.00     0.241 C 
HETATM   29  O5  UNL     1      70.152  21.600 -64.890  1.00  0.00    -0.271 OA
ATOM     30  H5  UNL     1      67.620  22.385 -63.106  1.00  0.00     0.163 HD
BRANCH  28  31
HETATM   31  C12 UNL     1      68.437  23.044 -65.660  1.00  0.00     0.177 C 
BRANCH  31  32
HETATM   32  C13 UNL     1      68.649  24.484 -65.375  1.00  0.00     0.038 C 
BRANCH  32  33
HETATM   33  C14 UNL     1      69.199  25.311 -66.484  1.00  0.00    -0.020 C 
HETATM   34  C15 UNL     1      68.311  25.266 -67.725  1.00  0.00     0.009 C 
HETATM   35  C16 UNL     1      70.536  24.677 -66.905  1.00  0.00     0.009 C 
ENDBRANCH  32  33
ENDBRANCH  31  32
BRANCH  31  36
HETATM   36  N6  UNL     1      67.024  22.668 -65.610  1.00  0.00    -0.346 N 
HETATM   37  C17 UNL     1      66.269  22.109 -66.636  1.00  0.00     0.240 C 
HETATM   38  O6  UNL     1      66.637  21.859 -67.770  1.00  0.00    -0.271 OA
ATOM     39  H6  UNL     1      66.540  22.833 -64.728  1.00  0.00     0.163 HD
BRANCH  37  40
HETATM   40  C18 UNL     1      64.803  21.758 -66.344  1.00  0.00     0.174 C 
HETATM   41  C19 UNL     1      64.367  22.579 -65.152  1.00  0.00     0.042 C 
BRANCH  40  42
HETATM   42  N7  UNL     1      63.969  22.016 -67.467  1.00  0.00    -0.324 N 
HETATM   43  C20 UNL     1      62.722  21.423 -67.768  1.00  0.00     0.362 C 
HETATM   44  O7  UNL     1      62.260  20.565 -66.983  1.00  0.00    -0.238 OA
ATOM     45  H7  UNL     1      64.310  22.710 -68.132  1.00  0.00     0.165 HD
BRANCH  43  46
HETATM   46  O8  UNL     1      61.991  21.751 -68.898  1.00  0.00    -0.294 OA
BRANCH  46  47
HETATM   47  C21 UNL     1      61.995  21.003 -70.100  1.00  0.00     0.061 C 
HETATM   48  C22 UNL     1      61.645  21.969 -71.218  1.00  0.00     0.046 C 
HETATM   49  C23 UNL     1      60.931  19.924 -70.060  1.00  0.00     0.046 C 
HETATM   50  C24 UNL     1      63.320  20.385 -70.391  1.00  0.00     0.046 C 
ENDBRANCH  46  47
ENDBRANCH  43  46
ENDBRANCH  40  42
ENDBRANCH  37  40
ENDBRANCH  31  36
ENDBRANCH  28  31
ENDBRANCH   1  27
BRANCH   1  51
HETATM   51  C25 UNL     1      68.083  20.341 -61.681  1.00  0.00     0.009 C 
HETATM   52  C26 UNL     1      68.263  18.855 -61.657  1.00  0.00     0.012 C 
HETATM   53  C27 UNL     1      66.704  20.690 -62.116  1.00  0.00     0.012 C 
ENDBRANCH   1  51
TORSDOF 18
ENDMDL
