MODEL 1
REMARK VINA RESULT: -8.638218937      0.000      0.000
REMARK  22 active torsions:
REMARK  status: ('A' for Active; 'I' for Inactive)
REMARK    1  A    between atoms: C2_2  and  C4_4 
REMARK    2  A    between atoms: C4_4  and  C5_5 
REMARK    3  A    between atoms: C5_5  and  O1_6 
REMARK    4  A    between atoms: C5_5  and  C6_8 
REMARK    5  A    between atoms: C6_8  and  O2_9 
REMARK    6  A    between atoms: C6_8  and  N1_11 
REMARK    7  A    between atoms: N1_11  and  C7_13 
REMARK    8  A    between atoms: C7_13  and  C8_14 
REMARK    9  A    between atoms: C7_13  and  C11_17 
REMARK   10  A    between atoms: C12_18  and  O3_19 
REMARK   11  A    between atoms: N2_22  and  C14_23 
REMARK   12  A    between atoms: C14_23  and  O4_24 
REMARK   13  A    between atoms: C15_26  and  N3_27 
REMARK   14  A    between atoms: C15_26  and  C31_52 
REMARK       I    between atoms: N3_27  and  C16_29 
REMARK   15  A    between atoms: C16_29  and  C17_31 
REMARK   16  A    between atoms: C17_31  and  N4_32 
REMARK   17  A    between atoms: C17_31  and  C28_49 
REMARK       I    between atoms: N4_32  and  C18_34 
REMARK   18  A    between atoms: C18_34  and  C19_36 
REMARK   19  A    between atoms: C19_36  and  N5_37 
REMARK   20  A    between atoms: C19_36  and  C25_46 
REMARK       I    between atoms: N5_37  and  C20_39 
REMARK   21  A    between atoms: C20_39  and  O8_41 
REMARK   22  A    between atoms: O8_41  and  C21_42 
ROOT
HETATM    1  C14 UNL     1      68.757  20.731 -59.515  1.00  0.00     0.162 C 
HETATM    2  C15 UNL     1      68.463  19.866 -60.610  1.00  0.00     0.066 C 
ENDROOT
BRANCH   2   3
HETATM    3  N3  UNL     1      68.668  20.521 -61.921  1.00  0.00    -0.325 N 
HETATM    4  C16 UNL     1      67.580  20.986 -62.687  1.00  0.00     0.245 C 
HETATM    5  O5  UNL     1      66.432  20.840 -62.253  1.00  0.00    -0.271 OA
ATOM      6  H3  UNL     1      69.616  20.639 -62.278  1.00  0.00     0.169 HD
BRANCH   4   7
HETATM    7  C17 UNL     1      67.753  21.643 -64.001  1.00  0.00     0.180 C 
BRANCH   7   8
HETATM    8  N4  UNL     1      66.537  22.065 -64.576  1.00  0.00    -0.346 N 
HETATM    9  C18 UNL     1      65.839  21.582 -65.694  1.00  0.00     0.241 C 
HETATM   10  O6  UNL     1      66.266  20.616 -66.365  1.00  0.00    -0.271 OA
ATOM     11  H4  UNL     1      66.091  22.849 -64.101  1.00  0.00     0.163 HD
BRANCH   9  12
HETATM   12  C19 UNL     1      64.561  22.195 -66.132  1.00  0.00     0.182 C 
BRANCH  12  13
HETATM   13  N5  UNL     1      63.975  21.425 -67.228  1.00  0.00    -0.323 N 
HETATM   14  C20 UNL     1      62.604  21.081 -67.231  1.00  0.00     0.362 C 
HETATM   15  O7  UNL     1      61.882  21.445 -66.284  1.00  0.00    -0.238 OA
ATOM     16  H5  UNL     1      64.567  21.129 -68.004  1.00  0.00     0.165 HD
BRANCH  14  17
HETATM   17  O8  UNL     1      62.075  20.354 -68.264  1.00  0.00    -0.294 OA
BRANCH  17  18
HETATM   18  C21 UNL     1      61.888  20.856 -69.572  1.00  0.00     0.061 C 
HETATM   19  C22 UNL     1      61.615  22.346 -69.566  1.00  0.00     0.046 C 
HETATM   20  C23 UNL     1      63.132  20.564 -70.367  1.00  0.00     0.046 C 
HETATM   21  C24 UNL     1      60.713  20.149 -70.204  1.00  0.00     0.046 C 
ENDBRANCH  17  18
ENDBRANCH  14  17
ENDBRANCH  12  13
BRANCH  12  22
HETATM   22  C25 UNL     1      64.769  23.585 -66.743  1.00  0.00     0.009 C 
HETATM   23  C26 UNL     1      63.617  24.505 -66.491  1.00  0.00     0.012 C 
HETATM   24  C27 UNL     1      65.228  23.513 -68.158  1.00  0.00     0.012 C 
ENDBRANCH  12  22
ENDBRANCH   9  12
ENDBRANCH   7   8
BRANCH   7  25
HETATM   25  C28 UNL     1      68.898  22.609 -64.031  1.00  0.00     0.009 C 
HETATM   26  C29 UNL     1      70.099  21.892 -64.615  1.00  0.00     0.012 C 
HETATM   27  C30 UNL     1      68.681  23.882 -64.754  1.00  0.00     0.012 C 
ENDBRANCH   7  25
ENDBRANCH   4   7
ENDBRANCH   2   3
BRANCH   2  28
HETATM   28  C31 UNL     1      68.912  18.457 -60.674  1.00  0.00     0.032 C 
HETATM   29  C32 UNL     1      68.043  17.515 -59.938  1.00  0.00     0.016 C 
HETATM   30  C33 UNL     1      70.333  18.245 -60.191  1.00  0.00     0.016 C 
ENDBRANCH   2  28
BRANCH   1  31
HETATM   31  N2  UNL     1      68.738  20.664 -58.123  1.00  0.00    -0.345 N 
HETATM   32  C11 UNL     1      69.318  21.517 -57.078  1.00  0.00     0.162 C 
HETATM   33  C12 UNL     1      68.577  20.842 -56.002  1.00  0.00     0.164 C 
HETATM   34  C13 UNL     1      68.194  19.863 -57.071  1.00  0.00     0.160 C 
BRANCH  32  35
HETATM   35  C7  UNL     1      70.800  21.582 -56.984  1.00  0.00     0.013 C 
BRANCH  35  36
HETATM   36  N1  UNL     1      71.179  22.330 -55.863  1.00  0.00    -0.366 N 
ATOM     37  H1  UNL     1      71.212  21.845 -54.966  1.00  0.00     0.161 HD
BRANCH  36  38
HETATM   38  C6  UNL     1      71.516  23.678 -55.873  1.00  0.00     0.246 C 
BRANCH  38  39
HETATM   39  C5  UNL     1      70.541  24.601 -55.105  1.00  0.00     0.167 C 
BRANCH  39  40
HETATM   40  C4  UNL     1      69.903  25.502 -56.105  1.00  0.00     0.040 C 
BRANCH  40  41
HETATM   41  C2  UNL     1      70.482  25.471 -57.480  1.00  0.00    -0.020 C 
HETATM   42  C1  UNL     1      69.542  24.883 -58.522  1.00  0.00     0.009 C 
HETATM   43  C3  UNL     1      71.023  26.794 -57.958  1.00  0.00     0.009 C 
ENDBRANCH  40  41
ENDBRANCH  39  40
BRANCH  39  44
HETATM   44  O1  UNL     1      69.581  23.741 -54.543  1.00  0.00    -0.391 OA
ATOM     45  H1  UNL     1      69.894  23.396 -53.716  1.00  0.00     0.210 HD
ENDBRANCH  39  44
ENDBRANCH  38  39
BRANCH  38  46
HETATM   46  O2  UNL     1      72.766  23.819 -55.177  1.00  0.00    -0.374 OA
ATOM     47  H2  UNL     1      73.065  22.928 -55.045  1.00  0.00     0.212 HD
ENDBRANCH  38  46
ENDBRANCH  36  38
ENDBRANCH  35  36
BRANCH  35  48
HETATM   48  C8  UNL     1      71.565  20.365 -57.346  1.00  0.00     0.025 C 
HETATM   49  C9  UNL     1      72.748  20.594 -58.255  1.00  0.00     0.016 C 
HETATM   50  C10 UNL     1      72.138  19.648 -56.122  1.00  0.00     0.016 C 
ENDBRANCH  35  48
ENDBRANCH  32  35
BRANCH  33  51
HETATM   51  O3  UNL     1      67.455  21.576 -55.524  1.00  0.00    -0.391 OA
ATOM     52  H3  UNL     1      66.643  21.084 -55.526  1.00  0.00     0.210 HD
ENDBRANCH  33  51
ENDBRANCH   1  31
BRANCH   1  53
HETATM   53  O4  UNL     1      69.160  21.944 -59.923  1.00  0.00    -0.345 OA
ATOM     54  H4  UNL     1      69.778  21.866 -60.640  1.00  0.00     0.219 HD
ENDBRANCH   1  53
TORSDOF 22
ENDMDL
MODEL 2
REMARK VINA RESULT: -8.564482752      3.336      5.192
REMARK  22 active torsions:
REMARK  status: ('A' for Active; 'I' for Inactive)
REMARK    1  A    between atoms: C2_2  and  C4_4 
REMARK    2  A    between atoms: C4_4  and  C5_5 
REMARK    3  A    between atoms: C5_5  and  O1_6 
REMARK    4  A    between atoms: C5_5  and  C6_8 
REMARK    5  A    between atoms: C6_8  and  O2_9 
REMARK    6  A    between atoms: C6_8  and  N1_11 
REMARK    7  A    between atoms: N1_11  and  C7_13 
REMARK    8  A    between atoms: C7_13  and  C8_14 
REMARK    9  A    between atoms: C7_13  and  C11_17 
REMARK   10  A    between atoms: C12_18  and  O3_19 
REMARK   11  A    between atoms: N2_22  and  C14_23 
REMARK   12  A    between atoms: C14_23  and  O4_24 
REMARK   13  A    between atoms: C15_26  and  N3_27 
REMARK   14  A    between atoms: C15_26  and  C31_52 
REMARK       I    between atoms: N3_27  and  C16_29 
REMARK   15  A    between atoms: C16_29  and  C17_31 
REMARK   16  A    between atoms: C17_31  and  N4_32 
REMARK   17  A    between atoms: C17_31  and  C28_49 
REMARK       I    between atoms: N4_32  and  C18_34 
REMARK   18  A    between atoms: C18_34  and  C19_36 
REMARK   19  A    between atoms: C19_36  and  N5_37 
REMARK   20  A    between atoms: C19_36  and  C25_46 
REMARK       I    between atoms: N5_37  and  C20_39 
REMARK   21  A    between atoms: C20_39  and  O8_41 
REMARK   22  A    between atoms: O8_41  and  C21_42 
ROOT
HETATM    1  C14 UNL     1      70.012  22.279 -61.833  1.00  0.00     0.162 C 
HETATM    2  C15 UNL     1      68.867  22.295 -62.684  1.00  0.00     0.066 C 
ENDROOT
BRANCH   2   3
HETATM    3  N3  UNL     1      69.212  22.067 -64.105  1.00  0.00    -0.325 N 
HETATM    4  C16 UNL     1      69.221  23.125 -65.036  1.00  0.00     0.245 C 
HETATM    5  O5  UNL     1      68.931  24.265 -64.655  1.00  0.00    -0.271 OA
ATOM      6  H3  UNL     1      69.449  21.126 -64.417  1.00  0.00     0.169 HD
BRANCH   4   7
HETATM    7  C17 UNL     1      69.560  22.929 -66.462  1.00  0.00     0.180 C 
BRANCH   7   8
HETATM    8  N4  UNL     1      68.661  22.078 -67.136  1.00  0.00    -0.346 N 
HETATM    9  C18 UNL     1      68.888  20.895 -67.856  1.00  0.00     0.241 C 
HETATM   10  O6  UNL     1      70.037  20.415 -67.981  1.00  0.00    -0.271 OA
ATOM     11  H4  UNL     1      67.685  22.370 -67.093  1.00  0.00     0.163 HD
BRANCH   9  12
HETATM   12  C19 UNL     1      67.776  20.157 -68.502  1.00  0.00     0.182 C 
BRANCH  12  13
HETATM   13  N5  UNL     1      68.155  19.739 -69.850  1.00  0.00    -0.323 N 
HETATM   14  C20 UNL     1      68.122  18.378 -70.232  1.00  0.00     0.362 C 
HETATM   15  O7  UNL     1      67.759  17.521 -69.405  1.00  0.00    -0.238 OA
ATOM     16  H5  UNL     1      68.450  20.442 -70.528  1.00  0.00     0.165 HD
BRANCH  14  17
HETATM   17  O8  UNL     1      68.487  18.005 -71.498  1.00  0.00    -0.294 OA
BRANCH  17  18
HETATM   18  C21 UNL     1      67.682  18.196 -72.644  1.00  0.00     0.061 C 
HETATM   19  C22 UNL     1      68.329  19.144 -73.633  1.00  0.00     0.046 C 
HETATM   20  C23 UNL     1      67.460  16.854 -73.288  1.00  0.00     0.046 C 
HETATM   21  C24 UNL     1      66.352  18.772 -72.217  1.00  0.00     0.046 C 
ENDBRANCH  17  18
ENDBRANCH  14  17
ENDBRANCH  12  13
BRANCH  12  22
HETATM   22  C25 UNL     1      66.551  21.049 -68.736  1.00  0.00     0.009 C 
HETATM   23  C26 UNL     1      65.261  20.340 -68.476  1.00  0.00     0.012 C 
HETATM   24  C27 UNL     1      66.628  21.777 -70.034  1.00  0.00     0.012 C 
ENDBRANCH  12  22
ENDBRANCH   9  12
ENDBRANCH   7   8
BRANCH   7  25
HETATM   25  C28 UNL     1      69.954  24.198 -67.154  1.00  0.00     0.009 C 
HETATM   26  C29 UNL     1      71.250  23.944 -67.897  1.00  0.00     0.012 C 
HETATM   27  C30 UNL     1      68.962  24.793 -68.077  1.00  0.00     0.012 C 
ENDBRANCH   7  25
ENDBRANCH   4   7
ENDBRANCH   2   3
BRANCH   2  28
HETATM   28  C31 UNL     1      67.602  21.600 -62.354  1.00  0.00     0.032 C 
HETATM   29  C32 UNL     1      67.681  20.128 -62.454  1.00  0.00     0.016 C 
HETATM   30  C33 UNL     1      66.420  22.055 -63.185  1.00  0.00     0.016 C 
ENDBRANCH   2  28
BRANCH   1  31
HETATM   31  N2  UNL     1      70.282  22.438 -60.476  1.00  0.00    -0.345 N 
HETATM   32  C11 UNL     1      71.099  21.670 -59.528  1.00  0.00     0.162 C 
HETATM   33  C12 UNL     1      70.992  22.695 -58.479  1.00  0.00     0.164 C 
HETATM   34  C13 UNL     1      69.986  23.326 -59.395  1.00  0.00     0.160 C 
BRANCH  32  35
HETATM   35  C7  UNL     1      70.666  20.285 -59.207  1.00  0.00     0.013 C 
BRANCH  35  36
HETATM   36  N1  UNL     1      69.296  20.137 -59.454  1.00  0.00    -0.366 N 
ATOM     37  H1  UNL     1      68.974  20.283 -60.411  1.00  0.00     0.161 HD
BRANCH  36  38
HETATM   38  C6  UNL     1      68.340  19.807 -58.502  1.00  0.00     0.246 C 
BRANCH  38  39
HETATM   39  C5  UNL     1      68.549  18.438 -57.813  1.00  0.00     0.167 C 
BRANCH  39  40
HETATM   40  C4  UNL     1      68.970  18.708 -56.409  1.00  0.00     0.040 C 
BRANCH  40  41
HETATM   41  C2  UNL     1      70.298  18.161 -56.006  1.00  0.00    -0.020 C 
HETATM   42  C1  UNL     1      70.770  17.008 -56.880  1.00  0.00     0.009 C 
HETATM   43  C3  UNL     1      71.387  19.195 -55.881  1.00  0.00     0.009 C 
ENDBRANCH  40  41
ENDBRANCH  39  40
BRANCH  39  44
HETATM   44  O1  UNL     1      67.288  17.817 -57.829  1.00  0.00    -0.391 OA
ATOM     45  H1  UNL     1      67.386  16.880 -57.953  1.00  0.00     0.210 HD
ENDBRANCH  39  44
ENDBRANCH  38  39
BRANCH  38  46
HETATM   46  O2  UNL     1      68.439  20.764 -57.435  1.00  0.00    -0.374 OA
ATOM     47  H2  UNL     1      69.362  20.776 -57.214  1.00  0.00     0.212 HD
ENDBRANCH  38  46
ENDBRANCH  36  38
ENDBRANCH  35  36
BRANCH  35  48
HETATM   48  C8  UNL     1      71.595  19.179 -59.547  1.00  0.00     0.025 C 
HETATM   49  C9  UNL     1      71.362  18.530 -60.889  1.00  0.00     0.016 C 
HETATM   50  C10 UNL     1      73.056  19.630 -59.572  1.00  0.00     0.016 C 
ENDBRANCH  35  48
ENDBRANCH  32  35
BRANCH  33  51
HETATM   51  O3  UNL     1      72.159  23.498 -58.335  1.00  0.00    -0.391 OA
ATOM     52  H3  UNL     1      72.110  24.126 -57.624  1.00  0.00     0.210 HD
ENDBRANCH  33  51
ENDBRANCH   1  31
BRANCH   1  53
HETATM   53  O4  UNL     1      71.145  22.055 -62.516  1.00  0.00    -0.345 OA
ATOM     54  H4  UNL     1      71.166  21.164 -62.843  1.00  0.00     0.219 HD
ENDBRANCH   1  53
TORSDOF 22
ENDMDL
MODEL 3
REMARK VINA RESULT: -8.530226681      1.311      2.157
REMARK  22 active torsions:
REMARK  status: ('A' for Active; 'I' for Inactive)
REMARK    1  A    between atoms: C2_2  and  C4_4 
REMARK    2  A    between atoms: C4_4  and  C5_5 
REMARK    3  A    between atoms: C5_5  and  O1_6 
REMARK    4  A    between atoms: C5_5  and  C6_8 
REMARK    5  A    between atoms: C6_8  and  O2_9 
REMARK    6  A    between atoms: C6_8  and  N1_11 
REMARK    7  A    between atoms: N1_11  and  C7_13 
REMARK    8  A    between atoms: C7_13  and  C8_14 
REMARK    9  A    between atoms: C7_13  and  C11_17 
REMARK   10  A    between atoms: C12_18  and  O3_19 
REMARK   11  A    between atoms: N2_22  and  C14_23 
REMARK   12  A    between atoms: C14_23  and  O4_24 
REMARK   13  A    between atoms: C15_26  and  N3_27 
REMARK   14  A    between atoms: C15_26  and  C31_52 
REMARK       I    between atoms: N3_27  and  C16_29 
REMARK   15  A    between atoms: C16_29  and  C17_31 
REMARK   16  A    between atoms: C17_31  and  N4_32 
REMARK   17  A    between atoms: C17_31  and  C28_49 
REMARK       I    between atoms: N4_32  and  C18_34 
REMARK   18  A    between atoms: C18_34  and  C19_36 
REMARK   19  A    between atoms: C19_36  and  N5_37 
REMARK   20  A    between atoms: C19_36  and  C25_46 
REMARK       I    between atoms: N5_37  and  C20_39 
REMARK   21  A    between atoms: C20_39  and  O8_41 
REMARK   22  A    between atoms: O8_41  and  C21_42 
ROOT
HETATM    1  C14 UNL     1      70.004  20.551 -59.949  1.00  0.00     0.162 C 
HETATM    2  C15 UNL     1      68.718  20.377 -60.541  1.00  0.00     0.066 C 
ENDROOT
BRANCH   2   3
HETATM    3  N3  UNL     1      68.728  20.618 -62.001  1.00  0.00    -0.325 N 
HETATM    4  C16 UNL     1      67.990  21.671 -62.576  1.00  0.00     0.245 C 
HETATM    5  O5  UNL     1      67.318  22.406 -61.843  1.00  0.00    -0.271 OA
ATOM      6  H3  UNL     1      69.281  20.009 -62.604  1.00  0.00     0.169 HD
BRANCH   4   7
HETATM    7  C17 UNL     1      67.979  21.936 -64.031  1.00  0.00     0.180 C 
BRANCH   7   8
HETATM    8  N4  UNL     1      66.703  22.275 -64.525  1.00  0.00    -0.346 N 
HETATM    9  C18 UNL     1      65.948  21.717 -65.569  1.00  0.00     0.241 C 
HETATM   10  O6  UNL     1      66.373  20.748 -66.236  1.00  0.00    -0.271 OA
ATOM     11  H4  UNL     1      66.253  23.054 -64.044  1.00  0.00     0.163 HD
BRANCH   9  12
HETATM   12  C19 UNL     1      64.611  22.249 -65.928  1.00  0.00     0.182 C 
BRANCH  12  13
HETATM   13  N5  UNL     1      64.022  21.461 -67.009  1.00  0.00    -0.323 N 
HETATM   14  C20 UNL     1      62.658  21.090 -66.985  1.00  0.00     0.362 C 
HETATM   15  O7  UNL     1      61.946  21.445 -66.028  1.00  0.00    -0.238 OA
ATOM     16  H5  UNL     1      64.606  21.172 -67.794  1.00  0.00     0.165 HD
BRANCH  14  17
HETATM   17  O8  UNL     1      62.126  20.346 -68.005  1.00  0.00    -0.294 OA
BRANCH  17  18
HETATM   18  C21 UNL     1      62.048  20.782 -69.347  1.00  0.00     0.061 C 
HETATM   19  C22 UNL     1      63.346  20.542 -70.090  1.00  0.00     0.046 C 
HETATM   20  C23 UNL     1      60.926  20.035 -70.017  1.00  0.00     0.046 C 
HETATM   21  C24 UNL     1      61.744  22.262 -69.364  1.00  0.00     0.046 C 
ENDBRANCH  17  18
ENDBRANCH  14  17
ENDBRANCH  12  13
BRANCH  12  22
HETATM   22  C25 UNL     1      64.693  23.661 -66.518  1.00  0.00     0.009 C 
HETATM   23  C26 UNL     1      63.465  24.471 -66.253  1.00  0.00     0.012 C 
HETATM   24  C27 UNL     1      65.155  23.650 -67.935  1.00  0.00     0.012 C 
ENDBRANCH  12  22
ENDBRANCH   9  12
ENDBRANCH   7   8
BRANCH   7  25
HETATM   25  C28 UNL     1      69.135  22.771 -64.486  1.00  0.00     0.009 C 
HETATM   26  C29 UNL     1      70.006  21.915 -65.385  1.00  0.00     0.012 C 
HETATM   27  C30 UNL     1      68.814  24.042 -65.174  1.00  0.00     0.012 C 
ENDBRANCH   7  25
ENDBRANCH   4   7
ENDBRANCH   2   3
BRANCH   2  28
HETATM   28  C31 UNL     1      67.826  19.239 -60.222  1.00  0.00     0.032 C 
HETATM   29  C32 UNL     1      67.289  19.264 -58.846  1.00  0.00     0.016 C 
HETATM   30  C33 UNL     1      68.463  17.882 -60.444  1.00  0.00     0.016 C 
ENDBRANCH   2  28
BRANCH   1  31
HETATM   31  N2  UNL     1      70.565  20.469 -58.676  1.00  0.00    -0.345 N 
HETATM   32  C11 UNL     1      70.150  20.996 -57.371  1.00  0.00     0.162 C 
HETATM   33  C12 UNL     1      71.158  20.213 -56.641  1.00  0.00     0.164 C 
HETATM   34  C13 UNL     1      71.686  19.885 -58.006  1.00  0.00     0.160 C 
BRANCH  32  35
HETATM   35  C7  UNL     1      70.137  22.472 -57.193  1.00  0.00     0.013 C 
BRANCH  35  36
HETATM   36  N1  UNL     1      70.524  22.805 -55.890  1.00  0.00    -0.366 N 
ATOM     37  H1  UNL     1      71.521  22.780 -55.676  1.00  0.00     0.161 HD
BRANCH  36  38
HETATM   38  C6  UNL     1      69.660  23.168 -54.864  1.00  0.00     0.246 C 
BRANCH  38  39
HETATM   39  C5  UNL     1      70.098  24.407 -54.048  1.00  0.00     0.167 C 
BRANCH  39  40
HETATM   40  C4  UNL     1      70.494  25.462 -55.023  1.00  0.00     0.040 C 
BRANCH  40  41
HETATM   41  C2  UNL     1      71.895  25.964 -54.913  1.00  0.00    -0.020 C 
HETATM   42  C1  UNL     1      72.844  24.974 -54.253  1.00  0.00     0.009 C 
HETATM   43  C3  UNL     1      72.483  26.459 -56.208  1.00  0.00     0.009 C 
ENDBRANCH  40  41
ENDBRANCH  39  40
BRANCH  39  44
HETATM   44  O1  UNL     1      68.953  24.808 -53.338  1.00  0.00    -0.391 OA
ATOM     45  H1  UNL     1      68.805  24.229 -52.600  1.00  0.00     0.210 HD
ENDBRANCH  39  44
ENDBRANCH  38  39
BRANCH  38  46
HETATM   46  O2  UNL     1      68.412  23.555 -55.461  1.00  0.00    -0.374 OA
ATOM     47  H2  UNL     1      67.751  23.204 -54.878  1.00  0.00     0.212 HD
ENDBRANCH  38  46
ENDBRANCH  36  38
ENDBRANCH  35  36
BRANCH  35  48
HETATM   48  C8  UNL     1      70.601  23.304 -58.330  1.00  0.00     0.025 C 
HETATM   49  C9  UNL     1      69.910  24.638 -58.476  1.00  0.00     0.016 C 
HETATM   50  C10 UNL     1      72.092  23.637 -58.242  1.00  0.00     0.016 C 
ENDBRANCH  35  48
ENDBRANCH  32  35
BRANCH  33  51
HETATM   51  O3  UNL     1      70.633  19.065 -55.982  1.00  0.00    -0.391 OA
ATOM     52  H3  UNL     1      71.093  18.260 -56.186  1.00  0.00     0.210 HD
ENDBRANCH  33  51
ENDBRANCH   1  31
BRANCH   1  53
HETATM   53  O4  UNL     1      70.935  20.888 -60.854  1.00  0.00    -0.345 OA
ATOM     54  H4  UNL     1      70.534  21.312 -61.603  1.00  0.00     0.219 HD
ENDBRANCH   1  53
TORSDOF 22
ENDMDL
MODEL 4
REMARK VINA RESULT: -8.466428949      2.604      4.575
REMARK  22 active torsions:
REMARK  status: ('A' for Active; 'I' for Inactive)
REMARK    1  A    between atoms: C2_2  and  C4_4 
REMARK    2  A    between atoms: C4_4  and  C5_5 
REMARK    3  A    between atoms: C5_5  and  O1_6 
REMARK    4  A    between atoms: C5_5  and  C6_8 
REMARK    5  A    between atoms: C6_8  and  O2_9 
REMARK    6  A    between atoms: C6_8  and  N1_11 
REMARK    7  A    between atoms: N1_11  and  C7_13 
REMARK    8  A    between atoms: C7_13  and  C8_14 
REMARK    9  A    between atoms: C7_13  and  C11_17 
REMARK   10  A    between atoms: C12_18  and  O3_19 
REMARK   11  A    between atoms: N2_22  and  C14_23 
REMARK   12  A    between atoms: C14_23  and  O4_24 
REMARK   13  A    between atoms: C15_26  and  N3_27 
REMARK   14  A    between atoms: C15_26  and  C31_52 
REMARK       I    between atoms: N3_27  and  C16_29 
REMARK   15  A    between atoms: C16_29  and  C17_31 
REMARK   16  A    between atoms: C17_31  and  N4_32 
REMARK   17  A    between atoms: C17_31  and  C28_49 
REMARK       I    between atoms: N4_32  and  C18_34 
REMARK   18  A    between atoms: C18_34  and  C19_36 
REMARK   19  A    between atoms: C19_36  and  N5_37 
REMARK   20  A    between atoms: C19_36  and  C25_46 
REMARK       I    between atoms: N5_37  and  C20_39 
REMARK   21  A    between atoms: C20_39  and  O8_41 
REMARK   22  A    between atoms: O8_41  and  C21_42 
ROOT
HETATM    1  C14 UNL     1      70.061  22.228 -61.815  1.00  0.00     0.162 C 
HETATM    2  C15 UNL     1      68.914  22.196 -62.661  1.00  0.00     0.066 C 
ENDROOT
BRANCH   2   3
HETATM    3  N3  UNL     1      69.245  21.814 -64.052  1.00  0.00    -0.325 N 
HETATM    4  C16 UNL     1      69.381  22.783 -65.066  1.00  0.00     0.245 C 
HETATM    5  O5  UNL     1      69.217  23.976 -64.785  1.00  0.00    -0.271 OA
ATOM      6  H3  UNL     1      69.377  20.829 -64.282  1.00  0.00     0.169 HD
BRANCH   4   7
HETATM    7  C17 UNL     1      69.710  22.433 -66.465  1.00  0.00     0.180 C 
BRANCH   7   8
HETATM    8  N4  UNL     1      68.572  22.172 -67.255  1.00  0.00    -0.346 N 
HETATM    9  C18 UNL     1      68.397  21.309 -68.348  1.00  0.00     0.241 C 
HETATM   10  O6  UNL     1      69.332  20.596 -68.775  1.00  0.00    -0.271 OA
ATOM     11  H4  UNL     1      67.739  22.697 -66.989  1.00  0.00     0.163 HD
BRANCH   9  12
HETATM   12  C19 UNL     1      67.094  21.199 -69.047  1.00  0.00     0.182 C 
BRANCH  12  13
HETATM   13  N5  UNL     1      66.026  21.772 -68.229  1.00  0.00    -0.323 N 
HETATM   14  C20 UNL     1      65.095  22.685 -68.775  1.00  0.00     0.362 C 
HETATM   15  O7  UNL     1      65.184  23.003 -69.975  1.00  0.00    -0.238 OA
ATOM     16  H5  UNL     1      65.952  21.509 -67.247  1.00  0.00     0.165 HD
BRANCH  14  17
HETATM   17  O8  UNL     1      64.105  23.216 -67.991  1.00  0.00    -0.294 OA
BRANCH  17  18
HETATM   18  C21 UNL     1      63.028  22.469 -67.461  1.00  0.00     0.061 C 
HETATM   19  C22 UNL     1      63.365  21.890 -66.102  1.00  0.00     0.046 C 
HETATM   20  C23 UNL     1      61.837  23.382 -67.350  1.00  0.00     0.046 C 
HETATM   21  C24 UNL     1      62.706  21.337 -68.406  1.00  0.00     0.046 C 
ENDBRANCH  17  18
ENDBRANCH  14  17
ENDBRANCH  12  13
BRANCH  12  22
HETATM   22  C25 UNL     1      66.659  19.741 -69.231  1.00  0.00     0.009 C 
HETATM   23  C26 UNL     1      65.725  19.557 -70.383  1.00  0.00     0.012 C 
HETATM   24  C27 UNL     1      66.221  19.121 -67.949  1.00  0.00     0.012 C 
ENDBRANCH  12  22
ENDBRANCH   9  12
ENDBRANCH   7   8
BRANCH   7  25
HETATM   25  C28 UNL     1      70.771  23.309 -67.057  1.00  0.00     0.009 C 
HETATM   26  C29 UNL     1      71.879  22.415 -67.578  1.00  0.00     0.012 C 
HETATM   27  C30 UNL     1      70.349  24.245 -68.123  1.00  0.00     0.012 C 
ENDBRANCH   7  25
ENDBRANCH   4   7
ENDBRANCH   2   3
BRANCH   2  28
HETATM   28  C31 UNL     1      67.628  21.581 -62.261  1.00  0.00     0.032 C 
HETATM   29  C32 UNL     1      67.644  20.103 -62.257  1.00  0.00     0.016 C 
HETATM   30  C33 UNL     1      66.449  22.026 -63.103  1.00  0.00     0.016 C 
ENDBRANCH   2  28
BRANCH   1  31
HETATM   31  N2  UNL     1      70.342  22.514 -60.481  1.00  0.00    -0.345 N 
HETATM   32  C11 UNL     1      71.213  21.873 -59.488  1.00  0.00     0.162 C 
HETATM   33  C12 UNL     1      71.067  22.976 -58.526  1.00  0.00     0.164 C 
HETATM   34  C13 UNL     1      70.015  23.474 -59.472  1.00  0.00     0.160 C 
BRANCH  32  35
HETATM   35  C7  UNL     1      70.859  20.498 -59.045  1.00  0.00     0.013 C 
BRANCH  35  36
HETATM   36  N1  UNL     1      69.513  20.233 -59.321  1.00  0.00    -0.366 N 
ATOM     37  H1  UNL     1      69.239  20.171 -60.301  1.00  0.00     0.161 HD
BRANCH  36  38
HETATM   38  C6  UNL     1      68.519  20.046 -58.367  1.00  0.00     0.246 C 
BRANCH  38  39
HETATM   39  C5  UNL     1      68.527  18.661 -57.678  1.00  0.00     0.167 C 
BRANCH  39  40
HETATM   40  C4  UNL     1      69.029  18.861 -56.289  1.00  0.00     0.040 C 
BRANCH  40  41
HETATM   41  C2  UNL     1      70.301  18.161 -55.944  1.00  0.00    -0.020 C 
HETATM   42  C1  UNL     1      70.652  17.032 -56.903  1.00  0.00     0.009 C 
HETATM   43  C3  UNL     1      71.486  19.075 -55.766  1.00  0.00     0.009 C 
ENDBRANCH  40  41
ENDBRANCH  39  40
BRANCH  39  44
HETATM   44  O1  UNL     1      67.183  18.251 -57.654  1.00  0.00    -0.391 OA
ATOM     45  H1  UNL     1      67.082  17.435 -58.129  1.00  0.00     0.210 HD
ENDBRANCH  39  44
ENDBRANCH  38  39
BRANCH  38  46
HETATM   46  O2  UNL     1      68.758  20.979 -57.301  1.00  0.00    -0.374 OA
ATOM     47  H2  UNL     1      69.680  21.194 -57.377  1.00  0.00     0.212 HD
ENDBRANCH  38  46
ENDBRANCH  36  38
ENDBRANCH  35  36
BRANCH  35  48
HETATM   48  C8  UNL     1      71.871  19.432 -59.241  1.00  0.00     0.025 C 
HETATM   49  C9  UNL     1      71.888  18.803 -60.613  1.00  0.00     0.016 C 
HETATM   50  C10 UNL     1      73.299  19.932 -59.016  1.00  0.00     0.016 C 
ENDBRANCH  35  48
ENDBRANCH  32  35
BRANCH  33  51
HETATM   51  O3  UNL     1      72.192  23.847 -58.472  1.00  0.00    -0.391 OA
ATOM     52  H3  UNL     1      73.015  23.404 -58.305  1.00  0.00     0.210 HD
ENDBRANCH  33  51
ENDBRANCH   1  31
BRANCH   1  53
HETATM   53  O4  UNL     1      71.183  21.898 -62.472  1.00  0.00    -0.345 OA
ATOM     54  H4  UNL     1      71.060  21.091 -62.958  1.00  0.00     0.219 HD
ENDBRANCH   1  53
TORSDOF 22
ENDMDL
MODEL 5
REMARK VINA RESULT: -8.404105919      1.095      3.055
REMARK  22 active torsions:
REMARK  status: ('A' for Active; 'I' for Inactive)
REMARK    1  A    between atoms: C2_2  and  C4_4 
REMARK    2  A    between atoms: C4_4  and  C5_5 
REMARK    3  A    between atoms: C5_5  and  O1_6 
REMARK    4  A    between atoms: C5_5  and  C6_8 
REMARK    5  A    between atoms: C6_8  and  O2_9 
REMARK    6  A    between atoms: C6_8  and  N1_11 
REMARK    7  A    between atoms: N1_11  and  C7_13 
REMARK    8  A    between atoms: C7_13  and  C8_14 
REMARK    9  A    between atoms: C7_13  and  C11_17 
REMARK   10  A    between atoms: C12_18  and  O3_19 
REMARK   11  A    between atoms: N2_22  and  C14_23 
REMARK   12  A    between atoms: C14_23  and  O4_24 
REMARK   13  A    between atoms: C15_26  and  N3_27 
REMARK   14  A    between atoms: C15_26  and  C31_52 
REMARK       I    between atoms: N3_27  and  C16_29 
REMARK   15  A    between atoms: C16_29  and  C17_31 
REMARK   16  A    between atoms: C17_31  and  N4_32 
REMARK   17  A    between atoms: C17_31  and  C28_49 
REMARK       I    between atoms: N4_32  and  C18_34 
REMARK   18  A    between atoms: C18_34  and  C19_36 
REMARK   19  A    between atoms: C19_36  and  N5_37 
REMARK   20  A    between atoms: C19_36  and  C25_46 
REMARK       I    between atoms: N5_37  and  C20_39 
REMARK   21  A    between atoms: C20_39  and  O8_41 
REMARK   22  A    between atoms: O8_41  and  C21_42 
ROOT
HETATM    1  C14 UNL     1      68.547  21.870 -59.013  1.00  0.00     0.162 C 
HETATM    2  C15 UNL     1      68.407  20.867 -60.018  1.00  0.00     0.066 C 
ENDROOT
BRANCH   2   3
HETATM    3  N3  UNL     1      68.598  21.402 -61.384  1.00  0.00    -0.325 N 
HETATM    4  C16 UNL     1      67.586  21.303 -62.359  1.00  0.00     0.245 C 
HETATM    5  O5  UNL     1      66.517  20.756 -62.065  1.00  0.00    -0.271 OA
ATOM      6  H3  UNL     1      69.481  21.852 -61.625  1.00  0.00     0.169 HD
BRANCH   4   7
HETATM    7  C17 UNL     1      67.748  21.827 -63.733  1.00  0.00     0.180 C 
BRANCH   7   8
HETATM    8  N4  UNL     1      66.531  22.222 -64.324  1.00  0.00    -0.346 N 
HETATM    9  C18 UNL     1      65.851  21.716 -65.444  1.00  0.00     0.241 C 
HETATM   10  O6  UNL     1      66.300  20.748 -66.099  1.00  0.00    -0.271 OA
ATOM     11  H4  UNL     1      66.068  23.005 -63.864  1.00  0.00     0.163 HD
BRANCH   9  12
HETATM   12  C19 UNL     1      64.569  22.302 -65.902  1.00  0.00     0.182 C 
BRANCH  12  13
HETATM   13  N5  UNL     1      63.995  21.498 -66.979  1.00  0.00    -0.323 N 
HETATM   14  C20 UNL     1      62.628  21.139 -66.977  1.00  0.00     0.362 C 
HETATM   15  O7  UNL     1      61.899  21.518 -66.042  1.00  0.00    -0.238 OA
ATOM     16  H5  UNL     1      64.593  21.190 -67.746  1.00  0.00     0.165 HD
BRANCH  14  17
HETATM   17  O8  UNL     1      62.111  20.380 -67.993  1.00  0.00    -0.294 OA
BRANCH  17  18
HETATM   18  C21 UNL     1      61.987  20.823 -69.330  1.00  0.00     0.061 C 
HETATM   19  C22 UNL     1      61.651  22.299 -69.401  1.00  0.00     0.046 C 
HETATM   20  C23 UNL     1      63.292  20.557 -70.032  1.00  0.00     0.046 C 
HETATM   21  C24 UNL     1      60.887  20.040 -70.005  1.00  0.00     0.046 C 
ENDBRANCH  17  18
ENDBRANCH  14  17
ENDBRANCH  12  13
BRANCH  12  22
HETATM   22  C25 UNL     1      64.763  23.679 -66.547  1.00  0.00     0.009 C 
HETATM   23  C26 UNL     1      63.570  24.566 -66.388  1.00  0.00     0.012 C 
HETATM   24  C27 UNL     1      65.301  23.578 -67.932  1.00  0.00     0.012 C 
ENDBRANCH  12  22
ENDBRANCH   9  12
ENDBRANCH   7   8
BRANCH   7  25
HETATM   25  C28 UNL     1      68.914  22.755 -63.876  1.00  0.00     0.009 C 
HETATM   26  C29 UNL     1      70.122  21.931 -64.276  1.00  0.00     0.012 C 
HETATM   27  C30 UNL     1      68.756  23.890 -64.813  1.00  0.00     0.012 C 
ENDBRANCH   7  25
ENDBRANCH   4   7
ENDBRANCH   2   3
BRANCH   2  28
HETATM   28  C31 UNL     1      69.015  19.522 -59.912  1.00  0.00     0.032 C 
HETATM   29  C32 UNL     1      70.054  19.251 -60.927  1.00  0.00     0.016 C 
HETATM   30  C33 UNL     1      68.010  18.390 -59.968  1.00  0.00     0.016 C 
ENDBRANCH   2  28
BRANCH   1  31
HETATM   31  N2  UNL     1      68.469  21.946 -57.624  1.00  0.00    -0.345 N 
HETATM   32  C11 UNL     1      68.604  23.063 -56.680  1.00  0.00     0.162 C 
HETATM   33  C12 UNL     1      68.121  22.266 -55.542  1.00  0.00     0.164 C 
HETATM   34  C13 UNL     1      68.218  21.109 -56.492  1.00  0.00     0.160 C 
BRANCH  32  35
HETATM   35  C7  UNL     1      69.934  23.718 -56.570  1.00  0.00     0.013 C 
BRANCH  35  36
HETATM   36  N1  UNL     1      70.805  23.207 -57.539  1.00  0.00    -0.366 N 
ATOM     37  H1  UNL     1      70.494  23.233 -58.510  1.00  0.00     0.161 HD
BRANCH  36  38
HETATM   38  C6  UNL     1      72.061  22.668 -57.286  1.00  0.00     0.246 C 
BRANCH  38  39
HETATM   39  C5  UNL     1      72.330  21.298 -57.952  1.00  0.00     0.167 C 
BRANCH  39  40
HETATM   40  C4  UNL     1      71.391  20.316 -57.341  1.00  0.00     0.040 C 
BRANCH  40  41
HETATM   41  C2  UNL     1      71.945  18.957 -57.074  1.00  0.00    -0.020 C 
HETATM   42  C1  UNL     1      72.772  18.878 -55.798  1.00  0.00     0.009 C 
HETATM   43  C3  UNL     1      70.922  17.851 -57.095  1.00  0.00     0.009 C 
ENDBRANCH  40  41
ENDBRANCH  39  40
BRANCH  39  44
HETATM   44  O1  UNL     1      72.025  21.480 -59.312  1.00  0.00    -0.391 OA
ATOM     45  H1  UNL     1      72.653  21.017 -59.853  1.00  0.00     0.210 HD
ENDBRANCH  39  44
ENDBRANCH  38  39
BRANCH  38  46
HETATM   46  O2  UNL     1      73.037  23.547 -57.867  1.00  0.00    -0.374 OA
ATOM     47  H2  UNL     1      73.682  23.671 -57.181  1.00  0.00     0.212 HD
ENDBRANCH  38  46
ENDBRANCH  36  38
ENDBRANCH  35  36
BRANCH  35  48
HETATM   48  C8  UNL     1      69.962  25.165 -56.250  1.00  0.00     0.025 C 
HETATM   49  C9  UNL     1      70.911  25.563 -55.145  1.00  0.00     0.016 C 
HETATM   50  C10 UNL     1      70.368  26.022 -57.450  1.00  0.00     0.016 C 
ENDBRANCH  35  48
ENDBRANCH  32  35
BRANCH  33  51
HETATM   51  O3  UNL     1      66.773  22.542 -55.174  1.00  0.00    -0.391 OA
ATOM     52  H3  UNL     1      66.569  22.331 -54.271  1.00  0.00     0.210 HD
ENDBRANCH  33  51
ENDBRANCH   1  31
BRANCH   1  53
HETATM   53  O4  UNL     1      68.829  23.073 -59.536  1.00  0.00    -0.345 OA
ATOM     54  H4  UNL     1      69.444  22.988 -60.255  1.00  0.00     0.219 HD
ENDBRANCH   1  53
TORSDOF 22
ENDMDL
