MODEL 1
REMARK VINA RESULT: -7.025065125      0.000      0.000
REMARK  3 active torsions:
REMARK  status: ('A' for Active; 'I' for Inactive)
REMARK       I    between atoms: C2_4  and  N3_6 
REMARK    1  A    between atoms: N3_6  and  C3_8 
REMARK    2  A    between atoms: C3_8  and  C4_9 
REMARK    3  A    between atoms: C4_9  and  N4_10 
REMARK       I    between atoms: N5_13  and  C7_14 
REMARK       I    between atoms: C7_14  and  N6_16 
REMARK       I    between atoms: C8_18  and  N8_20 
ROOT
HETATM    1  N4  UNL     1      -5.053  30.027   1.272  1.00  0.00     0.093 N 
HETATM    2  C5  UNL     1      -5.867  31.199   1.362  1.00  0.00     0.292 C 
HETATM    3  C6  UNL     1      -6.206  31.362   2.856  1.00  0.00     0.158 C 
HETATM    4  N5  UNL     1      -7.108  30.232   3.132  1.00  0.00    -0.331 N 
HETATM    5  C7  UNL     1      -8.019  30.305   4.194  1.00  0.00     0.324 C 
HETATM    6  O1  UNL     1      -8.045  31.350   4.906  1.00  0.00    -0.247 OA
HETATM    7  N6  UNL     1      -8.887  29.217   4.450  1.00  0.00    -0.283 N 
ATOM      8  H6  UNL     1      -8.504  28.275   4.377  1.00  0.00     0.173 HD
HETATM    9  C8  UNL     1     -10.134  29.339   4.769  1.00  0.00     0.191 C 
HETATM   10  N7  UNL     1     -10.790  30.591   4.903  1.00  0.00    -0.063 NA
HETATM   11  N8  UNL     1     -10.881  28.160   5.001  1.00  0.00    -0.369 N 
ATOM     12  H8  UNL     1     -11.753  27.985   4.502  1.00  0.00     0.161 HD
HETATM   13  C9  UNL     1     -10.368  27.202   5.972  1.00  0.00     0.148 C 
HETATM   14  C10 UNL     1      -7.062  29.044   2.315  1.00  0.00     0.158 C 
HETATM   15  C11 UNL     1      -5.751  28.817   1.633  1.00  0.00     0.292 C 
ENDROOT
BRANCH   1  16
HETATM   16  C4  UNL     1      -4.487  29.798  -0.045  1.00  0.00     0.292 C 
BRANCH  16  17
HETATM   17  C3  UNL     1      -5.159  28.673  -0.787  1.00  0.00     0.152 C 
BRANCH  17  18
HETATM   18  N3  UNL     1      -5.399  29.072  -2.152  1.00  0.00    -0.363 N 
HETATM   19  C2  UNL     1      -6.233  28.337  -3.023  1.00  0.00     0.183 C 
HETATM   20  N1  UNL     1      -7.527  28.315  -2.935  1.00  0.00    -0.369 N 
HETATM   21  N2  UNL     1      -5.628  27.563  -4.080  1.00  0.00    -0.064 NA
HETATM   22  C1  UNL     1      -8.333  27.543  -3.863  1.00  0.00     0.148 C 
ATOM     23  H1  UNL     1      -7.988  28.850  -2.200  1.00  0.00     0.161 HD
ATOM     24  H3  UNL     1      -4.949  29.918  -2.502  1.00  0.00     0.162 HD
ENDBRANCH  17  18
ENDBRANCH  16  17
ENDBRANCH   1  16
TORSDOF 3
ENDMDL
MODEL 2
REMARK VINA RESULT: -6.838061192      3.355      4.523
REMARK  3 active torsions:
REMARK  status: ('A' for Active; 'I' for Inactive)
REMARK       I    between atoms: C2_4  and  N3_6 
REMARK    1  A    between atoms: N3_6  and  C3_8 
REMARK    2  A    between atoms: C3_8  and  C4_9 
REMARK    3  A    between atoms: C4_9  and  N4_10 
REMARK       I    between atoms: N5_13  and  C7_14 
REMARK       I    between atoms: C7_14  and  N6_16 
REMARK       I    between atoms: C8_18  and  N8_20 
ROOT
HETATM    1  N4  UNL     1      -8.025  30.018   2.741  1.00  0.00     0.093 N 
HETATM    2  C5  UNL     1      -7.414  29.735   4.002  1.00  0.00     0.292 C 
HETATM    3  C6  UNL     1      -8.047  28.418   4.490  1.00  0.00     0.158 C 
HETATM    4  N5  UNL     1      -9.436  28.795   4.799  1.00  0.00    -0.331 N 
HETATM    5  C7  UNL     1     -10.178  28.046   5.722  1.00  0.00     0.324 C 
HETATM    6  O1  UNL     1      -9.635  27.045   6.273  1.00  0.00    -0.247 OA
HETATM    7  N6  UNL     1     -11.511  28.418   6.018  1.00  0.00    -0.283 N 
ATOM      8  H6  UNL     1     -12.106  28.715   5.245  1.00  0.00     0.173 HD
HETATM    9  C8  UNL     1     -12.024  28.405   7.205  1.00  0.00     0.191 C 
HETATM   10  N7  UNL     1     -11.306  28.014   8.365  1.00  0.00    -0.063 NA
HETATM   11  N8  UNL     1     -13.374  28.800   7.350  1.00  0.00    -0.369 N 
ATOM     12  H8  UNL     1     -13.638  29.534   8.008  1.00  0.00     0.161 HD
HETATM   13  C9  UNL     1     -14.378  28.129   6.534  1.00  0.00     0.148 C 
HETATM   14  C10 UNL     1     -10.043  29.936   4.158  1.00  0.00     0.158 C 
HETATM   15  C11 UNL     1      -9.437  30.295   2.839  1.00  0.00     0.292 C 
ENDROOT
BRANCH   1  16
HETATM   16  C4  UNL     1      -7.435  31.141   2.035  1.00  0.00     0.292 C 
BRANCH  16  17
HETATM   17  C3  UNL     1      -5.948  31.252   2.246  1.00  0.00     0.152 C 
BRANCH  17  18
HETATM   18  N3  UNL     1      -5.481  32.515   1.727  1.00  0.00    -0.363 N 
HETATM   19  C2  UNL     1      -4.610  32.606   0.619  1.00  0.00     0.183 C 
HETATM   20  N1  UNL     1      -4.975  32.382  -0.605  1.00  0.00    -0.369 N 
HETATM   21  N2  UNL     1      -3.232  32.972   0.844  1.00  0.00    -0.064 NA
HETATM   22  C1  UNL     1      -4.035  32.495  -1.705  1.00  0.00     0.148 C 
ATOM     23  H1  UNL     1      -5.941  32.122  -0.799  1.00  0.00     0.161 HD
ATOM     24  H3  UNL     1      -5.792  33.375   2.179  1.00  0.00     0.162 HD
ENDBRANCH  17  18
ENDBRANCH  16  17
ENDBRANCH   1  16
TORSDOF 3
ENDMDL
MODEL 3
REMARK VINA RESULT: -6.585487773      3.556      7.926
REMARK  3 active torsions:
REMARK  status: ('A' for Active; 'I' for Inactive)
REMARK       I    between atoms: C2_4  and  N3_6 
REMARK    1  A    between atoms: N3_6  and  C3_8 
REMARK    2  A    between atoms: C3_8  and  C4_9 
REMARK    3  A    between atoms: C4_9  and  N4_10 
REMARK       I    between atoms: N5_13  and  C7_14 
REMARK       I    between atoms: C7_14  and  N6_16 
REMARK       I    between atoms: C8_18  and  N8_20 
ROOT
HETATM    1  N4  UNL     1      -8.763  27.270   5.010  1.00  0.00     0.093 N 
HETATM    2  C5  UNL     1      -9.819  28.173   4.672  1.00  0.00     0.292 C 
HETATM    3  C6  UNL     1      -9.676  28.440   3.161  1.00  0.00     0.158 C 
HETATM    4  N5  UNL     1      -8.436  29.227   3.064  1.00  0.00    -0.331 N 
HETATM    5  C7  UNL     1      -8.230  30.080   1.972  1.00  0.00     0.324 C 
HETATM    6  O1  UNL     1      -9.121  30.155   1.078  1.00  0.00    -0.247 OA
HETATM    7  N6  UNL     1      -7.038  30.838   1.889  1.00  0.00    -0.283 N 
ATOM      8  H6  UNL     1      -6.164  30.382   2.150  1.00  0.00     0.173 HD
HETATM    9  C8  UNL     1      -6.983  32.071   1.503  1.00  0.00     0.191 C 
HETATM   10  N7  UNL     1      -8.123  32.821   1.114  1.00  0.00    -0.063 NA
HETATM   11  N8  UNL     1      -5.718  32.701   1.465  1.00  0.00    -0.369 N 
ATOM     12  H8  UNL     1      -5.556  33.582   1.953  1.00  0.00     0.161 HD
HETATM   13  C9  UNL     1      -4.651  32.056   0.710  1.00  0.00     0.148 C 
HETATM   14  C10 UNL     1      -7.426  29.127   4.089  1.00  0.00     0.158 C 
HETATM   15  C11 UNL     1      -7.449  27.842   4.852  1.00  0.00     0.292 C 
ENDROOT
BRANCH   1  16
HETATM   16  C4  UNL     1      -8.831  26.761   6.368  1.00  0.00     0.292 C 
BRANCH  16  17
HETATM   17  C3  UNL     1     -10.178  26.184   6.714  1.00  0.00     0.152 C 
BRANCH  17  18
HETATM   18  N3  UNL     1     -10.752  26.927   7.809  1.00  0.00    -0.363 N 
HETATM   19  C2  UNL     1     -11.859  27.789   7.645  1.00  0.00     0.183 C 
HETATM   20  N1  UNL     1     -13.074  27.375   7.454  1.00  0.00    -0.369 N 
HETATM   21  N2  UNL     1     -11.645  29.215   7.692  1.00  0.00    -0.064 NA
HETATM   22  C1  UNL     1     -14.173  28.310   7.296  1.00  0.00     0.148 C 
ATOM     23  H1  UNL     1     -13.260  26.374   7.415  1.00  0.00     0.161 HD
ATOM     24  H3  UNL     1     -10.343  26.826   8.738  1.00  0.00     0.162 HD
ENDBRANCH  17  18
ENDBRANCH  16  17
ENDBRANCH   1  16
TORSDOF 3
ENDMDL
MODEL 4
REMARK VINA RESULT: -6.567072540      2.280      3.075
REMARK  3 active torsions:
REMARK  status: ('A' for Active; 'I' for Inactive)
REMARK       I    between atoms: C2_4  and  N3_6 
REMARK    1  A    between atoms: N3_6  and  C3_8 
REMARK    2  A    between atoms: C3_8  and  C4_9 
REMARK    3  A    between atoms: C4_9  and  N4_10 
REMARK       I    between atoms: N5_13  and  C7_14 
REMARK       I    between atoms: C7_14  and  N6_16 
REMARK       I    between atoms: C8_18  and  N8_20 
ROOT
HETATM    1  N4  UNL     1      -5.039  30.861   1.025  1.00  0.00     0.093 N 
HETATM    2  C5  UNL     1      -5.997  31.899   1.247  1.00  0.00     0.292 C 
HETATM    3  C6  UNL     1      -6.264  31.906   2.763  1.00  0.00     0.158 C 
HETATM    4  N5  UNL     1      -6.987  30.645   2.994  1.00  0.00    -0.331 N 
HETATM    5  C7  UNL     1      -7.835  30.514   4.102  1.00  0.00     0.324 C 
HETATM    6  O1  UNL     1      -7.960  31.492   4.895  1.00  0.00    -0.247 OA
HETATM    7  N6  UNL     1      -8.531  29.300   4.314  1.00  0.00    -0.283 N 
ATOM      8  H6  UNL     1      -8.029  28.428   4.148  1.00  0.00     0.173 HD
HETATM    9  C8  UNL     1      -9.761  29.224   4.703  1.00  0.00     0.191 C 
HETATM   10  N7  UNL     1     -10.571  30.359   4.967  1.00  0.00    -0.063 NA
HETATM   11  N8  UNL     1     -10.326  27.940   4.878  1.00  0.00    -0.369 N 
ATOM     12  H8  UNL     1     -11.195  27.680   4.410  1.00  0.00     0.161 HD
HETATM   13  C9  UNL     1      -9.632  26.995   5.744  1.00  0.00     0.148 C 
HETATM   14  C10 UNL     1      -6.830  29.536   2.084  1.00  0.00     0.158 C 
HETATM   15  C11 UNL     1      -5.544  29.544   1.323  1.00  0.00     0.292 C 
ENDROOT
BRANCH   1  16
HETATM   16  C4  UNL     1      -4.526  30.808  -0.333  1.00  0.00     0.292 C 
BRANCH  16  17
HETATM   17  C3  UNL     1      -4.213  29.407  -0.789  1.00  0.00     0.152 C 
BRANCH  17  18
HETATM   18  N3  UNL     1      -2.783  29.236  -0.870  1.00  0.00    -0.363 N 
HETATM   19  C2  UNL     1      -2.102  28.204  -0.188  1.00  0.00     0.183 C 
HETATM   20  N1  UNL     1      -2.143  26.956  -0.540  1.00  0.00    -0.369 N 
HETATM   21  N2  UNL     1      -1.304  28.540   0.967  1.00  0.00    -0.064 NA
HETATM   22  C1  UNL     1      -1.418  25.939   0.199  1.00  0.00     0.148 C 
ATOM     23  H1  UNL     1      -2.697  26.684  -1.352  1.00  0.00     0.161 HD
ATOM     24  H3  UNL     1      -2.243  29.885  -1.442  1.00  0.00     0.162 HD
ENDBRANCH  17  18
ENDBRANCH  16  17
ENDBRANCH   1  16
TORSDOF 3
ENDMDL
MODEL 5
REMARK VINA RESULT: -6.527963900      3.496      5.150
REMARK  3 active torsions:
REMARK  status: ('A' for Active; 'I' for Inactive)
REMARK       I    between atoms: C2_4  and  N3_6 
REMARK    1  A    between atoms: N3_6  and  C3_8 
REMARK    2  A    between atoms: C3_8  and  C4_9 
REMARK    3  A    between atoms: C4_9  and  N4_10 
REMARK       I    between atoms: N5_13  and  C7_14 
REMARK       I    between atoms: C7_14  and  N6_16 
REMARK       I    between atoms: C8_18  and  N8_20 
ROOT
HETATM    1  N4  UNL     1      -3.882  29.907   0.229  1.00  0.00     0.093 N 
HETATM    2  C5  UNL     1      -4.665  30.660  -0.701  1.00  0.00     0.292 C 
HETATM    3  C6  UNL     1      -5.377  31.743   0.131  1.00  0.00     0.158 C 
HETATM    4  N5  UNL     1      -6.345  30.981   0.936  1.00  0.00    -0.331 N 
HETATM    5  C7  UNL     1      -7.499  31.607   1.424  1.00  0.00     0.324 C 
HETATM    6  O1  UNL     1      -7.688  32.831   1.164  1.00  0.00    -0.247 OA
HETATM    7  N6  UNL     1      -8.428  30.866   2.193  1.00  0.00    -0.283 N 
ATOM      8  H6  UNL     1      -8.060  30.214   2.886  1.00  0.00     0.173 HD
HETATM    9  C8  UNL     1      -9.712  30.961   2.075  1.00  0.00     0.191 C 
HETATM   10  N7  UNL     1     -10.353  31.827   1.151  1.00  0.00    -0.063 NA
HETATM   11  N8  UNL     1     -10.519  30.159   2.916  1.00  0.00    -0.369 N 
ATOM     12  H8  UNL     1     -11.235  29.546   2.527  1.00  0.00     0.161 HD
HETATM   13  C9  UNL     1     -10.299  30.235   4.355  1.00  0.00     0.148 C 
HETATM   14  C10 UNL     1      -6.114  29.588   1.230  1.00  0.00     0.158 C 
HETATM   15  C11 UNL     1      -4.676  29.181   1.189  1.00  0.00     0.292 C 
ENDROOT
BRANCH   1  16
HETATM   16  C4  UNL     1      -2.997  28.937  -0.391  1.00  0.00     0.292 C 
BRANCH  16  17
HETATM   17  C3  UNL     1      -2.192  28.150   0.610  1.00  0.00     0.152 C 
BRANCH  17  18
HETATM   18  N3  UNL     1      -0.819  28.591   0.577  1.00  0.00    -0.363 N 
HETATM   19  C2  UNL     1       0.072  28.381   1.652  1.00  0.00     0.183 C 
HETATM   20  N1  UNL     1       0.582  27.227   1.951  1.00  0.00    -0.369 N 
HETATM   21  N2  UNL     1       0.451  29.506   2.473  1.00  0.00    -0.064 NA
HETATM   22  C1  UNL     1       1.498  27.073   3.067  1.00  0.00     0.148 C 
ATOM     23  H1  UNL     1       0.336  26.411   1.392  1.00  0.00     0.161 HD
ATOM     24  H3  UNL     1      -0.479  29.073  -0.255  1.00  0.00     0.162 HD
ENDBRANCH  17  18
ENDBRANCH  16  17
ENDBRANCH   1  16
TORSDOF 3
ENDMDL
