MODEL 1
REMARK VINA RESULT: -7.035441798      0.000      0.000
REMARK  6 active torsions:
REMARK  status: ('A' for Active; 'I' for Inactive)
REMARK    1  A    between atoms: C3_3  and  N1_4 
REMARK    2  A    between atoms: N1_4  and  C4_6 
REMARK    3  A    between atoms: C5_9  and  N3_10 
REMARK    4  A    between atoms: C7_15  and  N5_16 
REMARK    5  A    between atoms: N5_16  and  C8_18 
REMARK    6  A    between atoms: C8_18  and  C9_19 
REMARK       I    between atoms: C9_19  and  N6_21 
ROOT
HETATM    1  C1  UNL     1      -8.818  27.569  -1.624  1.00  0.00     0.014 C 
HETATM    2  C2  UNL     1      -7.926  27.934  -0.922  1.00  0.00    -0.097 C 
HETATM    3  C3  UNL     1      -6.857  28.390  -0.049  1.00  0.00     0.231 C 
ENDROOT
BRANCH   3   4
HETATM    4  N1  UNL     1      -6.218  29.561  -0.599  1.00  0.00    -0.215 N 
ATOM      5  H1  UNL     1      -6.029  29.614  -1.600  1.00  0.00     0.178 HD
BRANCH   4   6
HETATM    6  C4  UNL     1      -5.883  30.548   0.175  1.00  0.00     0.708 A 
HETATM    7  N2  UNL     1      -4.751  31.236  -0.067  1.00  0.00    -0.022 N 
HETATM    8  C5  UNL     1      -4.370  32.262   0.710  1.00  0.00     0.706 A 
ATOM      9  H2  UNL     1      -4.169  30.972  -0.861  1.00  0.00     0.203 HD
HETATM   10  N4  UNL     1      -5.152  32.595   1.750  1.00  0.00    -0.022 N 
HETATM   11  C7  UNL     1      -6.303  31.938   2.046  1.00  0.00     0.707 A 
ATOM     12  H4  UNL     1      -4.868  33.375   2.344  1.00  0.00     0.203 HD
HETATM   13  N7  UNL     1      -6.631  30.915   1.225  1.00  0.00    -0.021 N 
ATOM     14  H7  UNL     1      -7.490  30.398   1.414  1.00  0.00     0.203 HD
BRANCH   8  15
HETATM   15  N3  UNL     1      -3.275  32.869   0.411  1.00  0.00    -0.229 N 
HETATM   16  C6  UNL     1      -3.287  33.733  -0.749  1.00  0.00     0.165 C 
ATOM     17  H3  UNL     1      -2.431  32.745   0.971  1.00  0.00     0.177 HD
ENDBRANCH   8  15
BRANCH  11  18
HETATM   18  N5  UNL     1      -7.014  32.298   3.053  1.00  0.00    -0.216 N 
ATOM     19  H5  UNL     1      -7.586  33.141   3.013  1.00  0.00     0.178 HD
BRANCH  18  20
HETATM   20  C8  UNL     1      -6.986  31.497   4.225  1.00  0.00     0.240 C 
BRANCH  20  21
HETATM   21  C9  UNL     1      -8.048  30.498   4.367  1.00  0.00     0.238 C 
HETATM   22  O1  UNL     1      -9.193  30.942   4.729  1.00  0.00    -0.272 OA
HETATM   23  N6  UNL     1      -7.942  29.104   4.147  1.00  0.00    -0.351 N 
HETATM   24  C10 UNL     1      -9.013  28.166   4.275  1.00  0.00     0.126 C 
HETATM   25  C13 UNL     1      -6.753  28.411   3.764  1.00  0.00     0.126 C 
HETATM   26  C11 UNL     1      -8.338  26.910   4.753  1.00  0.00     0.021 C 
HETATM   27  C12 UNL     1      -7.119  26.915   3.807  1.00  0.00     0.021 C 
ENDBRANCH  20  21
ENDBRANCH  18  20
ENDBRANCH  11  18
ENDBRANCH   4   6
ENDBRANCH   3   4
TORSDOF 6
ENDMDL
MODEL 2
REMARK VINA RESULT: -6.990416068      2.402      3.197
REMARK  6 active torsions:
REMARK  status: ('A' for Active; 'I' for Inactive)
REMARK    1  A    between atoms: C3_3  and  N1_4 
REMARK    2  A    between atoms: N1_4  and  C4_6 
REMARK    3  A    between atoms: C5_9  and  N3_10 
REMARK    4  A    between atoms: C7_15  and  N5_16 
REMARK    5  A    between atoms: N5_16  and  C8_18 
REMARK    6  A    between atoms: C8_18  and  C9_19 
REMARK       I    between atoms: C9_19  and  N6_21 
ROOT
HETATM    1  C1  UNL     1      -8.125  27.573  -4.384  1.00  0.00     0.014 C 
HETATM    2  C2  UNL     1      -7.596  27.827  -3.346  1.00  0.00    -0.097 C 
HETATM    3  C3  UNL     1      -6.961  28.161  -2.082  1.00  0.00     0.231 C 
ENDROOT
BRANCH   3   4
HETATM    4  N1  UNL     1      -5.554  28.418  -2.274  1.00  0.00    -0.215 N 
ATOM      5  H1  UNL     1      -5.076  28.044  -3.094  1.00  0.00     0.178 HD
BRANCH   4   6
HETATM    6  C4  UNL     1      -4.894  29.123  -1.406  1.00  0.00     0.708 A 
HETATM    7  N2  UNL     1      -3.779  28.621  -0.842  1.00  0.00    -0.022 N 
HETATM    8  C5  UNL     1      -3.069  29.317   0.059  1.00  0.00     0.706 A 
ATOM      9  H2  UNL     1      -3.466  27.687  -1.107  1.00  0.00     0.203 HD
HETATM   10  N4  UNL     1      -3.498  30.546   0.392  1.00  0.00    -0.022 N 
HETATM   11  C7  UNL     1      -4.615  31.106  -0.141  1.00  0.00     0.707 A 
ATOM     12  H4  UNL     1      -2.962  31.081   1.076  1.00  0.00     0.203 HD
HETATM   13  N7  UNL     1      -5.285  30.353  -1.042  1.00  0.00    -0.021 N 
ATOM     14  H7  UNL     1      -6.128  30.739  -1.466  1.00  0.00     0.203 HD
BRANCH   8  15
HETATM   15  N3  UNL     1      -2.015  28.766   0.551  1.00  0.00    -0.229 N 
HETATM   16  C6  UNL     1      -1.232  27.924  -0.327  1.00  0.00     0.165 C 
ATOM     17  H3  UNL     1      -1.743  28.917   1.522  1.00  0.00     0.177 HD
ENDBRANCH   8  15
BRANCH  11  18
HETATM   18  N5  UNL     1      -4.981  32.284   0.213  1.00  0.00    -0.216 N 
ATOM     19  H5  UNL     1      -4.898  33.071  -0.431  1.00  0.00     0.178 HD
BRANCH  18  20
HETATM   20  C8  UNL     1      -5.503  32.470   1.521  1.00  0.00     0.240 C 
BRANCH  20  21
HETATM   21  C9  UNL     1      -6.889  32.050   1.743  1.00  0.00     0.238 C 
HETATM   22  O1  UNL     1      -7.785  32.717   1.120  1.00  0.00    -0.272 OA
HETATM   23  N6  UNL     1      -7.336  30.992   2.569  1.00  0.00    -0.351 N 
HETATM   24  C10 UNL     1      -8.701  30.601   2.740  1.00  0.00     0.126 C 
HETATM   25  C13 UNL     1      -6.502  30.148   3.364  1.00  0.00     0.126 C 
HETATM   26  C11 UNL     1      -8.762  30.113   4.161  1.00  0.00     0.021 C 
HETATM   27  C12 UNL     1      -7.469  29.272   4.185  1.00  0.00     0.021 C 
ENDBRANCH  20  21
ENDBRANCH  18  20
ENDBRANCH  11  18
ENDBRANCH   4   6
ENDBRANCH   3   4
TORSDOF 6
ENDMDL
MODEL 3
REMARK VINA RESULT: -6.979624436      2.123      4.357
REMARK  6 active torsions:
REMARK  status: ('A' for Active; 'I' for Inactive)
REMARK    1  A    between atoms: C3_3  and  N1_4 
REMARK    2  A    between atoms: N1_4  and  C4_6 
REMARK    3  A    between atoms: C5_9  and  N3_10 
REMARK    4  A    between atoms: C7_15  and  N5_16 
REMARK    5  A    between atoms: N5_16  and  C8_18 
REMARK    6  A    between atoms: C8_18  and  C9_19 
REMARK       I    between atoms: C9_19  and  N6_21 
ROOT
HETATM    1  C1  UNL     1      -3.954  34.304  -2.159  1.00  0.00     0.014 C 
HETATM    2  C2  UNL     1      -3.630  33.909  -1.081  1.00  0.00    -0.097 C 
HETATM    3  C3  UNL     1      -3.220  33.410   0.220  1.00  0.00     0.231 C 
ENDROOT
BRANCH   3   4
HETATM    4  N1  UNL     1      -4.242  32.558   0.782  1.00  0.00    -0.215 N 
ATOM      5  H1  UNL     1      -4.842  32.909   1.527  1.00  0.00     0.178 HD
BRANCH   4   6
HETATM    6  C4  UNL     1      -4.398  31.347   0.341  1.00  0.00     0.708 A 
HETATM    7  N2  UNL     1      -3.320  30.574   0.107  1.00  0.00    -0.022 N 
HETATM    8  C5  UNL     1      -3.440  29.318  -0.349  1.00  0.00     0.706 A 
ATOM      9  H2  UNL     1      -2.390  30.953   0.281  1.00  0.00     0.203 HD
HETATM   10  N4  UNL     1      -4.674  28.837  -0.570  1.00  0.00    -0.022 N 
HETATM   11  C7  UNL     1      -5.798  29.568  -0.354  1.00  0.00     0.707 A 
ATOM     12  H4  UNL     1      -4.772  27.882  -0.916  1.00  0.00     0.203 HD
HETATM   13  N7  UNL     1      -5.610  30.826   0.105  1.00  0.00    -0.021 N 
ATOM     14  H7  UNL     1      -6.430  31.406   0.280  1.00  0.00     0.203 HD
BRANCH   8  15
HETATM   15  N3  UNL     1      -2.360  28.645  -0.546  1.00  0.00    -0.229 N 
HETATM   16  C6  UNL     1      -1.581  28.278   0.616  1.00  0.00     0.165 C 
ATOM     17  H3  UNL     1      -2.066  28.380  -1.487  1.00  0.00     0.177 HD
ENDBRANCH   8  15
BRANCH  11  18
HETATM   18  N5  UNL     1      -6.955  29.060  -0.583  1.00  0.00    -0.216 N 
ATOM     19  H5  UNL     1      -7.550  29.433  -1.323  1.00  0.00     0.178 HD
BRANCH  18  20
HETATM   20  C8  UNL     1      -7.389  27.969   0.215  1.00  0.00     0.240 C 
BRANCH  20  21
HETATM   21  C9  UNL     1      -8.438  28.248   1.199  1.00  0.00     0.238 C 
HETATM   22  O1  UNL     1      -9.635  27.974   0.839  1.00  0.00    -0.272 OA
HETATM   23  N6  UNL     1      -8.267  28.785   2.498  1.00  0.00    -0.351 N 
HETATM   24  C10 UNL     1      -9.319  29.020   3.436  1.00  0.00     0.126 C 
HETATM   25  C13 UNL     1      -7.022  29.178   3.077  1.00  0.00     0.126 C 
HETATM   26  C11 UNL     1      -8.860  30.233   4.197  1.00  0.00     0.021 C 
HETATM   27  C12 UNL     1      -7.386  29.834   4.423  1.00  0.00     0.021 C 
ENDBRANCH  20  21
ENDBRANCH  18  20
ENDBRANCH  11  18
ENDBRANCH   4   6
ENDBRANCH   3   4
TORSDOF 6
ENDMDL
MODEL 4
REMARK VINA RESULT: -6.963909865      1.560      4.236
REMARK  6 active torsions:
REMARK  status: ('A' for Active; 'I' for Inactive)
REMARK    1  A    between atoms: C3_3  and  N1_4 
REMARK    2  A    between atoms: N1_4  and  C4_6 
REMARK    3  A    between atoms: C5_9  and  N3_10 
REMARK    4  A    between atoms: C7_15  and  N5_16 
REMARK    5  A    between atoms: N5_16  and  C8_18 
REMARK    6  A    between atoms: C8_18  and  C9_19 
REMARK       I    between atoms: C9_19  and  N6_21 
ROOT
HETATM    1  C1  UNL     1      -3.941  34.230  -2.172  1.00  0.00     0.014 C 
HETATM    2  C2  UNL     1      -3.627  33.855  -1.084  1.00  0.00    -0.097 C 
HETATM    3  C3  UNL     1      -3.218  33.398   0.233  1.00  0.00     0.231 C 
ENDROOT
BRANCH   3   4
HETATM    4  N1  UNL     1      -3.477  31.986   0.383  1.00  0.00    -0.215 N 
ATOM      5  H1  UNL     1      -2.747  31.309   0.164  1.00  0.00     0.178 HD
BRANCH   4   6
HETATM    6  C4  UNL     1      -4.638  31.575   0.794  1.00  0.00     0.708 A 
HETATM    7  N2  UNL     1      -5.164  32.078   1.928  1.00  0.00    -0.022 N 
HETATM    8  C5  UNL     1      -6.360  31.679   2.387  1.00  0.00     0.706 A 
ATOM      9  H2  UNL     1      -4.640  32.780   2.450  1.00  0.00     0.203 HD
HETATM   10  N4  UNL     1      -7.034  30.754   1.684  1.00  0.00    -0.022 N 
HETATM   11  C7  UNL     1      -6.556  30.210   0.535  1.00  0.00     0.707 A 
ATOM     12  H4  UNL     1      -7.945  30.448   2.027  1.00  0.00     0.203 HD
HETATM   13  N7  UNL     1      -5.346  30.653   0.126  1.00  0.00    -0.021 N 
ATOM     14  H7  UNL     1      -4.953  30.269  -0.733  1.00  0.00     0.203 HD
BRANCH   8  15
HETATM   15  N3  UNL     1      -6.793  32.208   3.478  1.00  0.00    -0.229 N 
HETATM   16  C6  UNL     1      -7.172  31.313   4.548  1.00  0.00     0.165 C 
ATOM     17  H3  UNL     1      -6.865  33.221   3.583  1.00  0.00     0.177 HD
ENDBRANCH   8  15
BRANCH  11  18
HETATM   18  N5  UNL     1      -7.242  29.328  -0.099  1.00  0.00    -0.216 N 
ATOM     19  H5  UNL     1      -7.736  29.572  -0.957  1.00  0.00     0.178 HD
BRANCH  18  20
HETATM   20  C8  UNL     1      -7.298  28.008   0.420  1.00  0.00     0.240 C 
BRANCH  20  21
HETATM   21  C9  UNL     1      -8.416  27.698   1.315  1.00  0.00     0.238 C 
HETATM   22  O1  UNL     1      -9.568  27.608   0.766  1.00  0.00    -0.272 OA
HETATM   23  N6  UNL     1      -8.354  27.489   2.714  1.00  0.00    -0.351 N 
HETATM   24  C10 UNL     1      -9.470  27.165   3.547  1.00  0.00     0.126 C 
HETATM   25  C13 UNL     1      -7.175  27.569   3.515  1.00  0.00     0.126 C 
HETATM   26  C11 UNL     1      -9.143  27.822   4.859  1.00  0.00     0.021 C 
HETATM   27  C12 UNL     1      -7.658  27.417   4.971  1.00  0.00     0.021 C 
ENDBRANCH  20  21
ENDBRANCH  18  20
ENDBRANCH  11  18
ENDBRANCH   4   6
ENDBRANCH   3   4
TORSDOF 6
ENDMDL
MODEL 5
REMARK VINA RESULT: -6.949607151      0.876      1.430
REMARK  6 active torsions:
REMARK  status: ('A' for Active; 'I' for Inactive)
REMARK    1  A    between atoms: C3_3  and  N1_4 
REMARK    2  A    between atoms: N1_4  and  C4_6 
REMARK    3  A    between atoms: C5_9  and  N3_10 
REMARK    4  A    between atoms: C7_15  and  N5_16 
REMARK    5  A    between atoms: N5_16  and  C8_18 
REMARK    6  A    between atoms: C8_18  and  C9_19 
REMARK       I    between atoms: C9_19  and  N6_21 
ROOT
HETATM    1  C1  UNL     1      -3.830  27.458   0.844  1.00  0.00     0.014 C 
HETATM    2  C2  UNL     1      -4.878  27.850   0.432  1.00  0.00    -0.097 C 
HETATM    3  C3  UNL     1      -6.152  28.313  -0.093  1.00  0.00     0.231 C 
ENDROOT
BRANCH   3   4
HETATM    4  N1  UNL     1      -6.027  29.652  -0.619  1.00  0.00    -0.215 N 
ATOM      5  H1  UNL     1      -6.158  29.820  -1.616  1.00  0.00     0.178 HD
BRANCH   4   6
HETATM    6  C4  UNL     1      -5.749  30.641   0.174  1.00  0.00     0.708 A 
HETATM    7  N2  UNL     1      -4.636  31.372  -0.030  1.00  0.00    -0.022 N 
HETATM    8  C5  UNL     1      -4.314  32.402   0.766  1.00  0.00     0.706 A 
ATOM      9  H2  UNL     1      -4.024  31.136  -0.810  1.00  0.00     0.203 HD
HETATM   10  N4  UNL     1      -5.135  32.697   1.788  1.00  0.00    -0.022 N 
HETATM   11  C7  UNL     1      -6.270  31.997   2.045  1.00  0.00     0.707 A 
ATOM     12  H4  UNL     1      -4.895  33.480   2.396  1.00  0.00     0.203 HD
HETATM   13  N7  UNL     1      -6.539  30.971   1.206  1.00  0.00    -0.021 N 
ATOM     14  H7  UNL     1      -7.383  30.422   1.366  1.00  0.00     0.203 HD
BRANCH   8  15
HETATM   15  N3  UNL     1      -3.233  33.050   0.503  1.00  0.00    -0.229 N 
HETATM   16  C6  UNL     1      -3.179  33.778  -0.746  1.00  0.00     0.165 C 
ATOM     17  H3  UNL     1      -2.445  33.051   1.151  1.00  0.00     0.177 HD
ENDBRANCH   8  15
BRANCH  11  18
HETATM   18  N5  UNL     1      -7.020  32.321   3.036  1.00  0.00    -0.216 N 
ATOM     19  H5  UNL     1      -7.636  33.131   2.978  1.00  0.00     0.178 HD
BRANCH  18  20
HETATM   20  C8  UNL     1      -6.973  31.527   4.212  1.00  0.00     0.240 C 
BRANCH  20  21
HETATM   21  C9  UNL     1      -8.003  30.495   4.354  1.00  0.00     0.238 C 
HETATM   22  O1  UNL     1      -9.151  30.897   4.749  1.00  0.00    -0.272 OA
HETATM   23  N6  UNL     1      -7.861  29.110   4.099  1.00  0.00    -0.351 N 
HETATM   24  C10 UNL     1      -8.902  28.139   4.229  1.00  0.00     0.126 C 
HETATM   25  C13 UNL     1      -6.662  28.461   3.676  1.00  0.00     0.126 C 
HETATM   26  C11 UNL     1      -8.182  26.893   4.663  1.00  0.00     0.021 C 
HETATM   27  C12 UNL     1      -6.984  26.954   3.692  1.00  0.00     0.021 C 
ENDBRANCH  20  21
ENDBRANCH  18  20
ENDBRANCH  11  18
ENDBRANCH   4   6
ENDBRANCH   3   4
TORSDOF 6
ENDMDL
