MODEL 1
REMARK VINA RESULT: -6.483580581      0.000      0.000
REMARK  3 active torsions:
REMARK  status: ('A' for Active; 'I' for Inactive)
REMARK       I    between atoms: N1_2  and  C3_4 
REMARK       I    between atoms: C3_4  and  N2_6 
REMARK    1  A    between atoms: N2_6  and  S1_8 
REMARK    2  A    between atoms: S1_8  and  N3_11 
REMARK    3  A    between atoms: N3_11  and  N4_13 
REMARK       I    between atoms: N5_16  and  C6_17 
ROOT
HETATM    1  N3  UNL     1      -6.343  30.439   2.928  1.00  0.00    -0.212 N 
ATOM      2  H3  UNL     1      -5.466  30.019   3.240  1.00  0.00     0.201 HD
ENDROOT
BRANCH   1   3
HETATM    3  S1  UNL     1      -7.822  30.485   3.814  1.00  0.00     0.340 S 
HETATM    4  O2  UNL     1      -7.705  31.539   4.890  1.00  0.00    -0.181 OA
HETATM    5  O3  UNL     1      -8.907  30.907   2.868  1.00  0.00    -0.181 OA
BRANCH   3   6
HETATM    6  N2  UNL     1      -8.168  28.989   4.585  1.00  0.00    -0.218 N 
HETATM    7  C3  UNL     1      -8.017  27.784   3.861  1.00  0.00     0.332 C 
HETATM    8  N1  UNL     1      -8.304  26.557   4.503  1.00  0.00    -0.342 N 
HETATM    9  O1  UNL     1      -7.629  27.828   2.662  1.00  0.00    -0.246 OA
HETATM   10  C1  UNL     1      -8.747  26.531   5.860  1.00  0.00     0.154 C 
HETATM   11  C2  UNL     1      -8.145  25.314   3.767  1.00  0.00     0.154 C 
ATOM     12  H2  UNL     1      -8.481  28.970   5.555  1.00  0.00     0.185 HD
ENDBRANCH   3   6
ENDBRANCH   1   3
BRANCH   1  13
HETATM   13  N4  UNL     1      -6.559  31.074   1.717  1.00  0.00    -0.314 N 
HETATM   14  C4  UNL     1      -6.357  30.301   0.550  1.00  0.00     0.163 C 
HETATM   15  C5  UNL     1      -4.941  30.356   0.001  1.00  0.00     0.147 C 
HETATM   16  N5  UNL     1      -4.572  31.752  -0.059  1.00  0.00    -0.353 N 
HETATM   17  C6  UNL     1      -4.174  32.297  -1.305  1.00  0.00     0.184 C 
HETATM   18  C7  UNL     1      -4.635  32.505   1.174  1.00  0.00     0.147 C 
HETATM   19  N6  UNL     1      -3.701  31.495  -2.196  1.00  0.00    -0.374 N 
HETATM   20  N7  UNL     1      -4.297  33.697  -1.556  1.00  0.00    -0.064 NA
ATOM     21  H62 UNL     1      -3.613  30.495  -2.017  1.00  0.00     0.158 HD
ATOM     22  H61 UNL     1      -3.415  31.887  -3.093  1.00  0.00     0.158 HD
HETATM   23  C8  UNL     1      -6.061  32.419   1.670  1.00  0.00     0.163 C 
ENDBRANCH   1  13
TORSDOF 3
ENDMDL
MODEL 2
REMARK VINA RESULT: -6.220363311      1.064      1.120
REMARK  3 active torsions:
REMARK  status: ('A' for Active; 'I' for Inactive)
REMARK       I    between atoms: N1_2  and  C3_4 
REMARK       I    between atoms: C3_4  and  N2_6 
REMARK    1  A    between atoms: N2_6  and  S1_8 
REMARK    2  A    between atoms: S1_8  and  N3_11 
REMARK    3  A    between atoms: N3_11  and  N4_13 
REMARK       I    between atoms: N5_16  and  C6_17 
ROOT
HETATM    1  N3  UNL     1      -7.099  30.165   2.886  1.00  0.00    -0.212 N 
ATOM      2  H3  UNL     1      -6.280  29.723   3.306  1.00  0.00     0.201 HD
ENDROOT
BRANCH   1   3
HETATM    3  S1  UNL     1      -8.689  30.203   3.551  1.00  0.00     0.340 S 
HETATM    4  O2  UNL     1      -8.667  31.049   4.802  1.00  0.00    -0.181 OA
HETATM    5  O3  UNL     1      -9.585  30.876   2.554  1.00  0.00    -0.181 OA
BRANCH   3   6
HETATM    6  N2  UNL     1      -9.252  28.640   3.989  1.00  0.00    -0.218 N 
HETATM    7  C3  UNL     1      -8.423  27.795   4.763  1.00  0.00     0.332 C 
HETATM    8  N1  UNL     1      -8.894  26.510   5.119  1.00  0.00    -0.342 N 
HETATM    9  O1  UNL     1      -7.286  28.204   5.119  1.00  0.00    -0.246 OA
HETATM   10  C1  UNL     1     -10.185  26.065   4.700  1.00  0.00     0.154 C 
HETATM   11  C2  UNL     1      -8.050  25.639   5.919  1.00  0.00     0.154 C 
ATOM     12  H2  UNL     1     -10.175  28.324   3.693  1.00  0.00     0.185 HD
ENDBRANCH   3   6
ENDBRANCH   1   3
BRANCH   1  13
HETATM   13  N4  UNL     1      -7.132  30.842   1.679  1.00  0.00    -0.314 N 
HETATM   14  C4  UNL     1      -6.836  30.087   0.519  1.00  0.00     0.163 C 
HETATM   15  C5  UNL     1      -5.364  30.070   0.143  1.00  0.00     0.147 C 
HETATM   16  N5  UNL     1      -4.913  31.443   0.172  1.00  0.00    -0.353 N 
HETATM   17  C6  UNL     1      -4.339  31.993  -1.001  1.00  0.00     0.184 C 
HETATM   18  C7  UNL     1      -5.080  32.167   1.412  1.00  0.00     0.147 C 
HETATM   19  N6  UNL     1      -3.808  31.187  -1.856  1.00  0.00    -0.374 N 
HETATM   20  N7  UNL     1      -4.352  33.404  -1.221  1.00  0.00    -0.064 NA
ATOM     21  H62 UNL     1      -3.799  30.180  -1.698  1.00  0.00     0.158 HD
ATOM     22  H61 UNL     1      -3.395  31.584  -2.699  1.00  0.00     0.158 HD
HETATM   23  C8  UNL     1      -6.558  32.155   1.733  1.00  0.00     0.163 C 
ENDBRANCH   1  13
TORSDOF 3
ENDMDL
MODEL 3
REMARK VINA RESULT: -6.201725658      1.256      1.912
REMARK  3 active torsions:
REMARK  status: ('A' for Active; 'I' for Inactive)
REMARK       I    between atoms: N1_2  and  C3_4 
REMARK       I    between atoms: C3_4  and  N2_6 
REMARK    1  A    between atoms: N2_6  and  S1_8 
REMARK    2  A    between atoms: S1_8  and  N3_11 
REMARK    3  A    between atoms: N3_11  and  N4_13 
REMARK       I    between atoms: N5_16  and  C6_17 
ROOT
HETATM    1  N3  UNL     1      -7.873  30.847   2.583  1.00  0.00    -0.212 N 
ATOM      2  H3  UNL     1      -8.585  31.083   1.891  1.00  0.00     0.201 HD
ENDROOT
BRANCH   1   3
HETATM    3  S1  UNL     1      -8.131  30.618   4.273  1.00  0.00     0.340 S 
HETATM    4  O2  UNL     1      -7.377  31.690   5.024  1.00  0.00    -0.181 OA
HETATM    5  O3  UNL     1      -9.595  30.809   4.540  1.00  0.00    -0.181 OA
BRANCH   3   6
HETATM    6  N2  UNL     1      -7.557  29.094   4.821  1.00  0.00    -0.218 N 
HETATM    7  C3  UNL     1      -8.096  27.910   4.268  1.00  0.00     0.332 C 
HETATM    8  N1  UNL     1      -7.617  26.660   4.725  1.00  0.00    -0.342 N 
HETATM    9  O1  UNL     1      -8.987  27.992   3.381  1.00  0.00    -0.246 OA
HETATM   10  C1  UNL     1      -6.610  26.590   5.735  1.00  0.00     0.154 C 
HETATM   11  C2  UNL     1      -8.162  25.438   4.157  1.00  0.00     0.154 C 
ATOM     12  H2  UNL     1      -6.835  29.045   5.539  1.00  0.00     0.185 HD
ENDBRANCH   3   6
ENDBRANCH   1   3
BRANCH   1  13
HETATM   13  N4  UNL     1      -6.525  30.652   2.334  1.00  0.00    -0.314 N 
HETATM   14  C4  UNL     1      -5.793  31.777   1.888  1.00  0.00     0.163 C 
HETATM   15  C5  UNL     1      -5.756  31.941   0.378  1.00  0.00     0.147 C 
HETATM   16  N5  UNL     1      -5.391  30.654  -0.171  1.00  0.00    -0.353 N 
HETATM   17  C6  UNL     1      -4.244  30.570  -0.998  1.00  0.00     0.184 C 
HETATM   18  C7  UNL     1      -6.234  29.529   0.167  1.00  0.00     0.147 C 
HETATM   19  N6  UNL     1      -3.856  31.635  -1.612  1.00  0.00    -0.374 N 
HETATM   20  N7  UNL     1      -3.542  29.334  -1.141  1.00  0.00    -0.064 NA
ATOM     21  H62 UNL     1      -4.357  32.517  -1.510  1.00  0.00     0.158 HD
ATOM     22  H61 UNL     1      -3.030  31.574  -2.207  1.00  0.00     0.158 HD
HETATM   23  C8  UNL     1      -6.229  29.413   1.675  1.00  0.00     0.163 C 
ENDBRANCH   1  13
TORSDOF 3
ENDMDL
MODEL 4
REMARK VINA RESULT: -6.191192065      1.167      1.483
REMARK  3 active torsions:
REMARK  status: ('A' for Active; 'I' for Inactive)
REMARK       I    between atoms: N1_2  and  C3_4 
REMARK       I    between atoms: C3_4  and  N2_6 
REMARK    1  A    between atoms: N2_6  and  S1_8 
REMARK    2  A    between atoms: S1_8  and  N3_11 
REMARK    3  A    between atoms: N3_11  and  N4_13 
REMARK       I    between atoms: N5_16  and  C6_17 
ROOT
HETATM    1  N3  UNL     1      -6.321  30.210   2.947  1.00  0.00    -0.212 N 
ATOM      2  H3  UNL     1      -5.429  29.808   3.238  1.00  0.00     0.201 HD
ENDROOT
BRANCH   1   3
HETATM    3  S1  UNL     1      -7.798  30.165   3.838  1.00  0.00     0.340 S 
HETATM    4  O2  UNL     1      -7.580  30.856   5.164  1.00  0.00    -0.181 OA
HETATM    5  O3  UNL     1      -8.818  30.951   3.069  1.00  0.00    -0.181 OA
BRANCH   3   6
HETATM    6  N2  UNL     1      -8.315  28.559   4.165  1.00  0.00    -0.218 N 
HETATM    7  C3  UNL     1      -9.484  28.350   4.931  1.00  0.00     0.332 C 
HETATM    8  N1  UNL     1      -9.902  27.024   5.195  1.00  0.00    -0.342 N 
HETATM    9  O1  UNL     1     -10.128  29.344   5.361  1.00  0.00    -0.246 OA
HETATM   10  C1  UNL     1      -9.155  25.912   4.701  1.00  0.00     0.154 C 
HETATM   11  C2  UNL     1     -11.107  26.800   5.976  1.00  0.00     0.154 C 
ATOM     12  H2  UNL     1      -7.782  27.765   3.809  1.00  0.00     0.185 HD
ENDBRANCH   3   6
ENDBRANCH   1   3
BRANCH   1  13
HETATM   13  N4  UNL     1      -6.564  30.890   1.767  1.00  0.00    -0.314 N 
HETATM   14  C4  UNL     1      -6.365  30.169   0.566  1.00  0.00     0.163 C 
HETATM   15  C5  UNL     1      -4.959  30.269   0.001  1.00  0.00     0.147 C 
HETATM   16  N5  UNL     1      -4.613  31.673  -0.006  1.00  0.00    -0.353 N 
HETATM   17  C6  UNL     1      -4.241  32.274  -1.234  1.00  0.00     0.184 C 
HETATM   18  C7  UNL     1      -4.671  32.374   1.258  1.00  0.00     0.147 C 
HETATM   19  N6  UNL     1      -3.767  31.518  -2.163  1.00  0.00    -0.374 N 
HETATM   20  N7  UNL     1      -4.390  33.681  -1.426  1.00  0.00    -0.064 NA
ATOM     21  H62 UNL     1      -3.660  30.513  -2.026  1.00  0.00     0.158 HD
ATOM     22  H61 UNL     1      -3.500  31.950  -3.047  1.00  0.00     0.158 HD
HETATM   23  C8  UNL     1      -6.089  32.244   1.767  1.00  0.00     0.163 C 
ENDBRANCH   1  13
TORSDOF 3
ENDMDL
MODEL 5
REMARK VINA RESULT: -6.081060171      3.837      6.086
REMARK  3 active torsions:
REMARK  status: ('A' for Active; 'I' for Inactive)
REMARK       I    between atoms: N1_2  and  C3_4 
REMARK       I    between atoms: C3_4  and  N2_6 
REMARK    1  A    between atoms: N2_6  and  S1_8 
REMARK    2  A    between atoms: S1_8  and  N3_11 
REMARK    3  A    between atoms: N3_11  and  N4_13 
REMARK       I    between atoms: N5_16  and  C6_17 
ROOT
HETATM    1  N3  UNL     1      -5.625  29.994  -0.324  1.00  0.00    -0.212 N 
ATOM      2  H3  UNL     1      -6.487  29.819  -0.841  1.00  0.00     0.201 HD
ENDROOT
BRANCH   1   3
HETATM    3  S1  UNL     1      -4.078  30.334  -1.008  1.00  0.00     0.340 S 
HETATM    4  O2  UNL     1      -4.051  29.804  -2.422  1.00  0.00    -0.181 OA
HETATM    5  O3  UNL     1      -3.925  31.825  -1.070  1.00  0.00    -0.181 OA
BRANCH   3   6
HETATM    6  N2  UNL     1      -2.801  29.578  -0.143  1.00  0.00    -0.218 N 
HETATM    7  C3  UNL     1      -2.788  28.170  -0.014  1.00  0.00     0.332 C 
HETATM    8  N1  UNL     1      -1.733  27.556   0.700  1.00  0.00    -0.342 N 
HETATM    9  O1  UNL     1      -3.714  27.494  -0.536  1.00  0.00    -0.246 OA
HETATM   10  C1  UNL     1      -0.696  28.342   1.288  1.00  0.00     0.154 C 
HETATM   11  C2  UNL     1      -1.710  26.109   0.832  1.00  0.00     0.154 C 
ATOM     12  H2  UNL     1      -2.058  30.140   0.274  1.00  0.00     0.185 HD
ENDBRANCH   3   6
ENDBRANCH   1   3
BRANCH   1  13
HETATM   13  N4  UNL     1      -5.485  30.001   1.053  1.00  0.00    -0.314 N 
HETATM   14  C4  UNL     1      -6.100  28.940   1.759  1.00  0.00     0.163 C 
HETATM   15  C5  UNL     1      -7.531  29.220   2.187  1.00  0.00     0.147 C 
HETATM   16  N5  UNL     1      -7.529  30.520   2.819  1.00  0.00    -0.353 N 
HETATM   17  C6  UNL     1      -8.001  30.628   4.150  1.00  0.00     0.184 C 
HETATM   18  C7  UNL     1      -7.039  31.633   2.037  1.00  0.00     0.147 C 
HETATM   19  N6  UNL     1      -8.827  29.736   4.578  1.00  0.00    -0.374 N 
HETATM   20  N7  UNL     1      -7.569  31.701   4.987  1.00  0.00    -0.064 NA
ATOM     21  H62 UNL     1      -9.136  28.970   3.980  1.00  0.00     0.158 HD
ATOM     22  H61 UNL     1      -9.167  29.815   5.536  1.00  0.00     0.158 HD
HETATM   23  C8  UNL     1      -5.616  31.302   1.644  1.00  0.00     0.163 C 
ENDBRANCH   1  13
TORSDOF 3
ENDMDL
