MODEL 1
REMARK VINA RESULT: -7.362045510      0.000      0.000
REMARK  7 active torsions:
REMARK  status: ('A' for Active; 'I' for Inactive)
REMARK    1  A    between atoms: C3_3  and  C4_4 
REMARK    2  A    between atoms: C5_5  and  C6_6 
REMARK    3  A    between atoms: C6_6  and  C13_14 
REMARK    4  A    between atoms: C7_7  and  N1_8 
REMARK    5  A    between atoms: C13_14  and  O1_15 
REMARK    6  A    between atoms: C13_14  and  C14_17 
REMARK       I    between atoms: C14_17  and  N2_19 
REMARK    7  A    between atoms: N2_19  and  C15_21 
ROOT
HETATM    1  C1  UNL     1      20.271   9.132  15.624  1.00  0.00     0.112 C 
HETATM    2  C2  UNL     1      19.490   8.039  15.056  1.00  0.00    -0.106 C 
HETATM    3  C3  UNL     1      18.861   7.129  14.576  1.00  0.00    -0.079 C 
ENDROOT
BRANCH   3   4
HETATM    4  C4  UNL     1      18.081   6.045  13.999  1.00  0.00     0.065 C 
HETATM    5  C5  UNL     1      17.771   4.977  14.669  1.00  0.00     0.020 C 
BRANCH   5   6
HETATM    6  C6  UNL     1      16.999   3.898  14.107  1.00  0.00    -0.005 C 
HETATM    7  C7  UNL     1      17.678   2.993  13.373  1.00  0.00     0.096 C 
BRANCH   7   8
HETATM    8  N1  UNL     1      17.031   1.879  12.764  1.00  0.00    -0.385 N 
HETATM    9  C8  UNL     1      16.962   0.538  13.312  1.00  0.00     0.122 C 
HETATM   10  C9  UNL     1      17.240  -0.336  12.117  1.00  0.00     0.022 C 
HETATM   11  C10 UNL     1      16.872   0.516  10.922  1.00  0.00     0.026 C 
HETATM   12  C11 UNL     1      16.315   1.813  11.504  1.00  0.00     0.079 C 
HETATM   13  C12 UNL     1      16.758   2.932  10.579  1.00  0.00     0.032 C 
ENDBRANCH   7   8
BRANCH   6  14
HETATM   14  C13 UNL     1      15.575   3.691  14.274  1.00  0.00     0.244 C 
BRANCH  14  15
HETATM   15  O1  UNL     1      14.859   4.904  14.132  1.00  0.00    -0.381 OA
ATOM     16  H1  UNL     1      15.228   5.443  13.441  1.00  0.00     0.211 HD
ENDBRANCH  14  15
BRANCH  14  17
HETATM   17  C14 UNL     1      15.127   3.082  15.529  1.00  0.00     0.251 C 
HETATM   18  O2  UNL     1      14.540   3.878  16.339  1.00  0.00    -0.270 OA
HETATM   19  N2  UNL     1      15.272   1.749  15.934  1.00  0.00    -0.350 N 
ATOM     20  H2  UNL     1      15.738   1.093  15.307  1.00  0.00     0.163 HD
BRANCH  19  21
HETATM   21  C15 UNL     1      14.786   1.267  17.209  1.00  0.00     0.022 C 
HETATM   22  C16 UNL     1      13.306   0.987  17.061  1.00  0.00     0.037 C 
HETATM   23  C17 UNL     1      15.455  -0.024  17.598  1.00  0.00     0.037 C 
HETATM   24  C18 UNL     1      15.041   2.261  18.321  1.00  0.00     0.037 C 
ENDBRANCH  19  21
ENDBRANCH  14  17
ENDBRANCH   6  14
ENDBRANCH   5   6
ENDBRANCH   3   4
TORSDOF 7
ENDMDL
MODEL 2
REMARK VINA RESULT: -6.480740420      3.730      5.302
REMARK  7 active torsions:
REMARK  status: ('A' for Active; 'I' for Inactive)
REMARK    1  A    between atoms: C3_3  and  C4_4 
REMARK    2  A    between atoms: C5_5  and  C6_6 
REMARK    3  A    between atoms: C6_6  and  C13_14 
REMARK    4  A    between atoms: C7_7  and  N1_8 
REMARK    5  A    between atoms: C13_14  and  O1_15 
REMARK    6  A    between atoms: C13_14  and  C14_17 
REMARK       I    between atoms: C14_17  and  N2_19 
REMARK    7  A    between atoms: N2_19  and  C15_21 
ROOT
HETATM    1  C1  UNL     1      19.808   8.845  15.674  1.00  0.00     0.112 C 
HETATM    2  C2  UNL     1      19.289   7.674  14.974  1.00  0.00    -0.106 C 
HETATM    3  C3  UNL     1      18.879   6.701  14.393  1.00  0.00    -0.079 C 
ENDROOT
BRANCH   3   4
HETATM    4  C4  UNL     1      18.364   5.538  13.685  1.00  0.00     0.065 C 
HETATM    5  C5  UNL     1      18.592   5.335  12.423  1.00  0.00     0.020 C 
BRANCH   5   6
HETATM    6  C6  UNL     1      18.087   4.187  11.714  1.00  0.00    -0.005 C 
HETATM    7  C7  UNL     1      18.208   2.996  12.335  1.00  0.00     0.096 C 
BRANCH   7   8
HETATM    8  N1  UNL     1      17.747   1.786  11.739  1.00  0.00    -0.385 N 
HETATM    9  C8  UNL     1      16.452   1.173  11.965  1.00  0.00     0.122 C 
HETATM   10  C9  UNL     1      16.786  -0.287  12.119  1.00  0.00     0.022 C 
HETATM   11  C10 UNL     1      18.112  -0.458  11.409  1.00  0.00     0.026 C 
HETATM   12  C11 UNL     1      18.427   0.908  10.805  1.00  0.00     0.079 C 
HETATM   13  C12 UNL     1      19.930   1.090  10.900  1.00  0.00     0.032 C 
ENDBRANCH   7   8
BRANCH   6  14
HETATM   14  C13 UNL     1      17.448   4.202  10.414  1.00  0.00     0.244 C 
BRANCH  14  15
HETATM   15  O1  UNL     1      18.402   4.120   9.371  1.00  0.00    -0.381 OA
ATOM     16  H1  UNL     1      18.046   3.675   8.611  1.00  0.00     0.211 HD
ENDBRANCH  14  15
BRANCH  14  17
HETATM   17  C14 UNL     1      16.581   5.342  10.103  1.00  0.00     0.251 C 
HETATM   18  O2  UNL     1      16.614   5.731   8.886  1.00  0.00    -0.270 OA
HETATM   19  N2  UNL     1      15.740   6.042  10.977  1.00  0.00    -0.350 N 
ATOM     20  H2  UNL     1      15.697   5.752  11.954  1.00  0.00     0.163 HD
BRANCH  19  21
HETATM   21  C15 UNL     1      14.930   7.161  10.546  1.00  0.00     0.022 C 
HETATM   22  C16 UNL     1      14.007   7.528  11.688  1.00  0.00     0.037 C 
HETATM   23  C17 UNL     1      15.778   8.366  10.241  1.00  0.00     0.037 C 
HETATM   24  C18 UNL     1      14.141   6.836   9.296  1.00  0.00     0.037 C 
ENDBRANCH  19  21
ENDBRANCH  14  17
ENDBRANCH   6  14
ENDBRANCH   5   6
ENDBRANCH   3   4
TORSDOF 7
ENDMDL
MODEL 3
REMARK VINA RESULT: -6.455402386      3.414      5.977
REMARK  7 active torsions:
REMARK  status: ('A' for Active; 'I' for Inactive)
REMARK    1  A    between atoms: C3_3  and  C4_4 
REMARK    2  A    between atoms: C5_5  and  C6_6 
REMARK    3  A    between atoms: C6_6  and  C13_14 
REMARK    4  A    between atoms: C7_7  and  N1_8 
REMARK    5  A    between atoms: C13_14  and  O1_15 
REMARK    6  A    between atoms: C13_14  and  C14_17 
REMARK       I    between atoms: C14_17  and  N2_19 
REMARK    7  A    between atoms: N2_19  and  C15_21 
ROOT
HETATM    1  C1  UNL     1      12.274   8.647   7.748  1.00  0.00     0.112 C 
HETATM    2  C2  UNL     1      13.158   8.079   8.759  1.00  0.00    -0.106 C 
HETATM    3  C3  UNL     1      13.888   7.626   9.606  1.00  0.00    -0.079 C 
ENDROOT
BRANCH   3   4
HETATM    4  C4  UNL     1      14.779   7.065  10.611  1.00  0.00     0.065 C 
HETATM    5  C5  UNL     1      15.700   6.199  10.318  1.00  0.00     0.020 C 
BRANCH   5   6
HETATM    6  C6  UNL     1      16.587   5.639  11.306  1.00  0.00    -0.005 C 
HETATM    7  C7  UNL     1      16.425   6.072  12.573  1.00  0.00     0.096 C 
BRANCH   7   8
HETATM    8  N1  UNL     1      17.238   5.594  13.641  1.00  0.00    -0.385 N 
HETATM    9  C8  UNL     1      18.649   5.876  13.821  1.00  0.00     0.122 C 
HETATM   10  C9  UNL     1      19.219   4.538  14.213  1.00  0.00     0.022 C 
HETATM   11  C10 UNL     1      18.045   3.769  14.779  1.00  0.00     0.026 C 
HETATM   12  C11 UNL     1      16.872   4.746  14.761  1.00  0.00     0.079 C 
HETATM   13  C12 UNL     1      15.633   3.935  14.434  1.00  0.00     0.032 C 
ENDBRANCH   7   8
BRANCH   6  14
HETATM   14  C13 UNL     1      17.613   4.646  11.064  1.00  0.00     0.244 C 
BRANCH  14  15
HETATM   15  O1  UNL     1      18.174   4.790   9.772  1.00  0.00    -0.381 OA
ATOM     16  H1  UNL     1      17.499   4.816   9.104  1.00  0.00     0.211 HD
ENDBRANCH  14  15
BRANCH  14  17
HETATM   17  C14 UNL     1      17.234   3.238  11.203  1.00  0.00     0.251 C 
HETATM   18  O2  UNL     1      15.989   2.994  11.043  1.00  0.00    -0.270 OA
HETATM   19  N2  UNL     1      18.068   2.150  11.491  1.00  0.00    -0.350 N 
ATOM     20  H2  UNL     1      19.065   2.317  11.624  1.00  0.00     0.163 HD
BRANCH  19  21
HETATM   21  C15 UNL     1      17.568   0.797  11.607  1.00  0.00     0.022 C 
HETATM   22  C16 UNL     1      18.717  -0.145  11.322  1.00  0.00     0.037 C 
HETATM   23  C17 UNL     1      17.080   0.510  13.001  1.00  0.00     0.037 C 
HETATM   24  C18 UNL     1      16.411   0.541  10.664  1.00  0.00     0.037 C 
ENDBRANCH  19  21
ENDBRANCH  14  17
ENDBRANCH   6  14
ENDBRANCH   5   6
ENDBRANCH   3   4
TORSDOF 7
ENDMDL
MODEL 4
REMARK VINA RESULT: -6.401323327      2.834      6.156
REMARK  7 active torsions:
REMARK  status: ('A' for Active; 'I' for Inactive)
REMARK    1  A    between atoms: C3_3  and  C4_4 
REMARK    2  A    between atoms: C5_5  and  C6_6 
REMARK    3  A    between atoms: C6_6  and  C13_14 
REMARK    4  A    between atoms: C7_7  and  N1_8 
REMARK    5  A    between atoms: C13_14  and  O1_15 
REMARK    6  A    between atoms: C13_14  and  C14_17 
REMARK       I    between atoms: C14_17  and  N2_19 
REMARK    7  A    between atoms: N2_19  and  C15_21 
ROOT
HETATM    1  C1  UNL     1      14.517   1.638  17.982  1.00  0.00     0.112 C 
HETATM    2  C2  UNL     1      14.772   2.364  16.743  1.00  0.00    -0.106 C 
HETATM    3  C3  UNL     1      14.988   2.947  15.710  1.00  0.00    -0.079 C 
ENDROOT
BRANCH   3   4
HETATM    4  C4  UNL     1      15.254   3.671  14.476  1.00  0.00     0.065 C 
HETATM    5  C5  UNL     1      16.444   4.072  14.147  1.00  0.00     0.020 C 
BRANCH   5   6
HETATM    6  C6  UNL     1      16.717   4.790  12.928  1.00  0.00    -0.005 C 
HETATM    7  C7  UNL     1      16.550   6.128  12.968  1.00  0.00     0.096 C 
BRANCH   7   8
HETATM    8  N1  UNL     1      16.788   6.950  11.829  1.00  0.00    -0.385 N 
HETATM    9  C8  UNL     1      18.075   7.487  11.428  1.00  0.00     0.122 C 
HETATM   10  C9  UNL     1      17.751   8.909  11.052  1.00  0.00     0.022 C 
HETATM   11  C10 UNL     1      16.275   8.894  10.716  1.00  0.00     0.026 C 
HETATM   12  C11 UNL     1      15.847   7.433  10.835  1.00  0.00     0.079 C 
HETATM   13  C12 UNL     1      14.436   7.436  11.393  1.00  0.00     0.032 C 
ENDBRANCH   7   8
BRANCH   6  14
HETATM   14  C13 UNL     1      17.170   4.209  11.681  1.00  0.00     0.244 C 
BRANCH  14  15
HETATM   15  O1  UNL     1      16.127   4.163  10.726  1.00  0.00    -0.381 OA
ATOM     16  H1  UNL     1      15.782   3.282  10.632  1.00  0.00     0.211 HD
ENDBRANCH  14  15
BRANCH  14  17
HETATM   17  C14 UNL     1      17.750   2.864  11.736  1.00  0.00     0.251 C 
HETATM   18  O2  UNL     1      18.858   2.777  12.367  1.00  0.00    -0.270 OA
HETATM   19  N2  UNL     1      17.235   1.686  11.180  1.00  0.00    -0.350 N 
ATOM     20  H2  UNL     1      16.353   1.728  10.671  1.00  0.00     0.163 HD
BRANCH  19  21
HETATM   21  C15 UNL     1      17.909   0.411  11.302  1.00  0.00     0.022 C 
HETATM   22  C16 UNL     1      17.414  -0.252  12.570  1.00  0.00     0.037 C 
HETATM   23  C17 UNL     1      17.571  -0.500  10.153  1.00  0.00     0.037 C 
HETATM   24  C18 UNL     1      19.414   0.569  11.325  1.00  0.00     0.037 C 
ENDBRANCH  19  21
ENDBRANCH  14  17
ENDBRANCH   6  14
ENDBRANCH   5   6
ENDBRANCH   3   4
TORSDOF 7
ENDMDL
MODEL 5
REMARK VINA RESULT: -6.397823187      2.914      5.756
REMARK  7 active torsions:
REMARK  status: ('A' for Active; 'I' for Inactive)
REMARK    1  A    between atoms: C3_3  and  C4_4 
REMARK    2  A    between atoms: C5_5  and  C6_6 
REMARK    3  A    between atoms: C6_6  and  C13_14 
REMARK    4  A    between atoms: C7_7  and  N1_8 
REMARK    5  A    between atoms: C13_14  and  O1_15 
REMARK    6  A    between atoms: C13_14  and  C14_17 
REMARK       I    between atoms: C14_17  and  N2_19 
REMARK    7  A    between atoms: N2_19  and  C15_21 
ROOT
HETATM    1  C1  UNL     1      21.481  10.493  15.182  1.00  0.00     0.112 C 
HETATM    2  C2  UNL     1      20.512   9.404  15.125  1.00  0.00    -0.106 C 
HETATM    3  C3  UNL     1      19.704   8.509  15.096  1.00  0.00    -0.079 C 
ENDROOT
BRANCH   3   4
HETATM    4  C4  UNL     1      18.744   7.417  15.047  1.00  0.00     0.065 C 
HETATM    5  C5  UNL     1      18.410   6.834  13.936  1.00  0.00     0.020 C 
BRANCH   5   6
HETATM    6  C6  UNL     1      17.460   5.752  13.876  1.00  0.00    -0.005 C 
HETATM    7  C7  UNL     1      17.074   5.227  15.057  1.00  0.00     0.096 C 
BRANCH   7   8
HETATM    8  N1  UNL     1      16.139   4.153  15.134  1.00  0.00    -0.385 N 
HETATM    9  C8  UNL     1      14.716   4.288  15.378  1.00  0.00     0.122 C 
HETATM   10  C9  UNL     1      14.433   3.188  16.367  1.00  0.00     0.022 C 
HETATM   11  C10 UNL     1      15.548   2.186  16.161  1.00  0.00     0.026 C 
HETATM   12  C11 UNL     1      16.369   2.728  14.993  1.00  0.00     0.079 C 
HETATM   13  C12 UNL     1      17.819   2.390  15.287  1.00  0.00     0.032 C 
ENDBRANCH   7   8
BRANCH   6  14
HETATM   14  C13 UNL     1      16.875   5.197  12.673  1.00  0.00     0.244 C 
BRANCH  14  15
HETATM   15  O1  UNL     1      17.866   4.640  11.829  1.00  0.00    -0.381 OA
ATOM     16  H1  UNL     1      17.630   3.762  11.553  1.00  0.00     0.211 HD
ENDBRANCH  14  15
BRANCH  14  17
HETATM   17  C14 UNL     1      16.069   6.094  11.841  1.00  0.00     0.251 C 
HETATM   18  O2  UNL     1      14.906   6.361  12.302  1.00  0.00    -0.270 OA
HETATM   19  N2  UNL     1      16.422   6.677  10.618  1.00  0.00    -0.350 N 
ATOM     20  H2  UNL     1      17.343   6.480  10.228  1.00  0.00     0.163 HD
BRANCH  19  21
HETATM   21  C15 UNL     1      15.529   7.550   9.886  1.00  0.00     0.022 C 
HETATM   22  C16 UNL     1      16.267   8.042   8.661  1.00  0.00     0.037 C 
HETATM   23  C17 UNL     1      14.306   6.811   9.414  1.00  0.00     0.037 C 
HETATM   24  C18 UNL     1      15.055   8.710  10.735  1.00  0.00     0.037 C 
ENDBRANCH  19  21
ENDBRANCH  14  17
ENDBRANCH   6  14
ENDBRANCH   5   6
ENDBRANCH   3   4
TORSDOF 7
ENDMDL
