MODEL 1
REMARK VINA RESULT: -7.378786817      0.000      0.000
REMARK  8 active torsions:
REMARK  status: ('A' for Active; 'I' for Inactive)
REMARK    1  A    between atoms: C2_2  and  N1_3 
REMARK    2  A    between atoms: C2_2  and  C13_21 
REMARK    3  A    between atoms: N1_3  and  C3_6 
REMARK    4  A    between atoms: C3_6  and  C4_7 
REMARK    5  A    between atoms: C3_6  and  C5_10 
REMARK    6  A    between atoms: C4_7  and  O1_8 
REMARK    7  A    between atoms: C5_10  and  O3_12 
REMARK    8  A    between atoms: O3_12  and  C6_13 
ROOT
HETATM    1  C3  UNL     1      15.958   1.556  15.552  1.00  0.00     0.308 C 
ENDROOT
BRANCH   1   2
HETATM    2  N1  UNL     1      16.978   2.572  15.603  1.00  0.00    -0.056 N 
ATOM      3  H12 UNL     1      17.781   2.308  15.031  1.00  0.00     0.278 HD
ATOM      4  H11 UNL     1      17.423   2.591  16.520  1.00  0.00     0.278 HD
BRANCH   2   5
HETATM    5  C2  UNL     1      16.500   3.884  15.239  1.00  0.00     0.187 C 
HETATM    6  C1  UNL     1      15.151   3.796  14.521  1.00  0.00     0.040 C 
BRANCH   5   7
HETATM    7  C13 UNL     1      17.460   4.558  14.319  1.00  0.00     0.016 C 
HETATM    8  C14 UNL     1      18.877   4.099  14.489  1.00  0.00     0.007 C 
HETATM    9  C15 UNL     1      19.619   5.258  13.797  1.00  0.00     0.000 C 
HETATM   10  C16 UNL     1      18.947   6.453  14.488  1.00  0.00     0.000 C 
HETATM   11  C17 UNL     1      17.485   6.054  14.448  1.00  0.00     0.007 C 
ENDBRANCH   5   7
ENDBRANCH   2   5
ENDBRANCH   1   2
BRANCH   1  12
HETATM   12  C4  UNL     1      15.434   1.155  16.892  1.00  0.00     0.207 C 
BRANCH  12  13
HETATM   13  O1  UNL     1      14.510   0.111  16.818  1.00  0.00    -0.398 OA
ATOM     14  H1  UNL     1      13.747   0.257  17.364  1.00  0.00     0.209 HD
ENDBRANCH  12  13
ENDBRANCH   1  12
BRANCH   1  15
HETATM   15  C5  UNL     1      16.391   0.436  14.692  1.00  0.00     0.294 C 
HETATM   16  O2  UNL     1      16.736  -0.640  15.239  1.00  0.00    -0.263 OA
BRANCH  15  17
HETATM   17  O3  UNL     1      16.444   0.485  13.322  1.00  0.00    -0.285 OA
BRANCH  17  18
HETATM   18  C6  UNL     1      17.652   0.630  12.606  1.00  0.00     0.338 C 
HETATM   19  C7  UNL     1      17.543   2.001  11.927  1.00  0.00     0.046 C 
HETATM   20  C8  UNL     1      16.277   1.741  11.113  1.00  0.00     0.037 C 
HETATM   21  C12 UNL     1      18.734   1.954  11.034  1.00  0.00     0.037 C 
HETATM   22  C9  UNL     1      16.361   0.235  10.835  1.00  0.00     0.240 C 
HETATM   23  N2  UNL     1      17.639  -0.146  11.351  1.00  0.00    -0.044 N 
HETATM   24  C10 UNL     1      17.852  -1.527  11.568  1.00  0.00     0.275 C 
HETATM   25  C11 UNL     1      18.717   0.486  10.584  1.00  0.00     0.240 C 
ENDBRANCH  17  18
ENDBRANCH  15  17
ENDBRANCH   1  15
TORSDOF 8
ENDMDL
MODEL 2
REMARK VINA RESULT: -6.703214650      2.361      5.188
REMARK  8 active torsions:
REMARK  status: ('A' for Active; 'I' for Inactive)
REMARK    1  A    between atoms: C2_2  and  N1_3 
REMARK    2  A    between atoms: C2_2  and  C13_21 
REMARK    3  A    between atoms: N1_3  and  C3_6 
REMARK    4  A    between atoms: C3_6  and  C4_7 
REMARK    5  A    between atoms: C3_6  and  C5_10 
REMARK    6  A    between atoms: C4_7  and  O1_8 
REMARK    7  A    between atoms: C5_10  and  O3_12 
REMARK    8  A    between atoms: O3_12  and  C6_13 
ROOT
HETATM    1  C3  UNL     1      16.724   1.565  12.594  1.00  0.00     0.308 C 
ENDROOT
BRANCH   1   2
HETATM    2  N1  UNL     1      16.750   0.957  13.899  1.00  0.00    -0.056 N 
ATOM      3  H12 UNL     1      17.542   0.318  13.985  1.00  0.00     0.278 HD
ATOM      4  H11 UNL     1      15.985   0.292  14.003  1.00  0.00     0.278 HD
BRANCH   2   5
HETATM    5  C2  UNL     1      16.747   1.914  14.979  1.00  0.00     0.187 C 
HETATM    6  C1  UNL     1      17.887   1.635  15.962  1.00  0.00     0.040 C 
BRANCH   5   7
HETATM    7  C13 UNL     1      15.467   1.847  15.739  1.00  0.00     0.016 C 
HETATM    8  C14 UNL     1      14.930   3.191  16.131  1.00  0.00     0.007 C 
HETATM    9  C15 UNL     1      13.949   2.775  17.242  1.00  0.00     0.000 C 
HETATM   10  C16 UNL     1      14.864   1.867  18.077  1.00  0.00     0.000 C 
HETATM   11  C17 UNL     1      15.547   1.042  17.005  1.00  0.00     0.007 C 
ENDBRANCH   5   7
ENDBRANCH   2   5
ENDBRANCH   1   2
BRANCH   1  12
HETATM   12  C4  UNL     1      16.373   0.620  11.491  1.00  0.00     0.207 C 
BRANCH  12  13
HETATM   13  O1  UNL     1      16.083   1.276  10.293  1.00  0.00    -0.398 OA
ATOM     14  H1  UNL     1      16.567   0.923   9.556  1.00  0.00     0.209 HD
ENDBRANCH  12  13
ENDBRANCH   1  12
BRANCH   1  15
HETATM   15  C5  UNL     1      17.950   2.356  12.370  1.00  0.00     0.294 C 
HETATM   16  O2  UNL     1      19.038   1.747  12.230  1.00  0.00    -0.263 OA
BRANCH  15  17
HETATM   17  O3  UNL     1      17.989   3.726  12.302  1.00  0.00    -0.285 OA
BRANCH  17  18
HETATM   18  C6  UNL     1      18.504   4.531  13.341  1.00  0.00     0.338 C 
HETATM   19  C7  UNL     1      17.310   5.368  13.819  1.00  0.00     0.046 C 
HETATM   20  C8  UNL     1      16.986   6.059  12.497  1.00  0.00     0.037 C 
HETATM   21  C12 UNL     1      17.999   6.323  14.731  1.00  0.00     0.037 C 
HETATM   22  C9  UNL     1      18.360   6.152  11.821  1.00  0.00     0.240 C 
HETATM   23  N2  UNL     1      19.272   5.676  12.815  1.00  0.00    -0.044 N 
HETATM   24  C10 UNL     1      20.561   5.304  12.369  1.00  0.00     0.275 C 
HETATM   25  C11 UNL     1      19.304   6.584  13.966  1.00  0.00     0.240 C 
ENDBRANCH  17  18
ENDBRANCH  15  17
ENDBRANCH   1  15
TORSDOF 8
ENDMDL
MODEL 3
REMARK VINA RESULT: -6.659701652      2.442      4.489
REMARK  8 active torsions:
REMARK  status: ('A' for Active; 'I' for Inactive)
REMARK    1  A    between atoms: C2_2  and  N1_3 
REMARK    2  A    between atoms: C2_2  and  C13_21 
REMARK    3  A    between atoms: N1_3  and  C3_6 
REMARK    4  A    between atoms: C3_6  and  C4_7 
REMARK    5  A    between atoms: C3_6  and  C5_10 
REMARK    6  A    between atoms: C4_7  and  O1_8 
REMARK    7  A    between atoms: C5_10  and  O3_12 
REMARK    8  A    between atoms: O3_12  and  C6_13 
ROOT
HETATM    1  C3  UNL     1      17.167   1.333  12.226  1.00  0.00     0.308 C 
ENDROOT
BRANCH   1   2
HETATM    2  N1  UNL     1      16.994   0.808  13.557  1.00  0.00    -0.056 N 
ATOM      3  H12 UNL     1      17.623   0.021  13.720  1.00  0.00     0.278 HD
ATOM      4  H11 UNL     1      16.098   0.329  13.642  1.00  0.00     0.278 HD
BRANCH   2   5
HETATM    5  C2  UNL     1      17.143   1.803  14.591  1.00  0.00     0.187 C 
HETATM    6  C1  UNL     1      17.209   1.152  15.974  1.00  0.00     0.040 C 
BRANCH   5   7
HETATM    7  C13 UNL     1      15.987   2.744  14.587  1.00  0.00     0.016 C 
HETATM    8  C14 UNL     1      16.388   4.188  14.633  1.00  0.00     0.007 C 
HETATM    9  C15 UNL     1      15.060   4.821  15.088  1.00  0.00     0.000 C 
HETATM   10  C16 UNL     1      14.732   3.916  16.285  1.00  0.00     0.000 C 
HETATM   11  C17 UNL     1      15.027   2.539  15.724  1.00  0.00     0.007 C 
ENDBRANCH   5   7
ENDBRANCH   2   5
ENDBRANCH   1   2
BRANCH   1  12
HETATM   12  C4  UNL     1      16.167   0.826  11.239  1.00  0.00     0.207 C 
BRANCH  12  13
HETATM   13  O1  UNL     1      15.110   1.716  11.039  1.00  0.00    -0.398 OA
ATOM     14  H1  UNL     1      14.651   1.561  10.222  1.00  0.00     0.209 HD
ENDBRANCH  12  13
ENDBRANCH   1  12
BRANCH   1  15
HETATM   15  C5  UNL     1      18.577   1.209  11.804  1.00  0.00     0.294 C 
HETATM   16  O2  UNL     1      18.985   0.093  11.402  1.00  0.00    -0.263 OA
BRANCH  15  17
HETATM   17  O3  UNL     1      19.485   2.237  11.819  1.00  0.00    -0.285 OA
BRANCH  17  18
HETATM   18  C6  UNL     1      19.192   3.526  11.323  1.00  0.00     0.338 C 
HETATM   19  C7  UNL     1      19.680   3.507   9.869  1.00  0.00     0.046 C 
HETATM   20  C8  UNL     1      21.147   3.178  10.136  1.00  0.00     0.037 C 
HETATM   21  C12 UNL     1      19.542   4.948   9.519  1.00  0.00     0.037 C 
HETATM   22  C9  UNL     1      21.392   3.824  11.506  1.00  0.00     0.240 C 
HETATM   23  N2  UNL     1      20.176   4.525  11.784  1.00  0.00    -0.044 N 
HETATM   24  C10 UNL     1      19.960   4.916  13.125  1.00  0.00     0.275 C 
HETATM   25  C11 UNL     1      19.978   5.620  10.829  1.00  0.00     0.240 C 
ENDBRANCH  17  18
ENDBRANCH  15  17
ENDBRANCH   1  15
TORSDOF 8
ENDMDL
MODEL 4
REMARK VINA RESULT: -6.632098011      2.407      4.694
REMARK  8 active torsions:
REMARK  status: ('A' for Active; 'I' for Inactive)
REMARK    1  A    between atoms: C2_2  and  N1_3 
REMARK    2  A    between atoms: C2_2  and  C13_21 
REMARK    3  A    between atoms: N1_3  and  C3_6 
REMARK    4  A    between atoms: C3_6  and  C4_7 
REMARK    5  A    between atoms: C3_6  and  C5_10 
REMARK    6  A    between atoms: C4_7  and  O1_8 
REMARK    7  A    between atoms: C5_10  and  O3_12 
REMARK    8  A    between atoms: O3_12  and  C6_13 
ROOT
HETATM    1  C3  UNL     1      16.651   1.312  12.788  1.00  0.00     0.308 C 
ENDROOT
BRANCH   1   2
HETATM    2  N1  UNL     1      17.169   1.811  14.037  1.00  0.00    -0.056 N 
ATOM      3  H12 UNL     1      18.073   2.263  13.899  1.00  0.00     0.278 HD
ATOM      4  H11 UNL     1      17.455   1.041  14.642  1.00  0.00     0.278 HD
BRANCH   2   5
HETATM    5  C2  UNL     1      16.257   2.692  14.726  1.00  0.00     0.187 C 
HETATM    6  C1  UNL     1      16.864   4.086  14.894  1.00  0.00     0.040 C 
BRANCH   5   7
HETATM    7  C13 UNL     1      15.943   2.167  16.085  1.00  0.00     0.016 C 
HETATM    8  C14 UNL     1      16.117   0.683  16.211  1.00  0.00     0.007 C 
HETATM    9  C15 UNL     1      15.296   0.424  17.488  1.00  0.00     0.000 C 
HETATM   10  C16 UNL     1      14.005   1.174  17.129  1.00  0.00     0.000 C 
HETATM   11  C17 UNL     1      14.547   2.466  16.551  1.00  0.00     0.007 C 
ENDBRANCH   5   7
ENDBRANCH   2   5
ENDBRANCH   1   2
BRANCH   1  12
HETATM   12  C4  UNL     1      17.109  -0.069  12.450  1.00  0.00     0.207 C 
BRANCH  12  13
HETATM   13  O1  UNL     1      17.817  -0.121  11.248  1.00  0.00    -0.398 OA
ATOM     14  H1  UNL     1      17.500  -0.801  10.665  1.00  0.00     0.209 HD
ENDBRANCH  12  13
ENDBRANCH   1  12
BRANCH   1  15
HETATM   15  C5  UNL     1      16.841   2.311  11.718  1.00  0.00     0.294 C 
HETATM   16  O2  UNL     1      15.986   2.375  10.801  1.00  0.00    -0.263 OA
BRANCH  15  17
HETATM   17  O3  UNL     1      17.895   3.187  11.651  1.00  0.00    -0.285 OA
BRANCH  17  18
HETATM   18  C6  UNL     1      18.897   3.106  10.659  1.00  0.00     0.338 C 
HETATM   19  C7  UNL     1      20.207   2.938  11.439  1.00  0.00     0.046 C 
HETATM   20  C8  UNL     1      20.140   4.224  12.259  1.00  0.00     0.037 C 
HETATM   21  C12 UNL     1      21.198   3.094  10.337  1.00  0.00     0.037 C 
HETATM   22  C9  UNL     1      19.376   5.176  11.328  1.00  0.00     0.240 C 
HETATM   23  N2  UNL     1      19.232   4.435  10.113  1.00  0.00    -0.044 N 
HETATM   24  C10 UNL     1      18.264   4.902   9.194  1.00  0.00     0.275 C 
HETATM   25  C11 UNL     1      20.539   4.195   9.493  1.00  0.00     0.240 C 
ENDBRANCH  17  18
ENDBRANCH  15  17
ENDBRANCH   1  15
TORSDOF 8
ENDMDL
MODEL 5
REMARK VINA RESULT: -6.626170175      2.516      4.908
REMARK  8 active torsions:
REMARK  status: ('A' for Active; 'I' for Inactive)
REMARK    1  A    between atoms: C2_2  and  N1_3 
REMARK    2  A    between atoms: C2_2  and  C13_21 
REMARK    3  A    between atoms: N1_3  and  C3_6 
REMARK    4  A    between atoms: C3_6  and  C4_7 
REMARK    5  A    between atoms: C3_6  and  C5_10 
REMARK    6  A    between atoms: C4_7  and  O1_8 
REMARK    7  A    between atoms: C5_10  and  O3_12 
REMARK    8  A    between atoms: O3_12  and  C6_13 
ROOT
HETATM    1  C3  UNL     1      17.326   1.642  12.329  1.00  0.00     0.308 C 
ENDROOT
BRANCH   1   2
HETATM    2  N1  UNL     1      17.241   1.432  13.752  1.00  0.00    -0.056 N 
ATOM      3  H12 UNL     1      18.167   1.275  14.150  1.00  0.00     0.278 HD
ATOM      4  H11 UNL     1      16.814   0.529  13.958  1.00  0.00     0.278 HD
BRANCH   2   5
HETATM    5  C2  UNL     1      16.558   2.493  14.450  1.00  0.00     0.187 C 
HETATM    6  C1  UNL     1      17.441   3.739  14.552  1.00  0.00     0.040 C 
BRANCH   5   7
HETATM    7  C13 UNL     1      16.207   2.072  15.836  1.00  0.00     0.016 C 
HETATM    8  C14 UNL     1      16.187   0.585  16.025  1.00  0.00     0.007 C 
HETATM    9  C15 UNL     1      15.366   0.490  17.324  1.00  0.00     0.000 C 
HETATM   10  C16 UNL     1      14.178   1.389  16.953  1.00  0.00     0.000 C 
HETATM   11  C17 UNL     1      14.871   2.572  16.309  1.00  0.00     0.007 C 
ENDBRANCH   5   7
ENDBRANCH   2   5
ENDBRANCH   1   2
BRANCH   1  12
HETATM   12  C4  UNL     1      16.318   0.872  11.540  1.00  0.00     0.207 C 
BRANCH  12  13
HETATM   13  O1  UNL     1      15.251   1.663  11.111  1.00  0.00    -0.398 OA
ATOM     14  H1  UNL     1      15.494   2.574  10.996  1.00  0.00     0.209 HD
ENDBRANCH  12  13
ENDBRANCH   1  12
BRANCH   1  15
HETATM   15  C5  UNL     1      18.721   1.496  11.870  1.00  0.00     0.294 C 
HETATM   16  O2  UNL     1      19.104   0.370  11.469  1.00  0.00    -0.263 OA
BRANCH  15  17
HETATM   17  O3  UNL     1      19.642   2.513  11.848  1.00  0.00    -0.285 OA
BRANCH  17  18
HETATM   18  C6  UNL     1      19.392   3.761  11.238  1.00  0.00     0.338 C 
HETATM   19  C7  UNL     1      19.813   3.575   9.775  1.00  0.00     0.046 C 
HETATM   20  C8  UNL     1      21.273   3.196  10.015  1.00  0.00     0.037 C 
HETATM   21  C12 UNL     1      19.731   4.981   9.290  1.00  0.00     0.037 C 
HETATM   22  C9  UNL     1      21.609   3.958  11.304  1.00  0.00     0.240 C 
HETATM   23  N2  UNL     1      20.443   4.746  11.559  1.00  0.00    -0.044 N 
HETATM   24  C10 UNL     1      20.307   5.276  12.862  1.00  0.00     0.275 C 
HETATM   25  C11 UNL     1      20.257   5.752  10.509  1.00  0.00     0.240 C 
ENDBRANCH  17  18
ENDBRANCH  15  17
ENDBRANCH   1  15
TORSDOF 8
ENDMDL
