MODEL 1
REMARK VINA RESULT: -7.858774271      0.000      0.000
REMARK  2 active torsions:
REMARK  status: ('A' for Active; 'I' for Inactive)
REMARK    1  A    between atoms: C2_2  and  N1_3 
REMARK    2  A    between atoms: C2_2  and  C9_13 
REMARK       I    between atoms: N1_3  and  C3_5 
REMARK       I    between atoms: C3_5  and  N2_7 
ROOT
HETATM    1  N1  UNL     1       3.600 -11.136 -11.619  1.00  0.00    -0.338 N 
ATOM      2  H1  UNL     1       4.604 -11.305 -11.578  1.00  0.00     0.164 HD
HETATM    3  C3  UNL     1       2.867 -11.618 -12.716  1.00  0.00     0.318 C 
HETATM    4  O1  UNL     1       1.629 -11.400 -12.750  1.00  0.00    -0.247 OA
HETATM    5  N2  UNL     1       3.463 -12.322 -13.752  1.00  0.00    -0.334 N 
HETATM    6  C4  UNL     1       2.692 -12.804 -14.890  1.00  0.00     0.127 C 
HETATM    7  C5  UNL     1       3.531 -12.584 -16.130  1.00  0.00     0.020 C 
HETATM    8  C6  UNL     1       4.540 -11.469 -15.970  1.00  0.00     0.003 C 
HETATM    9  C7  UNL     1       5.494 -11.705 -14.823  1.00  0.00     0.020 C 
HETATM   10  C8  UNL     1       4.866 -12.618 -13.774  1.00  0.00     0.127 C 
ENDROOT
BRANCH   1  11
HETATM   11  C2  UNL     1       2.949 -10.390 -10.520  1.00  0.00     0.086 C 
HETATM   12  C1  UNL     1       3.589  -9.059 -10.342  1.00  0.00     0.032 C 
BRANCH  11  13
HETATM   13  C9  UNL     1       2.908 -11.238  -9.279  1.00  0.00     0.008 C 
HETATM   14  C10 UNL     1       1.594 -11.979  -9.235  1.00  0.00     0.007 C 
HETATM   15  C11 UNL     1       1.411 -12.739  -7.944  1.00  0.00     0.000 C 
HETATM   16  C12 UNL     1       1.605 -11.872  -6.732  1.00  0.00     0.000 C 
HETATM   17  C13 UNL     1       2.020 -10.473  -7.054  1.00  0.00     0.000 C 
HETATM   18  C14 UNL     1       3.201 -10.503  -8.021  1.00  0.00     0.007 C 
ENDBRANCH  11  13
ENDBRANCH   1  11
TORSDOF 2
ENDMDL
MODEL 2
REMARK VINA RESULT: -7.627582798      3.331      7.681
REMARK  2 active torsions:
REMARK  status: ('A' for Active; 'I' for Inactive)
REMARK    1  A    between atoms: C2_2  and  N1_3 
REMARK    2  A    between atoms: C2_2  and  C9_13 
REMARK       I    between atoms: N1_3  and  C3_5 
REMARK       I    between atoms: C3_5  and  N2_7 
ROOT
HETATM    1  N1  UNL     1       2.319 -11.308  -7.282  1.00  0.00    -0.338 N 
ATOM      2  H1  UNL     1       3.183 -11.832  -7.148  1.00  0.00     0.164 HD
HETATM    3  C3  UNL     1       1.881 -10.438  -6.270  1.00  0.00     0.318 C 
HETATM    4  O1  UNL     1       0.812  -9.800  -6.451  1.00  0.00    -0.247 OA
HETATM    5  N2  UNL     1       2.586 -10.264  -5.088  1.00  0.00    -0.334 N 
HETATM    6  C4  UNL     1       2.113  -9.368  -4.042  1.00  0.00     0.127 C 
HETATM    7  C5  UNL     1       2.368 -10.049  -2.715  1.00  0.00     0.020 C 
HETATM    8  C6  UNL     1       2.435 -11.555  -2.826  1.00  0.00     0.003 C 
HETATM    9  C7  UNL     1       3.507 -12.024  -3.781  1.00  0.00     0.020 C 
HETATM   10  C8  UNL     1       3.817 -10.948  -4.818  1.00  0.00     0.127 C 
ENDROOT
BRANCH   1  11
HETATM   11  C2  UNL     1       1.557 -11.481  -8.538  1.00  0.00     0.086 C 
HETATM   12  C1  UNL     1       1.099 -12.889  -8.680  1.00  0.00     0.032 C 
BRANCH  11  13
HETATM   13  C9  UNL     1       2.359 -10.962  -9.699  1.00  0.00     0.008 C 
HETATM   14  C10 UNL     1       2.031 -11.781 -10.924  1.00  0.00     0.007 C 
HETATM   15  C11 UNL     1       2.905 -11.420 -12.101  1.00  0.00     0.000 C 
HETATM   16  C12 UNL     1       4.369 -11.471 -11.770  1.00  0.00     0.000 C 
HETATM   17  C13 UNL     1       4.650 -11.782 -10.335  1.00  0.00     0.000 C 
HETATM   18  C14 UNL     1       3.819 -10.860  -9.444  1.00  0.00     0.007 C 
ENDBRANCH  11  13
ENDBRANCH   1  11
TORSDOF 2
ENDMDL
MODEL 3
REMARK VINA RESULT: -7.592367989      1.437      6.556
REMARK  2 active torsions:
REMARK  status: ('A' for Active; 'I' for Inactive)
REMARK    1  A    between atoms: C2_2  and  N1_3 
REMARK    2  A    between atoms: C2_2  and  C9_13 
REMARK       I    between atoms: N1_3  and  C3_5 
REMARK       I    between atoms: C3_5  and  N2_7 
ROOT
HETATM    1  N1  UNL     1       2.418 -11.833 -11.264  1.00  0.00    -0.338 N 
ATOM      2  H1  UNL     1       2.006 -12.715 -10.959  1.00  0.00     0.164 HD
HETATM    3  C3  UNL     1       2.845 -10.905 -10.299  1.00  0.00     0.318 C 
HETATM    4  O1  UNL     1       3.349  -9.823 -10.693  1.00  0.00    -0.247 OA
HETATM    5  N2  UNL     1       2.728 -11.147  -8.938  1.00  0.00    -0.334 N 
HETATM    6  C4  UNL     1       3.163 -10.169  -7.949  1.00  0.00     0.127 C 
HETATM    7  C5  UNL     1       2.134 -10.162  -6.839  1.00  0.00     0.020 C 
HETATM    8  C6  UNL     1       0.770 -10.626  -7.294  1.00  0.00     0.003 C 
HETATM    9  C7  UNL     1       0.789 -12.021  -7.873  1.00  0.00     0.020 C 
HETATM   10  C8  UNL     1       2.174 -12.362  -8.417  1.00  0.00     0.127 C 
ENDROOT
BRANCH   1  11
HETATM   11  C2  UNL     1       2.552 -11.562 -12.711  1.00  0.00     0.086 C 
HETATM   12  C1  UNL     1       1.262 -11.807 -13.410  1.00  0.00     0.032 C 
BRANCH  11  13
HETATM   13  C9  UNL     1       3.723 -12.324 -13.269  1.00  0.00     0.008 C 
HETATM   14  C10 UNL     1       4.999 -11.690 -12.773  1.00  0.00     0.007 C 
HETATM   15  C11 UNL     1       6.225 -12.304 -13.407  1.00  0.00     0.000 C 
HETATM   16  C12 UNL     1       6.152 -12.318 -14.907  1.00  0.00     0.000 C 
HETATM   17  C13 UNL     1       4.858 -11.804 -15.451  1.00  0.00     0.000 C 
HETATM   18  C14 UNL     1       3.697 -12.500 -14.744  1.00  0.00     0.007 C 
ENDBRANCH  11  13
ENDBRANCH   1  11
TORSDOF 2
ENDMDL
MODEL 4
REMARK VINA RESULT: -6.920582210      3.712      8.103
REMARK  2 active torsions:
REMARK  status: ('A' for Active; 'I' for Inactive)
REMARK    1  A    between atoms: C2_2  and  N1_3 
REMARK    2  A    between atoms: C2_2  and  C9_13 
REMARK       I    between atoms: N1_3  and  C3_5 
REMARK       I    between atoms: C3_5  and  N2_7 
ROOT
HETATM    1  N1  UNL     1       2.725 -10.978  -6.661  1.00  0.00    -0.338 N 
ATOM      2  H1  UNL     1       3.370 -11.764  -6.584  1.00  0.00     0.164 HD
HETATM    3  C3  UNL     1       2.306 -10.317  -5.494  1.00  0.00     0.318 C 
HETATM    4  O1  UNL     1       1.511  -9.350  -5.608  1.00  0.00    -0.247 OA
HETATM    5  N2  UNL     1       2.741 -10.696  -4.233  1.00  0.00    -0.334 N 
HETATM    6  C4  UNL     1       2.288 -10.010  -3.031  1.00  0.00     0.127 C 
HETATM    7  C5  UNL     1       2.046 -11.065  -1.973  1.00  0.00     0.020 C 
HETATM    8  C6  UNL     1       1.745 -12.427  -2.554  1.00  0.00     0.003 C 
HETATM    9  C7  UNL     1       2.849 -12.939  -3.448  1.00  0.00     0.020 C 
HETATM   10  C8  UNL     1       3.657 -11.781  -4.028  1.00  0.00     0.127 C 
ENDROOT
BRANCH   1  11
HETATM   11  C2  UNL     1       2.255 -10.560  -7.999  1.00  0.00     0.086 C 
HETATM   12  C1  UNL     1       0.768 -10.571  -8.056  1.00  0.00     0.032 C 
BRANCH  11  13
HETATM   13  C9  UNL     1       2.929 -11.385  -9.060  1.00  0.00     0.008 C 
HETATM   14  C10 UNL     1       3.974 -10.540  -9.746  1.00  0.00     0.007 C 
HETATM   15  C11 UNL     1       4.596 -11.248 -10.926  1.00  0.00     0.000 C 
HETATM   16  C12 UNL     1       3.570 -11.765 -11.894  1.00  0.00     0.000 C 
HETATM   17  C13 UNL     1       2.160 -11.547 -11.449  1.00  0.00     0.000 C 
HETATM   18  C14 UNL     1       1.998 -12.043 -10.014  1.00  0.00     0.007 C 
ENDBRANCH  11  13
ENDBRANCH   1  11
TORSDOF 2
ENDMDL
MODEL 5
REMARK VINA RESULT: -6.743447757      3.601      7.689
REMARK  2 active torsions:
REMARK  status: ('A' for Active; 'I' for Inactive)
REMARK    1  A    between atoms: C2_2  and  N1_3 
REMARK    2  A    between atoms: C2_2  and  C9_13 
REMARK       I    between atoms: N1_3  and  C3_5 
REMARK       I    between atoms: C3_5  and  N2_7 
ROOT
HETATM    1  N1  UNL     1       2.278 -11.178  -6.983  1.00  0.00    -0.338 N 
ATOM      2  H1  UNL     1       3.031 -10.498  -7.086  1.00  0.00     0.164 HD
HETATM    3  C3  UNL     1       1.935 -11.632  -5.699  1.00  0.00     0.318 C 
HETATM    4  O1  UNL     1       1.004 -12.472  -5.591  1.00  0.00    -0.247 OA
HETATM    5  N2  UNL     1       2.584 -11.185  -4.558  1.00  0.00    -0.334 N 
HETATM    6  C4  UNL     1       2.226 -11.675  -3.234  1.00  0.00     0.127 C 
HETATM    7  C5  UNL     1       3.513 -11.871  -2.462  1.00  0.00     0.020 C 
HETATM    8  C6  UNL     1       4.709 -12.106  -3.355  1.00  0.00     0.003 C 
HETATM    9  C7  UNL     1       4.942 -10.976  -4.329  1.00  0.00     0.020 C 
HETATM   10  C8  UNL     1       3.644 -10.221  -4.604  1.00  0.00     0.127 C 
ENDROOT
BRANCH   1  11
HETATM   11  C2  UNL     1       1.574 -11.662  -8.190  1.00  0.00     0.086 C 
HETATM   12  C1  UNL     1       1.498 -13.148  -8.189  1.00  0.00     0.032 C 
BRANCH  11  13
HETATM   13  C9  UNL     1       2.199 -11.067  -9.422  1.00  0.00     0.008 C 
HETATM   14  C10 UNL     1       1.850 -11.927 -10.611  1.00  0.00     0.007 C 
HETATM   15  C11 UNL     1       2.562 -11.481 -11.866  1.00  0.00     0.000 C 
HETATM   16  C12 UNL     1       4.047 -11.365 -11.676  1.00  0.00     0.000 C 
HETATM   17  C13 UNL     1       4.496 -11.631 -10.275  1.00  0.00     0.000 C 
HETATM   18  C14 UNL     1       3.656 -10.801  -9.306  1.00  0.00     0.007 C 
ENDBRANCH  11  13
ENDBRANCH   1  11
TORSDOF 2
ENDMDL
