MODEL 1
REMARK VINA RESULT: -6.622352500      0.000      0.000
REMARK  2 active torsions:
REMARK  status: ('A' for Active; 'I' for Inactive)
REMARK    1  A    between atoms: C2_2  and  N1_5 
REMARK    2  A    between atoms: N1_5  and  C4_7 
ROOT
HETATM    1  C4  UNL     1       3.386 -10.360  -8.266  1.00  0.00     0.086 C 
HETATM    2  C5  UNL     1       3.569 -11.787  -8.756  1.00  0.00     0.009 C 
HETATM    3  C6  UNL     1       4.744 -11.919  -9.674  1.00  0.00     0.011 C 
HETATM    4  C7  UNL     1       4.460 -11.095 -10.906  1.00  0.00    -0.014 C 
HETATM    5  C8  UNL     1       3.552 -11.836 -11.867  1.00  0.00     0.005 C 
HETATM    6  C9  UNL     1       2.109 -11.468 -11.727  1.00  0.00     0.005 C 
HETATM    7  C10 UNL     1       1.626 -11.368 -10.316  1.00  0.00    -0.014 C 
HETATM    8  C11 UNL     1       2.288 -12.298  -9.358  1.00  0.00     0.011 C 
HETATM    9  C12 UNL     1       1.666  -9.922  -9.908  1.00  0.00     0.011 C 
HETATM   10  C13 UNL     1       3.076  -9.535  -9.480  1.00  0.00     0.009 C 
HETATM   11  C14 UNL     1       4.014  -9.705 -10.618  1.00  0.00     0.011 C 
ENDROOT
BRANCH   1  12
HETATM   12  N1  UNL     1       2.244 -10.382  -7.391  1.00  0.00    -0.396 N 
ATOM     13  H1  UNL     1       1.290 -10.305  -7.742  1.00  0.00     0.155 HD
BRANCH  12  14
HETATM   14  C2  UNL     1       2.531 -10.517  -6.004  1.00  0.00     0.096 C 
HETATM   15  C1  UNL     1       1.887  -9.476  -5.130  1.00  0.00     0.055 C 
HETATM   16  C3  UNL     1       1.904 -11.857  -5.568  1.00  0.00     0.055 C 
HETATM   17 CL1  UNL     1       4.246 -10.615  -5.603  1.00  0.00    -0.097 Cl
ENDBRANCH  12  14
ENDBRANCH   1  12
TORSDOF 2
ENDMDL
MODEL 2
REMARK VINA RESULT: -5.801336308      2.161      4.817
REMARK  2 active torsions:
REMARK  status: ('A' for Active; 'I' for Inactive)
REMARK    1  A    between atoms: C2_2  and  N1_5 
REMARK    2  A    between atoms: N1_5  and  C4_7 
ROOT
HETATM    1  C4  UNL     1       2.166 -10.708  -9.327  1.00  0.00     0.086 C 
HETATM    2  C5  UNL     1       0.802 -10.987  -8.717  1.00  0.00     0.009 C 
HETATM    3  C6  UNL     1       0.484 -10.043  -7.599  1.00  0.00     0.011 C 
HETATM    4  C7  UNL     1       1.484 -10.283  -6.495  1.00  0.00    -0.014 C 
HETATM    5  C8  UNL     1       1.105 -11.490  -5.662  1.00  0.00     0.005 C 
HETATM    6  C9  UNL     1       1.804 -12.745  -6.078  1.00  0.00     0.005 C 
HETATM    7  C10 UNL     1       1.864 -12.964  -7.555  1.00  0.00    -0.014 C 
HETATM    8  C11 UNL     1       0.697 -12.434  -8.316  1.00  0.00     0.011 C 
HETATM    9  C12 UNL     1       3.199 -12.480  -8.047  1.00  0.00     0.011 C 
HETATM   10  C13 UNL     1       3.172 -10.970  -8.245  1.00  0.00     0.009 C 
HETATM   11  C14 UNL     1       2.900 -10.295  -6.951  1.00  0.00     0.011 C 
ENDROOT
BRANCH   1  12
HETATM   12  N1  UNL     1       2.333 -11.668 -10.386  1.00  0.00    -0.396 N 
ATOM     13  H1  UNL     1       1.914 -12.596 -10.347  1.00  0.00     0.155 HD
BRANCH  12  14
HETATM   14  C2  UNL     1       3.121 -11.239 -11.490  1.00  0.00     0.096 C 
HETATM   15  C1  UNL     1       2.530 -11.554 -12.837  1.00  0.00     0.055 C 
HETATM   16  C3  UNL     1       3.159  -9.699 -11.414  1.00  0.00     0.055 C 
HETATM   17 CL1  UNL     1       4.799 -11.780 -11.465  1.00  0.00    -0.097 Cl
ENDBRANCH  12  14
ENDBRANCH   1  12
TORSDOF 2
ENDMDL
MODEL 3
REMARK VINA RESULT: -5.593732667      2.246      3.391
REMARK  2 active torsions:
REMARK  status: ('A' for Active; 'I' for Inactive)
REMARK    1  A    between atoms: C2_2  and  N1_5 
REMARK    2  A    between atoms: N1_5  and  C4_7 
ROOT
HETATM    1  C4  UNL     1       2.654 -11.907  -5.925  1.00  0.00     0.086 C 
HETATM    2  C5  UNL     1       1.607 -12.535  -6.831  1.00  0.00     0.009 C 
HETATM    3  C6  UNL     1       2.135 -12.782  -8.211  1.00  0.00     0.011 C 
HETATM    4  C7  UNL     1       2.460 -11.442  -8.825  1.00  0.00    -0.014 C 
HETATM    5  C8  UNL     1       1.214 -10.765  -9.359  1.00  0.00     0.005 C 
HETATM    6  C9  UNL     1       0.616  -9.779  -8.406  1.00  0.00     0.005 C 
HETATM    7  C10 UNL     1       0.550 -10.246  -6.988  1.00  0.00    -0.014 C 
HETATM    8  C11 UNL     1       0.348 -11.713  -6.818  1.00  0.00     0.011 C 
HETATM    9  C12 UNL     1       1.740  -9.694  -6.256  1.00  0.00     0.011 C 
HETATM   10  C13 UNL     1       2.966 -10.562  -6.511  1.00  0.00     0.009 C 
HETATM   11  C14 UNL     1       3.291 -10.562  -7.960  1.00  0.00     0.011 C 
ENDROOT
BRANCH   1  12
HETATM   12  N1  UNL     1       2.024 -11.743  -4.642  1.00  0.00    -0.396 N 
ATOM     13  H1  UNL     1       1.219 -11.132  -4.509  1.00  0.00     0.155 HD
BRANCH  12  14
HETATM   14  C2  UNL     1       2.596 -12.486  -3.573  1.00  0.00     0.096 C 
HETATM   15  C1  UNL     1       4.018 -12.119  -3.250  1.00  0.00     0.055 C 
HETATM   16  C3  UNL     1       1.785 -12.115  -2.315  1.00  0.00     0.055 C 
HETATM   17 CL1  UNL     1       2.484 -14.238  -3.738  1.00  0.00    -0.097 Cl
ENDBRANCH  12  14
ENDBRANCH   1  12
TORSDOF 2
ENDMDL
MODEL 4
REMARK VINA RESULT: -5.419408048      1.603      2.582
REMARK  2 active torsions:
REMARK  status: ('A' for Active; 'I' for Inactive)
REMARK    1  A    between atoms: C2_2  and  N1_5 
REMARK    2  A    between atoms: N1_5  and  C4_7 
ROOT
HETATM    1  C4  UNL     1       2.353 -10.373  -6.529  1.00  0.00     0.086 C 
HETATM    2  C5  UNL     1       3.322 -10.702  -7.654  1.00  0.00     0.009 C 
HETATM    3  C6  UNL     1       3.150  -9.789  -8.828  1.00  0.00     0.011 C 
HETATM    4  C7  UNL     1       1.770 -10.021  -9.393  1.00  0.00    -0.014 C 
HETATM    5  C8  UNL     1       1.736 -11.254 -10.273  1.00  0.00     0.005 C 
HETATM    6  C9  UNL     1       1.260 -12.481  -9.563  1.00  0.00     0.005 C 
HETATM    7  C10 UNL     1       1.831 -12.669  -8.195  1.00  0.00    -0.014 C 
HETATM    8  C11 UNL     1       3.220 -12.158  -8.018  1.00  0.00     0.011 C 
HETATM    9  C12 UNL     1       0.842 -12.138  -7.196  1.00  0.00     0.011 C 
HETATM   10  C13 UNL     1       0.977 -10.626  -7.072  1.00  0.00     0.009 C 
HETATM   11  C14 UNL     1       0.684  -9.985  -8.378  1.00  0.00     0.011 C 
ENDROOT
BRANCH   1  12
HETATM   12  N1  UNL     1       2.637 -11.307  -5.473  1.00  0.00    -0.396 N 
ATOM     13  H1  UNL     1       2.336 -12.280  -5.514  1.00  0.00     0.155 HD
BRANCH  12  14
HETATM   14  C2  UNL     1       3.362 -10.786  -4.366  1.00  0.00     0.096 C 
HETATM   15  C1  UNL     1       2.750  -9.564  -3.739  1.00  0.00     0.055 C 
HETATM   16  C3  UNL     1       3.310 -11.872  -3.272  1.00  0.00     0.055 C 
HETATM   17 CL1  UNL     1       5.070 -10.472  -4.674  1.00  0.00    -0.097 Cl
ENDBRANCH  12  14
ENDBRANCH   1  12
TORSDOF 2
ENDMDL
MODEL 5
REMARK VINA RESULT: -5.270664396      2.089      4.656
REMARK  2 active torsions:
REMARK  status: ('A' for Active; 'I' for Inactive)
REMARK    1  A    between atoms: C2_2  and  N1_5 
REMARK    2  A    between atoms: N1_5  and  C4_7 
ROOT
HETATM    1  C4  UNL     1       2.947 -11.940  -9.011  1.00  0.00     0.086 C 
HETATM    2  C5  UNL     1       3.180 -10.507  -8.558  1.00  0.00     0.009 C 
HETATM    3  C6  UNL     1       3.694 -10.440  -7.153  1.00  0.00     0.011 C 
HETATM    4  C7  UNL     1       2.622 -10.988  -6.244  1.00  0.00    -0.014 C 
HETATM    5  C8  UNL     1       1.553  -9.952  -5.965  1.00  0.00     0.005 C 
HETATM    6  C9  UNL     1       0.357 -10.074  -6.855  1.00  0.00     0.005 C 
HETATM    7  C10 UNL     1       0.675 -10.314  -8.295  1.00  0.00    -0.014 C 
HETATM    8  C11 UNL     1       1.939  -9.685  -8.773  1.00  0.00     0.011 C 
HETATM    9  C12 UNL     1       0.577 -11.791  -8.558  1.00  0.00     0.011 C 
HETATM   10  C13 UNL     1       1.863 -12.488  -8.131  1.00  0.00     0.009 C 
HETATM   11  C14 UNL     1       2.077 -12.304  -6.673  1.00  0.00     0.011 C 
ENDROOT
BRANCH   1  12
HETATM   12  N1  UNL     1       2.475 -11.857 -10.368  1.00  0.00    -0.396 N 
ATOM     13  H1  UNL     1       1.546 -12.179 -10.639  1.00  0.00     0.155 HD
BRANCH  12  14
HETATM   14  C2  UNL     1       3.386 -11.298 -11.306  1.00  0.00     0.096 C 
HETATM   15  C1  UNL     1       4.802 -11.781 -11.163  1.00  0.00     0.055 C 
HETATM   16  C3  UNL     1       2.926 -11.793 -12.693  1.00  0.00     0.055 C 
HETATM   17 CL1  UNL     1       3.391  -9.536 -11.383  1.00  0.00    -0.097 Cl
ENDBRANCH  12  14
ENDBRANCH   1  12
TORSDOF 2
ENDMDL
