MODEL 1
REMARK VINA RESULT: -7.115325431      0.000      0.000
REMARK  2 active torsions:
REMARK  status: ('A' for Active; 'I' for Inactive)
REMARK    1  A    between atoms: O1_2  and  C2_3 
REMARK       I    between atoms: C2_3  and  N1_5 
REMARK    2  A    between atoms: N1_5  and  C3_7 
ROOT
HETATM    1  C3  UNL     1       2.427 -10.628  -8.521  1.00  0.00     0.091 C 
HETATM    2  C4  UNL     1       0.933 -10.527  -8.634  1.00  0.00     0.026 C 
HETATM    3  C5  UNL     1       0.258  -9.956  -7.442  1.00  0.00     0.003 C 
HETATM    4  C6  UNL     1       1.075  -9.941  -6.195  1.00  0.00     0.010 C 
HETATM    5  C7  UNL     1       1.968 -11.135  -6.102  1.00  0.00    -0.032 C 
HETATM    6  C8  UNL     1       1.132 -12.396  -5.964  1.00  0.00     0.016 C 
HETATM    7  C9  UNL     1       2.907 -11.234  -7.248  1.00  0.00     0.017 C 
HETATM    8  C10 UNL     1       4.168 -10.526  -6.780  1.00  0.00     0.008 C 
HETATM    9  C11 UNL     1       4.157 -10.570  -5.278  1.00  0.00     0.010 C 
HETATM   10  C12 UNL     1       2.801 -10.999  -4.845  1.00  0.00    -0.040 C 
HETATM   11  C13 UNL     1       2.924 -12.338  -4.114  1.00  0.00     0.015 C 
HETATM   12  C14 UNL     1       2.191 -10.029  -3.864  1.00  0.00     0.015 C 
ENDROOT
BRANCH   1  13
HETATM   13  N1  UNL     1       2.894 -11.453  -9.617  1.00  0.00    -0.332 N 
HETATM   14  C2  UNL     1       3.330 -10.882 -10.842  1.00  0.00     0.360 C 
HETATM   15  O2  UNL     1       3.326  -9.639 -11.020  1.00  0.00    -0.239 OA
ATOM     16  H1  UNL     1       2.910 -12.466  -9.506  1.00  0.00     0.165 HD
BRANCH  14  17
HETATM   17  O1  UNL     1       3.777 -11.669 -11.891  1.00  0.00    -0.309 OA
HETATM   18  C1  UNL     1       3.030 -11.889 -13.073  1.00  0.00     0.215 C 
ENDBRANCH  14  17
ENDBRANCH   1  13
TORSDOF 2
ENDMDL
MODEL 2
REMARK VINA RESULT: -6.483761302      1.726      3.192
REMARK  2 active torsions:
REMARK  status: ('A' for Active; 'I' for Inactive)
REMARK    1  A    between atoms: O1_2  and  C2_3 
REMARK       I    between atoms: C2_3  and  N1_5 
REMARK    2  A    between atoms: N1_5  and  C3_7 
ROOT
HETATM    1  C3  UNL     1       2.613 -11.568 -10.720  1.00  0.00     0.091 C 
HETATM    2  C4  UNL     1       3.131 -10.164 -10.850  1.00  0.00     0.026 C 
HETATM    3  C5  UNL     1       3.658  -9.580  -9.592  1.00  0.00     0.003 C 
HETATM    4  C6  UNL     1       3.245 -10.281  -8.342  1.00  0.00     0.010 C 
HETATM    5  C7  UNL     1       1.856 -10.822  -8.443  1.00  0.00    -0.032 C 
HETATM    6  C8  UNL     1       0.863  -9.677  -8.552  1.00  0.00     0.016 C 
HETATM    7  C9  UNL     1       1.698 -11.780  -9.565  1.00  0.00     0.017 C 
HETATM    8  C10 UNL     1       1.951 -13.147  -8.948  1.00  0.00     0.008 C 
HETATM    9  C11 UNL     1       1.663 -13.018  -7.479  1.00  0.00     0.010 C 
HETATM   10  C12 UNL     1       1.552 -11.569  -7.162  1.00  0.00    -0.040 C 
HETATM   11  C13 UNL     1       0.128 -11.285  -6.678  1.00  0.00     0.015 C 
HETATM   12  C14 UNL     1       2.475 -11.166  -6.038  1.00  0.00     0.015 C 
ENDROOT
BRANCH   1  13
HETATM   13  N1  UNL     1       1.885 -11.879 -11.934  1.00  0.00    -0.332 N 
HETATM   14  C2  UNL     1       2.558 -12.142 -13.157  1.00  0.00     0.360 C 
HETATM   15  O2  UNL     1       3.811 -12.114 -13.229  1.00  0.00    -0.239 OA
ATOM     16  H1  UNL     1       0.866 -11.910 -11.910  1.00  0.00     0.165 HD
BRANCH  14  17
HETATM   17  O1  UNL     1       1.864 -12.440 -14.318  1.00  0.00    -0.309 OA
HETATM   18  C1  UNL     1       2.146 -11.840 -15.569  1.00  0.00     0.215 C 
ENDBRANCH  14  17
ENDBRANCH   1  13
TORSDOF 2
ENDMDL
MODEL 3
REMARK VINA RESULT: -6.346506536      3.492      5.678
REMARK  2 active torsions:
REMARK  status: ('A' for Active; 'I' for Inactive)
REMARK    1  A    between atoms: O1_2  and  C2_3 
REMARK       I    between atoms: C2_3  and  N1_5 
REMARK    2  A    between atoms: N1_5  and  C3_7 
ROOT
HETATM    1  C3  UNL     1       3.282 -10.997  -5.004  1.00  0.00     0.091 C 
HETATM    2  C4  UNL     1       2.141 -11.623  -4.255  1.00  0.00     0.026 C 
HETATM    3  C5  UNL     1       1.373 -12.632  -5.025  1.00  0.00     0.003 C 
HETATM    4  C6  UNL     1       1.574 -12.593  -6.502  1.00  0.00     0.010 C 
HETATM    5  C7  UNL     1       1.767 -11.197  -6.999  1.00  0.00    -0.032 C 
HETATM    6  C8  UNL     1       0.493 -10.395  -6.793  1.00  0.00     0.016 C 
HETATM    7  C9  UNL     1       2.934 -10.526  -6.373  1.00  0.00     0.017 C 
HETATM    8  C10 UNL     1       4.091 -10.791  -7.323  1.00  0.00     0.008 C 
HETATM    9  C11 UNL     1       3.490 -11.059  -8.673  1.00  0.00     0.010 C 
HETATM   10  C12 UNL     1       2.028 -11.264  -8.489  1.00  0.00    -0.040 C 
HETATM   11  C13 UNL     1       1.283 -10.154  -9.233  1.00  0.00     0.015 C 
HETATM   12  C14 UNL     1       1.563 -12.568  -9.088  1.00  0.00     0.015 C 
ENDROOT
BRANCH   1  13
HETATM   13  N1  UNL     1       3.735  -9.854  -4.237  1.00  0.00    -0.332 N 
HETATM   14  C2  UNL     1       4.920  -9.907  -3.455  1.00  0.00     0.360 C 
HETATM   15  O2  UNL     1       5.619 -10.949  -3.402  1.00  0.00    -0.239 OA
ATOM     16  H1  UNL     1       3.191  -8.992  -4.258  1.00  0.00     0.165 HD
BRANCH  14  17
HETATM   17  O1  UNL     1       5.355  -8.816  -2.721  1.00  0.00    -0.309 OA
HETATM   18  C1  UNL     1       4.482  -7.957  -2.010  1.00  0.00     0.215 C 
ENDBRANCH  14  17
ENDBRANCH   1  13
TORSDOF 2
ENDMDL
MODEL 4
REMARK VINA RESULT: -6.141968506      3.848      5.807
REMARK  2 active torsions:
REMARK  status: ('A' for Active; 'I' for Inactive)
REMARK    1  A    between atoms: O1_2  and  C2_3 
REMARK       I    between atoms: C2_3  and  N1_5 
REMARK    2  A    between atoms: N1_5  and  C3_7 
ROOT
HETATM    1  C3  UNL     1       1.964 -12.102  -4.831  1.00  0.00     0.091 C 
HETATM    2  C4  UNL     1       2.202 -10.709  -4.324  1.00  0.00     0.026 C 
HETATM    3  C5  UNL     1       1.679  -9.633  -5.201  1.00  0.00     0.003 C 
HETATM    4  C6  UNL     1       1.365 -10.047  -6.598  1.00  0.00     0.010 C 
HETATM    5  C7  UNL     1       2.321 -11.081  -7.099  1.00  0.00    -0.032 C 
HETATM    6  C8  UNL     1       3.714 -10.485  -7.210  1.00  0.00     0.016 C 
HETATM    7  C9  UNL     1       2.324 -12.306  -6.261  1.00  0.00     0.017 C 
HETATM    8  C10 UNL     1       1.316 -13.232  -6.922  1.00  0.00     0.008 C 
HETATM    9  C11 UNL     1       1.215 -12.806  -8.360  1.00  0.00     0.010 C 
HETATM   10  C12 UNL     1       1.885 -11.485  -8.491  1.00  0.00    -0.040 C 
HETATM   11  C13 UNL     1       3.086 -11.639  -9.426  1.00  0.00     0.015 C 
HETATM   12  C14 UNL     1       0.980 -10.456  -9.123  1.00  0.00     0.015 C 
ENDROOT
BRANCH   1  13
HETATM   13  N1  UNL     1       2.770 -13.003  -4.031  1.00  0.00    -0.332 N 
HETATM   14  C2  UNL     1       2.237 -14.210  -3.507  1.00  0.00     0.360 C 
HETATM   15  O2  UNL     1       1.044 -14.541  -3.718  1.00  0.00    -0.239 OA
ATOM     16  H1  UNL     1       3.743 -12.764  -3.840  1.00  0.00     0.165 HD
BRANCH  14  17
HETATM   17  O1  UNL     1       3.006 -15.072  -2.742  1.00  0.00    -0.309 OA
HETATM   18  C1  UNL     1       2.971 -16.480  -2.883  1.00  0.00     0.215 C 
ENDBRANCH  14  17
ENDBRANCH   1  13
TORSDOF 2
ENDMDL
MODEL 5
REMARK VINA RESULT: -5.975348924      2.037      3.487
REMARK  2 active torsions:
REMARK  status: ('A' for Active; 'I' for Inactive)
REMARK    1  A    between atoms: O1_2  and  C2_3 
REMARK       I    between atoms: C2_3  and  N1_5 
REMARK    2  A    between atoms: N1_5  and  C3_7 
ROOT
HETATM    1  C3  UNL     1       1.573 -11.743  -5.679  1.00  0.00     0.091 C 
HETATM    2  C4  UNL     1       1.503 -13.203  -5.337  1.00  0.00     0.026 C 
HETATM    3  C5  UNL     1       1.415 -13.496  -3.885  1.00  0.00     0.003 C 
HETATM    4  C6  UNL     1       1.802 -12.371  -2.984  1.00  0.00     0.010 C 
HETATM    5  C7  UNL     1       2.913 -11.556  -3.561  1.00  0.00    -0.032 C 
HETATM    6  C8  UNL     1       4.177 -12.393  -3.647  1.00  0.00     0.016 C 
HETATM    7  C9  UNL     1       2.564 -10.971  -4.880  1.00  0.00     0.017 C 
HETATM    8  C10 UNL     1       2.010  -9.591  -4.560  1.00  0.00     0.008 C 
HETATM    9  C11 UNL     1       2.577  -9.197  -3.225  1.00  0.00     0.010 C 
HETATM   10  C12 UNL     1       3.189 -10.407  -2.615  1.00  0.00    -0.040 C 
HETATM   11  C13 UNL     1       4.692 -10.166  -2.457  1.00  0.00     0.015 C 
HETATM   12  C14 UNL     1       2.650 -10.672  -1.230  1.00  0.00     0.015 C 
ENDROOT
BRANCH   1  13
HETATM   13  N1  UNL     1       1.941 -11.638  -7.077  1.00  0.00    -0.332 N 
HETATM   14  C2  UNL     1       1.199 -10.834  -7.982  1.00  0.00     0.360 C 
HETATM   15  O2  UNL     1       0.194 -10.184  -7.603  1.00  0.00    -0.239 OA
ATOM     16  H1  UNL     1       2.753 -12.153  -7.418  1.00  0.00     0.165 HD
BRANCH  14  17
HETATM   17  O1  UNL     1       1.549 -10.733  -9.319  1.00  0.00    -0.309 OA
HETATM   18  C1  UNL     1       2.397 -11.658  -9.974  1.00  0.00     0.215 C 
ENDBRANCH  14  17
ENDBRANCH   1  13
TORSDOF 2
ENDMDL
