MODEL 1
REMARK VINA RESULT: -6.959395508      0.000      0.000
REMARK  1 active torsions:
REMARK  status: ('A' for Active; 'I' for Inactive)
REMARK    1  A    between atoms: C11_11  and  N1_12 
REMARK       I    between atoms: N1_12  and  C12_14 
REMARK       I    between atoms: C12_14  and  N2_16 
ROOT
HETATM    1  C1  UNL     1       1.422 -13.772  -7.805  1.00  0.00     0.012 C 
HETATM    2  C2  UNL     1       2.006 -12.650  -6.974  1.00  0.00     0.004 C 
HETATM    3  C3  UNL     1       1.018 -12.398  -5.850  1.00  0.00     0.006 C 
HETATM    4  C4  UNL     1       1.227 -13.307  -4.677  1.00  0.00     0.000 C 
HETATM    5  C5  UNL     1       2.518 -13.123  -3.945  1.00  0.00     0.000 C 
HETATM    6  C6  UNL     1       2.727 -11.828  -3.289  1.00  0.00     0.000 C 
HETATM    7  C7  UNL     1       3.355 -10.711  -4.006  1.00  0.00     0.000 C 
HETATM    8  C8  UNL     1       4.307 -10.953  -5.082  1.00  0.00     0.000 C 
HETATM    9  C9  UNL     1       4.077 -10.350  -6.425  1.00  0.00     0.002 C 
HETATM   10  C10 UNL     1       2.711 -10.229  -6.946  1.00  0.00     0.026 C 
HETATM   11  C11 UNL     1       2.162 -11.393  -7.736  1.00  0.00     0.089 C 
ENDROOT
BRANCH  11  12
HETATM   12  N1  UNL     1       2.854 -11.441  -8.979  1.00  0.00    -0.338 N 
HETATM   13  C12 UNL     1       2.343 -11.463 -10.274  1.00  0.00     0.317 C 
HETATM   14  O1  UNL     1       1.099 -11.442 -10.562  1.00  0.00    -0.247 OA
HETATM   15  N2  UNL     1       3.181 -11.513 -11.418  1.00  0.00    -0.343 N 
HETATM   16  C13 UNL     1       2.713 -11.538 -12.780  1.00  0.00     0.154 C 
HETATM   17  C14 UNL     1       4.628 -11.540 -11.169  1.00  0.00     0.154 C 
ATOM     18  H1  UNL     1       3.872 -11.463  -8.911  1.00  0.00     0.164 HD
ENDBRANCH  11  12
TORSDOF 1
ENDMDL
MODEL 2
REMARK VINA RESULT: -6.580069252      1.905      3.597
REMARK  1 active torsions:
REMARK  status: ('A' for Active; 'I' for Inactive)
REMARK    1  A    between atoms: C11_11  and  N1_12 
REMARK       I    between atoms: N1_12  and  C12_14 
REMARK       I    between atoms: C12_14  and  N2_16 
ROOT
HETATM    1  C1  UNL     1       3.472  -9.212  -9.745  1.00  0.00     0.012 C 
HETATM    2  C2  UNL     1       2.928 -10.411  -9.000  1.00  0.00     0.004 C 
HETATM    3  C3  UNL     1       3.689 -10.475  -7.689  1.00  0.00     0.006 C 
HETATM    4  C4  UNL     1       3.092  -9.607  -6.625  1.00  0.00     0.000 C 
HETATM    5  C5  UNL     1       1.727 -10.007  -6.162  1.00  0.00     0.000 C 
HETATM    6  C6  UNL     1       1.609 -11.313  -5.503  1.00  0.00     0.000 C 
HETATM    7  C7  UNL     1       1.342 -12.529  -6.281  1.00  0.00     0.000 C 
HETATM    8  C8  UNL     1       0.607 -12.468  -7.538  1.00  0.00     0.000 C 
HETATM    9  C9  UNL     1       1.209 -13.033  -8.778  1.00  0.00     0.002 C 
HETATM   10  C10 UNL     1       2.654 -12.918  -9.005  1.00  0.00     0.026 C 
HETATM   11  C11 UNL     1       3.148 -11.683  -9.720  1.00  0.00     0.089 C 
ENDROOT
BRANCH  11  12
HETATM   12  N1  UNL     1       2.731 -11.769 -11.078  1.00  0.00    -0.338 N 
HETATM   13  C12 UNL     1       3.501 -11.889 -12.232  1.00  0.00     0.317 C 
HETATM   14  O1  UNL     1       4.776 -11.945 -12.250  1.00  0.00    -0.247 OA
HETATM   15  N2  UNL     1       2.920 -11.962 -13.525  1.00  0.00    -0.343 N 
HETATM   16  C13 UNL     1       3.660 -12.087 -14.754  1.00  0.00     0.154 C 
HETATM   17  C14 UNL     1       1.453 -11.904 -13.588  1.00  0.00     0.154 C 
ATOM     18  H1  UNL     1       1.722 -11.737 -11.227  1.00  0.00     0.164 HD
ENDBRANCH  11  12
TORSDOF 1
ENDMDL
MODEL 3
REMARK VINA RESULT: -6.285161622      3.303      6.570
REMARK  1 active torsions:
REMARK  status: ('A' for Active; 'I' for Inactive)
REMARK    1  A    between atoms: C11_11  and  N1_12 
REMARK       I    between atoms: N1_12  and  C12_14 
REMARK       I    between atoms: C12_14  and  N2_16 
ROOT
HETATM    1  C1  UNL     1       4.576 -10.503  -5.368  1.00  0.00     0.012 C 
HETATM    2  C2  UNL     1       3.406 -11.179  -6.050  1.00  0.00     0.004 C 
HETATM    3  C3  UNL     1       2.854 -10.171  -7.041  1.00  0.00     0.006 C 
HETATM    4  C4  UNL     1       3.571 -10.196  -8.356  1.00  0.00     0.000 C 
HETATM    5  C5  UNL     1       3.419 -11.457  -9.145  1.00  0.00     0.000 C 
HETATM    6  C6  UNL     1       2.066 -11.794  -9.600  1.00  0.00     0.000 C 
HETATM    7  C7  UNL     1       1.167 -12.598  -8.763  1.00  0.00     0.000 C 
HETATM    8  C8  UNL     1       1.696 -13.570  -7.815  1.00  0.00     0.000 C 
HETATM    9  C9  UNL     1       1.306 -13.494  -6.379  1.00  0.00     0.002 C 
HETATM   10  C10 UNL     1       1.114 -12.186  -5.744  1.00  0.00     0.026 C 
HETATM   11  C11 UNL     1       2.322 -11.537  -5.111  1.00  0.00     0.089 C 
ENDROOT
BRANCH  11  12
HETATM   12  N1  UNL     1       2.660 -12.285  -3.948  1.00  0.00    -0.338 N 
HETATM   13  C12 UNL     1       2.447 -11.975  -2.607  1.00  0.00     0.317 C 
HETATM   14  O1  UNL     1       1.883 -10.909  -2.189  1.00  0.00    -0.247 OA
HETATM   15  N2  UNL     1       2.850 -12.842  -1.557  1.00  0.00    -0.343 N 
HETATM   16  C13 UNL     1       2.660 -12.579  -0.154  1.00  0.00     0.154 C 
HETATM   17  C14 UNL     1       3.509 -14.092  -1.956  1.00  0.00     0.154 C 
ATOM     18  H1  UNL     1       3.124 -13.176  -4.122  1.00  0.00     0.164 HD
ENDBRANCH  11  12
TORSDOF 1
ENDMDL
MODEL 4
REMARK VINA RESULT: -5.913079850      2.807      7.514
REMARK  1 active torsions:
REMARK  status: ('A' for Active; 'I' for Inactive)
REMARK    1  A    between atoms: C11_11  and  N1_12 
REMARK       I    between atoms: N1_12  and  C12_14 
REMARK       I    between atoms: C12_14  and  N2_16 
ROOT
HETATM    1  C1  UNL     1       5.256 -12.056 -10.899  1.00  0.00     0.012 C 
HETATM    2  C2  UNL     1       4.311 -12.009 -12.081  1.00  0.00     0.004 C 
HETATM    3  C3  UNL     1       5.009 -11.187 -13.149  1.00  0.00     0.006 C 
HETATM    4  C4  UNL     1       5.943 -12.000 -13.992  1.00  0.00     0.000 C 
HETATM    5  C5  UNL     1       5.294 -13.046 -14.841  1.00  0.00     0.000 C 
HETATM    6  C6  UNL     1       4.375 -12.575 -15.883  1.00  0.00     0.000 C 
HETATM    7  C7  UNL     1       2.946 -12.388 -15.600  1.00  0.00     0.000 C 
HETATM    8  C8  UNL     1       2.275 -13.181 -14.578  1.00  0.00     0.000 C 
HETATM    9  C9  UNL     1       1.538 -12.501 -13.476  1.00  0.00     0.002 C 
HETATM   10  C10 UNL     1       2.057 -11.248 -12.917  1.00  0.00     0.026 C 
HETATM   11  C11 UNL     1       3.027 -11.351 -11.763  1.00  0.00     0.089 C 
ENDROOT
BRANCH  11  12
HETATM   12  N1  UNL     1       2.303 -11.803 -10.624  1.00  0.00    -0.338 N 
HETATM   13  C12 UNL     1       1.825 -11.077  -9.536  1.00  0.00     0.317 C 
HETATM   14  O1  UNL     1       1.971  -9.817  -9.385  1.00  0.00    -0.247 OA
HETATM   15  N2  UNL     1       1.114 -11.688  -8.471  1.00  0.00    -0.343 N 
HETATM   16  C13 UNL     1       0.596 -10.993  -7.321  1.00  0.00     0.154 C 
HETATM   17  C14 UNL     1       0.904 -13.138  -8.572  1.00  0.00     0.154 C 
ATOM     18  H1  UNL     1       2.106 -12.804 -10.601  1.00  0.00     0.164 HD
ENDBRANCH  11  12
TORSDOF 1
ENDMDL
MODEL 5
REMARK VINA RESULT: -5.563669581      2.037      2.999
REMARK  1 active torsions:
REMARK  status: ('A' for Active; 'I' for Inactive)
REMARK    1  A    between atoms: C11_11  and  N1_12 
REMARK       I    between atoms: N1_12  and  C12_14 
REMARK       I    between atoms: C12_14  and  N2_16 
ROOT
HETATM    1  C1  UNL     1       1.379 -13.502  -4.808  1.00  0.00     0.012 C 
HETATM    2  C2  UNL     1       2.365 -12.580  -4.124  1.00  0.00     0.004 C 
HETATM    3  C3  UNL     1       1.873 -12.417  -2.697  1.00  0.00     0.006 C 
HETATM    4  C4  UNL     1       2.343 -13.512  -1.790  1.00  0.00     0.000 C 
HETATM    5  C5  UNL     1       3.819 -13.563  -1.558  1.00  0.00     0.000 C 
HETATM    6  C6  UNL     1       4.422 -12.411  -0.880  1.00  0.00     0.000 C 
HETATM    7  C7  UNL     1       4.915 -11.259  -1.645  1.00  0.00     0.000 C 
HETATM    8  C8  UNL     1       5.393 -11.416  -3.013  1.00  0.00     0.000 C 
HETATM    9  C9  UNL     1       4.801 -10.594  -4.105  1.00  0.00     0.002 C 
HETATM   10  C10 UNL     1       3.371 -10.268  -4.079  1.00  0.00     0.026 C 
HETATM   11  C11 UNL     1       2.425 -11.240  -4.743  1.00  0.00     0.089 C 
ENDROOT
BRANCH  11  12
HETATM   12  N1  UNL     1       2.632 -11.158  -6.149  1.00  0.00    -0.338 N 
HETATM   13  C12 UNL     1       1.695 -11.063  -7.175  1.00  0.00     0.317 C 
HETATM   14  O1  UNL     1       0.430 -11.034  -7.001  1.00  0.00    -0.247 OA
HETATM   15  N2  UNL     1       2.073 -10.989  -8.541  1.00  0.00    -0.343 N 
HETATM   16  C13 UNL     1       1.153 -10.891  -9.645  1.00  0.00     0.154 C 
HETATM   17  C14 UNL     1       3.514 -11.017  -8.824  1.00  0.00     0.154 C 
ATOM     18  H1  UNL     1       3.606 -11.170  -6.449  1.00  0.00     0.164 HD
ENDBRANCH  11  12
TORSDOF 1
ENDMDL
