MODEL 1
REMARK VINA RESULT: -4.983948804      0.000      0.000
REMARK  3 active torsions:
REMARK  status: ('A' for Active; 'I' for Inactive)
REMARK    1  A    between atoms: C2_2  and  N1_3 
REMARK    2  A    between atoms: N1_3  and  C3_5 
REMARK    3  A    between atoms: N5_16  and  N6_17 
ROOT
HETATM    1  C3  UNL     1       1.430   0.963   0.672  1.00  0.00     0.681 A 
HETATM    2  N2  UNL     1       0.150   0.993   1.080  1.00  0.00    -0.175 N 
ATOM      3  H2  UNL     1      -0.563   1.396   0.472  1.00  0.00     0.186 HD
HETATM    4  C4  UNL     1      -0.209   0.495   2.295  1.00  0.00     0.145 A 
HETATM    5  N3  UNL     1      -1.443   0.554   2.625  1.00  0.00    -0.383 N 
ATOM      6  H31 UNL     1      -1.712   0.181   3.535  1.00  0.00     0.157 HD
ATOM      7  H32 UNL     1      -2.150   0.958   2.011  1.00  0.00     0.157 HD
HETATM    8  C5  UNL     1       0.744  -0.048   3.122  1.00  0.00     0.124 A 
HETATM    9  N4  UNL     1       0.695  -0.604   4.348  1.00  0.00    -0.345 N 
ATOM     10  H4  UNL     1      -0.149  -0.719   4.909  1.00  0.00     0.167 HD
HETATM   11  C6  UNL     1       1.931  -0.984   4.715  1.00  0.00     0.208 A 
HETATM   12  N5  UNL     1       2.751  -0.657   3.699  1.00  0.00    -0.239 N 
HETATM   13  C7  UNL     1       2.048  -0.075   2.694  1.00  0.00     0.173 A 
HETATM   14  N7  UNL     1       2.360   0.430   1.483  1.00  0.00    -0.172 N 
ATOM     15  H7  UNL     1       3.331   0.406   1.172  1.00  0.00     0.186 HD
ENDROOT
BRANCH   1  16
HETATM   16  N1  UNL     1       1.744   1.432  -0.465  1.00  0.00    -0.226 N 
ATOM     17  H1  UNL     1       1.649   2.440  -0.589  1.00  0.00     0.177 HD
BRANCH  16  18
HETATM   18  C2  UNL     1       2.215   0.690  -1.586  1.00  0.00     0.133 C 
HETATM   19  C1  UNL     1       2.605  -0.720  -1.253  1.00  0.00     0.027 C 
ENDBRANCH  16  18
ENDBRANCH   1  16
BRANCH  12  20
HETATM   20  N6  UNL     1       4.124  -0.872   3.655  1.00  0.00    -0.336 N 
ATOM     21  H62 UNL     1       4.799  -0.326   4.192  1.00  0.00     0.177 HD
ATOM     22  H61 UNL     1       4.603  -1.578   3.096  1.00  0.00     0.177 HD
ENDBRANCH  12  20
TORSDOF 3
ENDMDL
MODEL 2
REMARK VINA RESULT: -4.848619624      1.492      4.109
REMARK  3 active torsions:
REMARK  status: ('A' for Active; 'I' for Inactive)
REMARK    1  A    between atoms: C2_2  and  N1_3 
REMARK    2  A    between atoms: N1_3  and  C3_5 
REMARK    3  A    between atoms: N5_16  and  N6_17 
ROOT
HETATM    1  C3  UNL     1      -0.277   0.400   2.541  1.00  0.00     0.681 A 
HETATM    2  N2  UNL     1       0.400  -0.219   3.523  1.00  0.00    -0.175 N 
ATOM      3  H2  UNL     1      -0.071  -0.432   4.402  1.00  0.00     0.186 HD
HETATM    4  C4  UNL     1       1.706  -0.565   3.362  1.00  0.00     0.145 A 
HETATM    5  N3  UNL     1       2.294  -1.151   4.334  1.00  0.00    -0.383 N 
ATOM      6  H31 UNL     1       3.273  -1.411   4.213  1.00  0.00     0.157 HD
ATOM      7  H32 UNL     1       1.816  -1.361   5.210  1.00  0.00     0.157 HD
HETATM    8  C5  UNL     1       2.350  -0.282   2.182  1.00  0.00     0.124 A 
HETATM    9  N4  UNL     1       3.604  -0.496   1.739  1.00  0.00    -0.345 N 
ATOM     10  H4  UNL     1       4.347  -0.950   2.270  1.00  0.00     0.167 HD
HETATM   11  C6  UNL     1       3.723  -0.018   0.488  1.00  0.00     0.208 A 
HETATM   12  N5  UNL     1       2.523   0.497   0.158  1.00  0.00    -0.239 N 
HETATM   13  C7  UNL     1       1.648   0.349   1.185  1.00  0.00     0.173 A 
HETATM   14  N7  UNL     1       0.355   0.675   1.387  1.00  0.00    -0.172 N 
ATOM     15  H7  UNL     1      -0.159   1.144   0.642  1.00  0.00     0.186 HD
ENDROOT
BRANCH   1  16
HETATM   16  N1  UNL     1      -1.496   0.714   2.712  1.00  0.00    -0.226 N 
ATOM     17  H1  UNL     1      -1.691   1.687   2.944  1.00  0.00     0.177 HD
BRANCH  16  18
HETATM   18  C2  UNL     1      -2.616  -0.159   2.610  1.00  0.00     0.133 C 
HETATM   19  C1  UNL     1      -3.354  -0.042   1.309  1.00  0.00     0.027 C 
ENDBRANCH  16  18
ENDBRANCH   1  16
BRANCH  12  20
HETATM   20  N6  UNL     1       2.197   1.098  -1.052  1.00  0.00    -0.336 N 
ATOM     21  H62 UNL     1       1.644   0.643  -1.779  1.00  0.00     0.177 HD
ATOM     22  H61 UNL     1       2.466   2.037  -1.347  1.00  0.00     0.177 HD
ENDBRANCH  12  20
TORSDOF 3
ENDMDL
MODEL 3
REMARK VINA RESULT: -4.637255020      1.599      3.581
REMARK  3 active torsions:
REMARK  status: ('A' for Active; 'I' for Inactive)
REMARK    1  A    between atoms: C2_2  and  N1_3 
REMARK    2  A    between atoms: N1_3  and  C3_5 
REMARK    3  A    between atoms: N5_16  and  N6_17 
ROOT
HETATM    1  C3  UNL     1      -0.750   0.516   2.115  1.00  0.00     0.681 A 
HETATM    2  N2  UNL     1      -0.156   0.996   1.009  1.00  0.00    -0.175 N 
ATOM      3  H2  UNL     1      -0.723   1.440   0.286  1.00  0.00     0.186 HD
HETATM    4  C4  UNL     1       1.191   0.898   0.839  1.00  0.00     0.145 A 
HETATM    5  N3  UNL     1       1.694   1.374  -0.235  1.00  0.00    -0.383 N 
ATOM      6  H31 UNL     1       2.703   1.300  -0.363  1.00  0.00     0.157 HD
ATOM      7  H32 UNL     1       1.121   1.816  -0.954  1.00  0.00     0.157 HD
HETATM    8  C5  UNL     1       1.962   0.302   1.806  1.00  0.00     0.124 A 
HETATM    9  N4  UNL     1       3.283   0.065   1.919  1.00  0.00    -0.345 N 
ATOM     10  H4  UNL     1       3.988   0.319   1.227  1.00  0.00     0.167 HD
HETATM   11  C6  UNL     1       3.527  -0.559   3.084  1.00  0.00     0.208 A 
HETATM   12  N5  UNL     1       2.337  -0.706   3.697  1.00  0.00    -0.239 N 
HETATM   13  C7  UNL     1       1.345  -0.183   2.933  1.00  0.00     0.173 A 
HETATM   14  N7  UNL     1       0.007  -0.065   3.060  1.00  0.00    -0.172 N 
ATOM     15  H7  UNL     1      -0.443  -0.429   3.900  1.00  0.00     0.186 HD
ENDROOT
BRANCH   1  16
HETATM   16  N1  UNL     1      -2.008   0.619   2.254  1.00  0.00    -0.226 N 
ATOM     17  H1  UNL     1      -2.370   1.542   2.493  1.00  0.00     0.177 HD
BRANCH  16  18
HETATM   18  C2  UNL     1      -2.963  -0.428   2.111  1.00  0.00     0.133 C 
HETATM   19  C1  UNL     1      -3.984  -0.168   1.042  1.00  0.00     0.027 C 
ENDBRANCH  16  18
ENDBRANCH   1  16
BRANCH  12  20
HETATM   20  N6  UNL     1       2.124  -1.304   4.934  1.00  0.00    -0.336 N 
ATOM     21  H62 UNL     1       2.737  -1.172   5.739  1.00  0.00     0.177 HD
ATOM     22  H61 UNL     1       1.352  -1.926   5.174  1.00  0.00     0.177 HD
ENDBRANCH  12  20
TORSDOF 3
ENDMDL
MODEL 4
REMARK VINA RESULT: -4.279472780      1.484      3.636
REMARK  3 active torsions:
REMARK  status: ('A' for Active; 'I' for Inactive)
REMARK    1  A    between atoms: C2_2  and  N1_3 
REMARK    2  A    between atoms: N1_3  and  C3_5 
REMARK    3  A    between atoms: N5_16  and  N6_17 
ROOT
HETATM    1  C3  UNL     1       0.117   0.998   2.230  1.00  0.00     0.681 A 
HETATM    2  N2  UNL     1       0.256   1.314   0.931  1.00  0.00    -0.175 N 
ATOM      3  H2  UNL     1      -0.539   1.696   0.419  1.00  0.00     0.186 HD
HETATM    4  C4  UNL     1       1.442   1.130   0.290  1.00  0.00     0.145 A 
HETATM    5  N3  UNL     1       1.510   1.450  -0.946  1.00  0.00    -0.383 N 
ATOM      6  H31 UNL     1       2.398   1.312  -1.427  1.00  0.00     0.157 HD
ATOM      7  H32 UNL     1       0.711   1.832  -1.452  1.00  0.00     0.157 HD
HETATM    8  C5  UNL     1       2.518   0.616   0.972  1.00  0.00     0.124 A 
HETATM    9  N4  UNL     1       3.786   0.329   0.617  1.00  0.00    -0.345 N 
ATOM     10  H4  UNL     1       4.182   0.465  -0.313  1.00  0.00     0.167 HD
HETATM   11  C6  UNL     1       4.445  -0.164   1.679  1.00  0.00     0.208 A 
HETATM   12  N5  UNL     1       3.570  -0.179   2.702  1.00  0.00    -0.239 N 
HETATM   13  C7  UNL     1       2.365   0.298   2.298  1.00  0.00     0.173 A 
HETATM   14  N7  UNL     1       1.171   0.496   2.895  1.00  0.00    -0.172 N 
ATOM     15  H7  UNL     1       1.066   0.257   3.881  1.00  0.00     0.186 HD
ENDROOT
BRANCH   1  16
HETATM   16  N1  UNL     1      -0.998   1.178   2.810  1.00  0.00    -0.226 N 
ATOM     17  H1  UNL     1      -1.177   2.110   3.183  1.00  0.00     0.177 HD
BRANCH  16  18
HETATM   18  C2  UNL     1      -2.024   0.207   2.991  1.00  0.00     0.133 C 
HETATM   19  C1  UNL     1      -2.844  -0.039   1.759  1.00  0.00     0.027 C 
ENDBRANCH  16  18
ENDBRANCH   1  16
BRANCH  12  20
HETATM   20  N6  UNL     1       3.832  -0.615   3.996  1.00  0.00    -0.336 N 
ATOM     21  H62 UNL     1       4.771  -0.686   4.389  1.00  0.00     0.177 HD
ATOM     22  H61 UNL     1       3.137  -0.906   4.683  1.00  0.00     0.177 HD
ENDBRANCH  12  20
TORSDOF 3
ENDMDL
MODEL 5
REMARK VINA RESULT: -4.211491366      2.080      3.922
REMARK  3 active torsions:
REMARK  status: ('A' for Active; 'I' for Inactive)
REMARK    1  A    between atoms: C2_2  and  N1_3 
REMARK    2  A    between atoms: N1_3  and  C3_5 
REMARK    3  A    between atoms: N5_16  and  N6_17 
ROOT
HETATM    1  C3  UNL     1      -1.146   0.087   2.092  1.00  0.00     0.681 A 
HETATM    2  N2  UNL     1      -0.681   1.127   1.379  1.00  0.00    -0.175 N 
ATOM      3  H2  UNL     1      -1.294   1.919   1.187  1.00  0.00     0.186 HD
HETATM    4  C4  UNL     1       0.596   1.137   0.910  1.00  0.00     0.145 A 
HETATM    5  N3  UNL     1       0.978   2.156   0.238  1.00  0.00    -0.383 N 
ATOM      6  H31 UNL     1       1.935   2.164  -0.114  1.00  0.00     0.157 HD
ATOM      7  H32 UNL     1       0.360   2.945   0.050  1.00  0.00     0.157 HD
HETATM    8  C5  UNL     1       1.429   0.075   1.163  1.00  0.00     0.124 A 
HETATM    9  N4  UNL     1       2.708  -0.195   0.839  1.00  0.00    -0.345 N 
ATOM     10  H4  UNL     1       3.320   0.416   0.298  1.00  0.00     0.167 HD
HETATM   11  C6  UNL     1       3.053  -1.393   1.341  1.00  0.00     0.208 A 
HETATM   12  N5  UNL     1       1.968  -1.866   1.983  1.00  0.00    -0.239 N 
HETATM   13  C7  UNL     1       0.943  -0.982   1.893  1.00  0.00     0.173 A 
HETATM   14  N7  UNL     1      -0.329  -0.951   2.339  1.00  0.00    -0.172 N 
ATOM     15  H7  UNL     1      -0.682  -1.740   2.881  1.00  0.00     0.186 HD
ENDROOT
BRANCH   1  16
HETATM   16  N1  UNL     1      -2.341   0.097   2.522  1.00  0.00    -0.226 N 
ATOM     17  H1  UNL     1      -2.565   0.786   3.239  1.00  0.00     0.177 HD
BRANCH  16  18
HETATM   18  C2  UNL     1      -3.399  -0.759   2.101  1.00  0.00     0.133 C 
HETATM   19  C1  UNL     1      -4.192  -0.214   0.950  1.00  0.00     0.027 C 
ENDBRANCH  16  18
ENDBRANCH   1  16
BRANCH  12  20
HETATM   20  N6  UNL     1       1.881  -3.082   2.652  1.00  0.00    -0.336 N 
ATOM     21  H62 UNL     1       1.929  -3.989   2.185  1.00  0.00     0.177 HD
ATOM     22  H61 UNL     1       1.760  -3.207   3.657  1.00  0.00     0.177 HD
ENDBRANCH  12  20
TORSDOF 3
ENDMDL
