MODEL 1
REMARK VINA RESULT: -4.418215660      0.000      0.000
REMARK  4 active torsions:
REMARK  status: ('A' for Active; 'I' for Inactive)
REMARK    1  A    between atoms: N1_2  and  C2_4 
REMARK    2  A    between atoms: C4_8  and  N3_9 
REMARK    3  A    between atoms: N3_9  and  N4_11 
REMARK    4  A    between atoms: N7_20  and  N8_21 
ROOT
HETATM    1  C2  UNL     1       2.306   0.792   0.881  1.00  0.00     0.170 A 
HETATM    2  C3  UNL     1       1.317   0.509   1.790  1.00  0.00     0.126 A 
HETATM    3  N2  UNL     1      -0.015   0.660   1.782  1.00  0.00    -0.184 N 
ATOM      4  H2  UNL     1      -0.471   1.064   0.964  1.00  0.00     0.184 HD
HETATM    5  C4  UNL     1      -0.759   0.282   2.847  1.00  0.00     0.696 A 
HETATM    6  N5  UNL     1      -0.185  -0.256   3.946  1.00  0.00    -0.198 N 
ATOM      7  H5  UNL     1      -0.776  -0.530   4.731  1.00  0.00     0.183 HD
HETATM    8  C5  UNL     1       1.144  -0.440   4.032  1.00  0.00     0.139 A 
HETATM    9  C6  UNL     1       1.890  -0.051   2.939  1.00  0.00     0.097 A 
HETATM   10  N6  UNL     1       3.201  -0.083   2.679  1.00  0.00    -0.275 N 
ATOM     11  H6  UNL     1       3.905  -0.439   3.325  1.00  0.00     0.189 HD
HETATM   12  N7  UNL     1       3.469   0.403   1.485  1.00  0.00    -0.184 N 
ENDROOT
BRANCH   5  13
HETATM   13  N3  UNL     1      -2.036   0.458   2.768  1.00  0.00    -0.139 N 
ATOM     14  H3  UNL     1      -2.502   1.059   3.447  1.00  0.00     0.205 HD
BRANCH  13  15
HETATM   15  N4  UNL     1      -2.778  -0.154   1.783  1.00  0.00    -0.331 N 
ATOM     16  H42 UNL     1      -2.290  -0.535   0.973  1.00  0.00     0.177 HD
ATOM     17  H41 UNL     1      -3.792  -0.226   1.856  1.00  0.00     0.177 HD
ENDBRANCH  13  15
ENDBRANCH   5  13
BRANCH   1  18
HETATM   18  N1  UNL     1       2.225   1.360  -0.413  1.00  0.00    -0.376 N 
HETATM   19  C1  UNL     1       2.134   0.650  -1.643  1.00  0.00     0.148 C 
ATOM     20  H1  UNL     1       2.233   2.378  -0.469  1.00  0.00     0.160 HD
ENDBRANCH   1  18
BRANCH  12  21
HETATM   21  N8  UNL     1       4.756   0.493   0.947  1.00  0.00    -0.322 N 
ATOM     22  H82 UNL     1       4.954   0.670  -0.039  1.00  0.00     0.179 HD
ATOM     23  H81 UNL     1       5.635   0.395   1.456  1.00  0.00     0.179 HD
ENDBRANCH  12  21
TORSDOF 4
ENDMDL
MODEL 2
REMARK VINA RESULT: -3.817181465      1.462      4.238
REMARK  4 active torsions:
REMARK  status: ('A' for Active; 'I' for Inactive)
REMARK    1  A    between atoms: N1_2  and  C2_4 
REMARK    2  A    between atoms: C4_8  and  N3_9 
REMARK    3  A    between atoms: N3_9  and  N4_11 
REMARK    4  A    between atoms: N7_20  and  N8_21 
ROOT
HETATM    1  C2  UNL     1       1.107  -0.287   3.269  1.00  0.00     0.170 A 
HETATM    2  C3  UNL     1       1.838   0.074   2.164  1.00  0.00     0.126 A 
HETATM    3  N2  UNL     1       1.519   0.633   0.988  1.00  0.00    -0.184 N 
ATOM      4  H2  UNL     1       0.547   0.872   0.791  1.00  0.00     0.184 HD
HETATM    5  C4  UNL     1       2.472   0.882   0.060  1.00  0.00     0.696 A 
HETATM    6  N5  UNL     1       3.768   0.576   0.290  1.00  0.00    -0.198 N 
ATOM      7  H5  UNL     1       4.461   0.777  -0.431  1.00  0.00     0.183 HD
HETATM    8  C5  UNL     1       4.170   0.014   1.443  1.00  0.00     0.139 A 
HETATM    9  C6  UNL     1       3.187  -0.234   2.380  1.00  0.00     0.097 A 
HETATM   10  N6  UNL     1       3.218  -0.769   3.605  1.00  0.00    -0.275 N 
ATOM     11  H6  UNL     1       4.065  -1.103   4.064  1.00  0.00     0.189 HD
HETATM   12  N7  UNL     1       2.017  -0.810   4.144  1.00  0.00    -0.184 N 
ENDROOT
BRANCH   5  13
HETATM   13  N3  UNL     1       2.091   1.421  -1.049  1.00  0.00    -0.139 N 
ATOM     14  H3  UNL     1       1.790   2.396  -1.055  1.00  0.00     0.205 HD
BRANCH  13  15
HETATM   15  N4  UNL     1       2.082   0.703  -2.223  1.00  0.00    -0.331 N 
ATOM     16  H42 UNL     1       2.371  -0.275  -2.196  1.00  0.00     0.177 HD
ATOM     17  H41 UNL     1       1.795   1.133  -3.102  1.00  0.00     0.177 HD
ENDBRANCH  13  15
ENDBRANCH   5  13
BRANCH   1  18
HETATM   18  N1  UNL     1      -0.280  -0.176   3.525  1.00  0.00    -0.376 N 
HETATM   19  C1  UNL     1      -1.181   0.745   2.920  1.00  0.00     0.148 C 
ATOM     20  H1  UNL     1      -0.674  -0.820   4.211  1.00  0.00     0.160 HD
ENDBRANCH   1  18
BRANCH  12  21
HETATM   21  N8  UNL     1       1.748  -1.318   5.419  1.00  0.00    -0.322 N 
ATOM     22  H82 UNL     1       2.339  -1.157   6.235  1.00  0.00     0.179 HD
ATOM     23  H81 UNL     1       0.952  -1.896   5.686  1.00  0.00     0.179 HD
ENDBRANCH  12  21
TORSDOF 4
ENDMDL
MODEL 3
REMARK VINA RESULT: -3.326809933      1.281      2.956
REMARK  4 active torsions:
REMARK  status: ('A' for Active; 'I' for Inactive)
REMARK    1  A    between atoms: N1_2  and  C2_4 
REMARK    2  A    between atoms: C4_8  and  N3_9 
REMARK    3  A    between atoms: N3_9  and  N4_11 
REMARK    4  A    between atoms: N7_20  and  N8_21 
ROOT
HETATM    1  C2  UNL     1       2.311  -0.300   2.827  1.00  0.00     0.170 A 
HETATM    2  C3  UNL     1       1.076   0.048   2.339  1.00  0.00     0.126 A 
HETATM    3  N2  UNL     1      -0.179  -0.214   2.731  1.00  0.00    -0.184 N 
ATOM      4  H2  UNL     1      -0.339  -0.787   3.559  1.00  0.00     0.184 HD
HETATM    5  C4  UNL     1      -1.235   0.273   2.038  1.00  0.00     0.696 A 
HETATM    6  N5  UNL     1      -1.057   1.035   0.936  1.00  0.00    -0.198 N 
ATOM      7  H5  UNL     1      -1.875   1.386   0.438  1.00  0.00     0.183 HD
HETATM    8  C5  UNL     1       0.169   1.342   0.478  1.00  0.00     0.139 A 
HETATM    9  C6  UNL     1       1.236   0.839   1.194  1.00  0.00     0.097 A 
HETATM   10  N6  UNL     1       2.559   0.937   1.036  1.00  0.00    -0.275 N 
ATOM     11  H6  UNL     1       3.010   1.455   0.282  1.00  0.00     0.189 HD
HETATM   12  N7  UNL     1       3.209   0.282   1.977  1.00  0.00    -0.184 N 
ENDROOT
BRANCH   5  13
HETATM   13  N3  UNL     1      -2.414  -0.020   2.475  1.00  0.00    -0.139 N 
ATOM     14  H3  UNL     1      -2.583  -0.051   3.480  1.00  0.00     0.205 HD
BRANCH  13  15
HETATM   15  N4  UNL     1      -3.446  -0.293   1.606  1.00  0.00    -0.331 N 
ATOM     16  H42 UNL     1      -4.249  -0.816   1.954  1.00  0.00     0.177 HD
ATOM     17  H41 UNL     1      -3.413   0.018   0.635  1.00  0.00     0.177 HD
ENDBRANCH  13  15
ENDBRANCH   5  13
BRANCH   1  18
HETATM   18  N1  UNL     1       2.663  -1.082   3.953  1.00  0.00    -0.376 N 
HETATM   19  C1  UNL     1       1.909  -1.228   5.150  1.00  0.00     0.148 C 
ATOM     20  H1  UNL     1       3.546  -1.591   3.901  1.00  0.00     0.160 HD
ENDBRANCH   1  18
BRANCH  12  21
HETATM   21  N8  UNL     1       4.602   0.212   2.063  1.00  0.00    -0.322 N 
ATOM     22  H82 UNL     1       5.235   0.919   1.687  1.00  0.00     0.179 HD
ATOM     23  H81 UNL     1       5.146  -0.533   2.499  1.00  0.00     0.179 HD
ENDBRANCH  12  21
TORSDOF 4
ENDMDL
MODEL 4
REMARK VINA RESULT: -3.247932100      2.116      4.152
REMARK  4 active torsions:
REMARK  status: ('A' for Active; 'I' for Inactive)
REMARK    1  A    between atoms: N1_2  and  C2_4 
REMARK    2  A    between atoms: C4_8  and  N3_9 
REMARK    3  A    between atoms: N3_9  and  N4_11 
REMARK    4  A    between atoms: N7_20  and  N8_21 
ROOT
HETATM    1  C2  UNL     1       0.413   1.140   1.507  1.00  0.00     0.170 A 
HETATM    2  C3  UNL     1       1.141  -0.010   1.330  1.00  0.00     0.126 A 
HETATM    3  N2  UNL     1       1.224  -1.164   2.006  1.00  0.00    -0.184 N 
ATOM      4  H2  UNL     1       0.659  -1.299   2.844  1.00  0.00     0.184 HD
HETATM    5  C4  UNL     1       2.051  -2.152   1.589  1.00  0.00     0.696 A 
HETATM    6  N5  UNL     1       2.814  -2.004   0.483  1.00  0.00    -0.198 N 
ATOM      7  H5  UNL     1       3.426  -2.769   0.197  1.00  0.00     0.183 HD
HETATM    8  C5  UNL     1       2.788  -0.878  -0.250  1.00  0.00     0.139 A 
HETATM    9  C6  UNL     1       1.941   0.120   0.187  1.00  0.00     0.097 A 
HETATM   10  N6  UNL     1       1.665   1.342  -0.279  1.00  0.00    -0.275 N 
ATOM     11  H6  UNL     1       2.089   1.748  -1.113  1.00  0.00     0.189 HD
HETATM   12  N7  UNL     1       0.775   1.957   0.473  1.00  0.00    -0.184 N 
ENDROOT
BRANCH   5  13
HETATM   13  N3  UNL     1       2.079  -3.235   2.290  1.00  0.00    -0.139 N 
ATOM     14  H3  UNL     1       2.723  -3.982   2.033  1.00  0.00     0.205 HD
BRANCH  13  15
HETATM   15  N4  UNL     1       1.252  -3.398   3.379  1.00  0.00    -0.331 N 
ATOM     16  H42 UNL     1       1.071  -2.592   3.977  1.00  0.00     0.177 HD
ATOM     17  H41 UNL     1       0.828  -4.302   3.587  1.00  0.00     0.177 HD
ENDBRANCH  13  15
ENDBRANCH   5  13
BRANCH   1  18
HETATM   18  N1  UNL     1      -0.525   1.483   2.510  1.00  0.00    -0.376 N 
HETATM   19  C1  UNL     1      -1.537   0.638   3.046  1.00  0.00     0.148 C 
ATOM     20  H1  UNL     1      -0.471   2.430   2.886  1.00  0.00     0.160 HD
ENDBRANCH   1  18
BRANCH  12  21
HETATM   21  N8  UNL     1       0.297   3.247   0.226  1.00  0.00    -0.322 N 
ATOM     22  H82 UNL     1      -0.684   3.517   0.296  1.00  0.00     0.179 HD
ATOM     23  H81 UNL     1       0.853   4.057  -0.049  1.00  0.00     0.179 HD
ENDBRANCH  12  21
TORSDOF 4
ENDMDL
MODEL 5
REMARK VINA RESULT: -3.153205952      2.719      2.876
REMARK  4 active torsions:
REMARK  status: ('A' for Active; 'I' for Inactive)
REMARK    1  A    between atoms: N1_2  and  C2_4 
REMARK    2  A    between atoms: C4_8  and  N3_9 
REMARK    3  A    between atoms: N3_9  and  N4_11 
REMARK    4  A    between atoms: N7_20  and  N8_21 
ROOT
HETATM    1  C2  UNL     1       3.077   1.190   0.543  1.00  0.00     0.170 A 
HETATM    2  C3  UNL     1       2.910   0.135   1.407  1.00  0.00     0.126 A 
HETATM    3  N2  UNL     1       2.193  -0.996   1.354  1.00  0.00    -0.184 N 
ATOM      4  H2  UNL     1       1.622  -1.193   0.533  1.00  0.00     0.184 HD
HETATM    5  C4  UNL     1       2.220  -1.879   2.379  1.00  0.00     0.696 A 
HETATM    6  N5  UNL     1       2.966  -1.647   3.482  1.00  0.00    -0.198 N 
ATOM      7  H5  UNL     1       2.963  -2.334   4.237  1.00  0.00     0.183 HD
HETATM    8  C5  UNL     1       3.712  -0.537   3.612  1.00  0.00     0.139 A 
HETATM    9  C6  UNL     1       3.676   0.354   2.559  1.00  0.00     0.097 A 
HETATM   10  N6  UNL     1       4.274   1.530   2.347  1.00  0.00    -0.275 N 
ATOM     11  H6  UNL     1       4.908   1.979   3.008  1.00  0.00     0.189 HD
HETATM   12  N7  UNL     1       3.941   2.038   1.178  1.00  0.00    -0.184 N 
ENDROOT
BRANCH   5  13
HETATM   13  N3  UNL     1       1.504  -2.946   2.259  1.00  0.00    -0.139 N 
ATOM     14  H3  UNL     1       1.293  -3.305   1.328  1.00  0.00     0.205 HD
BRANCH  13  15
HETATM   15  N4  UNL     1       1.022  -3.608   3.365  1.00  0.00    -0.331 N 
ATOM     16  H42 UNL     1       0.844  -3.071   4.213  1.00  0.00     0.177 HD
ATOM     17  H41 UNL     1       0.845  -4.612   3.342  1.00  0.00     0.177 HD
ENDBRANCH  13  15
ENDBRANCH   5  13
BRANCH   1  18
HETATM   18  N1  UNL     1       2.518   1.424  -0.735  1.00  0.00    -0.376 N 
HETATM   19  C1  UNL     1       2.202   0.440  -1.713  1.00  0.00     0.148 C 
ATOM     20  H1  UNL     1       2.321   2.395  -0.980  1.00  0.00     0.160 HD
ENDBRANCH   1  18
BRANCH  12  21
HETATM   21  N8  UNL     1       4.416   3.260   0.691  1.00  0.00    -0.322 N 
ATOM     22  H82 UNL     1       4.056   4.170   0.981  1.00  0.00     0.179 HD
ATOM     23  H81 UNL     1       5.159   3.392   0.005  1.00  0.00     0.179 HD
ENDBRANCH  12  21
TORSDOF 4
ENDMDL
