MODEL 1
REMARK VINA RESULT: -5.468843211      0.000      0.000
REMARK  1 active torsions:
REMARK  status: ('A' for Active; 'I' for Inactive)
REMARK       I    between atoms: N1_1  and  C1_5 
REMARK       I    between atoms: C1_5  and  N2_6 
REMARK       I    between atoms: C1_5  and  N3_10 
REMARK    1  A    between atoms: N3_10  and  C2_12 
ROOT
HETATM    1  C2  UNL     1       0.616  -0.380   1.620  1.00  0.00     0.139 A 
HETATM    2  N4  UNL     1       0.927  -1.606   2.173  1.00  0.00    -0.293 N 
ATOM      3  H4  UNL     1       0.373  -1.942   2.961  1.00  0.00     0.172 HD
HETATM    4  C3  UNL     1       1.917  -2.366   1.722  1.00  0.00     0.327 A 
HETATM    5  O1  UNL     1       2.194  -3.502   2.247  1.00  0.00    -0.247 OA
HETATM    6  N5  UNL     1       2.633  -1.909   0.687  1.00  0.00    -0.292 N 
ATOM      7  H5  UNL     1       3.396  -2.485   0.333  1.00  0.00     0.172 HD
HETATM    8  C4  UNL     1       2.394  -0.726   0.093  1.00  0.00     0.141 A 
HETATM    9  N6  UNL     1       2.966  -0.073  -0.935  1.00  0.00    -0.337 N 
ATOM     10  H6  UNL     1       3.756  -0.408  -1.485  1.00  0.00     0.168 HD
HETATM   11  C5  UNL     1       2.330   1.085  -1.116  1.00  0.00     0.182 A 
HETATM   12  N7  UNL     1       1.330   1.206  -0.206  1.00  0.00    -0.346 N 
ATOM     13  H7  UNL     1       0.680   1.986  -0.110  1.00  0.00     0.167 HD
HETATM   14  C6  UNL     1       1.371   0.071   0.552  1.00  0.00     0.122 A 
ENDROOT
BRANCH   1  15
HETATM   15  N3  UNL     1      -0.324   0.270   2.097  1.00  0.00    -0.325 N 
HETATM   16  C1  UNL     1      -1.505   0.202   2.784  1.00  0.00     0.481 C 
HETATM   17  N1  UNL     1      -2.679  -0.179   2.009  1.00  0.00    -0.033 N 
HETATM   18  N2  UNL     1      -1.770   1.547   3.382  1.00  0.00    -0.033 N 
ATOM     19  H13 UNL     1      -3.541  -0.150   2.554  1.00  0.00     0.278 HD
ATOM     20  H12 UNL     1      -2.938   0.520   1.313  1.00  0.00     0.278 HD
ATOM     21  H11 UNL     1      -2.499  -1.096   1.602  1.00  0.00     0.278 HD
ATOM     22  H23 UNL     1      -2.029   2.246   2.685  1.00  0.00     0.278 HD
ATOM     23  H22 UNL     1      -2.631   1.576   3.927  1.00  0.00     0.278 HD
ATOM     24  H21 UNL     1      -0.948   1.813   3.924  1.00  0.00     0.278 HD
ATOM     25  H3  UNL     1      -0.145   1.254   1.897  1.00  0.00     0.165 HD
ENDBRANCH   1  15
TORSDOF 1
ENDMDL
MODEL 2
REMARK VINA RESULT: -5.409093545      2.214      2.992
REMARK  1 active torsions:
REMARK  status: ('A' for Active; 'I' for Inactive)
REMARK       I    between atoms: N1_1  and  C1_5 
REMARK       I    between atoms: C1_5  and  N2_6 
REMARK       I    between atoms: C1_5  and  N3_10 
REMARK    1  A    between atoms: N3_10  and  C2_12 
ROOT
HETATM    1  C2  UNL     1       0.984   0.728   1.280  1.00  0.00     0.139 A 
HETATM    2  N4  UNL     1       1.011   0.891  -0.091  1.00  0.00    -0.293 N 
ATOM      3  H4  UNL     1       0.162   1.203  -0.563  1.00  0.00     0.172 HD
HETATM    4  C3  UNL     1       2.095   0.660  -0.819  1.00  0.00     0.327 A 
HETATM    5  O1  UNL     1       2.104   0.816  -2.091  1.00  0.00    -0.247 OA
HETATM    6  N5  UNL     1       3.200   0.252  -0.183  1.00  0.00    -0.292 N 
ATOM      7  H5  UNL     1       4.039   0.071  -0.734  1.00  0.00     0.172 HD
HETATM    8  C4  UNL     1       3.256   0.069   1.149  1.00  0.00     0.141 A 
HETATM    9  N6  UNL     1       4.229  -0.326   1.990  1.00  0.00    -0.337 N 
ATOM     10  H6  UNL     1       5.181  -0.575   1.721  1.00  0.00     0.168 HD
HETATM   11  C5  UNL     1       3.745  -0.337   3.232  1.00  0.00     0.182 A 
HETATM   12  N7  UNL     1       2.445   0.051   3.221  1.00  0.00    -0.346 N 
ATOM     13  H7  UNL     1       1.824   0.136   4.026  1.00  0.00     0.167 HD
HETATM   14  C6  UNL     1       2.138   0.305   1.915  1.00  0.00     0.122 A 
ENDROOT
BRANCH   1  15
HETATM   15  N3  UNL     1      -0.067   0.965   1.890  1.00  0.00    -0.325 N 
HETATM   16  C1  UNL     1      -1.133   0.418   2.550  1.00  0.00     0.481 C 
HETATM   17  N1  UNL     1      -2.201  -0.117   1.716  1.00  0.00    -0.033 N 
HETATM   18  N2  UNL     1      -1.726   1.476   3.426  1.00  0.00    -0.033 N 
ATOM     19  H13 UNL     1      -2.997  -0.452   2.258  1.00  0.00     0.278 HD
ATOM     20  H12 UNL     1      -2.692   0.605   1.189  1.00  0.00     0.278 HD
ATOM     21  H11 UNL     1      -1.797  -0.838   1.118  1.00  0.00     0.278 HD
ATOM     22  H23 UNL     1      -2.217   2.198   2.899  1.00  0.00     0.278 HD
ATOM     23  H22 UNL     1      -2.522   1.141   3.969  1.00  0.00     0.278 HD
ATOM     24  H21 UNL     1      -0.978   1.850   4.011  1.00  0.00     0.278 HD
ATOM     25  H3  UNL     1      -0.186   1.978   1.907  1.00  0.00     0.165 HD
ENDBRANCH   1  15
TORSDOF 1
ENDMDL
MODEL 3
REMARK VINA RESULT: -5.367065455      1.684      1.902
REMARK  1 active torsions:
REMARK  status: ('A' for Active; 'I' for Inactive)
REMARK       I    between atoms: N1_1  and  C1_5 
REMARK       I    between atoms: C1_5  and  N2_6 
REMARK       I    between atoms: C1_5  and  N3_10 
REMARK    1  A    between atoms: N3_10  and  C2_12 
ROOT
HETATM    1  C2  UNL     1       1.226  -0.021   2.124  1.00  0.00     0.139 A 
HETATM    2  N4  UNL     1       2.132  -0.282   3.132  1.00  0.00    -0.293 N 
ATOM      3  H4  UNL     1       1.778  -0.482   4.067  1.00  0.00     0.172 HD
HETATM    4  C3  UNL     1       3.443  -0.284   2.935  1.00  0.00     0.327 A 
HETATM    5  O1  UNL     1       4.272  -0.528   3.882  1.00  0.00    -0.247 OA
HETATM    6  N5  UNL     1       3.890  -0.020   1.700  1.00  0.00    -0.292 N 
ATOM      7  H5  UNL     1       4.896  -0.019   1.538  1.00  0.00     0.172 HD
HETATM    8  C4  UNL     1       3.073   0.244   0.665  1.00  0.00     0.141 A 
HETATM    9  N6  UNL     1       3.285   0.532  -0.633  1.00  0.00    -0.337 N 
ATOM     10  H6  UNL     1       4.197   0.602  -1.084  1.00  0.00     0.168 HD
HETATM   11  C5  UNL     1       2.108   0.710  -1.231  1.00  0.00     0.182 A 
HETATM   12  N7  UNL     1       1.106   0.541  -0.332  1.00  0.00    -0.346 N 
ATOM     13  H7  UNL     1       0.104   0.616  -0.509  1.00  0.00     0.167 HD
HETATM   14  C6  UNL     1       1.711   0.250   0.857  1.00  0.00     0.122 A 
ENDROOT
BRANCH   1  15
HETATM   15  N3  UNL     1       0.016  -0.039   2.387  1.00  0.00    -0.325 N 
HETATM   16  C1  UNL     1      -1.167   0.641   2.289  1.00  0.00     0.481 C 
HETATM   17  N1  UNL     1      -1.375   1.714   3.254  1.00  0.00    -0.033 N 
HETATM   18  N2  UNL     1      -2.281  -0.343   2.456  1.00  0.00    -0.033 N 
ATOM     19  H13 UNL     1      -2.297   2.142   3.178  1.00  0.00     0.278 HD
ATOM     20  H12 UNL     1      -1.463   1.374   4.212  1.00  0.00     0.278 HD
ATOM     21  H11 UNL     1      -0.615   2.385   3.140  1.00  0.00     0.278 HD
ATOM     22  H23 UNL     1      -2.370  -0.683   3.413  1.00  0.00     0.278 HD
ATOM     23  H22 UNL     1      -3.203   0.085   2.380  1.00  0.00     0.278 HD
ATOM     24  H21 UNL     1      -2.135  -1.094   1.780  1.00  0.00     0.278 HD
ATOM     25  H3  UNL     1      -0.176  -0.914   2.874  1.00  0.00     0.165 HD
ENDBRANCH   1  15
TORSDOF 1
ENDMDL
MODEL 4
REMARK VINA RESULT: -4.674010269      2.275      4.560
REMARK  1 active torsions:
REMARK  status: ('A' for Active; 'I' for Inactive)
REMARK       I    between atoms: N1_1  and  C1_5 
REMARK       I    between atoms: C1_5  and  N2_6 
REMARK       I    between atoms: C1_5  and  N3_10 
REMARK    1  A    between atoms: N3_10  and  C2_12 
ROOT
HETATM    1  C2  UNL     1       1.341   0.295   1.250  1.00  0.00     0.139 A 
HETATM    2  N4  UNL     1       0.021   0.623   1.483  1.00  0.00    -0.293 N 
ATOM      3  H4  UNL     1      -0.526   1.022   0.720  1.00  0.00     0.172 HD
HETATM    4  C3  UNL     1      -0.568   0.441   2.658  1.00  0.00     0.327 A 
HETATM    5  O1  UNL     1      -1.795   0.751   2.858  1.00  0.00    -0.247 OA
HETATM    6  N5  UNL     1       0.164  -0.084   3.648  1.00  0.00    -0.292 N 
ATOM      7  H5  UNL     1      -0.278  -0.229   4.555  1.00  0.00     0.172 HD
HETATM    8  C4  UNL     1       1.456  -0.431   3.503  1.00  0.00     0.141 A 
HETATM    9  N6  UNL     1       2.372  -0.962   4.333  1.00  0.00    -0.337 N 
ATOM     10  H6  UNL     1       2.214  -1.213   5.309  1.00  0.00     0.168 HD
HETATM   11  C5  UNL     1       3.520  -1.106   3.671  1.00  0.00     0.182 A 
HETATM   12  N7  UNL     1       3.371  -0.670   2.395  1.00  0.00    -0.346 N 
ATOM     13  H7  UNL     1       4.082  -0.661   1.663  1.00  0.00     0.167 HD
HETATM   14  C6  UNL     1       2.077  -0.246   2.289  1.00  0.00     0.122 A 
ENDROOT
BRANCH   1  15
HETATM   15  N3  UNL     1       1.818   0.495   0.125  1.00  0.00    -0.325 N 
HETATM   16  C1  UNL     1       2.028  -0.035  -1.118  1.00  0.00     0.481 C 
HETATM   17  N1  UNL     1       3.145  -0.964  -1.242  1.00  0.00    -0.033 N 
HETATM   18  N2  UNL     1       2.269   1.096  -2.067  1.00  0.00    -0.033 N 
ATOM     19  H13 UNL     1       3.295  -1.276  -2.201  1.00  0.00     0.278 HD
ATOM     20  H12 UNL     1       4.050  -0.516  -1.103  1.00  0.00     0.278 HD
ATOM     21  H11 UNL     1       2.980  -1.735  -0.595  1.00  0.00     0.278 HD
ATOM     22  H23 UNL     1       3.175   1.544  -1.928  1.00  0.00     0.278 HD
ATOM     23  H22 UNL     1       2.420   0.784  -3.026  1.00  0.00     0.278 HD
ATOM     24  H21 UNL     1       1.487   1.746  -1.980  1.00  0.00     0.278 HD
ATOM     25  H3  UNL     1       2.215   1.435   0.127  1.00  0.00     0.165 HD
ENDBRANCH   1  15
TORSDOF 1
ENDMDL
MODEL 5
REMARK VINA RESULT: -4.100787275      1.789      2.982
REMARK  1 active torsions:
REMARK  status: ('A' for Active; 'I' for Inactive)
REMARK       I    between atoms: N1_1  and  C1_5 
REMARK       I    between atoms: C1_5  and  N2_6 
REMARK       I    between atoms: C1_5  and  N3_10 
REMARK    1  A    between atoms: N3_10  and  C2_12 
ROOT
HETATM    1  C2  UNL     1       0.740   0.321   1.043  1.00  0.00     0.139 A 
HETATM    2  N4  UNL     1       1.112   0.939  -0.134  1.00  0.00    -0.293 N 
ATOM      3  H4  UNL     1       0.643   1.804  -0.401  1.00  0.00     0.172 HD
HETATM    4  C3  UNL     1       2.054   0.454  -0.932  1.00  0.00     0.327 A 
HETATM    5  O1  UNL     1       2.388   1.039  -2.022  1.00  0.00    -0.247 OA
HETATM    6  N5  UNL     1       2.658  -0.683  -0.566  1.00  0.00    -0.292 N 
ATOM      7  H5  UNL     1       3.384  -1.064  -1.172  1.00  0.00     0.172 HD
HETATM    8  C4  UNL     1       2.354  -1.346   0.565  1.00  0.00     0.141 A 
HETATM    9  N6  UNL     1       2.814  -2.478   1.127  1.00  0.00    -0.337 N 
ATOM     10  H6  UNL     1       3.545  -3.077   0.744  1.00  0.00     0.168 HD
HETATM   11  C5  UNL     1       2.157  -2.689   2.268  1.00  0.00     0.182 A 
HETATM   12  N7  UNL     1       1.256  -1.695   2.468  1.00  0.00    -0.346 N 
ATOM     13  H7  UNL     1       0.616  -1.597   3.257  1.00  0.00     0.167 HD
HETATM   14  C6  UNL     1       1.379  -0.853   1.400  1.00  0.00     0.122 A 
ENDROOT
BRANCH   1  15
HETATM   15  N3  UNL     1      -0.148   0.837   1.734  1.00  0.00    -0.325 N 
HETATM   16  C1  UNL     1      -1.095   0.617   2.697  1.00  0.00     0.481 C 
HETATM   17  N1  UNL     1      -2.343   0.014   2.247  1.00  0.00    -0.033 N 
HETATM   18  N2  UNL     1      -1.426   1.932   3.328  1.00  0.00    -0.033 N 
ATOM     19  H13 UNL     1      -3.036  -0.067   2.991  1.00  0.00     0.278 HD
ATOM     20  H12 UNL     1      -2.879   0.626   1.631  1.00  0.00     0.278 HD
ATOM     21  H11 UNL     1      -2.118  -0.883   1.817  1.00  0.00     0.278 HD
ATOM     22  H23 UNL     1      -1.962   2.544   2.713  1.00  0.00     0.278 HD
ATOM     23  H22 UNL     1      -2.118   1.851   4.073  1.00  0.00     0.278 HD
ATOM     24  H21 UNL     1      -0.552   2.353   3.644  1.00  0.00     0.278 HD
ATOM     25  H3  UNL     1      -0.192   1.825   1.485  1.00  0.00     0.165 HD
ENDBRANCH   1  15
TORSDOF 1
ENDMDL
