MODEL 1
REMARK VINA RESULT: -8.686405757      0.000      0.000
REMARK  3 active torsions:
REMARK  status: ('A' for Active; 'I' for Inactive)
REMARK    1  A    between atoms: O1_2  and  C2_3 
REMARK    2  A    between atoms: C4_5  and  O2_6 
REMARK    3  A    between atoms: C14_19  and  C15_20 
ROOT
HETATM    1  C2  UNL     1     -18.397 -10.576 -12.143  1.00  0.00     0.105 A 
HETATM    2  C3  UNL     1     -19.402  -9.779 -12.673  1.00  0.00     0.076 A 
HETATM    3  C4  UNL     1     -19.231  -8.407 -12.809  1.00  0.00     0.069 A 
HETATM    4  C5  UNL     1     -18.055  -7.792 -12.419  1.00  0.00     0.052 A 
HETATM    5  C6  UNL     1     -17.075  -8.590 -11.899  1.00  0.00     0.017 A 
HETATM    6  C7  UNL     1     -17.236  -9.963 -11.759  1.00  0.00     0.115 A 
HETATM    7  O3  UNL     1     -16.231 -10.722 -11.235  1.00  0.00    -0.330 OA
HETATM    8  C8  UNL     1     -15.001 -10.287 -10.785  1.00  0.00     0.110 A 
HETATM    9  C9  UNL     1     -13.912 -11.034 -11.537  1.00  0.00     0.053 C 
HETATM   10  C10 UNL     1     -14.822 -10.672  -9.318  1.00  0.00     0.053 C 
HETATM   11  C11 UNL     1     -14.803  -8.827 -10.924  1.00  0.00     0.100 A 
HETATM   12  O4  UNL     1     -13.749  -8.060 -10.602  1.00  0.00    -0.315 OA
HETATM   13  C12 UNL     1     -14.001  -6.834 -10.891  1.00  0.00     0.067 A 
HETATM   14  C13 UNL     1     -13.129  -5.659 -10.706  1.00  0.00     0.078 C 
HETATM   15  C14 UNL     1     -15.290  -6.757 -11.437  1.00  0.00     0.083 A 
HETATM   16  C16 UNL     1     -15.803  -8.032 -11.457  1.00  0.00     0.029 A 
ENDROOT
BRANCH  15  17
HETATM   17  C15 UNL     1     -15.896  -5.528 -11.874  1.00  0.00     0.212 C 
HETATM   18  O5  UNL     1     -16.736  -4.956 -11.155  1.00  0.00    -0.644 OA
HETATM   19  O6  UNL     1     -15.561  -4.976 -13.084  1.00  0.00    -0.644 OA
ENDBRANCH  15  17
BRANCH   3  20
HETATM   20  O2  UNL     1     -20.302  -7.707 -13.351  1.00  0.00    -0.361 OA
ATOM     21  H2  UNL     1     -20.669  -7.018 -12.810  1.00  0.00     0.217 HD
ENDBRANCH   3  20
BRANCH   1  22
HETATM   22  O1  UNL     1     -18.561 -11.946 -12.005  1.00  0.00    -0.353 OA
HETATM   23  C1  UNL     1     -18.298 -12.833 -13.072  1.00  0.00     0.210 C 
ENDBRANCH   1  22
TORSDOF 3
ENDMDL
MODEL 2
REMARK VINA RESULT: -8.346315250      1.002      1.096
REMARK  3 active torsions:
REMARK  status: ('A' for Active; 'I' for Inactive)
REMARK    1  A    between atoms: O1_2  and  C2_3 
REMARK    2  A    between atoms: C4_5  and  O2_6 
REMARK    3  A    between atoms: C14_19  and  C15_20 
ROOT
HETATM    1  C2  UNL     1     -17.300 -11.518 -11.871  1.00  0.00     0.105 A 
HETATM    2  C3  UNL     1     -18.504 -10.989 -12.314  1.00  0.00     0.076 A 
HETATM    3  C4  UNL     1     -18.672  -9.618 -12.464  1.00  0.00     0.069 A 
HETATM    4  C5  UNL     1     -17.645  -8.738 -12.175  1.00  0.00     0.052 A 
HETATM    5  C6  UNL     1     -16.466  -9.274 -11.740  1.00  0.00     0.017 A 
HETATM    6  C7  UNL     1     -16.288 -10.643 -11.587  1.00  0.00     0.115 A 
HETATM    7  O3  UNL     1     -15.093 -11.136 -11.149  1.00  0.00    -0.330 OA
HETATM    8  C8  UNL     1     -13.967 -10.417 -10.805  1.00  0.00     0.110 A 
HETATM    9  C9  UNL     1     -12.799 -10.903 -11.646  1.00  0.00     0.053 C 
HETATM   10  C10 UNL     1     -13.583 -10.720  -9.358  1.00  0.00     0.053 C 
HETATM   11  C11 UNL     1     -14.130  -8.953 -10.960  1.00  0.00     0.100 A 
HETATM   12  O4  UNL     1     -13.262  -7.955 -10.729  1.00  0.00    -0.315 OA
HETATM   13  C12 UNL     1     -13.818  -6.828 -10.995  1.00  0.00     0.067 A 
HETATM   14  C13 UNL     1     -13.234  -5.478 -10.885  1.00  0.00     0.078 C 
HETATM   15  C14 UNL     1     -15.129  -7.065 -11.430  1.00  0.00     0.083 A 
HETATM   16  C16 UNL     1     -15.328  -8.425 -11.407  1.00  0.00     0.029 A 
ENDROOT
BRANCH  15  17
HETATM   17  C15 UNL     1     -16.041  -6.022 -11.814  1.00  0.00     0.212 C 
HETATM   18  O5  UNL     1     -16.649  -5.371 -10.944  1.00  0.00    -0.644 OA
HETATM   19  O6  UNL     1     -16.253  -5.732 -13.138  1.00  0.00    -0.644 OA
ENDBRANCH  15  17
BRANCH   3  20
HETATM   20  O2  UNL     1     -19.918  -9.200 -12.914  1.00  0.00    -0.361 OA
ATOM     21  H2  UNL     1     -20.058  -8.260 -12.942  1.00  0.00     0.217 HD
ENDBRANCH   3  20
BRANCH   1  22
HETATM   22  O1  UNL     1     -17.126 -12.886 -11.719  1.00  0.00    -0.353 OA
HETATM   23  C1  UNL     1     -16.942 -13.735 -12.833  1.00  0.00     0.210 C 
ENDBRANCH   1  22
TORSDOF 3
ENDMDL
MODEL 3
REMARK VINA RESULT: -8.271832661      1.567      5.184
REMARK  3 active torsions:
REMARK  status: ('A' for Active; 'I' for Inactive)
REMARK    1  A    between atoms: O1_2  and  C2_3 
REMARK    2  A    between atoms: C4_5  and  O2_6 
REMARK    3  A    between atoms: C14_19  and  C15_20 
ROOT
HETATM    1  C2  UNL     1     -14.509  -7.216 -11.061  1.00  0.00     0.105 A 
HETATM    2  C3  UNL     1     -15.522  -6.446 -11.617  1.00  0.00     0.076 A 
HETATM    3  C4  UNL     1     -16.679  -7.035 -12.111  1.00  0.00     0.069 A 
HETATM    4  C5  UNL     1     -16.858  -8.405 -12.067  1.00  0.00     0.052 A 
HETATM    5  C6  UNL     1     -15.853  -9.149 -11.517  1.00  0.00     0.017 A 
HETATM    6  C7  UNL     1     -14.692  -8.571 -11.019  1.00  0.00     0.115 A 
HETATM    7  O3  UNL     1     -13.713  -9.353 -10.478  1.00  0.00    -0.330 OA
HETATM    8  C8  UNL     1     -13.710 -10.727 -10.358  1.00  0.00     0.110 A 
HETATM    9  C9  UNL     1     -13.514 -11.091  -8.896  1.00  0.00     0.053 C 
HETATM   10  C10 UNL     1     -12.501 -11.307 -11.089  1.00  0.00     0.053 C 
HETATM   11  C11 UNL     1     -14.937 -11.369 -10.881  1.00  0.00     0.100 A 
HETATM   12  O4  UNL     1     -15.285 -12.665 -10.929  1.00  0.00    -0.315 OA
HETATM   13  C12 UNL     1     -16.446 -12.782 -11.468  1.00  0.00     0.067 A 
HETATM   14  C13 UNL     1     -17.210 -14.018 -11.719  1.00  0.00     0.078 C 
HETATM   15  C14 UNL     1     -16.915 -11.505 -11.806  1.00  0.00     0.083 A 
HETATM   16  C16 UNL     1     -15.950 -10.602 -11.431  1.00  0.00     0.029 A 
ENDROOT
BRANCH  15  17
HETATM   17  C15 UNL     1     -18.188 -11.265 -12.431  1.00  0.00     0.212 C 
HETATM   18  O5  UNL     1     -18.298 -11.325 -13.669  1.00  0.00    -0.644 OA
HETATM   19  O6  UNL     1     -19.292 -10.966 -11.673  1.00  0.00    -0.644 OA
ENDBRANCH  15  17
BRANCH   3  20
HETATM   20  O2  UNL     1     -17.625  -6.168 -12.645  1.00  0.00    -0.361 OA
ATOM     21  H2  UNL     1     -17.878  -5.435 -12.096  1.00  0.00     0.217 HD
ENDBRANCH   3  20
BRANCH   1  22
HETATM   22  O1  UNL     1     -13.351  -6.635 -10.564  1.00  0.00    -0.353 OA
HETATM   23  C1  UNL     1     -12.968  -5.326 -10.928  1.00  0.00     0.210 C 
ENDBRANCH   1  22
TORSDOF 3
ENDMDL
MODEL 4
REMARK VINA RESULT: -8.001855462      1.602      5.171
REMARK  3 active torsions:
REMARK  status: ('A' for Active; 'I' for Inactive)
REMARK    1  A    between atoms: O1_2  and  C2_3 
REMARK    2  A    between atoms: C4_5  and  O2_6 
REMARK    3  A    between atoms: C14_19  and  C15_20 
ROOT
HETATM    1  C2  UNL     1     -16.194  -7.445 -11.738  1.00  0.00     0.105 A 
HETATM    2  C3  UNL     1     -17.485  -7.141 -12.148  1.00  0.00     0.076 A 
HETATM    3  C4  UNL     1     -18.338  -8.131 -12.618  1.00  0.00     0.069 A 
HETATM    4  C5  UNL     1     -17.930  -9.449 -12.693  1.00  0.00     0.052 A 
HETATM    5  C6  UNL     1     -16.656  -9.733 -12.286  1.00  0.00     0.017 A 
HETATM    6  C7  UNL     1     -15.794  -8.751 -11.814  1.00  0.00     0.115 A 
HETATM    7  O3  UNL     1     -14.531  -9.079 -11.418  1.00  0.00    -0.330 OA
HETATM    8  C8  UNL     1     -13.948 -10.329 -11.431  1.00  0.00     0.110 A 
HETATM    9  C9  UNL     1     -13.472 -10.663 -10.027  1.00  0.00     0.053 C 
HETATM   10  C10 UNL     1     -12.688 -10.303 -12.293  1.00  0.00     0.053 C 
HETATM   11  C11 UNL     1     -14.846 -11.396 -11.929  1.00  0.00     0.100 A 
HETATM   12  O4  UNL     1     -14.629 -12.713 -12.077  1.00  0.00    -0.315 OA
HETATM   13  C12 UNL     1     -15.685 -13.274 -12.546  1.00  0.00     0.067 A 
HETATM   14  C13 UNL     1     -15.892 -14.700 -12.862  1.00  0.00     0.078 C 
HETATM   15  C14 UNL     1     -16.672 -12.296 -12.727  1.00  0.00     0.083 A 
HETATM   16  C16 UNL     1     -16.135 -11.094 -12.333  1.00  0.00     0.029 A 
ENDROOT
BRANCH  15  17
HETATM   17  C15 UNL     1     -17.987 -12.577 -13.239  1.00  0.00     0.212 C 
HETATM   18  O5  UNL     1     -18.240 -12.398 -14.444  1.00  0.00    -0.644 OA
HETATM   19  O6  UNL     1     -18.975 -13.042 -12.408  1.00  0.00    -0.644 OA
ENDBRANCH  15  17
BRANCH   3  20
HETATM   20  O2  UNL     1     -19.607  -7.713 -13.001  1.00  0.00    -0.361 OA
ATOM     21  H2  UNL     1     -20.271  -7.715 -12.321  1.00  0.00     0.217 HD
ENDBRANCH   3  20
BRANCH   1  22
HETATM   22  O1  UNL     1     -15.336  -6.462 -11.267  1.00  0.00    -0.353 OA
HETATM   23  C1  UNL     1     -15.361  -5.149 -11.788  1.00  0.00     0.210 C 
ENDBRANCH   1  22
TORSDOF 3
ENDMDL
MODEL 5
REMARK VINA RESULT: -7.477523350      2.361      6.157
REMARK  3 active torsions:
REMARK  status: ('A' for Active; 'I' for Inactive)
REMARK    1  A    between atoms: O1_2  and  C2_3 
REMARK    2  A    between atoms: C4_5  and  O2_6 
REMARK    3  A    between atoms: C14_19  and  C15_20 
ROOT
HETATM    1  C2  UNL     1     -14.907  -7.689 -11.393  1.00  0.00     0.105 A 
HETATM    2  C3  UNL     1     -13.734  -7.273 -10.778  1.00  0.00     0.076 A 
HETATM    3  C4  UNL     1     -12.897  -8.182 -10.145  1.00  0.00     0.069 A 
HETATM    4  C5  UNL     1     -13.205  -9.529 -10.106  1.00  0.00     0.052 A 
HETATM    5  C6  UNL     1     -14.363  -9.923 -10.715  1.00  0.00     0.017 A 
HETATM    6  C7  UNL     1     -15.208  -9.023 -11.351  1.00  0.00     0.115 A 
HETATM    7  O3  UNL     1     -16.355  -9.459 -11.947  1.00  0.00    -0.330 OA
HETATM    8  C8  UNL     1     -16.829 -10.754 -12.000  1.00  0.00     0.110 A 
HETATM    9  C9  UNL     1     -17.030 -11.143 -13.455  1.00  0.00     0.053 C 
HETATM   10  C10 UNL     1     -18.216 -10.822 -11.364  1.00  0.00     0.053 C 
HETATM   11  C11 UNL     1     -15.947 -11.735 -11.329  1.00  0.00     0.100 A 
HETATM   12  O4  UNL     1     -16.079 -13.064 -11.185  1.00  0.00    -0.315 OA
HETATM   13  C12 UNL     1     -15.077 -13.530 -10.530  1.00  0.00     0.067 A 
HETATM   14  C13 UNL     1     -14.815 -14.930 -10.146  1.00  0.00     0.078 C 
HETATM   15  C14 UNL     1     -14.218 -12.470 -10.210  1.00  0.00     0.083 A 
HETATM   16  C16 UNL     1     -14.775 -11.323 -10.721  1.00  0.00     0.029 A 
ENDROOT
BRANCH  15  17
HETATM   17  C15 UNL     1     -12.992 -12.634  -9.476  1.00  0.00     0.212 C 
HETATM   18  O5  UNL     1     -12.983 -12.511  -8.238  1.00  0.00    -0.644 OA
HETATM   19  O6  UNL     1     -11.821 -12.925 -10.129  1.00  0.00    -0.644 OA
ENDBRANCH  15  17
BRANCH   3  20
HETATM   20  O2  UNL     1     -11.749  -7.656  -9.564  1.00  0.00    -0.361 OA
ATOM     21  H2  UNL     1     -11.309  -8.210  -8.930  1.00  0.00     0.217 HD
ENDBRANCH   3  20
BRANCH   1  22
HETATM   22  O1  UNL     1     -15.748  -6.786 -12.028  1.00  0.00    -0.353 OA
HETATM   23  C1  UNL     1     -15.700  -5.404 -11.740  1.00  0.00     0.210 C 
ENDBRANCH   1  22
TORSDOF 3
ENDMDL
