MODEL 1
REMARK VINA RESULT: -8.431883014      0.000      0.000
REMARK  4 active torsions:
REMARK  status: ('A' for Active; 'I' for Inactive)
REMARK    1  A    between atoms: C4_5  and  C5_6 
REMARK    2  A    between atoms: C6_7  and  C7_8 
REMARK    3  A    between atoms: C10_15  and  N3_16 
REMARK    4  A    between atoms: N3_16  and  C11_18 
ROOT
HETATM    1  C7  UNL     1     -12.438 -11.832 -10.138  1.00  0.00     0.016 A 
HETATM    2  C8  UNL     1     -11.562 -11.629  -9.088  1.00  0.00     0.099 A 
HETATM    3  C9  UNL     1     -10.894 -12.725  -8.572  1.00  0.00     0.305 A 
HETATM    4  O1  UNL     1     -10.098 -12.570  -7.624  1.00  0.00    -0.258 OA
HETATM    5  O2  UNL     1     -11.100 -13.904  -9.075  1.00  0.00    -0.194 OA
HETATM    6  N2  UNL     1     -11.897 -14.151 -10.045  1.00  0.00    -0.240 N 
ATOM      7  H2  UNL     1     -12.006 -15.106 -10.386  1.00  0.00     0.196 HD
HETATM    8  C10 UNL     1     -12.624 -13.103 -10.639  1.00  0.00     0.136 A 
ENDROOT
BRANCH   1   9
HETATM    9  C6  UNL     1     -13.160 -10.720 -10.714  1.00  0.00     0.016 C 
HETATM   10  C5  UNL     1     -14.251 -10.192 -10.157  1.00  0.00     0.012 C 
BRANCH  10  11
HETATM   11  C4  UNL     1     -14.972  -9.070 -10.747  1.00  0.00    -0.036 A 
HETATM   12  C3  UNL     1     -14.387  -7.800 -10.697  1.00  0.00     0.013 A 
HETATM   13  C2  UNL     1     -14.964  -6.681 -11.214  1.00  0.00     0.027 A 
HETATM   14  C1  UNL     1     -16.186  -6.754 -11.826  1.00  0.00     0.046 A 
HETATM   15  N1  UNL     1     -16.790  -5.595 -12.363  1.00  0.00    -0.102 NA
HETATM   16  C16 UNL     1     -16.789  -7.985 -11.891  1.00  0.00     0.027 A 
HETATM   17  C15 UNL     1     -16.185  -9.134 -11.355  1.00  0.00     0.013 A 
ENDBRANCH  10  11
ENDBRANCH   1   9
BRANCH   8  18
HETATM   18  N3  UNL     1     -13.344 -13.422 -11.534  1.00  0.00    -0.340 N 
ATOM     19  H3  UNL     1     -12.775 -13.252 -12.363  1.00  0.00     0.167 HD
BRANCH  18  20
HETATM   20  C11 UNL     1     -14.530 -13.897 -12.057  1.00  0.00     0.040 A 
HETATM   21  C12 UNL     1     -15.626 -13.127 -12.294  1.00  0.00     0.037 A 
HETATM   22  C13 UNL     1     -16.739 -13.709 -12.795  1.00  0.00     0.052 A 
HETATM   23  S1  UNL     1     -16.285 -15.340 -12.947  1.00  0.00    -0.111 SA
HETATM   24  C14 UNL     1     -14.700 -15.258 -12.376  1.00  0.00     0.079 A 
ENDBRANCH  18  20
ENDBRANCH   8  18
TORSDOF 4
ENDMDL
MODEL 2
REMARK VINA RESULT: -8.393258851      0.616      1.236
REMARK  4 active torsions:
REMARK  status: ('A' for Active; 'I' for Inactive)
REMARK    1  A    between atoms: C4_5  and  C5_6 
REMARK    2  A    between atoms: C6_7  and  C7_8 
REMARK    3  A    between atoms: C10_15  and  N3_16 
REMARK    4  A    between atoms: N3_16  and  C11_18 
ROOT
HETATM    1  C7  UNL     1     -12.345 -11.865 -10.082  1.00  0.00     0.016 A 
HETATM    2  C8  UNL     1     -11.422 -11.728  -9.062  1.00  0.00     0.099 A 
HETATM    3  C9  UNL     1     -10.660 -12.829  -8.715  1.00  0.00     0.305 A 
HETATM    4  O1  UNL     1      -9.820 -12.731  -7.798  1.00  0.00    -0.258 OA
HETATM    5  O2  UNL     1     -10.825 -13.953  -9.343  1.00  0.00    -0.194 OA
HETATM    6  N2  UNL     1     -11.662 -14.139 -10.292  1.00  0.00    -0.240 N 
ATOM      7  H2  UNL     1     -11.734 -15.053 -10.738  1.00  0.00     0.196 HD
HETATM    8  C10 UNL     1     -12.483 -13.080 -10.720  1.00  0.00     0.136 A 
ENDROOT
BRANCH   1   9
HETATM    9  C6  UNL     1     -13.165 -10.745 -10.483  1.00  0.00     0.016 C 
HETATM   10  C5  UNL     1     -12.884  -9.482 -10.160  1.00  0.00     0.012 C 
BRANCH  10  11
HETATM   11  C4  UNL     1     -13.718  -8.360 -10.570  1.00  0.00    -0.036 A 
HETATM   12  C3  UNL     1     -15.009  -8.624 -11.041  1.00  0.00     0.013 A 
HETATM   13  C2  UNL     1     -15.877  -7.659 -11.451  1.00  0.00     0.027 A 
HETATM   14  C1  UNL     1     -15.510  -6.341 -11.418  1.00  0.00     0.046 A 
HETATM   15  N1  UNL     1     -16.408  -5.335 -11.843  1.00  0.00    -0.102 NA
HETATM   16  C16 UNL     1     -14.250  -6.046 -10.962  1.00  0.00     0.027 A 
HETATM   17  C15 UNL     1     -13.362  -7.049 -10.541  1.00  0.00     0.013 A 
ENDBRANCH  10  11
ENDBRANCH   1   9
BRANCH   8  18
HETATM   18  N3  UNL     1     -13.235 -13.341 -11.607  1.00  0.00    -0.340 N 
ATOM     19  H3  UNL     1     -12.705 -13.092 -12.442  1.00  0.00     0.167 HD
BRANCH  18  20
HETATM   20  C11 UNL     1     -14.434 -13.797 -12.118  1.00  0.00     0.040 A 
HETATM   21  C12 UNL     1     -15.520 -13.010 -12.346  1.00  0.00     0.037 A 
HETATM   22  C13 UNL     1     -16.646 -13.574 -12.836  1.00  0.00     0.052 A 
HETATM   23  S1  UNL     1     -16.220 -15.213 -12.990  1.00  0.00    -0.111 SA
HETATM   24  C14 UNL     1     -14.629 -15.155 -12.434  1.00  0.00     0.079 A 
ENDBRANCH  18  20
ENDBRANCH   8  18
TORSDOF 4
ENDMDL
MODEL 3
REMARK VINA RESULT: -8.075988910      3.869      6.635
REMARK  4 active torsions:
REMARK  status: ('A' for Active; 'I' for Inactive)
REMARK    1  A    between atoms: C4_5  and  C5_6 
REMARK    2  A    between atoms: C6_7  and  C7_8 
REMARK    3  A    between atoms: C10_15  and  N3_16 
REMARK    4  A    between atoms: N3_16  and  C11_18 
ROOT
HETATM    1  C7  UNL     1     -15.972  -8.070 -11.547  1.00  0.00     0.016 A 
HETATM    2  C8  UNL     1     -15.372  -6.827 -11.620  1.00  0.00     0.099 A 
HETATM    3  C9  UNL     1     -16.100  -5.778 -12.152  1.00  0.00     0.305 A 
HETATM    4  O1  UNL     1     -15.581  -4.646 -12.229  1.00  0.00    -0.258 OA
HETATM    5  O2  UNL     1     -17.313  -5.978 -12.567  1.00  0.00    -0.194 OA
HETATM    6  N2  UNL     1     -17.919  -7.105 -12.526  1.00  0.00    -0.240 N 
ATOM      7  H2  UNL     1     -18.874  -7.184 -12.872  1.00  0.00     0.196 HD
HETATM    8  C10 UNL     1     -17.264  -8.234 -12.001  1.00  0.00     0.136 A 
ENDROOT
BRANCH   1   9
HETATM    9  C6  UNL     1     -15.255  -9.199 -10.999  1.00  0.00     0.016 C 
HETATM   10  C5  UNL     1     -13.955  -9.163 -10.703  1.00  0.00     0.012 C 
BRANCH  10  11
HETATM   11  C4  UNL     1     -13.241 -10.308 -10.150  1.00  0.00    -0.036 A 
HETATM   12  C3  UNL     1     -12.013 -10.666 -10.716  1.00  0.00     0.013 A 
HETATM   13  C2  UNL     1     -11.259 -11.714 -10.284  1.00  0.00     0.027 A 
HETATM   14  C1  UNL     1     -11.686 -12.488  -9.239  1.00  0.00     0.046 A 
HETATM   15  N1  UNL     1     -10.906 -13.577  -8.787  1.00  0.00    -0.102 NA
HETATM   16  C16 UNL     1     -12.887 -12.164  -8.661  1.00  0.00     0.027 A 
HETATM   17  C15 UNL     1     -13.658 -11.081  -9.114  1.00  0.00     0.013 A 
ENDBRANCH  10  11
ENDBRANCH   1   9
BRANCH   8  18
HETATM   18  N3  UNL     1     -17.900  -9.242 -12.002  1.00  0.00    -0.340 N 
ATOM     19  H3  UNL     1     -18.367  -9.223 -11.096  1.00  0.00     0.167 HD
BRANCH  18  20
HETATM   20  C11 UNL     1     -18.348 -10.420 -12.564  1.00  0.00     0.040 A 
HETATM   21  C12 UNL     1     -17.537 -11.436 -12.964  1.00  0.00     0.037 A 
HETATM   22  C13 UNL     1     -18.092 -12.538 -13.517  1.00  0.00     0.052 A 
HETATM   23  S1  UNL     1     -19.754 -12.186 -13.491  1.00  0.00    -0.111 SA
HETATM   24  C14 UNL     1     -19.719 -10.656 -12.784  1.00  0.00     0.079 A 
ENDBRANCH  18  20
ENDBRANCH   8  18
TORSDOF 4
ENDMDL
MODEL 4
REMARK VINA RESULT: -8.061004876      3.850      5.440
REMARK  4 active torsions:
REMARK  status: ('A' for Active; 'I' for Inactive)
REMARK    1  A    between atoms: C4_5  and  C5_6 
REMARK    2  A    between atoms: C6_7  and  C7_8 
REMARK    3  A    between atoms: C10_15  and  N3_16 
REMARK    4  A    between atoms: N3_16  and  C11_18 
ROOT
HETATM    1  C7  UNL     1     -14.914  -7.974 -10.822  1.00  0.00     0.016 A 
HETATM    2  C8  UNL     1     -14.623  -6.668 -11.170  1.00  0.00     0.099 A 
HETATM    3  C9  UNL     1     -13.405  -6.142 -10.779  1.00  0.00     0.305 A 
HETATM    4  O1  UNL     1     -13.118  -4.966 -11.081  1.00  0.00    -0.258 OA
HETATM    5  O2  UNL     1     -12.573  -6.872 -10.101  1.00  0.00    -0.194 OA
HETATM    6  N2  UNL     1     -12.788  -8.084  -9.751  1.00  0.00    -0.240 N 
ATOM      7  H2  UNL     1     -12.084  -8.594  -9.218  1.00  0.00     0.196 HD
HETATM    8  C10 UNL     1     -13.998  -8.710 -10.101  1.00  0.00     0.136 A 
ENDROOT
BRANCH   1   9
HETATM    9  C6  UNL     1     -16.173  -8.571 -11.207  1.00  0.00     0.016 C 
HETATM   10  C5  UNL     1     -17.056  -7.964 -12.001  1.00  0.00     0.012 C 
BRANCH  10  11
HETATM   11  C4  UNL     1     -18.322  -8.576 -12.383  1.00  0.00    -0.036 A 
HETATM   12  C3  UNL     1     -18.443  -9.968 -12.303  1.00  0.00     0.013 A 
HETATM   13  C2  UNL     1     -19.574 -10.649 -12.632  1.00  0.00     0.027 A 
HETATM   14  C1  UNL     1     -20.682  -9.977 -13.071  1.00  0.00     0.046 A 
HETATM   15  N1  UNL     1     -21.859 -10.680 -13.415  1.00  0.00    -0.102 NA
HETATM   16  C16 UNL     1     -20.599  -8.610 -13.163  1.00  0.00     0.027 A 
HETATM   17  C15 UNL     1     -19.426  -7.916 -12.821  1.00  0.00     0.013 A 
ENDBRANCH  10  11
ENDBRANCH   1   9
BRANCH   8  18
HETATM   18  N3  UNL     1     -14.116  -9.838  -9.733  1.00  0.00    -0.340 N 
ATOM     19  H3  UNL     1     -14.999  -9.825  -9.222  1.00  0.00     0.167 HD
BRANCH  18  20
HETATM   20  C11 UNL     1     -13.707 -11.152  -9.622  1.00  0.00     0.040 A 
HETATM   21  C12 UNL     1     -12.573 -11.551  -8.986  1.00  0.00     0.037 A 
HETATM   22  C13 UNL     1     -12.268 -12.867  -8.956  1.00  0.00     0.052 A 
HETATM   23  S1  UNL     1     -13.552 -13.580  -9.812  1.00  0.00    -0.111 SA
HETATM   24  C14 UNL     1     -14.450 -12.204 -10.191  1.00  0.00     0.079 A 
ENDBRANCH  18  20
ENDBRANCH   8  18
TORSDOF 4
ENDMDL
MODEL 5
REMARK VINA RESULT: -8.052161043      3.850      5.411
REMARK  4 active torsions:
REMARK  status: ('A' for Active; 'I' for Inactive)
REMARK    1  A    between atoms: C4_5  and  C5_6 
REMARK    2  A    between atoms: C6_7  and  C7_8 
REMARK    3  A    between atoms: C10_15  and  N3_16 
REMARK    4  A    between atoms: N3_16  and  C11_18 
ROOT
HETATM    1  C7  UNL     1     -14.948  -8.027 -10.808  1.00  0.00     0.016 A 
HETATM    2  C8  UNL     1     -14.670  -6.720 -11.165  1.00  0.00     0.099 A 
HETATM    3  C9  UNL     1     -13.446  -6.188 -10.801  1.00  0.00     0.305 A 
HETATM    4  O1  UNL     1     -13.170  -5.012 -11.110  1.00  0.00    -0.258 OA
HETATM    5  O2  UNL     1     -12.597  -6.914 -10.141  1.00  0.00    -0.194 OA
HETATM    6  N2  UNL     1     -12.799  -8.126  -9.783  1.00  0.00    -0.240 N 
ATOM      7  H2  UNL     1     -12.082  -8.632  -9.265  1.00  0.00     0.196 HD
HETATM    8  C10 UNL     1     -14.013  -8.758 -10.107  1.00  0.00     0.136 A 
ENDROOT
BRANCH   1   9
HETATM    9  C6  UNL     1     -16.212  -8.630 -11.166  1.00  0.00     0.016 C 
HETATM   10  C5  UNL     1     -17.050  -8.094 -12.054  1.00  0.00     0.012 C 
BRANCH  10  11
HETATM   11  C4  UNL     1     -18.323  -8.712 -12.407  1.00  0.00    -0.036 A 
HETATM   12  C3  UNL     1     -19.376  -7.885 -12.815  1.00  0.00     0.013 A 
HETATM   13  C2  UNL     1     -20.607  -8.348 -13.169  1.00  0.00     0.027 A 
HETATM   14  C1  UNL     1     -20.875  -9.689 -13.139  1.00  0.00     0.046 A 
HETATM   15  N1  UNL     1     -22.151 -10.175 -13.504  1.00  0.00    -0.102 NA
HETATM   16  C16 UNL     1     -19.864 -10.529 -12.743  1.00  0.00     0.027 A 
HETATM   17  C15 UNL     1     -18.598 -10.042 -12.380  1.00  0.00     0.013 A 
ENDBRANCH  10  11
ENDBRANCH   1   9
BRANCH   8  18
HETATM   18  N3  UNL     1     -14.119  -9.886  -9.734  1.00  0.00    -0.340 N 
ATOM     19  H3  UNL     1     -14.990  -9.875  -9.204  1.00  0.00     0.167 HD
BRANCH  18  20
HETATM   20  C11 UNL     1     -13.703 -11.198  -9.631  1.00  0.00     0.040 A 
HETATM   21  C12 UNL     1     -12.592 -11.599  -8.957  1.00  0.00     0.037 A 
HETATM   22  C13 UNL     1     -12.277 -12.914  -8.939  1.00  0.00     0.052 A 
HETATM   23  S1  UNL     1     -13.518 -13.620  -9.860  1.00  0.00    -0.111 SA
HETATM   24  C14 UNL     1     -14.412 -12.245 -10.251  1.00  0.00     0.079 A 
ENDBRANCH  18  20
ENDBRANCH   8  18
TORSDOF 4
ENDMDL
