MODEL 1
REMARK VINA RESULT: -8.330042594      0.000      0.000
REMARK  5 active torsions:
REMARK  status: ('A' for Active; 'I' for Inactive)
REMARK    1  A    between atoms: C2_2  and  C3_3 
REMARK    2  A    between atoms: C7_8  and  O2_9 
REMARK    3  A    between atoms: C8_11  and  C9_12 
REMARK    4  A    between atoms: C13_16  and  O3_17 
REMARK    5  A    between atoms: C14_19  and  C15_20 
ROOT
HETATM    1  C3  UNL     1     -14.396  -7.091 -11.047  1.00  0.00     0.057 A 
HETATM    2  C4  UNL     1     -15.315  -6.231 -11.600  1.00  0.00     0.088 A 
HETATM    3  C5  UNL     1     -16.535  -6.722 -12.020  1.00  0.00     0.190 A 
HETATM    4  O1  UNL     1     -17.361  -5.916 -12.523  1.00  0.00    -0.287 OA
HETATM    5  C6  UNL     1     -16.790  -8.061 -11.870  1.00  0.00     0.083 A 
HETATM    6  C7  UNL     1     -17.991  -8.589 -12.275  1.00  0.00     0.092 A 
HETATM    7  C8  UNL     1     -18.272  -9.966 -12.128  1.00  0.00     0.018 A 
HETATM    8  C13 UNL     1     -17.293 -10.772 -11.562  1.00  0.00     0.092 A 
HETATM    9  C14 UNL     1     -16.056 -10.219 -11.146  1.00  0.00     0.078 A 
HETATM   10  C17 UNL     1     -15.822  -8.853 -11.310  1.00  0.00     0.109 A 
HETATM   11  O5  UNL     1     -14.650  -8.361 -10.910  1.00  0.00    -0.313 OA
ENDROOT
BRANCH   7  12
HETATM   12  C9  UNL     1     -19.540 -10.510 -12.564  1.00  0.00    -0.019 C 
HETATM   13  C10 UNL     1     -20.258 -11.335 -11.522  1.00  0.00     0.019 C 
HETATM   14  C11 UNL     1     -20.542  -9.536 -13.109  1.00  0.00     0.019 C 
HETATM   15  C12 UNL     1     -19.210 -11.504 -13.699  1.00  0.00     0.019 C 
ENDBRANCH   7  12
BRANCH   6  16
HETATM   16  O2  UNL     1     -18.982  -7.878 -12.830  1.00  0.00    -0.359 OA
ATOM     17  H2  UNL     1     -19.214  -7.909 -13.751  1.00  0.00     0.217 HD
ENDBRANCH   6  16
BRANCH   8  18
HETATM   18  O3  UNL     1     -17.418 -12.078 -11.364  1.00  0.00    -0.359 OA
ATOM     19  H3  UNL     1     -17.151 -12.744 -11.987  1.00  0.00     0.217 HD
ENDBRANCH   8  18
BRANCH   9  20
HETATM   20  C15 UNL     1     -15.011 -11.005 -10.554  1.00  0.00     0.161 C 
HETATM   21  C16 UNL     1     -14.642 -10.942  -9.111  1.00  0.00     0.097 C 
HETATM   22  O4  UNL     1     -14.354 -11.810 -11.306  1.00  0.00    -0.293 OA
ENDBRANCH   9  20
BRANCH   1  23
HETATM   23  C2  UNL     1     -13.090  -6.490 -10.612  1.00  0.00     0.061 C 
HETATM   24  C1  UNL     1     -13.007  -5.038 -11.035  1.00  0.00     0.012 C 
ENDBRANCH   1  23
TORSDOF 5
ENDMDL
MODEL 2
REMARK VINA RESULT: -8.296082193      0.601      1.138
REMARK  5 active torsions:
REMARK  status: ('A' for Active; 'I' for Inactive)
REMARK    1  A    between atoms: C2_2  and  C3_3 
REMARK    2  A    between atoms: C7_8  and  O2_9 
REMARK    3  A    between atoms: C8_11  and  C9_12 
REMARK    4  A    between atoms: C13_16  and  O3_17 
REMARK    5  A    between atoms: C14_19  and  C15_20 
ROOT
HETATM    1  C3  UNL     1     -14.471  -7.119 -11.009  1.00  0.00     0.057 A 
HETATM    2  C4  UNL     1     -15.362  -6.256 -11.603  1.00  0.00     0.088 A 
HETATM    3  C5  UNL     1     -16.572  -6.740 -12.058  1.00  0.00     0.190 A 
HETATM    4  O1  UNL     1     -17.373  -5.932 -12.598  1.00  0.00    -0.287 OA
HETATM    5  C6  UNL     1     -16.845  -8.076 -11.903  1.00  0.00     0.083 A 
HETATM    6  C7  UNL     1     -18.038  -8.597 -12.342  1.00  0.00     0.092 A 
HETATM    7  C8  UNL     1     -18.337  -9.968 -12.189  1.00  0.00     0.018 A 
HETATM    8  C13 UNL     1     -17.386 -10.777 -11.581  1.00  0.00     0.092 A 
HETATM    9  C14 UNL     1     -16.159 -10.232 -11.130  1.00  0.00     0.078 A 
HETATM   10  C17 UNL     1     -15.905  -8.870 -11.301  1.00  0.00     0.109 A 
HETATM   11  O5  UNL     1     -14.742  -8.385 -10.867  1.00  0.00    -0.313 OA
ENDROOT
BRANCH   7  12
HETATM   12  C9  UNL     1     -19.595 -10.505 -12.662  1.00  0.00    -0.019 C 
HETATM   13  C10 UNL     1     -20.614  -9.461 -13.052  1.00  0.00     0.019 C 
HETATM   14  C11 UNL     1     -19.529 -11.489 -13.792  1.00  0.00     0.019 C 
HETATM   15  C12 UNL     1     -20.223 -11.241 -11.456  1.00  0.00     0.019 C 
ENDBRANCH   7  12
BRANCH   6  16
HETATM   16  O2  UNL     1     -19.002  -7.882 -12.939  1.00  0.00    -0.359 OA
ATOM     17  H2  UNL     1     -18.969  -7.584 -13.840  1.00  0.00     0.217 HD
ENDBRANCH   6  16
BRANCH   8  18
HETATM   18  O3  UNL     1     -17.531 -12.080 -11.373  1.00  0.00    -0.359 OA
ATOM     19  H3  UNL     1     -16.955 -12.605 -10.829  1.00  0.00     0.217 HD
ENDBRANCH   8  18
BRANCH   9  20
HETATM   20  C15 UNL     1     -15.142 -11.021 -10.493  1.00  0.00     0.161 C 
HETATM   21  C16 UNL     1     -14.041 -11.704 -11.229  1.00  0.00     0.097 C 
HETATM   22  O4  UNL     1     -15.179 -11.146  -9.217  1.00  0.00    -0.293 OA
ENDBRANCH   9  20
BRANCH   1  23
HETATM   23  C2  UNL     1     -13.175  -6.526 -10.536  1.00  0.00     0.061 C 
HETATM   24  C1  UNL     1     -13.053  -5.086 -10.991  1.00  0.00     0.012 C 
ENDBRANCH   1  23
TORSDOF 5
ENDMDL
MODEL 3
REMARK VINA RESULT: -7.897331094      2.031      4.976
REMARK  5 active torsions:
REMARK  status: ('A' for Active; 'I' for Inactive)
REMARK    1  A    between atoms: C2_2  and  C3_3 
REMARK    2  A    between atoms: C7_8  and  O2_9 
REMARK    3  A    between atoms: C8_11  and  C9_12 
REMARK    4  A    between atoms: C13_16  and  O3_17 
REMARK    5  A    between atoms: C14_19  and  C15_20 
ROOT
HETATM    1  C3  UNL     1     -15.070  -7.050 -11.317  1.00  0.00     0.057 A 
HETATM    2  C4  UNL     1     -13.908  -6.927 -10.592  1.00  0.00     0.088 A 
HETATM    3  C5  UNL     1     -13.254  -8.064 -10.163  1.00  0.00     0.190 A 
HETATM    4  O1  UNL     1     -12.192  -7.927  -9.500  1.00  0.00    -0.287 OA
HETATM    5  C6  UNL     1     -13.789  -9.287 -10.477  1.00  0.00     0.083 A 
HETATM    6  C7  UNL     1     -13.169 -10.443 -10.069  1.00  0.00     0.092 A 
HETATM    7  C8  UNL     1     -13.705 -11.711 -10.384  1.00  0.00     0.018 A 
HETATM    8  C13 UNL     1     -14.882 -11.755 -11.119  1.00  0.00     0.092 A 
HETATM    9  C14 UNL     1     -15.515 -10.559 -11.537  1.00  0.00     0.078 A 
HETATM   10  C17 UNL     1     -14.950  -9.326 -11.204  1.00  0.00     0.109 A 
HETATM   11  O5  UNL     1     -15.568  -8.218 -11.610  1.00  0.00    -0.313 OA
ENDROOT
BRANCH   7  12
HETATM   12  C9  UNL     1     -13.044 -12.920  -9.943  1.00  0.00    -0.019 C 
HETATM   13  C10 UNL     1     -12.214 -12.760  -8.691  1.00  0.00     0.019 C 
HETATM   14  C11 UNL     1     -13.909 -14.128  -9.736  1.00  0.00     0.019 C 
HETATM   15  C12 UNL     1     -12.026 -13.276 -11.050  1.00  0.00     0.019 C 
ENDBRANCH   7  12
BRANCH   6  16
HETATM   16  O2  UNL     1     -12.035 -10.482  -9.356  1.00  0.00    -0.359 OA
ATOM     17  H2  UNL     1     -11.992 -10.654  -8.423  1.00  0.00     0.217 HD
ENDBRANCH   6  16
BRANCH   8  18
HETATM   18  O3  UNL     1     -15.498 -12.872 -11.485  1.00  0.00    -0.359 OA
ATOM     19  H3  UNL     1     -16.227 -13.262 -11.018  1.00  0.00     0.217 HD
ENDBRANCH   8  18
BRANCH   9  20
HETATM   20  C15 UNL     1     -16.732 -10.545 -12.300  1.00  0.00     0.161 C 
HETATM   21  C16 UNL     1     -18.076 -10.286 -11.712  1.00  0.00     0.097 C 
HETATM   22  O4  UNL     1     -16.661 -10.768 -13.561  1.00  0.00    -0.293 OA
ENDBRANCH   9  20
BRANCH   1  23
HETATM   23  C2  UNL     1     -15.729  -5.773 -11.753  1.00  0.00     0.061 C 
HETATM   24  C1  UNL     1     -17.016  -6.067 -12.494  1.00  0.00     0.012 C 
ENDBRANCH   1  23
TORSDOF 5
ENDMDL
MODEL 4
REMARK VINA RESULT: -7.699591751      0.954      3.630
REMARK  5 active torsions:
REMARK  status: ('A' for Active; 'I' for Inactive)
REMARK    1  A    between atoms: C2_2  and  C3_3 
REMARK    2  A    between atoms: C7_8  and  O2_9 
REMARK    3  A    between atoms: C8_11  and  C9_12 
REMARK    4  A    between atoms: C13_16  and  O3_17 
REMARK    5  A    between atoms: C14_19  and  C15_20 
ROOT
HETATM    1  C3  UNL     1     -14.122  -9.078 -10.524  1.00  0.00     0.057 A 
HETATM    2  C4  UNL     1     -14.343 -10.411 -10.271  1.00  0.00     0.088 A 
HETATM    3  C5  UNL     1     -15.540 -10.983 -10.651  1.00  0.00     0.190 A 
HETATM    4  O1  UNL     1     -15.721 -12.206 -10.409  1.00  0.00    -0.287 OA
HETATM    5  C6  UNL     1     -16.476 -10.196 -11.273  1.00  0.00     0.083 A 
HETATM    6  C7  UNL     1     -17.679 -10.727 -11.668  1.00  0.00     0.092 A 
HETATM    7  C8  UNL     1     -18.654  -9.932 -12.310  1.00  0.00     0.018 A 
HETATM    8  C13 UNL     1     -18.359  -8.594 -12.532  1.00  0.00     0.092 A 
HETATM    9  C14 UNL     1     -17.114  -8.053 -12.123  1.00  0.00     0.078 A 
HETATM   10  C17 UNL     1     -16.179  -8.876 -11.491  1.00  0.00     0.109 A 
HETATM   11  O5  UNL     1     -15.018  -8.341 -11.117  1.00  0.00    -0.313 OA
ENDROOT
BRANCH   7  12
HETATM   12  C9  UNL     1     -19.920 -10.504 -12.716  1.00  0.00    -0.019 C 
HETATM   13  C10 UNL     1     -20.968  -9.489 -13.108  1.00  0.00     0.019 C 
HETATM   14  C11 UNL     1     -19.880 -11.528 -13.812  1.00  0.00     0.019 C 
HETATM   15  C12 UNL     1     -20.493 -11.202 -11.463  1.00  0.00     0.019 C 
ENDBRANCH   7  12
BRANCH   6  16
HETATM   16  O2  UNL     1     -18.037 -12.006 -11.488  1.00  0.00    -0.359 OA
ATOM     17  H2  UNL     1     -18.357 -12.364 -10.668  1.00  0.00     0.217 HD
ENDBRANCH   6  16
BRANCH   8  18
HETATM   18  O3  UNL     1     -19.177  -7.731 -13.122  1.00  0.00    -0.359 OA
ATOM     19  H3  UNL     1     -19.271  -6.820 -12.869  1.00  0.00     0.217 HD
ENDBRANCH   8  18
BRANCH   9  20
HETATM   20  C15 UNL     1     -16.755  -6.678 -12.327  1.00  0.00     0.161 C 
HETATM   21  C16 UNL     1     -16.518  -5.710 -11.219  1.00  0.00     0.097 C 
HETATM   22  O4  UNL     1     -16.631  -6.255 -13.531  1.00  0.00    -0.293 OA
ENDBRANCH   9  20
BRANCH   1  23
HETATM   23  C2  UNL     1     -12.799  -8.521 -10.085  1.00  0.00     0.061 C 
HETATM   24  C1  UNL     1     -12.836  -7.007 -10.078  1.00  0.00     0.012 C 
ENDBRANCH   1  23
TORSDOF 5
ENDMDL
MODEL 5
REMARK VINA RESULT: -7.542822769      2.118      3.296
REMARK  5 active torsions:
REMARK  status: ('A' for Active; 'I' for Inactive)
REMARK    1  A    between atoms: C2_2  and  C3_3 
REMARK    2  A    between atoms: C7_8  and  O2_9 
REMARK    3  A    between atoms: C8_11  and  C9_12 
REMARK    4  A    between atoms: C13_16  and  O3_17 
REMARK    5  A    between atoms: C14_19  and  C15_20 
ROOT
HETATM    1  C3  UNL     1     -15.082  -7.318 -11.420  1.00  0.00     0.057 A 
HETATM    2  C4  UNL     1     -16.428  -7.499 -11.638  1.00  0.00     0.088 A 
HETATM    3  C5  UNL     1     -16.915  -8.773 -11.849  1.00  0.00     0.190 A 
HETATM    4  O1  UNL     1     -18.150  -8.915 -12.047  1.00  0.00    -0.287 OA
HETATM    5  C6  UNL     1     -16.033  -9.824 -11.833  1.00  0.00     0.083 A 
HETATM    6  C7  UNL     1     -16.477 -11.107 -12.038  1.00  0.00     0.092 A 
HETATM    7  C8  UNL     1     -15.584 -12.201 -12.025  1.00  0.00     0.018 A 
HETATM    8  C13 UNL     1     -14.239 -11.940 -11.798  1.00  0.00     0.092 A 
HETATM    9  C14 UNL     1     -13.789 -10.613 -11.587  1.00  0.00     0.078 A 
HETATM   10  C17 UNL     1     -14.707  -9.561 -11.608  1.00  0.00     0.109 A 
HETATM   11  O5  UNL     1     -14.255  -8.324 -11.407  1.00  0.00    -0.313 OA
ENDROOT
BRANCH   7  12
HETATM   12  C9  UNL     1     -16.065 -13.547 -12.247  1.00  0.00    -0.019 C 
HETATM   13  C10 UNL     1     -17.433 -13.627 -12.884  1.00  0.00     0.019 C 
HETATM   14  C11 UNL     1     -15.171 -14.465 -13.028  1.00  0.00     0.019 C 
HETATM   15  C12 UNL     1     -16.243 -14.173 -10.845  1.00  0.00     0.019 C 
ENDBRANCH   7  12
BRANCH   6  16
HETATM   16  O2  UNL     1     -17.756 -11.438 -12.264  1.00  0.00    -0.359 OA
ATOM     17  H2  UNL     1     -18.427 -11.478 -11.593  1.00  0.00     0.217 HD
ENDBRANCH   6  16
BRANCH   8  18
HETATM   18  O3  UNL     1     -13.290 -12.866 -11.759  1.00  0.00    -0.359 OA
ATOM     19  H3  UNL     1     -12.910 -13.280 -12.525  1.00  0.00     0.217 HD
ENDBRANCH   8  18
BRANCH   9  20
HETATM   20  C15 UNL     1     -12.411 -10.285 -11.347  1.00  0.00     0.161 C 
HETATM   21  C16 UNL     1     -11.872  -9.898 -10.013  1.00  0.00     0.097 C 
HETATM   22  O4  UNL     1     -11.595 -10.328 -12.335  1.00  0.00    -0.293 OA
ENDBRANCH   9  20
BRANCH   1  23
HETATM   23  C2  UNL     1     -14.621  -5.907 -11.198  1.00  0.00     0.061 C 
HETATM   24  C1  UNL     1     -13.156  -5.881 -10.816  1.00  0.00     0.012 C 
ENDBRANCH   1  23
TORSDOF 5
ENDMDL
