MODEL 1
REMARK VINA RESULT: -7.340405785      0.000      0.000
REMARK  4 active torsions:
REMARK  status: ('A' for Active; 'I' for Inactive)
REMARK    1  A    between atoms: C3_5  and  N2_6 
REMARK       I    between atoms: N2_6  and  C4_8 
REMARK       I    between atoms: C4_8  and  N3_10 
REMARK    2  A    between atoms: N3_10  and  C5_12 
REMARK    3  A    between atoms: C7_15  and  N4_16 
REMARK    4  A    between atoms: N4_16  and  O2_17 
ROOT
HETATM    1  N2  UNL     1     -13.385 -12.689 -11.485  1.00  0.00    -0.288 N 
ATOM      2  H2  UNL     1     -13.581 -13.566 -11.967  1.00  0.00     0.172 HD
HETATM    3  C4  UNL     1     -13.994 -11.447 -11.893  1.00  0.00     0.326 C 
HETATM    4  O1  UNL     1     -13.838 -11.140 -13.080  1.00  0.00    -0.247 OA
HETATM    5  N3  UNL     1     -14.706 -10.664 -10.987  1.00  0.00    -0.308 N 
ATOM      6  H3  UNL     1     -14.788 -10.998 -10.026  1.00  0.00     0.170 HD
ENDROOT
BRANCH   1   7
HETATM    7  C3  UNL     1     -12.563 -12.634 -10.459  1.00  0.00     0.153 A 
HETATM    8  N1  UNL     1     -11.363 -13.204 -10.344  1.00  0.00    -0.339 N 
HETATM    9  C2  UNL     1     -10.694 -13.033  -9.238  1.00  0.00     0.020 A 
ATOM     10  H1  UNL     1     -10.977 -13.762 -11.105  1.00  0.00     0.168 HD
HETATM   11  C1  UNL     1      -9.315 -13.646  -9.018  1.00  0.00     0.069 C 
HETATM   12  C9  UNL     1     -11.272 -12.271  -8.255  1.00  0.00     0.004 A 
HETATM   13  S3  UNL     1     -12.758 -11.834  -8.968  1.00  0.00    -0.057 SA
HETATM   14  C10 UNL     1     -10.706 -11.930  -6.902  1.00  0.00     0.058 C 
ENDBRANCH   1   7
BRANCH   5  15
HETATM   15  C5  UNL     1     -15.339  -9.401 -11.327  1.00  0.00     0.045 A 
HETATM   16  C6  UNL     1     -16.637  -9.328 -11.747  1.00  0.00     0.081 A 
HETATM   17  S1  UNL     1     -16.879  -7.642 -11.970  1.00  0.00    -0.079 SA
HETATM   18  C7  UNL     1     -15.337  -7.091 -11.527  1.00  0.00     0.113 A 
HETATM   19  C8  UNL     1     -14.668  -8.236 -11.215  1.00  0.00     0.070 A 
BRANCH  18  20
HETATM   20  N4  UNL     1     -14.845  -5.731 -11.488  1.00  0.00    -0.178 N 
HETATM   21  S2  UNL     1     -13.405  -5.503 -10.824  1.00  0.00     0.075 SA
BRANCH  20  22
HETATM   22  O2  UNL     1     -15.610  -4.752 -12.003  1.00  0.00    -0.275 OA
ATOM     23  H2  UNL     1     -15.315  -3.853 -11.921  1.00  0.00     0.246 HD
ENDBRANCH  20  22
ENDBRANCH  18  20
ENDBRANCH   5  15
TORSDOF 4
ENDMDL
MODEL 2
REMARK VINA RESULT: -7.134337330      2.780      4.408
REMARK  4 active torsions:
REMARK  status: ('A' for Active; 'I' for Inactive)
REMARK    1  A    between atoms: C3_5  and  N2_6 
REMARK       I    between atoms: N2_6  and  C4_8 
REMARK       I    between atoms: C4_8  and  N3_10 
REMARK    2  A    between atoms: N3_10  and  C5_12 
REMARK    3  A    between atoms: C7_15  and  N4_16 
REMARK    4  A    between atoms: N4_16  and  O2_17 
ROOT
HETATM    1  N2  UNL     1     -14.075 -12.607  -9.572  1.00  0.00    -0.288 N 
ATOM      2  H2  UNL     1     -13.625 -13.112  -8.808  1.00  0.00     0.172 HD
HETATM    3  C4  UNL     1     -14.210 -11.170  -9.556  1.00  0.00     0.326 C 
HETATM    4  O1  UNL     1     -14.767 -10.697  -8.559  1.00  0.00    -0.247 OA
HETATM    5  N3  UNL     1     -13.734 -10.392 -10.609  1.00  0.00    -0.308 N 
ATOM      6  H3  UNL     1     -13.283 -10.868 -11.391  1.00  0.00     0.170 HD
ENDROOT
BRANCH   1   7
HETATM    7  C3  UNL     1     -14.560 -13.233 -10.622  1.00  0.00     0.153 A 
HETATM    8  N1  UNL     1     -15.703 -12.988 -11.261  1.00  0.00    -0.339 N 
HETATM    9  C2  UNL     1     -16.014 -13.725 -12.291  1.00  0.00     0.020 A 
ATOM     10  H1  UNL     1     -16.323 -12.239 -10.951  1.00  0.00     0.168 HD
HETATM   11  C1  UNL     1     -17.301 -13.516 -13.083  1.00  0.00     0.069 C 
HETATM   12  C9  UNL     1     -15.137 -14.715 -12.653  1.00  0.00     0.004 A 
HETATM   13  S3  UNL     1     -13.901 -14.540 -11.492  1.00  0.00    -0.057 SA
HETATM   14  C10 UNL     1     -15.268 -15.689 -13.794  1.00  0.00     0.058 C 
ENDBRANCH   1   7
BRANCH   5  15
HETATM   15  C5  UNL     1     -13.842  -8.944 -10.661  1.00  0.00     0.045 A 
HETATM   16  C6  UNL     1     -12.908  -8.124 -10.093  1.00  0.00     0.081 A 
HETATM   17  S1  UNL     1     -13.489  -6.552 -10.472  1.00  0.00    -0.079 SA
HETATM   18  C7  UNL     1     -14.886  -6.985 -11.332  1.00  0.00     0.113 A 
HETATM   19  C8  UNL     1     -14.867  -8.347 -11.303  1.00  0.00     0.070 A 
BRANCH  18  20
HETATM   20  N4  UNL     1     -15.866  -6.119 -11.949  1.00  0.00    -0.178 N 
HETATM   21  S2  UNL     1     -17.243  -6.797 -12.406  1.00  0.00     0.075 SA
BRANCH  20  22
HETATM   22  O2  UNL     1     -15.571  -4.816 -12.102  1.00  0.00    -0.275 OA
ATOM     23  H2  UNL     1     -16.137  -4.281 -12.646  1.00  0.00     0.246 HD
ENDBRANCH  20  22
ENDBRANCH  18  20
ENDBRANCH   5  15
TORSDOF 4
ENDMDL
MODEL 3
REMARK VINA RESULT: -7.131188498      1.573      2.481
REMARK  4 active torsions:
REMARK  status: ('A' for Active; 'I' for Inactive)
REMARK    1  A    between atoms: C3_5  and  N2_6 
REMARK       I    between atoms: N2_6  and  C4_8 
REMARK       I    between atoms: C4_8  and  N3_10 
REMARK    2  A    between atoms: N3_10  and  C5_12 
REMARK    3  A    between atoms: C7_15  and  N4_16 
REMARK    4  A    between atoms: N4_16  and  O2_17 
ROOT
HETATM    1  N2  UNL     1     -14.218 -12.634  -9.758  1.00  0.00    -0.288 N 
ATOM      2  H2  UNL     1     -14.910 -13.369  -9.609  1.00  0.00     0.172 HD
HETATM    3  C4  UNL     1     -14.564 -11.384 -10.392  1.00  0.00     0.326 C 
HETATM    4  O1  UNL     1     -15.098 -11.478 -11.502  1.00  0.00    -0.247 OA
HETATM    5  N3  UNL     1     -14.302 -10.166  -9.768  1.00  0.00    -0.308 N 
ATOM      6  H3  UNL     1     -13.862 -10.184  -8.848  1.00  0.00     0.170 HD
ENDROOT
BRANCH   1   7
HETATM    7  C3  UNL     1     -12.966 -12.778  -9.382  1.00  0.00     0.153 A 
HETATM    8  N1  UNL     1     -12.370 -12.250  -8.313  1.00  0.00    -0.339 N 
HETATM    9  C2  UNL     1     -11.109 -12.511  -8.109  1.00  0.00     0.020 A 
ATOM     10  H1  UNL     1     -12.889 -11.654  -7.669  1.00  0.00     0.168 HD
HETATM   11  C1  UNL     1     -10.345 -11.951  -6.913  1.00  0.00     0.069 C 
HETATM   12  C9  UNL     1     -10.470 -13.319  -9.015  1.00  0.00     0.004 A 
HETATM   13  S3  UNL     1     -11.718 -13.668 -10.124  1.00  0.00    -0.057 SA
HETATM   14  C10 UNL     1      -9.032 -13.764  -8.999  1.00  0.00     0.058 C 
ENDBRANCH   1   7
BRANCH   5  15
HETATM   15  C5  UNL     1     -14.618  -8.872 -10.350  1.00  0.00     0.045 A 
HETATM   16  C6  UNL     1     -13.764  -7.809 -10.267  1.00  0.00     0.081 A 
HETATM   17  S1  UNL     1     -14.592  -6.577 -11.131  1.00  0.00    -0.079 SA
HETATM   18  C7  UNL     1     -15.984  -7.445 -11.564  1.00  0.00     0.113 A 
HETATM   19  C8  UNL     1     -15.770  -8.677 -11.024  1.00  0.00     0.070 A 
BRANCH  18  20
HETATM   20  N4  UNL     1     -17.127  -6.990 -12.324  1.00  0.00    -0.178 N 
HETATM   21  S2  UNL     1     -18.319  -8.039 -12.533  1.00  0.00     0.075 SA
BRANCH  20  22
HETATM   22  O2  UNL     1     -17.125  -5.733 -12.803  1.00  0.00    -0.275 OA
ATOM     23  H2  UNL     1     -17.149  -5.010 -12.188  1.00  0.00     0.246 HD
ENDBRANCH  20  22
ENDBRANCH  18  20
ENDBRANCH   5  15
TORSDOF 4
ENDMDL
MODEL 4
REMARK VINA RESULT: -7.049193545      1.205      1.614
REMARK  4 active torsions:
REMARK  status: ('A' for Active; 'I' for Inactive)
REMARK    1  A    between atoms: C3_5  and  N2_6 
REMARK       I    between atoms: N2_6  and  C4_8 
REMARK       I    between atoms: C4_8  and  N3_10 
REMARK    2  A    between atoms: N3_10  and  C5_12 
REMARK    3  A    between atoms: C7_15  and  N4_16 
REMARK    4  A    between atoms: N4_16  and  O2_17 
ROOT
HETATM    1  N2  UNL     1     -14.862 -13.028 -10.796  1.00  0.00    -0.288 N 
ATOM      2  H2  UNL     1     -15.423 -13.879 -10.851  1.00  0.00     0.172 HD
HETATM    3  C4  UNL     1     -15.309 -11.787 -11.379  1.00  0.00     0.326 C 
HETATM    4  O1  UNL     1     -15.605 -11.835 -12.578  1.00  0.00    -0.247 OA
HETATM    5  N3  UNL     1     -15.393 -10.624 -10.616  1.00  0.00    -0.308 N 
ATOM      6  H3  UNL     1     -15.133 -10.678  -9.630  1.00  0.00     0.170 HD
ENDROOT
BRANCH   1   7
HETATM    7  C3  UNL     1     -13.695 -13.009 -10.190  1.00  0.00     0.153 A 
HETATM    8  N1  UNL     1     -13.393 -12.445  -9.020  1.00  0.00    -0.339 N 
HETATM    9  C2  UNL     1     -12.168 -12.534  -8.582  1.00  0.00     0.020 A 
ATOM     10  H1  UNL     1     -14.105 -11.955  -8.480  1.00  0.00     0.168 HD
HETATM   11  C1  UNL     1     -11.732 -11.920  -7.256  1.00  0.00     0.069 C 
HETATM   12  C9  UNL     1     -11.260 -13.207  -9.359  1.00  0.00     0.004 A 
HETATM   13  S3  UNL     1     -12.214 -13.684 -10.690  1.00  0.00    -0.057 SA
HETATM   14  C10 UNL     1      -9.801 -13.445  -9.075  1.00  0.00     0.058 C 
ENDBRANCH   1   7
BRANCH   5  15
HETATM   15  C5  UNL     1     -15.829  -9.339 -11.138  1.00  0.00     0.045 A 
HETATM   16  C6  UNL     1     -17.054  -9.167 -11.717  1.00  0.00     0.081 A 
HETATM   17  S1  UNL     1     -17.065  -7.495 -12.112  1.00  0.00    -0.079 SA
HETATM   18  C7  UNL     1     -15.526  -7.075 -11.535  1.00  0.00     0.113 A 
HETATM   19  C8  UNL     1     -15.039  -8.250 -11.047  1.00  0.00     0.070 A 
BRANCH  18  20
HETATM   20  N4  UNL     1     -14.882  -5.780 -11.555  1.00  0.00    -0.178 N 
HETATM   21  S2  UNL     1     -13.443  -5.680 -10.857  1.00  0.00     0.075 SA
BRANCH  20  22
HETATM   22  O2  UNL     1     -15.514  -4.753 -12.148  1.00  0.00    -0.275 OA
ATOM     23  H2  UNL     1     -16.213  -4.942 -12.764  1.00  0.00     0.246 HD
ENDBRANCH  20  22
ENDBRANCH  18  20
ENDBRANCH   5  15
TORSDOF 4
ENDMDL
MODEL 5
REMARK VINA RESULT: -7.047245793      1.197      1.975
REMARK  4 active torsions:
REMARK  status: ('A' for Active; 'I' for Inactive)
REMARK    1  A    between atoms: C3_5  and  N2_6 
REMARK       I    between atoms: N2_6  and  C4_8 
REMARK       I    between atoms: C4_8  and  N3_10 
REMARK    2  A    between atoms: N3_10  and  C5_12 
REMARK    3  A    between atoms: C7_15  and  N4_16 
REMARK    4  A    between atoms: N4_16  and  O2_17 
ROOT
HETATM    1  N2  UNL     1     -13.142 -12.524 -11.023  1.00  0.00    -0.288 N 
ATOM      2  H2  UNL     1     -13.520 -13.370 -11.449  1.00  0.00     0.172 HD
HETATM    3  C4  UNL     1     -13.602 -11.211 -11.408  1.00  0.00     0.326 C 
HETATM    4  O1  UNL     1     -13.537 -10.955 -12.615  1.00  0.00    -0.247 OA
HETATM    5  N3  UNL     1     -14.083 -10.312 -10.459  1.00  0.00    -0.308 N 
ATOM      6  H3  UNL     1     -14.105 -10.611  -9.483  1.00  0.00     0.170 HD
ENDROOT
BRANCH   1   7
HETATM    7  C3  UNL     1     -12.212 -12.575 -10.095  1.00  0.00     0.153 A 
HETATM    8  N1  UNL     1     -11.058 -13.241 -10.132  1.00  0.00    -0.339 N 
HETATM    9  C2  UNL     1     -10.260 -13.166  -9.104  1.00  0.00     0.020 A 
ATOM     10  H1  UNL     1     -10.804 -13.797 -10.949  1.00  0.00     0.168 HD
HETATM   11  C1  UNL     1      -8.920 -13.894  -9.060  1.00  0.00     0.069 C 
HETATM   12  C9  UNL     1     -10.662 -12.402  -8.039  1.00  0.00     0.004 A 
HETATM   13  S3  UNL     1     -12.176 -11.822  -8.567  1.00  0.00    -0.057 SA
HETATM   14  C10 UNL     1      -9.926 -12.160  -6.748  1.00  0.00     0.058 C 
ENDBRANCH   1   7
BRANCH   5  15
HETATM   15  C5  UNL     1     -14.556  -8.974 -10.774  1.00  0.00     0.045 A 
HETATM   16  C6  UNL     1     -13.835  -7.856 -10.465  1.00  0.00     0.081 A 
HETATM   17  S1  UNL     1     -14.811  -6.582 -11.078  1.00  0.00    -0.079 SA
HETATM   18  C7  UNL     1     -16.092  -7.504 -11.700  1.00  0.00     0.113 A 
HETATM   19  C8  UNL     1     -15.728  -8.786 -11.415  1.00  0.00     0.070 A 
BRANCH  18  20
HETATM   20  N4  UNL     1     -17.286  -7.045 -12.373  1.00  0.00    -0.178 N 
HETATM   21  S2  UNL     1     -18.462  -8.115 -12.569  1.00  0.00     0.075 SA
BRANCH  20  22
HETATM   22  O2  UNL     1     -17.343  -5.767 -12.788  1.00  0.00    -0.275 OA
ATOM     23  H2  UNL     1     -17.825  -5.138 -12.264  1.00  0.00     0.246 HD
ENDBRANCH  20  22
ENDBRANCH  18  20
ENDBRANCH   5  15
TORSDOF 4
ENDMDL
