MODEL 1
REMARK VINA RESULT: -7.902211255      0.000      0.000
REMARK  3 active torsions:
REMARK  status: ('A' for Active; 'I' for Inactive)
REMARK    1  A    between atoms: C2_2  and  C3_3 
REMARK    2  A    between atoms: C3_3  and  C4_4 
REMARK    3  A    between atoms: C10_14  and  O2_15 
ROOT
HETATM    1  C4  UNL     1       7.375  57.391  -0.015  1.00  0.00     0.019 A 
HETATM    2  S1  UNL     1       9.058  57.596  -0.031  1.00  0.00    -0.073 SA
HETATM    3  C5  UNL     1       9.520  56.060   0.546  1.00  0.00     0.091 A 
HETATM    4  N1  UNL     1      10.738  55.524   0.776  1.00  0.00    -0.315 N 
ATOM      5  H1  UNL     1      11.569  56.089   0.598  1.00  0.00     0.170 HD
HETATM    6  C6  UNL     1      10.886  54.264   1.234  1.00  0.00     0.280 A 
HETATM    7  O1  UNL     1      11.990  53.741   1.454  1.00  0.00    -0.265 OA
HETATM    8  C7  UNL     1       9.737  53.576   1.448  1.00  0.00     0.152 A 
HETATM    9  C8  UNL     1       8.463  54.113   1.218  1.00  0.00     0.065 A 
HETATM   10  C9  UNL     1       8.323  55.418   0.740  1.00  0.00     0.049 A 
HETATM   11  C10 UNL     1       7.201  56.102   0.450  1.00  0.00     0.092 A 
HETATM   12  C11 UNL     1       7.331  53.266   1.549  1.00  0.00     0.166 C 
HETATM   13  O3  UNL     1       6.339  53.770   2.075  1.00  0.00    -0.292 OA
HETATM   14  C12 UNL     1       7.410  51.816   1.245  1.00  0.00     0.122 C 
HETATM   15  C13 UNL     1       8.801  51.276   1.445  1.00  0.00     0.068 C 
HETATM   16  C14 UNL     1       8.852  50.114   2.412  1.00  0.00     0.046 C 
HETATM   17  C15 UNL     1       9.341  50.799   0.115  1.00  0.00     0.046 C 
HETATM   18  O4  UNL     1       9.707  52.248   1.924  1.00  0.00    -0.334 OA
ENDROOT
BRANCH   1  19
HETATM   19  C3  UNL     1       6.371  58.413  -0.418  1.00  0.00     0.049 C 
BRANCH  19  20
HETATM   20  C2  UNL     1       6.952  59.798  -0.363  1.00  0.00     0.001 C 
HETATM   21  C1  UNL     1       5.863  60.763   0.018  1.00  0.00     0.005 C 
ENDBRANCH  19  20
ENDBRANCH   1  19
BRANCH  11  22
HETATM   22  O2  UNL     1       5.850  55.664   0.555  1.00  0.00    -0.359 OA
ATOM     23  H2  UNL     1       5.727  54.723   0.594  1.00  0.00     0.217 HD
ENDBRANCH  11  22
TORSDOF 3
ENDMDL
MODEL 2
REMARK VINA RESULT: -7.601952658      3.154      4.921
REMARK  3 active torsions:
REMARK  status: ('A' for Active; 'I' for Inactive)
REMARK    1  A    between atoms: C2_2  and  C3_3 
REMARK    2  A    between atoms: C3_3  and  C4_4 
REMARK    3  A    between atoms: C10_14  and  O2_15 
ROOT
HETATM    1  C4  UNL     1       9.679  58.618  -1.786  1.00  0.00     0.019 A 
HETATM    2  S1  UNL     1       8.483  59.779  -1.476  1.00  0.00    -0.073 SA
HETATM    3  C5  UNL     1       7.474  58.857  -0.458  1.00  0.00     0.091 A 
HETATM    4  N1  UNL     1       6.321  59.169   0.172  1.00  0.00    -0.315 N 
ATOM      5  H1  UNL     1       5.928  60.103   0.054  1.00  0.00     0.170 HD
HETATM    6  C6  UNL     1       5.674  58.279   0.953  1.00  0.00     0.280 A 
HETATM    7  O1  UNL     1       4.613  58.533   1.546  1.00  0.00    -0.265 OA
HETATM    8  C7  UNL     1       6.254  57.058   1.060  1.00  0.00     0.152 A 
HETATM    9  C8  UNL     1       7.449  56.712   0.414  1.00  0.00     0.065 A 
HETATM   10  C9  UNL     1       8.112  57.644  -0.388  1.00  0.00     0.049 A 
HETATM   11  C10 UNL     1       9.261  57.511  -1.075  1.00  0.00     0.092 A 
HETATM   12  C11 UNL     1       7.911  55.347   0.588  1.00  0.00     0.166 C 
HETATM   13  O3  UNL     1       8.404  54.755  -0.372  1.00  0.00    -0.292 OA
HETATM   14  C12 UNL     1       7.770  54.708   1.920  1.00  0.00     0.122 C 
HETATM   15  C13 UNL     1       6.507  55.139   2.616  1.00  0.00     0.068 C 
HETATM   16  C14 UNL     1       5.623  53.977   3.012  1.00  0.00     0.046 C 
HETATM   17  C15 UNL     1       6.872  55.896   3.874  1.00  0.00     0.046 C 
HETATM   18  O4  UNL     1       5.715  56.010   1.835  1.00  0.00    -0.334 OA
ENDROOT
BRANCH   1  19
HETATM   19  C3  UNL     1      10.879  58.815  -2.644  1.00  0.00     0.049 C 
BRANCH  19  20
HETATM   20  C2  UNL     1      10.856  60.161  -3.312  1.00  0.00     0.001 C 
HETATM   21  C1  UNL     1      12.131  60.334  -4.093  1.00  0.00     0.005 C 
ENDBRANCH  19  20
ENDBRANCH   1  19
BRANCH  11  22
HETATM   22  O2  UNL     1      10.109  56.370  -1.159  1.00  0.00    -0.359 OA
ATOM     23  H2  UNL     1      10.962  56.521  -1.547  1.00  0.00     0.217 HD
ENDBRANCH  11  22
TORSDOF 3
ENDMDL
MODEL 3
REMARK VINA RESULT: -7.573814056      3.475      6.231
REMARK  3 active torsions:
REMARK  status: ('A' for Active; 'I' for Inactive)
REMARK    1  A    between atoms: C2_2  and  C3_3 
REMARK    2  A    between atoms: C3_3  and  C4_4 
REMARK    3  A    between atoms: C10_14  and  O2_15 
ROOT
HETATM    1  C4  UNL     1      10.067  58.703  -2.030  1.00  0.00     0.019 A 
HETATM    2  S1  UNL     1      10.179  57.122  -1.429  1.00  0.00    -0.073 SA
HETATM    3  C5  UNL     1       8.825  57.133  -0.393  1.00  0.00     0.091 A 
HETATM    4  N1  UNL     1       8.309  56.177   0.408  1.00  0.00    -0.315 N 
ATOM      5  H1  UNL     1       8.767  55.266   0.452  1.00  0.00     0.170 HD
HETATM    6  C6  UNL     1       7.206  56.393   1.153  1.00  0.00     0.280 A 
HETATM    7  O1  UNL     1       6.705  55.536   1.899  1.00  0.00    -0.265 OA
HETATM    8  C7  UNL     1       6.653  57.627   1.045  1.00  0.00     0.152 A 
HETATM    9  C8  UNL     1       7.173  58.635   0.221  1.00  0.00     0.065 A 
HETATM   10  C9  UNL     1       8.315  58.398  -0.549  1.00  0.00     0.049 A 
HETATM   11  C10 UNL     1       8.953  59.221  -1.400  1.00  0.00     0.092 A 
HETATM   12  C11 UNL     1       6.497  59.918   0.258  1.00  0.00     0.166 C 
HETATM   13  O3  UNL     1       7.167  60.950   0.227  1.00  0.00    -0.292 OA
HETATM   14  C12 UNL     1       5.015  59.945   0.337  1.00  0.00     0.122 C 
HETATM   15  C13 UNL     1       4.479  58.819   1.181  1.00  0.00     0.068 C 
HETATM   16  C14 UNL     1       3.607  59.297   2.321  1.00  0.00     0.046 C 
HETATM   17  C15 UNL     1       3.648  57.903   0.311  1.00  0.00     0.046 C 
HETATM   18  O4  UNL     1       5.497  58.023   1.750  1.00  0.00    -0.334 OA
ENDROOT
BRANCH   1  19
HETATM   19  C3  UNL     1      10.997  59.328  -3.010  1.00  0.00     0.049 C 
BRANCH  19  20
HETATM   20  C2  UNL     1      12.392  58.789  -2.857  1.00  0.00     0.001 C 
HETATM   21  C1  UNL     1      13.361  59.938  -2.907  1.00  0.00     0.005 C 
ENDBRANCH  19  20
ENDBRANCH   1  19
BRANCH  11  22
HETATM   22  O2  UNL     1       8.623  60.564  -1.739  1.00  0.00    -0.359 OA
ATOM     23  H2  UNL     1       8.651  60.771  -2.666  1.00  0.00     0.217 HD
ENDBRANCH  11  22
TORSDOF 3
ENDMDL
MODEL 4
REMARK VINA RESULT: -7.512174908      3.890      5.578
REMARK  3 active torsions:
REMARK  status: ('A' for Active; 'I' for Inactive)
REMARK    1  A    between atoms: C2_2  and  C3_3 
REMARK    2  A    between atoms: C3_3  and  C4_4 
REMARK    3  A    between atoms: C10_14  and  O2_15 
ROOT
HETATM    1  C4  UNL     1      11.322  59.055  -3.146  1.00  0.00     0.019 A 
HETATM    2  S1  UNL     1      11.961  57.517  -2.829  1.00  0.00    -0.073 SA
HETATM    3  C5  UNL     1      10.857  57.011  -1.633  1.00  0.00     0.091 A 
HETATM    4  N1  UNL     1      10.767  55.858  -0.935  1.00  0.00    -0.315 N 
ATOM      5  H1  UNL     1      11.455  55.123  -1.100  1.00  0.00     0.170 HD
HETATM    6  C6  UNL     1       9.794  55.652  -0.024  1.00  0.00     0.280 A 
HETATM    7  O1  UNL     1       9.682  54.606   0.634  1.00  0.00    -0.265 OA
HETATM    8  C7  UNL     1       8.918  56.674   0.144  1.00  0.00     0.152 A 
HETATM    9  C8  UNL     1       8.993  57.879  -0.569  1.00  0.00     0.065 A 
HETATM   10  C9  UNL     1      10.004  58.079  -1.513  1.00  0.00     0.049 A 
HETATM   11  C10 UNL     1      10.237  59.146  -2.297  1.00  0.00     0.092 A 
HETATM   12  C11 UNL     1       8.011  58.895  -0.235  1.00  0.00     0.166 C 
HETATM   13  O3  UNL     1       8.361  60.074  -0.188  1.00  0.00    -0.292 OA
HETATM   14  C12 UNL     1       6.615  58.476   0.045  1.00  0.00     0.122 C 
HETATM   15  C13 UNL     1       6.560  57.153   0.760  1.00  0.00     0.068 C 
HETATM   16  C14 UNL     1       5.803  57.217   2.068  1.00  0.00     0.046 C 
HETATM   17  C15 UNL     1       5.870  56.141  -0.128  1.00  0.00     0.046 C 
HETATM   18  O4  UNL     1       7.839  56.629   1.052  1.00  0.00    -0.334 OA
ENDROOT
BRANCH   1  19
HETATM   19  C3  UNL     1      11.862  60.035  -4.127  1.00  0.00     0.049 C 
BRANCH  19  20
HETATM   20  C2  UNL     1      13.357  59.925  -4.241  1.00  0.00     0.001 C 
HETATM   21  C1  UNL     1      13.980  60.527  -3.011  1.00  0.00     0.005 C 
ENDBRANCH  19  20
ENDBRANCH   1  19
BRANCH  11  22
HETATM   22  O2  UNL     1       9.501  60.364  -2.368  1.00  0.00    -0.359 OA
ATOM     23  H2  UNL     1       8.786  60.375  -2.992  1.00  0.00     0.217 HD
ENDBRANCH  11  22
TORSDOF 3
ENDMDL
MODEL 5
REMARK VINA RESULT: -7.446946492      1.809      2.351
REMARK  3 active torsions:
REMARK  status: ('A' for Active; 'I' for Inactive)
REMARK    1  A    between atoms: C2_2  and  C3_3 
REMARK    2  A    between atoms: C3_3  and  C4_4 
REMARK    3  A    between atoms: C10_14  and  O2_15 
ROOT
HETATM    1  C4  UNL     1       7.701  58.440  -0.603  1.00  0.00     0.019 A 
HETATM    2  S1  UNL     1       9.076  57.565  -1.071  1.00  0.00    -0.073 SA
HETATM    3  C5  UNL     1       8.744  56.097  -0.270  1.00  0.00     0.091 A 
HETATM    4  N1  UNL     1       9.431  54.936  -0.218  1.00  0.00    -0.315 N 
ATOM      5  H1  UNL     1      10.316  54.861  -0.720  1.00  0.00     0.170 HD
HETATM    6  C6  UNL     1       8.981  53.874   0.480  1.00  0.00     0.280 A 
HETATM    7  O1  UNL     1       9.586  52.792   0.549  1.00  0.00    -0.265 OA
HETATM    8  C7  UNL     1       7.799  54.048   1.123  1.00  0.00     0.152 A 
HETATM    9  C8  UNL     1       7.070  55.245   1.083  1.00  0.00     0.065 A 
HETATM   10  C9  UNL     1       7.545  56.338   0.353  1.00  0.00     0.049 A 
HETATM   11  C10 UNL     1       6.994  57.553   0.185  1.00  0.00     0.092 A 
HETATM   12  C11 UNL     1       5.850  55.290   1.869  1.00  0.00     0.166 C 
HETATM   13  O3  UNL     1       5.568  56.320   2.480  1.00  0.00    -0.292 OA
HETATM   14  C12 UNL     1       4.982  54.087   1.912  1.00  0.00     0.122 C 
HETATM   15  C13 UNL     1       5.787  52.815   1.896  1.00  0.00     0.068 C 
HETATM   16  C14 UNL     1       5.491  51.911   3.072  1.00  0.00     0.046 C 
HETATM   17  C15 UNL     1       5.474  52.049   0.630  1.00  0.00     0.046 C 
HETATM   18  O4  UNL     1       7.181  53.043   1.896  1.00  0.00    -0.334 OA
ENDROOT
BRANCH   1  19
HETATM   19  C3  UNL     1       7.393  59.844  -0.988  1.00  0.00     0.049 C 
BRANCH  19  20
HETATM   20  C2  UNL     1       7.225  60.716   0.225  1.00  0.00     0.001 C 
HETATM   21  C1  UNL     1       5.780  61.121   0.332  1.00  0.00     0.005 C 
ENDBRANCH  19  20
ENDBRANCH   1  19
BRANCH  11  22
HETATM   22  O2  UNL     1       5.766  58.044   0.713  1.00  0.00    -0.359 OA
ATOM     23  H2  UNL     1       5.370  57.511   1.392  1.00  0.00     0.217 HD
ENDBRANCH  11  22
TORSDOF 3
ENDMDL
