MODEL 1
REMARK VINA RESULT: -7.008721362      0.000      0.000
REMARK  4 active torsions:
REMARK  status: ('A' for Active; 'I' for Inactive)
REMARK    1  A    between atoms: C2_2  and  O1_3 
REMARK    2  A    between atoms: O1_3  and  C3_4 
REMARK    3  A    between atoms: C3_4  and  C4_6 
REMARK    4  A    between atoms: C11_17  and  O3_18 
ROOT
HETATM    1  C4  UNL     1       6.840  57.468   0.877  1.00  0.00     0.151 C 
HETATM    2  C5  UNL     1       5.849  57.240   1.954  1.00  0.00     0.055 C 
HETATM    3  N1  UNL     1       4.740  57.772   2.237  1.00  0.00    -0.396 N 
ATOM      4  H11 UNL     1       4.057  57.615   2.979  1.00  0.00     0.156 HD
ATOM      5  H12 UNL     1       4.323  58.529   1.694  1.00  0.00     0.156 HD
HETATM    6  S1  UNL     1       6.583  55.907   2.910  1.00  0.00    -0.110 SA
HETATM    7  C6  UNL     1       7.773  55.362   1.605  1.00  0.00     0.074 C 
HETATM    8  C7  UNL     1       7.282  56.089   0.391  1.00  0.00    -0.012 C 
HETATM    9  C8  UNL     1       8.556  56.376  -0.416  1.00  0.00     0.018 C 
HETATM   10  C9  UNL     1       6.245  55.410  -0.397  1.00  0.00     0.014 C 
HETATM   11  C10 UNL     1       5.976  53.985  -0.156  1.00  0.00     0.039 C 
HETATM   12  C11 UNL     1       6.400  53.406   1.143  1.00  0.00     0.066 C 
HETATM   13  C12 UNL     1       6.684  51.910   1.014  1.00  0.00     0.038 C 
HETATM   14  C13 UNL     1       8.172  51.738   0.956  1.00  0.00     0.004 C 
HETATM   15  C14 UNL     1       8.666  53.173   0.681  1.00  0.00     0.013 C 
HETATM   16  C15 UNL     1       7.755  53.909   1.600  1.00  0.00     0.001 C 
HETATM   17  C16 UNL     1       8.036  53.410   3.004  1.00  0.00     0.019 C 
ENDROOT
BRANCH   1  18
HETATM   18  C3  UNL     1       6.240  58.299  -0.141  1.00  0.00     0.270 C 
HETATM   19  O2  UNL     1       5.080  58.216  -0.621  1.00  0.00    -0.264 OA
BRANCH  18  20
HETATM   20  O1  UNL     1       7.014  59.325  -0.679  1.00  0.00    -0.321 OA
BRANCH  20  21
HETATM   21  C2  UNL     1       7.197  60.558  -0.007  1.00  0.00     0.174 C 
HETATM   22  C1  UNL     1       5.815  61.047   0.391  1.00  0.00     0.034 C 
ENDBRANCH  20  21
ENDBRANCH  18  20
ENDBRANCH   1  18
BRANCH  12  23
HETATM   23  O3  UNL     1       5.431  53.583   2.101  1.00  0.00    -0.389 OA
ATOM     24  H3  UNL     1       5.428  52.862   2.719  1.00  0.00     0.210 HD
ENDBRANCH  12  23
TORSDOF 4
ENDMDL
MODEL 2
REMARK VINA RESULT: -6.850459336      2.253      3.061
REMARK  4 active torsions:
REMARK  status: ('A' for Active; 'I' for Inactive)
REMARK    1  A    between atoms: C2_2  and  O1_3 
REMARK    2  A    between atoms: O1_3  and  C3_4 
REMARK    3  A    between atoms: C3_4  and  C4_6 
REMARK    4  A    between atoms: C11_17  and  O3_18 
ROOT
HETATM    1  C4  UNL     1       8.604  55.976  -0.214  1.00  0.00     0.151 C 
HETATM    2  C5  UNL     1       9.743  55.374   0.516  1.00  0.00     0.055 C 
HETATM    3  N1  UNL     1      10.804  55.848   1.010  1.00  0.00    -0.396 N 
ATOM      4  H11 UNL     1      11.589  55.433   1.512  1.00  0.00     0.156 HD
ATOM      5  H12 UNL     1      11.053  56.837   0.967  1.00  0.00     0.156 HD
HETATM    6  S1  UNL     1       9.305  53.632   0.592  1.00  0.00    -0.110 SA
HETATM    7  C6  UNL     1       7.511  53.865   0.214  1.00  0.00     0.074 C 
HETATM    8  C7  UNL     1       7.336  55.346   0.359  1.00  0.00    -0.012 C 
HETATM    9  C8  UNL     1       6.254  55.699  -0.671  1.00  0.00     0.018 C 
HETATM   10  C9  UNL     1       7.023  55.834   1.709  1.00  0.00     0.014 C 
HETATM   11  C10 UNL     1       6.603  54.875   2.741  1.00  0.00     0.039 C 
HETATM   12  C11 UNL     1       6.946  53.444   2.544  1.00  0.00     0.066 C 
HETATM   13  C12 UNL     1       5.942  52.533   3.250  1.00  0.00     0.038 C 
HETATM   14  C13 UNL     1       5.011  51.995   2.206  1.00  0.00     0.004 C 
HETATM   15  C14 UNL     1       5.292  52.913   0.999  1.00  0.00     0.013 C 
HETATM   16  C15 UNL     1       6.776  52.988   1.109  1.00  0.00     0.001 C 
HETATM   17  C16 UNL     1       7.307  51.576   0.957  1.00  0.00     0.019 C 
ENDROOT
BRANCH   1  18
HETATM   18  C3  UNL     1       8.671  57.413  -0.079  1.00  0.00     0.270 C 
HETATM   19  O2  UNL     1       9.457  58.086   0.637  1.00  0.00    -0.264 OA
BRANCH  18  20
HETATM   20  O1  UNL     1       7.770  58.176  -0.820  1.00  0.00    -0.321 OA
BRANCH  20  21
HETATM   21  C2  UNL     1       7.341  59.456  -0.392  1.00  0.00     0.174 C 
HETATM   22  C1  UNL     1       5.984  59.264   0.263  1.00  0.00     0.034 C 
ENDBRANCH  20  21
ENDBRANCH  18  20
ENDBRANCH   1  18
BRANCH  12  23
HETATM   23  O3  UNL     1       8.201  53.168   3.031  1.00  0.00    -0.389 OA
ATOM     24  H3  UNL     1       8.517  52.333   2.704  1.00  0.00     0.210 HD
ENDBRANCH  12  23
TORSDOF 4
ENDMDL
MODEL 3
REMARK VINA RESULT: -6.706492503      2.750      5.981
REMARK  4 active torsions:
REMARK  status: ('A' for Active; 'I' for Inactive)
REMARK    1  A    between atoms: C2_2  and  O1_3 
REMARK    2  A    between atoms: O1_3  and  C3_4 
REMARK    3  A    between atoms: C3_4  and  C4_6 
REMARK    4  A    between atoms: C11_17  and  O3_18 
ROOT
HETATM    1  C4  UNL     1       6.289  52.723   2.304  1.00  0.00     0.151 C 
HETATM    2  C5  UNL     1       7.565  52.194   1.767  1.00  0.00     0.055 C 
HETATM    3  N1  UNL     1       7.907  51.077   1.291  1.00  0.00    -0.396 N 
ATOM      4  H11 UNL     1       8.786  50.713   0.921  1.00  0.00     0.156 HD
ATOM      5  H12 UNL     1       7.272  50.284   1.200  1.00  0.00     0.156 HD
HETATM    6  S1  UNL     1       8.685  53.591   1.927  1.00  0.00    -0.110 SA
HETATM    7  C6  UNL     1       7.370  54.875   2.123  1.00  0.00     0.074 C 
HETATM    8  C7  UNL     1       6.128  54.132   1.739  1.00  0.00    -0.012 C 
HETATM    9  C8  UNL     1       5.031  54.754   2.615  1.00  0.00     0.018 C 
HETATM   10  C9  UNL     1       5.788  54.131   0.310  1.00  0.00     0.014 C 
HETATM   11  C10 UNL     1       6.466  55.073  -0.592  1.00  0.00     0.039 C 
HETATM   12  C11 UNL     1       7.760  55.650  -0.151  1.00  0.00     0.066 C 
HETATM   13  C12 UNL     1       7.999  57.021  -0.784  1.00  0.00     0.038 C 
HETATM   14  C13 UNL     1       7.690  58.056   0.254  1.00  0.00     0.004 C 
HETATM   15  C14 UNL     1       6.931  57.245   1.324  1.00  0.00     0.013 C 
HETATM   16  C15 UNL     1       7.774  56.016   1.320  1.00  0.00     0.001 C 
HETATM   17  C16 UNL     1       9.173  56.433   1.728  1.00  0.00     0.019 C 
ENDROOT
BRANCH   1  18
HETATM   18  C3  UNL     1       5.224  51.811   1.956  1.00  0.00     0.270 C 
HETATM   19  O2  UNL     1       4.745  51.582   0.815  1.00  0.00    -0.264 OA
BRANCH  18  20
HETATM   20  O1  UNL     1       4.633  51.082   2.986  1.00  0.00    -0.321 OA
BRANCH  20  21
HETATM   21  C2  UNL     1       5.400  50.451   3.995  1.00  0.00     0.174 C 
HETATM   22  C1  UNL     1       4.569  49.287   4.510  1.00  0.00     0.034 C 
ENDBRANCH  20  21
ENDBRANCH  18  20
ENDBRANCH   1  18
BRANCH  12  23
HETATM   23  O3  UNL     1       8.808  54.827  -0.490  1.00  0.00    -0.389 OA
ATOM     24  H3  UNL     1       9.641  55.246  -0.314  1.00  0.00     0.210 HD
ENDBRANCH  12  23
TORSDOF 4
ENDMDL
MODEL 4
REMARK VINA RESULT: -6.463024643      2.361      3.060
REMARK  4 active torsions:
REMARK  status: ('A' for Active; 'I' for Inactive)
REMARK    1  A    between atoms: C2_2  and  O1_3 
REMARK    2  A    between atoms: O1_3  and  C3_4 
REMARK    3  A    between atoms: C3_4  and  C4_6 
REMARK    4  A    between atoms: C11_17  and  O3_18 
ROOT
HETATM    1  C4  UNL     1       8.332  56.001  -0.136  1.00  0.00     0.151 C 
HETATM    2  C5  UNL     1       9.488  55.555   0.676  1.00  0.00     0.055 C 
HETATM    3  N1  UNL     1      10.442  56.166   1.233  1.00  0.00    -0.396 N 
ATOM      4  H11 UNL     1      11.239  55.860   1.791  1.00  0.00     0.156 HD
ATOM      5  H12 UNL     1      10.562  57.179   1.195  1.00  0.00     0.156 HD
HETATM    6  S1  UNL     1       9.278  53.771   0.743  1.00  0.00    -0.110 SA
HETATM    7  C6  UNL     1       7.498  53.765   0.244  1.00  0.00     0.074 C 
HETATM    8  C7  UNL     1       7.122  55.211   0.359  1.00  0.00    -0.012 C 
HETATM    9  C8  UNL     1       6.075  55.416  -0.745  1.00  0.00     0.018 C 
HETATM   10  C9  UNL     1       6.657  55.658   1.679  1.00  0.00     0.014 C 
HETATM   11  C10 UNL     1       6.297  54.655   2.692  1.00  0.00     0.039 C 
HETATM   12  C11 UNL     1       6.837  53.281   2.536  1.00  0.00     0.066 C 
HETATM   13  C12 UNL     1       5.916  52.249   3.185  1.00  0.00     0.038 C 
HETATM   14  C13 UNL     1       5.135  51.589   2.088  1.00  0.00     0.004 C 
HETATM   15  C14 UNL     1       5.375  52.532   0.891  1.00  0.00     0.013 C 
HETATM   16  C15 UNL     1       6.825  52.802   1.098  1.00  0.00     0.001 C 
HETATM   17  C16 UNL     1       7.546  51.472   0.999  1.00  0.00     0.019 C 
ENDROOT
BRANCH   1  18
HETATM   18  C3  UNL     1       8.201  57.434  -0.014  1.00  0.00     0.270 C 
HETATM   19  O2  UNL     1       7.187  58.091   0.336  1.00  0.00    -0.264 OA
BRANCH  18  20
HETATM   20  O1  UNL     1       9.316  58.213  -0.315  1.00  0.00    -0.321 OA
BRANCH  20  21
HETATM   21  C2  UNL     1       9.678  58.523  -1.649  1.00  0.00     0.174 C 
HETATM   22  C1  UNL     1       9.111  59.901  -1.946  1.00  0.00     0.034 C 
ENDBRANCH  20  21
ENDBRANCH  18  20
ENDBRANCH   1  18
BRANCH  12  23
HETATM   23  O3  UNL     1       8.082  53.174   3.108  1.00  0.00    -0.389 OA
ATOM     24  H3  UNL     1       8.173  52.350   3.573  1.00  0.00     0.210 HD
ENDBRANCH  12  23
TORSDOF 4
ENDMDL
MODEL 5
REMARK VINA RESULT: -6.459308515      2.368      6.001
REMARK  4 active torsions:
REMARK  status: ('A' for Active; 'I' for Inactive)
REMARK    1  A    between atoms: C2_2  and  O1_3 
REMARK    2  A    between atoms: O1_3  and  C3_4 
REMARK    3  A    between atoms: C3_4  and  C4_6 
REMARK    4  A    between atoms: C11_17  and  O3_18 
ROOT
HETATM    1  C4  UNL     1       6.821  53.061   2.299  1.00  0.00     0.151 C 
HETATM    2  C5  UNL     1       8.149  53.716   2.334  1.00  0.00     0.055 C 
HETATM    3  N1  UNL     1       9.325  53.300   2.142  1.00  0.00    -0.396 N 
ATOM      4  H11 UNL     1      10.240  53.752   2.166  1.00  0.00     0.156 HD
ATOM      5  H12 UNL     1       9.550  52.333   1.907  1.00  0.00     0.156 HD
HETATM    6  S1  UNL     1       7.754  55.420   2.747  1.00  0.00    -0.110 SA
HETATM    7  C6  UNL     1       5.962  55.318   2.302  1.00  0.00     0.074 C 
HETATM    8  C7  UNL     1       5.882  54.016   1.566  1.00  0.00    -0.012 C 
HETATM    9  C8  UNL     1       4.482  53.481   1.900  1.00  0.00     0.018 C 
HETATM   10  C9  UNL     1       6.145  54.070   0.122  1.00  0.00     0.014 C 
HETATM   11  C10 UNL     1       6.162  55.372  -0.559  1.00  0.00     0.039 C 
HETATM   12  C11 UNL     1       6.376  56.587   0.267  1.00  0.00     0.066 C 
HETATM   13  C12 UNL     1       5.729  57.813  -0.376  1.00  0.00     0.038 C 
HETATM   14  C13 UNL     1       4.448  58.082   0.356  1.00  0.00     0.004 C 
HETATM   15  C14 UNL     1       4.233  56.775   1.148  1.00  0.00     0.013 C 
HETATM   16  C15 UNL     1       5.637  56.541   1.588  1.00  0.00     0.001 C 
HETATM   17  C16 UNL     1       6.042  57.729   2.440  1.00  0.00     0.019 C 
ENDROOT
BRANCH   1  18
HETATM   18  C3  UNL     1       6.958  51.762   1.680  1.00  0.00     0.270 C 
HETATM   19  O2  UNL     1       7.663  51.451   0.685  1.00  0.00    -0.264 OA
BRANCH  18  20
HETATM   20  O1  UNL     1       6.234  50.705   2.226  1.00  0.00    -0.321 OA
BRANCH  20  21
HETATM   21  C2  UNL     1       6.547  50.157   3.494  1.00  0.00     0.174 C 
HETATM   22  C1  UNL     1       5.253  50.136   4.291  1.00  0.00     0.034 C 
ENDBRANCH  20  21
ENDBRANCH  18  20
ENDBRANCH   1  18
BRANCH  12  23
HETATM   23  O3  UNL     1       7.717  56.840   0.431  1.00  0.00    -0.389 OA
ATOM     24  H3  UNL     1       7.880  57.293   1.250  1.00  0.00     0.210 HD
ENDBRANCH  12  23
TORSDOF 4
ENDMDL
