MODEL 1
REMARK VINA RESULT: -9.214193829      0.000      0.000
REMARK  3 active torsions:
REMARK  status: ('A' for Active; 'I' for Inactive)
REMARK    1  A    between atoms: C6_6  and  N1_7 
REMARK       I    between atoms: N1_7  and  C7_9 
REMARK    2  A    between atoms: C7_9  and  C8_11 
REMARK    3  A    between atoms: N2_15  and  C10_16 
ROOT
HETATM    1  C8  UNL     1       7.328  54.091   1.771  1.00  0.00     0.188 A 
HETATM    2  O2  UNL     1       8.151  53.059   1.835  1.00  0.00    -0.275 OA
HETATM    3  C9  UNL     1       7.512  51.980   2.201  1.00  0.00     0.228 A 
HETATM    4  S1  UNL     1       8.209  50.509   2.388  1.00  0.00    -0.032 SA
HETATM    5  N2  UNL     1       6.210  52.273   2.395  1.00  0.00    -0.268 N 
HETATM    6  C16 UNL     1       6.098  53.579   2.128  1.00  0.00     0.166 A 
HETATM    7  N3  UNL     1       4.894  54.306   2.207  1.00  0.00    -0.079 NA
ENDROOT
BRANCH   1   8
HETATM    8  C7  UNL     1       7.675  55.479   1.395  1.00  0.00     0.283 C 
HETATM    9  N1  UNL     1       6.938  56.111   0.408  1.00  0.00    -0.321 N 
ATOM     10  H1  UNL     1       6.183  55.573  -0.019  1.00  0.00     0.169 HD
HETATM   11  O1  UNL     1       8.618  55.991   1.999  1.00  0.00    -0.265 OA
BRANCH   9  12
HETATM   12  C6  UNL     1       7.132  57.432  -0.067  1.00  0.00     0.035 A 
HETATM   13  C5  UNL     1       8.164  57.881  -0.840  1.00  0.00     0.029 A 
HETATM   14  C4  UNL     1       8.277  59.206  -1.284  1.00  0.00     0.003 A 
HETATM   15  C3  UNL     1       7.326  60.123  -0.948  1.00  0.00     0.007 A 
HETATM   16  C2  UNL     1       6.272  59.708  -0.169  1.00  0.00    -0.060 A 
HETATM   17  C1  UNL     1       5.196  60.680   0.231  1.00  0.00     0.048 C 
HETATM   18  C17 UNL     1       6.171  58.411   0.260  1.00  0.00     0.036 A 
ENDBRANCH   9  12
ENDBRANCH   1   8
BRANCH   5  19
HETATM   19  C10 UNL     1       5.170  51.388   2.798  1.00  0.00     0.043 A 
HETATM   20  C11 UNL     1       4.020  51.253   2.040  1.00  0.00     0.030 A 
HETATM   21  C12 UNL     1       3.008  50.401   2.419  1.00  0.00     0.002 A 
HETATM   22  C13 UNL     1       3.101  49.645   3.572  1.00  0.00     0.000 A 
HETATM   23  C14 UNL     1       4.237  49.766   4.341  1.00  0.00     0.002 A 
HETATM   24  C15 UNL     1       5.244  50.626   3.947  1.00  0.00     0.030 A 
ENDBRANCH   5  19
TORSDOF 3
ENDMDL
MODEL 2
REMARK VINA RESULT: -9.129459438      3.569      5.337
REMARK  3 active torsions:
REMARK  status: ('A' for Active; 'I' for Inactive)
REMARK    1  A    between atoms: C6_6  and  N1_7 
REMARK       I    between atoms: N1_7  and  C7_9 
REMARK    2  A    between atoms: C7_9  and  C8_11 
REMARK    3  A    between atoms: N2_15  and  C10_16 
ROOT
HETATM    1  C8  UNL     1       3.804  50.329   3.292  1.00  0.00     0.188 A 
HETATM    2  O2  UNL     1       3.969  49.728   4.457  1.00  0.00    -0.275 OA
HETATM    3  C9  UNL     1       3.000  48.882   4.683  1.00  0.00     0.228 A 
HETATM    4  S1  UNL     1       2.873  47.957   6.029  1.00  0.00    -0.032 SA
HETATM    5  N2  UNL     1       2.138  48.897   3.645  1.00  0.00    -0.268 N 
HETATM    6  C16 UNL     1       2.639  49.793   2.785  1.00  0.00     0.166 A 
HETATM    7  N3  UNL     1       2.046  50.125   1.551  1.00  0.00    -0.079 NA
ENDROOT
BRANCH   1   8
HETATM    8  C7  UNL     1       4.689  51.348   2.687  1.00  0.00     0.283 C 
HETATM    9  N1  UNL     1       4.120  52.435   2.045  1.00  0.00    -0.321 N 
ATOM     10  H1  UNL     1       3.101  52.473   2.019  1.00  0.00     0.169 HD
HETATM   11  O1  UNL     1       5.901  51.158   2.798  1.00  0.00    -0.265 OA
BRANCH   9  12
HETATM   12  C6  UNL     1       4.818  53.499   1.421  1.00  0.00     0.035 A 
HETATM   13  C5  UNL     1       5.772  53.393   0.451  1.00  0.00     0.029 A 
HETATM   14  C4  UNL     1       6.407  54.500  -0.132  1.00  0.00     0.003 A 
HETATM   15  C3  UNL     1       6.081  55.763   0.265  1.00  0.00     0.007 A 
HETATM   16  C2  UNL     1       5.123  55.908   1.240  1.00  0.00    -0.060 A 
HETATM   17  C1  UNL     1       4.726  57.280   1.715  1.00  0.00     0.048 C 
HETATM   18  C17 UNL     1       4.509  54.820   1.803  1.00  0.00     0.036 A 
ENDBRANCH   9  12
ENDBRANCH   1   8
BRANCH   5  19
HETATM   19  C10 UNL     1       0.950  48.129   3.489  1.00  0.00     0.043 A 
HETATM   20  C11 UNL     1       1.000  46.747   3.450  1.00  0.00     0.030 A 
HETATM   21  C12 UNL     1      -0.141  45.992   3.300  1.00  0.00     0.002 A 
HETATM   22  C13 UNL     1      -1.383  46.587   3.182  1.00  0.00     0.000 A 
HETATM   23  C14 UNL     1      -1.454  47.962   3.217  1.00  0.00     0.002 A 
HETATM   24  C15 UNL     1      -0.298  48.704   3.368  1.00  0.00     0.030 A 
ENDBRANCH   5  19
TORSDOF 3
ENDMDL
MODEL 3
REMARK VINA RESULT: -9.068887904      0.467      1.405
REMARK  3 active torsions:
REMARK  status: ('A' for Active; 'I' for Inactive)
REMARK    1  A    between atoms: C6_6  and  N1_7 
REMARK       I    between atoms: N1_7  and  C7_9 
REMARK    2  A    between atoms: C7_9  and  C8_11 
REMARK    3  A    between atoms: N2_15  and  C10_16 
ROOT
HETATM    1  C8  UNL     1       7.075  54.249   1.787  1.00  0.00     0.188 A 
HETATM    2  O2  UNL     1       7.956  53.269   1.890  1.00  0.00    -0.275 OA
HETATM    3  C9  UNL     1       7.374  52.159   2.256  1.00  0.00     0.228 A 
HETATM    4  S1  UNL     1       8.153  50.736   2.485  1.00  0.00    -0.032 SA
HETATM    5  N2  UNL     1       6.051  52.376   2.413  1.00  0.00    -0.268 N 
HETATM    6  C16 UNL     1       5.869  53.669   2.121  1.00  0.00     0.166 A 
HETATM    7  N3  UNL     1       4.622  54.322   2.157  1.00  0.00    -0.079 NA
ENDROOT
BRANCH   1   8
HETATM    8  C7  UNL     1       7.348  55.649   1.397  1.00  0.00     0.283 C 
HETATM    9  N1  UNL     1       6.369  56.362   0.727  1.00  0.00    -0.321 N 
ATOM     10  H1  UNL     1       5.496  55.872   0.529  1.00  0.00     0.169 HD
HETATM   11  O1  UNL     1       8.454  56.098   1.703  1.00  0.00    -0.265 OA
BRANCH   9  12
HETATM   12  C6  UNL     1       6.463  57.706   0.288  1.00  0.00     0.035 A 
HETATM   13  C5  UNL     1       5.600  58.724   0.577  1.00  0.00     0.029 A 
HETATM   14  C4  UNL     1       5.773  60.037   0.116  1.00  0.00     0.003 A 
HETATM   15  C3  UNL     1       6.847  60.353  -0.663  1.00  0.00     0.007 A 
HETATM   16  C2  UNL     1       7.737  59.353  -0.975  1.00  0.00    -0.060 A 
HETATM   17  C1  UNL     1       8.938  59.648  -1.832  1.00  0.00     0.048 C 
HETATM   18  C17 UNL     1       7.559  58.073  -0.520  1.00  0.00     0.036 A 
ENDBRANCH   9  12
ENDBRANCH   1   8
BRANCH   5  19
HETATM   19  C10 UNL     1       5.056  51.435   2.803  1.00  0.00     0.043 A 
HETATM   20  C11 UNL     1       3.919  51.248   2.038  1.00  0.00     0.030 A 
HETATM   21  C12 UNL     1       2.949  50.342   2.405  1.00  0.00     0.002 A 
HETATM   22  C13 UNL     1       3.076  49.583   3.553  1.00  0.00     0.000 A 
HETATM   23  C14 UNL     1       4.200  49.756   4.329  1.00  0.00     0.002 A 
HETATM   24  C15 UNL     1       5.163  50.669   3.946  1.00  0.00     0.030 A 
ENDBRANCH   5  19
TORSDOF 3
ENDMDL
MODEL 4
REMARK VINA RESULT: -8.483197515      0.872      1.831
REMARK  3 active torsions:
REMARK  status: ('A' for Active; 'I' for Inactive)
REMARK    1  A    between atoms: C6_6  and  N1_7 
REMARK       I    between atoms: N1_7  and  C7_9 
REMARK    2  A    between atoms: C7_9  and  C8_11 
REMARK    3  A    between atoms: N2_15  and  C10_16 
ROOT
HETATM    1  C8  UNL     1       7.619  54.146   1.508  1.00  0.00     0.188 A 
HETATM    2  O2  UNL     1       8.374  53.090   1.756  1.00  0.00    -0.275 OA
HETATM    3  C9  UNL     1       7.640  52.068   2.103  1.00  0.00     0.228 A 
HETATM    4  S1  UNL     1       8.232  50.589   2.485  1.00  0.00    -0.032 SA
HETATM    5  N2  UNL     1       6.339  52.425   2.096  1.00  0.00    -0.268 N 
HETATM    6  C16 UNL     1       6.329  53.711   1.726  1.00  0.00     0.166 A 
HETATM    7  N3  UNL     1       5.162  54.488   1.588  1.00  0.00    -0.079 NA
ENDROOT
BRANCH   1   8
HETATM    8  C7  UNL     1       8.082  55.487   1.090  1.00  0.00     0.283 C 
HETATM    9  N1  UNL     1       7.508  56.077  -0.024  1.00  0.00    -0.321 N 
ATOM     10  H1  UNL     1       6.787  55.543  -0.509  1.00  0.00     0.169 HD
HETATM   11  O1  UNL     1       8.966  56.002   1.775  1.00  0.00    -0.265 OA
BRANCH   9  12
HETATM   12  C6  UNL     1       7.828  57.352  -0.556  1.00  0.00     0.035 A 
HETATM   13  C5  UNL     1       7.131  58.512  -0.376  1.00  0.00     0.029 A 
HETATM   14  C4  UNL     1       7.524  59.741  -0.924  1.00  0.00     0.003 A 
HETATM   15  C3  UNL     1       8.655  59.822  -1.681  1.00  0.00     0.007 A 
HETATM   16  C2  UNL     1       9.382  58.674  -1.885  1.00  0.00    -0.060 A 
HETATM   17  C1  UNL     1      10.638  58.708  -2.713  1.00  0.00     0.048 C 
HETATM   18  C17 UNL     1       8.990  57.477  -1.345  1.00  0.00     0.036 A 
ENDBRANCH   9  12
ENDBRANCH   1   8
BRANCH   5  19
HETATM   19  C10 UNL     1       5.212  51.614   2.410  1.00  0.00     0.043 A 
HETATM   20  C11 UNL     1       4.099  51.596   1.589  1.00  0.00     0.030 A 
HETATM   21  C12 UNL     1       3.003  50.816   1.882  1.00  0.00     0.002 A 
HETATM   22  C13 UNL     1       2.973  50.019   3.011  1.00  0.00     0.000 A 
HETATM   23  C14 UNL     1       4.071  50.024   3.843  1.00  0.00     0.002 A 
HETATM   24  C15 UNL     1       5.162  50.812   3.533  1.00  0.00     0.030 A 
ENDBRANCH   5  19
TORSDOF 3
ENDMDL
MODEL 5
REMARK VINA RESULT: -8.452204405      1.288      2.464
REMARK  3 active torsions:
REMARK  status: ('A' for Active; 'I' for Inactive)
REMARK    1  A    between atoms: C6_6  and  N1_7 
REMARK       I    between atoms: N1_7  and  C7_9 
REMARK    2  A    between atoms: C7_9  and  C8_11 
REMARK    3  A    between atoms: N2_15  and  C10_16 
ROOT
HETATM    1  C8  UNL     1       7.803  54.332   1.233  1.00  0.00     0.188 A 
HETATM    2  O2  UNL     1       8.503  53.270   1.591  1.00  0.00    -0.275 OA
HETATM    3  C9  UNL     1       7.712  52.278   1.905  1.00  0.00     0.228 A 
HETATM    4  S1  UNL     1       8.227  50.803   2.397  1.00  0.00    -0.032 SA
HETATM    5  N2  UNL     1       6.428  52.665   1.762  1.00  0.00    -0.268 N 
HETATM    6  C16 UNL     1       6.486  53.935   1.345  1.00  0.00     0.166 A 
HETATM    7  N3  UNL     1       5.358  54.732   1.068  1.00  0.00    -0.079 NA
ENDROOT
BRANCH   1   8
HETATM    8  C7  UNL     1       8.337  55.644   0.810  1.00  0.00     0.283 C 
HETATM    9  N1  UNL     1       8.022  56.121  -0.451  1.00  0.00    -0.321 N 
ATOM     10  H1  UNL     1       7.430  55.529  -1.034  1.00  0.00     0.169 HD
HETATM   11  O1  UNL     1       9.043  56.238   1.626  1.00  0.00    -0.265 OA
BRANCH   9  12
HETATM   12  C6  UNL     1       8.443  57.354  -1.010  1.00  0.00     0.035 A 
HETATM   13  C5  UNL     1       7.801  58.556  -0.919  1.00  0.00     0.029 A 
HETATM   14  C4  UNL     1       8.294  59.739  -1.488  1.00  0.00     0.003 A 
HETATM   15  C3  UNL     1       9.472  59.730  -2.174  1.00  0.00     0.007 A 
HETATM   16  C2  UNL     1      10.146  58.537  -2.286  1.00  0.00    -0.060 A 
HETATM   17  C1  UNL     1      11.450  58.471  -3.034  1.00  0.00     0.048 C 
HETATM   18  C17 UNL     1       9.656  57.386  -1.727  1.00  0.00     0.036 A 
ENDBRANCH   9  12
ENDBRANCH   1   8
BRANCH   5  19
HETATM   19  C10 UNL     1       5.255  51.892   1.999  1.00  0.00     0.043 A 
HETATM   20  C11 UNL     1       5.150  51.091   3.122  1.00  0.00     0.030 A 
HETATM   21  C12 UNL     1       4.021  50.340   3.363  1.00  0.00     0.002 A 
HETATM   22  C13 UNL     1       2.949  50.358   2.490  1.00  0.00     0.000 A 
HETATM   23  C14 UNL     1       3.036  51.148   1.366  1.00  0.00     0.002 A 
HETATM   24  C15 UNL     1       4.175  51.895   1.140  1.00  0.00     0.030 A 
ENDBRANCH   5  19
TORSDOF 3
ENDMDL
