MODEL 1
REMARK VINA RESULT: -8.316400780      0.000      0.000
REMARK  5 active torsions:
REMARK  status: ('A' for Active; 'I' for Inactive)
REMARK    1  A    between atoms: O1_2  and  C2_3 
REMARK    2  A    between atoms: C7_8  and  O2_9 
REMARK    3  A    between atoms: C10_13  and  O3_14 
REMARK    4  A    between atoms: C13_17  and  O4_18 
REMARK    5  A    between atoms: C14_20  and  C16_22 
ROOT
HETATM    1  C2  UNL     1       9.066  57.885  -1.216  1.00  0.00     0.102 A 
HETATM    2  C3  UNL     1       9.297  56.636  -0.753  1.00  0.00     0.047 A 
HETATM    3  C4  UNL     1       8.316  56.014  -0.031  1.00  0.00    -0.043 A 
HETATM    4  C5  UNL     1       7.080  56.590   0.262  1.00  0.00    -0.004 A 
HETATM    5  C6  UNL     1       6.139  55.942   1.021  1.00  0.00     0.003 A 
HETATM    6  C7  UNL     1       4.936  56.600   1.323  1.00  0.00     0.082 A 
HETATM    7  C8  UNL     1       4.684  57.871   0.864  1.00  0.00     0.006 A 
HETATM    8  C9  UNL     1       3.410  58.604   1.170  1.00  0.00     0.054 C 
HETATM    9  C10 UNL     1       5.666  58.481   0.094  1.00  0.00     0.090 A 
HETATM   10  C12 UNL     1       6.858  57.878  -0.220  1.00  0.00     0.045 A 
HETATM   11  C13 UNL     1       7.854  58.504  -0.949  1.00  0.00     0.113 A 
HETATM   12  C14 UNL     1       6.339  54.562   1.469  1.00  0.00     0.040 C 
HETATM   13  C15 UNL     1       6.726  54.561   2.909  1.00  0.00     0.028 C 
HETATM   14  C17 UNL     1       7.410  53.887   0.581  1.00  0.00     0.026 C 
HETATM   15  C18 UNL     1       8.638  54.675   0.519  1.00  0.00     0.041 C 
ENDROOT
BRANCH  12  16
HETATM   16  C16 UNL     1       5.154  53.663   1.185  1.00  0.00     0.245 C 
HETATM   17  O5  UNL     1       4.685  53.000   2.048  1.00  0.00    -0.306 OA
ENDBRANCH  12  16
BRANCH   6  18
HETATM   18  O2  UNL     1       3.943  55.996   2.107  1.00  0.00    -0.359 OA
ATOM     19  H2  UNL     1       3.025  56.037   1.868  1.00  0.00     0.217 HD
ENDBRANCH   6  18
BRANCH   9  20
HETATM   20  O3  UNL     1       5.392  59.763  -0.364  1.00  0.00    -0.354 OA
HETATM   21  C11 UNL     1       5.516  60.824   0.606  1.00  0.00     0.210 C 
ENDBRANCH   9  20
BRANCH  11  22
HETATM   22  O4  UNL     1       7.622  59.791  -1.424  1.00  0.00    -0.357 OA
ATOM     23  H4  UNL     1       6.998  60.350  -0.974  1.00  0.00     0.217 HD
ENDBRANCH  11  22
BRANCH   1  24
HETATM   24  O1  UNL     1       9.993  58.610  -1.961  1.00  0.00    -0.353 OA
HETATM   25  C1  UNL     1      11.162  58.075  -2.499  1.00  0.00     0.210 C 
ENDBRANCH   1  24
TORSDOF 5
ENDMDL
MODEL 2
REMARK VINA RESULT: -7.803358961      1.652      4.225
REMARK  5 active torsions:
REMARK  status: ('A' for Active; 'I' for Inactive)
REMARK    1  A    between atoms: O1_2  and  C2_3 
REMARK    2  A    between atoms: C7_8  and  O2_9 
REMARK    3  A    between atoms: C10_13  and  O3_14 
REMARK    4  A    between atoms: C13_17  and  O4_18 
REMARK    5  A    between atoms: C14_20  and  C16_22 
ROOT
HETATM    1  C2  UNL     1       9.798  57.535  -1.011  1.00  0.00     0.102 A 
HETATM    2  C3  UNL     1       8.905  58.531  -1.206  1.00  0.00     0.047 A 
HETATM    3  C4  UNL     1       7.681  58.441  -0.602  1.00  0.00    -0.043 A 
HETATM    4  C5  UNL     1       7.290  57.377   0.212  1.00  0.00    -0.004 A 
HETATM    5  C6  UNL     1       6.039  57.312   0.769  1.00  0.00     0.003 A 
HETATM    6  C7  UNL     1       5.693  56.188   1.535  1.00  0.00     0.082 A 
HETATM    7  C8  UNL     1       6.585  55.164   1.744  1.00  0.00     0.006 A 
HETATM    8  C9  UNL     1       6.247  53.948   2.556  1.00  0.00     0.054 C 
HETATM    9  C10 UNL     1       7.842  55.282   1.164  1.00  0.00     0.090 A 
HETATM   10  C12 UNL     1       8.222  56.359   0.402  1.00  0.00     0.045 A 
HETATM   11  C13 UNL     1       9.458  56.454  -0.212  1.00  0.00     0.113 A 
HETATM   12  C14 UNL     1       5.084  58.413   0.630  1.00  0.00     0.040 C 
HETATM   13  C15 UNL     1       4.063  58.056  -0.396  1.00  0.00     0.028 C 
HETATM   14  C17 UNL     1       5.846  59.708   0.263  1.00  0.00     0.026 C 
HETATM   15  C18 UNL     1       6.706  59.517  -0.902  1.00  0.00     0.041 C 
ENDROOT
BRANCH  12  16
HETATM   16  C16 UNL     1       4.462  58.835   1.945  1.00  0.00     0.245 C 
HETATM   17  O5  UNL     1       3.285  58.931   2.048  1.00  0.00    -0.306 OA
ENDBRANCH  12  16
BRANCH   6  18
HETATM   18  O2  UNL     1       4.423  56.056   2.117  1.00  0.00    -0.359 OA
ATOM     19  H2  UNL     1       3.826  55.362   1.860  1.00  0.00     0.217 HD
ENDBRANCH   6  18
BRANCH   9  20
HETATM   20  O3  UNL     1       8.733  54.240   1.389  1.00  0.00    -0.354 OA
HETATM   21  C11 UNL     1       8.516  53.041   0.616  1.00  0.00     0.210 C 
ENDBRANCH   9  20
BRANCH  11  22
HETATM   22  O4  UNL     1      10.378  55.429  -0.016  1.00  0.00    -0.357 OA
ATOM     23  H4  UNL     1      10.902  55.416   0.777  1.00  0.00     0.217 HD
ENDBRANCH  11  22
BRANCH   1  24
HETATM   24  O1  UNL     1      11.071  57.525  -1.575  1.00  0.00    -0.353 OA
HETATM   25  C1  UNL     1      11.336  57.242  -2.914  1.00  0.00     0.210 C 
ENDBRANCH   1  24
TORSDOF 5
ENDMDL
MODEL 3
REMARK VINA RESULT: -7.668799968      1.503      4.202
REMARK  5 active torsions:
REMARK  status: ('A' for Active; 'I' for Inactive)
REMARK    1  A    between atoms: O1_2  and  C2_3 
REMARK    2  A    between atoms: C7_8  and  O2_9 
REMARK    3  A    between atoms: C10_13  and  O3_14 
REMARK    4  A    between atoms: C13_17  and  O4_18 
REMARK    5  A    between atoms: C14_20  and  C16_22 
ROOT
HETATM    1  C2  UNL     1       6.192  58.785   0.133  1.00  0.00     0.102 A 
HETATM    2  C3  UNL     1       5.140  58.025   0.513  1.00  0.00     0.047 A 
HETATM    3  C4  UNL     1       5.360  56.710   0.823  1.00  0.00    -0.043 A 
HETATM    4  C5  UNL     1       6.612  56.097   0.773  1.00  0.00    -0.004 A 
HETATM    5  C6  UNL     1       6.780  54.766   1.059  1.00  0.00     0.003 A 
HETATM    6  C7  UNL     1       8.058  54.199   0.937  1.00  0.00     0.082 A 
HETATM    7  C8  UNL     1       9.139  54.954   0.549  1.00  0.00     0.006 A 
HETATM    8  C9  UNL     1      10.518  54.379   0.407  1.00  0.00     0.054 C 
HETATM    9  C10 UNL     1       8.917  56.298   0.278  1.00  0.00     0.090 A 
HETATM   10  C12 UNL     1       7.685  56.893   0.377  1.00  0.00     0.045 A 
HETATM   11  C13 UNL     1       7.457  58.221   0.064  1.00  0.00     0.113 A 
HETATM   12  C14 UNL     1       5.668  53.944   1.543  1.00  0.00     0.040 C 
HETATM   13  C15 UNL     1       5.161  53.093   0.429  1.00  0.00     0.028 C 
HETATM   14  C17 UNL     1       4.566  54.864   2.119  1.00  0.00     0.026 C 
HETATM   15  C18 UNL     1       4.169  55.896   1.164  1.00  0.00     0.041 C 
ENDROOT
BRANCH  12  16
HETATM   16  C16 UNL     1       6.014  53.139   2.778  1.00  0.00     0.245 C 
HETATM   17  O5  UNL     1       5.930  51.957   2.766  1.00  0.00    -0.306 OA
ENDBRANCH  12  16
BRANCH   6  18
HETATM   18  O2  UNL     1       8.290  52.841   1.200  1.00  0.00    -0.359 OA
ATOM     19  H2  UNL     1       7.885  52.399   1.937  1.00  0.00     0.217 HD
ENDBRANCH   6  18
BRANCH   9  20
HETATM   20  O3  UNL     1      10.022  57.046  -0.108  1.00  0.00    -0.354 OA
HETATM   21  C11 UNL     1      10.446  56.892  -1.479  1.00  0.00     0.210 C 
ENDBRANCH   9  20
BRANCH  11  22
HETATM   22  O4  UNL     1       8.536  59.005  -0.333  1.00  0.00    -0.357 OA
ATOM     23  H4  UNL     1       8.810  59.734   0.212  1.00  0.00     0.217 HD
ENDBRANCH  11  22
BRANCH   1  24
HETATM   24  O1  UNL     1       6.082  60.131  -0.204  1.00  0.00    -0.353 OA
HETATM   25  C1  UNL     1       5.187  61.021   0.388  1.00  0.00     0.210 C 
ENDBRANCH   1  24
TORSDOF 5
ENDMDL
MODEL 4
REMARK VINA RESULT: -7.592112606      1.870      4.671
REMARK  5 active torsions:
REMARK  status: ('A' for Active; 'I' for Inactive)
REMARK    1  A    between atoms: O1_2  and  C2_3 
REMARK    2  A    between atoms: C7_8  and  O2_9 
REMARK    3  A    between atoms: C10_13  and  O3_14 
REMARK    4  A    between atoms: C13_17  and  O4_18 
REMARK    5  A    between atoms: C14_20  and  C16_22 
ROOT
HETATM    1  C2  UNL     1       9.255  55.732   0.833  1.00  0.00     0.102 A 
HETATM    2  C3  UNL     1       9.300  56.924   0.196  1.00  0.00     0.047 A 
HETATM    3  C4  UNL     1       8.150  57.657   0.096  1.00  0.00    -0.043 A 
HETATM    4  C5  UNL     1       6.919  57.252   0.614  1.00  0.00    -0.004 A 
HETATM    5  C6  UNL     1       5.783  58.004   0.458  1.00  0.00     0.003 A 
HETATM    6  C7  UNL     1       4.567  57.512   0.958  1.00  0.00     0.082 A 
HETATM    7  C8  UNL     1       4.499  56.302   1.606  1.00  0.00     0.006 A 
HETATM    8  C9  UNL     1       3.216  55.746   2.150  1.00  0.00     0.054 C 
HETATM    9  C10 UNL     1       5.680  55.582   1.743  1.00  0.00     0.090 A 
HETATM   10  C12 UNL     1       6.889  56.021   1.265  1.00  0.00     0.045 A 
HETATM   11  C13 UNL     1       8.055  55.283   1.363  1.00  0.00     0.113 A 
HETATM   12  C14 UNL     1       5.826  59.329  -0.163  1.00  0.00     0.040 C 
HETATM   13  C15 UNL     1       5.314  59.238  -1.560  1.00  0.00     0.028 C 
HETATM   14  C17 UNL     1       7.273  59.873  -0.110  1.00  0.00     0.026 C 
HETATM   15  C18 UNL     1       8.228  58.923  -0.673  1.00  0.00     0.041 C 
ENDROOT
BRANCH  12  16
HETATM   16  C16 UNL     1       5.113  60.393   0.648  1.00  0.00     0.245 C 
HETATM   17  O5  UNL     1       5.660  61.410   0.914  1.00  0.00    -0.306 OA
ENDBRANCH  12  16
BRANCH   6  18
HETATM   18  O2  UNL     1       3.370  58.227   0.816  1.00  0.00    -0.359 OA
ATOM     19  H2  UNL     1       2.609  57.848   0.391  1.00  0.00     0.217 HD
ENDBRANCH   6  18
BRANCH   9  20
HETATM   20  O3  UNL     1       5.593  54.363   2.405  1.00  0.00    -0.354 OA
HETATM   21  C11 UNL     1       5.016  53.274   1.655  1.00  0.00     0.210 C 
ENDBRANCH   9  20
BRANCH  11  22
HETATM   22  O4  UNL     1       8.011  54.053   2.014  1.00  0.00    -0.357 OA
ATOM     23  H4  UNL     1       8.089  54.022   2.961  1.00  0.00     0.217 HD
ENDBRANCH  11  22
BRANCH   1  24
HETATM   24  O1  UNL     1      10.364  54.906   0.994  1.00  0.00    -0.353 OA
HETATM   25  C1  UNL     1      10.730  53.897   0.104  1.00  0.00     0.210 C 
ENDBRANCH   1  24
TORSDOF 5
ENDMDL
MODEL 5
REMARK VINA RESULT: -7.447484924      2.214      4.884
REMARK  5 active torsions:
REMARK  status: ('A' for Active; 'I' for Inactive)
REMARK    1  A    between atoms: O1_2  and  C2_3 
REMARK    2  A    between atoms: C7_8  and  O2_9 
REMARK    3  A    between atoms: C10_13  and  O3_14 
REMARK    4  A    between atoms: C13_17  and  O4_18 
REMARK    5  A    between atoms: C14_20  and  C16_22 
ROOT
HETATM    1  C2  UNL     1       8.163  57.064   0.086  1.00  0.00     0.102 A 
HETATM    2  C3  UNL     1       6.860  56.873   0.394  1.00  0.00     0.047 A 
HETATM    3  C4  UNL     1       6.457  55.627   0.789  1.00  0.00    -0.043 A 
HETATM    4  C5  UNL     1       7.311  54.529   0.898  1.00  0.00    -0.004 A 
HETATM    5  C6  UNL     1       6.855  53.288   1.265  1.00  0.00     0.003 A 
HETATM    6  C7  UNL     1       7.758  52.215   1.303  1.00  0.00     0.082 A 
HETATM    7  C8  UNL     1       9.085  52.388   0.991  1.00  0.00     0.006 A 
HETATM    8  C9  UNL     1      10.077  51.261   1.020  1.00  0.00     0.054 C 
HETATM    9  C10 UNL     1       9.498  53.665   0.632  1.00  0.00     0.090 A 
HETATM   10  C12 UNL     1       8.649  54.741   0.575  1.00  0.00     0.045 A 
HETATM   11  C13 UNL     1       9.052  56.003   0.175  1.00  0.00     0.113 A 
HETATM   12  C14 UNL     1       5.464  53.078   1.673  1.00  0.00     0.040 C 
HETATM   13  C15 UNL     1       4.713  52.435   0.556  1.00  0.00     0.028 C 
HETATM   14  C17 UNL     1       4.842  54.431   2.086  1.00  0.00     0.026 C 
HETATM   15  C18 UNL     1       5.008  55.444   1.047  1.00  0.00     0.041 C 
ENDROOT
BRANCH  12  16
HETATM   16  C16 UNL     1       5.332  52.316   2.975  1.00  0.00     0.245 C 
HETATM   17  O5  UNL     1       4.780  51.268   3.003  1.00  0.00    -0.306 OA
ENDBRANCH  12  16
BRANCH   6  18
HETATM   18  O2  UNL     1       7.349  50.921   1.654  1.00  0.00    -0.359 OA
ATOM     19  H2  UNL     1       7.931  50.317   2.102  1.00  0.00     0.217 HD
ENDBRANCH   6  18
BRANCH   9  20
HETATM   20  O3  UNL     1      10.843  53.821   0.325  1.00  0.00    -0.354 OA
HETATM   21  C11 UNL     1      11.286  53.223  -0.911  1.00  0.00     0.210 C 
ENDBRANCH   9  20
BRANCH  11  22
HETATM   22  O4  UNL     1      10.392  56.202  -0.147  1.00  0.00    -0.357 OA
ATOM     23  H4  UNL     1      10.759  55.768  -0.908  1.00  0.00     0.217 HD
ENDBRANCH  11  22
BRANCH   1  24
HETATM   24  O1  UNL     1       8.682  58.288  -0.327  1.00  0.00    -0.353 OA
HETATM   25  C1  UNL     1       7.989  59.215  -1.103  1.00  0.00     0.210 C 
ENDBRANCH   1  24
TORSDOF 5
ENDMDL
