MODEL 1
REMARK VINA RESULT: -8.644794393      0.000      0.000
REMARK  5 active torsions:
REMARK  status: ('A' for Active; 'I' for Inactive)
REMARK    1  A    between atoms: C2_2  and  C5_5 
REMARK       I    between atoms: C5_5  and  N1_7 
REMARK       I    between atoms: N1_7  and  C6_9 
REMARK    2  A    between atoms: C6_9  and  O3_11 
REMARK    3  A    between atoms: O3_11  and  C7_12 
REMARK    4  A    between atoms: C12_17  and  N2_18 
REMARK       I    between atoms: N2_18  and  C13_20 
REMARK    5  A    between atoms: C13_20  and  C14_22 
ROOT
HETATM    1  C7  UNL     1       7.357  57.956  -0.575  1.00  0.00     0.107 A 
HETATM    2  C8  UNL     1       7.695  59.248  -0.807  1.00  0.00     0.040 A 
HETATM    3  C9  UNL     1       6.881  60.286  -0.393  1.00  0.00     0.003 A 
HETATM    4  C10 UNL     1       5.708  59.974   0.262  1.00  0.00     0.002 A 
HETATM    5  C11 UNL     1       5.333  58.648   0.515  1.00  0.00     0.032 A 
HETATM    6  C12 UNL     1       6.156  57.647   0.097  1.00  0.00     0.069 A 
ENDROOT
BRANCH   1   7
HETATM    7  O3  UNL     1       8.200  56.953  -1.004  1.00  0.00    -0.259 OA
BRANCH   7   8
HETATM    8  C6  UNL     1       9.012  56.275  -0.117  1.00  0.00     0.372 C 
HETATM    9  N1  UNL     1       9.158  54.888  -0.205  1.00  0.00    -0.272 N 
HETATM   10  C5  UNL     1       9.990  54.194   0.702  1.00  0.00     0.233 C 
ATOM     11  H1  UNL     1       8.661  54.372  -0.931  1.00  0.00     0.174 HD
HETATM   12  O1  UNL     1      10.590  54.872   1.588  1.00  0.00    -0.272 OA
HETATM   13  O2  UNL     1       9.619  56.914   0.769  1.00  0.00    -0.238 OA
BRANCH  10  14
HETATM   14  C2  UNL     1      10.173  52.713   0.642  1.00  0.00     0.030 C 
HETATM   15  C1  UNL     1      11.460  52.353   1.308  1.00  0.00     0.025 C 
HETATM   16  C3  UNL     1       8.961  52.080   1.259  1.00  0.00     0.025 C 
HETATM   17  C4  UNL     1      10.296  52.334  -0.832  1.00  0.00     0.025 C 
ENDBRANCH  10  14
ENDBRANCH   7   8
ENDBRANCH   1   7
BRANCH   6  18
HETATM   18  N2  UNL     1       5.905  56.275   0.283  1.00  0.00    -0.320 N 
HETATM   19  C13 UNL     1       5.939  55.561   1.499  1.00  0.00     0.258 C 
HETATM   20  O4  UNL     1       6.211  56.080   2.624  1.00  0.00    -0.267 OA
ATOM     21  H2  UNL     1       5.672  55.738  -0.553  1.00  0.00     0.169 HD
BRANCH  19  22
HETATM   22  C14 UNL     1       5.637  54.113   1.450  1.00  0.00     0.056 A 
HETATM   23  C15 UNL     1       5.489  53.311   2.545  1.00  0.00     0.043 A 
HETATM   24  C16 UNL     1       5.215  52.027   2.062  1.00  0.00     0.142 A 
HETATM   25  O5  UNL     1       5.212  52.117   0.773  1.00  0.00    -0.334 OA
HETATM   26  C17 UNL     1       5.458  53.335   0.345  1.00  0.00     0.158 A 
ENDBRANCH  19  22
ENDBRANCH   6  18
TORSDOF 5
ENDMDL
MODEL 2
REMARK VINA RESULT: -7.825997232      1.848      2.952
REMARK  5 active torsions:
REMARK  status: ('A' for Active; 'I' for Inactive)
REMARK    1  A    between atoms: C2_2  and  C5_5 
REMARK       I    between atoms: C5_5  and  N1_7 
REMARK       I    between atoms: N1_7  and  C6_9 
REMARK    2  A    between atoms: C6_9  and  O3_11 
REMARK    3  A    between atoms: O3_11  and  C7_12 
REMARK    4  A    between atoms: C12_17  and  N2_18 
REMARK       I    between atoms: N2_18  and  C13_20 
REMARK    5  A    between atoms: C13_20  and  C14_22 
ROOT
HETATM    1  C7  UNL     1       5.898  56.202   2.112  1.00  0.00     0.107 A 
HETATM    2  C8  UNL     1       5.773  57.469   1.646  1.00  0.00     0.040 A 
HETATM    3  C9  UNL     1       4.556  57.950   1.201  1.00  0.00     0.003 A 
HETATM    4  C10 UNL     1       3.466  57.107   1.241  1.00  0.00     0.002 A 
HETATM    5  C11 UNL     1       3.565  55.794   1.718  1.00  0.00     0.032 A 
HETATM    6  C12 UNL     1       4.777  55.346   2.151  1.00  0.00     0.069 A 
ENDROOT
BRANCH   1   7
HETATM    7  O3  UNL     1       7.131  55.764   2.546  1.00  0.00    -0.259 OA
BRANCH   7   8
HETATM    8  C6  UNL     1       8.174  55.577   1.662  1.00  0.00     0.372 C 
HETATM    9  N1  UNL     1       8.830  54.345   1.587  1.00  0.00    -0.272 N 
HETATM   10  C5  UNL     1       9.898  54.153   0.681  1.00  0.00     0.233 C 
ATOM     11  H1  UNL     1       8.536  53.577   2.190  1.00  0.00     0.174 HD
HETATM   12  O1  UNL     1      10.233  55.132  -0.051  1.00  0.00    -0.272 OA
HETATM   13  O2  UNL     1       8.529  56.522   0.925  1.00  0.00    -0.238 OA
BRANCH  10  14
HETATM   14  C2  UNL     1      10.624  52.853   0.570  1.00  0.00     0.030 C 
HETATM   15  C1  UNL     1      10.980  52.615  -0.860  1.00  0.00     0.025 C 
HETATM   16  C3  UNL     1      11.802  52.910   1.497  1.00  0.00     0.025 C 
HETATM   17  C4  UNL     1       9.651  51.755   0.991  1.00  0.00     0.025 C 
ENDBRANCH  10  14
ENDBRANCH   7   8
ENDBRANCH   1   7
BRANCH   6  18
HETATM   18  N2  UNL     1       5.021  54.055   2.651  1.00  0.00    -0.320 N 
HETATM   19  C13 UNL     1       5.199  52.872   1.904  1.00  0.00     0.258 C 
HETATM   20  O4  UNL     1       5.162  52.816   0.637  1.00  0.00    -0.267 OA
ATOM     21  H2  UNL     1       5.073  53.963   3.666  1.00  0.00     0.169 HD
BRANCH  19  22
HETATM   22  C14 UNL     1       5.444  51.620   2.653  1.00  0.00     0.056 A 
HETATM   23  C15 UNL     1       4.468  50.779   3.106  1.00  0.00     0.043 A 
HETATM   24  C16 UNL     1       5.121  49.726   3.756  1.00  0.00     0.142 A 
HETATM   25  O5  UNL     1       6.387  49.974   3.666  1.00  0.00    -0.334 OA
HETATM   26  C17 UNL     1       6.645  51.089   3.020  1.00  0.00     0.158 A 
ENDBRANCH  19  22
ENDBRANCH   6  18
TORSDOF 5
ENDMDL
MODEL 3
REMARK VINA RESULT: -7.794094535      2.898      3.654
REMARK  5 active torsions:
REMARK  status: ('A' for Active; 'I' for Inactive)
REMARK    1  A    between atoms: C2_2  and  C5_5 
REMARK       I    between atoms: C5_5  and  N1_7 
REMARK       I    between atoms: N1_7  and  C6_9 
REMARK    2  A    between atoms: C6_9  and  O3_11 
REMARK    3  A    between atoms: O3_11  and  C7_12 
REMARK    4  A    between atoms: C12_17  and  N2_18 
REMARK       I    between atoms: N2_18  and  C13_20 
REMARK    5  A    between atoms: C13_20  and  C14_22 
ROOT
HETATM    1  C7  UNL     1       7.944  58.249  -0.447  1.00  0.00     0.107 A 
HETATM    2  C8  UNL     1       7.774  59.589  -0.556  1.00  0.00     0.040 A 
HETATM    3  C9  UNL     1       6.529  60.168  -0.390  1.00  0.00     0.003 A 
HETATM    4  C10 UNL     1       5.458  59.346  -0.111  1.00  0.00     0.002 A 
HETATM    5  C11 UNL     1       5.604  57.957   0.008  1.00  0.00     0.032 A 
HETATM    6  C12 UNL     1       6.843  57.415  -0.160  1.00  0.00     0.069 A 
ENDROOT
BRANCH   1   7
HETATM    7  O3  UNL     1       9.203  57.715  -0.619  1.00  0.00    -0.259 OA
BRANCH   7   8
HETATM    8  C6  UNL     1       9.894  57.882  -1.802  1.00  0.00     0.372 C 
HETATM    9  N1  UNL     1      10.560  56.806  -2.394  1.00  0.00    -0.272 N 
HETATM   10  C5  UNL     1      11.267  56.976  -3.606  1.00  0.00     0.233 C 
ATOM     11  H1  UNL     1      10.537  55.889  -1.948  1.00  0.00     0.174 HD
HETATM   12  O1  UNL     1      11.272  58.130  -4.128  1.00  0.00    -0.272 OA
HETATM   13  O2  UNL     1       9.918  59.008  -2.344  1.00  0.00    -0.238 OA
BRANCH  10  14
HETATM   14  C2  UNL     1      11.992  55.852  -4.269  1.00  0.00     0.030 C 
HETATM   15  C1  UNL     1      12.283  54.794  -3.256  1.00  0.00     0.025 C 
HETATM   16  C3  UNL     1      11.152  55.386  -5.422  1.00  0.00     0.025 C 
HETATM   17  C4  UNL     1      13.330  56.403  -4.756  1.00  0.00     0.025 C 
ENDBRANCH  10  14
ENDBRANCH   7   8
ENDBRANCH   1   7
BRANCH   6  18
HETATM   18  N2  UNL     1       7.134  56.042  -0.069  1.00  0.00    -0.320 N 
HETATM   19  C13 UNL     1       7.405  55.305   1.102  1.00  0.00     0.258 C 
HETATM   20  O4  UNL     1       7.423  55.802   2.270  1.00  0.00    -0.267 OA
ATOM     21  H2  UNL     1       7.150  55.522  -0.947  1.00  0.00     0.169 HD
BRANCH  19  22
HETATM   22  C14 UNL     1       7.686  53.860   0.952  1.00  0.00     0.056 A 
HETATM   23  C15 UNL     1       8.932  53.318   0.815  1.00  0.00     0.043 A 
HETATM   24  C16 UNL     1       8.753  51.935   0.702  1.00  0.00     0.142 A 
HETATM   25  O5  UNL     1       7.479  51.727   0.773  1.00  0.00    -0.334 OA
HETATM   26  C17 UNL     1       6.788  52.835   0.921  1.00  0.00     0.158 A 
ENDBRANCH  19  22
ENDBRANCH   6  18
TORSDOF 5
ENDMDL
MODEL 4
REMARK VINA RESULT: -7.780950611      2.451      3.804
REMARK  5 active torsions:
REMARK  status: ('A' for Active; 'I' for Inactive)
REMARK    1  A    between atoms: C2_2  and  C5_5 
REMARK       I    between atoms: C5_5  and  N1_7 
REMARK       I    between atoms: N1_7  and  C6_9 
REMARK    2  A    between atoms: C6_9  and  O3_11 
REMARK    3  A    between atoms: O3_11  and  C7_12 
REMARK    4  A    between atoms: C12_17  and  N2_18 
REMARK       I    between atoms: N2_18  and  C13_20 
REMARK    5  A    between atoms: C13_20  and  C14_22 
ROOT
HETATM    1  C7  UNL     1       6.836  58.174  -0.382  1.00  0.00     0.107 A 
HETATM    2  C8  UNL     1       7.071  59.494  -0.579  1.00  0.00     0.040 A 
HETATM    3  C9  UNL     1       6.175  60.452  -0.143  1.00  0.00     0.003 A 
HETATM    4  C10 UNL     1       5.029  60.032   0.499  1.00  0.00     0.002 A 
HETATM    5  C11 UNL     1       4.760  58.674   0.716  1.00  0.00     0.032 A 
HETATM    6  C12 UNL     1       5.662  57.752   0.276  1.00  0.00     0.069 A 
ENDROOT
BRANCH   1   7
HETATM    7  O3  UNL     1       7.757  57.252  -0.832  1.00  0.00    -0.259 OA
BRANCH   7   8
HETATM    8  C6  UNL     1       9.104  57.551  -0.874  1.00  0.00     0.372 C 
HETATM    9  N1  UNL     1       9.662  58.158  -2.003  1.00  0.00    -0.272 N 
HETATM   10  C5  UNL     1      11.041  58.466  -2.045  1.00  0.00     0.233 C 
ATOM     11  H1  UNL     1       9.070  58.381  -2.802  1.00  0.00     0.174 HD
HETATM   12  O1  UNL     1      11.742  58.173  -1.032  1.00  0.00    -0.272 OA
HETATM   13  O2  UNL     1       9.824  57.276   0.110  1.00  0.00    -0.238 OA
BRANCH  10  14
HETATM   14  C2  UNL     1      11.675  59.114  -3.232  1.00  0.00     0.030 C 
HETATM   15  C1  UNL     1      11.962  58.071  -4.261  1.00  0.00     0.025 C 
HETATM   16  C3  UNL     1      10.757  60.204  -3.700  1.00  0.00     0.025 C 
HETATM   17  C4  UNL     1      13.013  59.686  -2.772  1.00  0.00     0.025 C 
ENDBRANCH  10  14
ENDBRANCH   7   8
ENDBRANCH   1   7
BRANCH   6  18
HETATM   18  N2  UNL     1       5.519  56.361   0.426  1.00  0.00    -0.320 N 
HETATM   19  C13 UNL     1       5.820  55.593   1.570  1.00  0.00     0.258 C 
HETATM   20  O4  UNL     1       6.274  56.074   2.653  1.00  0.00    -0.267 OA
ATOM     21  H2  UNL     1       5.160  55.851  -0.382  1.00  0.00     0.169 HD
BRANCH  19  22
HETATM   22  C14 UNL     1       5.588  54.134   1.494  1.00  0.00     0.056 A 
HETATM   23  C15 UNL     1       5.505  53.301   2.574  1.00  0.00     0.043 A 
HETATM   24  C16 UNL     1       5.282  52.015   2.067  1.00  0.00     0.142 A 
HETATM   25  O5  UNL     1       5.244  52.134   0.780  1.00  0.00    -0.334 OA
HETATM   26  C17 UNL     1       5.421  53.373   0.376  1.00  0.00     0.158 A 
ENDBRANCH  19  22
ENDBRANCH   6  18
TORSDOF 5
ENDMDL
MODEL 5
REMARK VINA RESULT: -7.771337434      2.128      4.525
REMARK  5 active torsions:
REMARK  status: ('A' for Active; 'I' for Inactive)
REMARK    1  A    between atoms: C2_2  and  C5_5 
REMARK       I    between atoms: C5_5  and  N1_7 
REMARK       I    between atoms: N1_7  and  C6_9 
REMARK    2  A    between atoms: C6_9  and  O3_11 
REMARK    3  A    between atoms: O3_11  and  C7_12 
REMARK    4  A    between atoms: C12_17  and  N2_18 
REMARK       I    between atoms: N2_18  and  C13_20 
REMARK    5  A    between atoms: C13_20  and  C14_22 
ROOT
HETATM    1  C7  UNL     1       6.121  57.698  -0.361  1.00  0.00     0.107 A 
HETATM    2  C8  UNL     1       4.995  58.017   0.322  1.00  0.00     0.040 A 
HETATM    3  C9  UNL     1       4.752  59.315   0.733  1.00  0.00     0.003 A 
HETATM    4  C10 UNL     1       5.688  60.282   0.432  1.00  0.00     0.002 A 
HETATM    5  C11 UNL     1       6.861  59.980  -0.273  1.00  0.00     0.032 A 
HETATM    6  C12 UNL     1       7.073  58.693  -0.665  1.00  0.00     0.069 A 
ENDROOT
BRANCH   1   7
HETATM    7  O3  UNL     1       6.322  56.391  -0.752  1.00  0.00    -0.259 OA
BRANCH   7   8
HETATM    8  C6  UNL     1       6.658  55.415   0.164  1.00  0.00     0.372 C 
HETATM    9  N1  UNL     1       7.868  54.722   0.054  1.00  0.00    -0.272 N 
HETATM   10  C5  UNL     1       8.212  53.724   0.992  1.00  0.00     0.233 C 
ATOM     11  H1  UNL     1       8.507  54.939  -0.711  1.00  0.00     0.174 HD
HETATM   12  O1  UNL     1       7.391  53.485   1.927  1.00  0.00    -0.272 OA
HETATM   13  O2  UNL     1       5.871  55.155   1.099  1.00  0.00    -0.238 OA
BRANCH  10  14
HETATM   14  C2  UNL     1       9.493  52.962   0.909  1.00  0.00     0.030 C 
HETATM   15  C1  UNL     1       9.574  52.289  -0.422  1.00  0.00     0.025 C 
HETATM   16  C3  UNL     1      10.613  53.922   1.183  1.00  0.00     0.025 C 
HETATM   17  C4  UNL     1       9.438  51.869   1.973  1.00  0.00     0.025 C 
ENDBRANCH  10  14
ENDBRANCH   7   8
ENDBRANCH   1   7
BRANCH   6  18
HETATM   18  N2  UNL     1       8.204  58.250  -1.376  1.00  0.00    -0.320 N 
HETATM   19  C13 UNL     1       9.373  57.673  -0.839  1.00  0.00     0.258 C 
HETATM   20  O4  UNL     1       9.566  57.471   0.399  1.00  0.00    -0.267 OA
ATOM     21  H2  UNL     1       8.175  58.358  -2.389  1.00  0.00     0.169 HD
BRANCH  19  22
HETATM   22  C14 UNL     1      10.440  57.282  -1.787  1.00  0.00     0.056 A 
HETATM   23  C15 UNL     1      11.028  58.122  -2.689  1.00  0.00     0.043 A 
HETATM   24  C16 UNL     1      11.975  57.360  -3.383  1.00  0.00     0.142 A 
HETATM   25  O5  UNL     1      11.912  56.167  -2.889  1.00  0.00    -0.334 OA
HETATM   26  C17 UNL     1      11.015  56.055  -1.935  1.00  0.00     0.158 A 
ENDBRANCH  19  22
ENDBRANCH   6  18
TORSDOF 5
ENDMDL
