MODEL 1
REMARK VINA RESULT: -9.019491008      0.000      0.000
REMARK  4 active torsions:
REMARK  status: ('A' for Active; 'I' for Inactive)
REMARK    1  A    between atoms: C2_4  and  C3_5 
REMARK    2  A    between atoms: C8_10  and  N2_11 
REMARK    3  A    between atoms: C10_15  and  C11_16 
REMARK       I    between atoms: C11_16  and  N3_18 
REMARK    4  A    between atoms: N3_18  and  C12_20 
ROOT
HETATM    1  N1  UNL     1       9.683  53.750   0.698  1.00  0.00    -0.093 NA
HETATM    2  C1  UNL     1       8.318  53.310   0.874  1.00  0.00     0.103 A 
HETATM    3  S1  UNL     1       7.736  51.701   1.003  1.00  0.00    -0.074 SA
HETATM    4  C2  UNL     1       6.080  51.987   1.186  1.00  0.00     0.020 A 
HETATM    5  C9  UNL     1       6.020  53.363   1.141  1.00  0.00     0.039 A 
HETATM    6  C10 UNL     1       7.162  54.035   0.981  1.00  0.00     0.064 A 
ENDROOT
BRANCH   6   7
HETATM    7  C11 UNL     1       7.216  55.531   0.922  1.00  0.00     0.258 C 
HETATM    8  O3  UNL     1       7.609  56.123   1.950  1.00  0.00    -0.267 OA
HETATM    9  N3  UNL     1       6.844  56.227  -0.226  1.00  0.00    -0.323 N 
ATOM     10  H3  UNL     1       6.540  55.688  -1.037  1.00  0.00     0.169 HD
BRANCH   9  11
HETATM   11  C12 UNL     1       6.864  57.642  -0.334  1.00  0.00     0.035 A 
HETATM   12  C13 UNL     1       5.728  58.372   0.045  1.00  0.00     0.029 A 
HETATM   13  C14 UNL     1       5.726  59.731  -0.025  1.00  0.00     0.002 A 
HETATM   14  C15 UNL     1       6.821  60.437  -0.464  1.00  0.00     0.000 A 
HETATM   15  C16 UNL     1       7.948  59.745  -0.840  1.00  0.00     0.002 A 
HETATM   16  C17 UNL     1       7.938  58.362  -0.765  1.00  0.00     0.029 A 
ENDBRANCH   9  11
ENDBRANCH   6   7
BRANCH   4  17
HETATM   17  C3  UNL     1       4.959  51.083   1.386  1.00  0.00     0.014 A 
HETATM   18  C4  UNL     1       3.897  51.165   0.462  1.00  0.00     0.015 A 
HETATM   19  C5  UNL     1       2.784  50.385   0.485  1.00  0.00     0.001 A 
HETATM   20  C6  UNL     1       2.677  49.443   1.485  1.00  0.00     0.002 A 
HETATM   21  C7  UNL     1       3.667  49.319   2.405  1.00  0.00     0.037 A 
HETATM   22  C8  UNL     1       4.824  50.153   2.357  1.00  0.00     0.114 A 
BRANCH  22  23
HETATM   23  N2  UNL     1       5.750  49.933   3.383  1.00  0.00    -0.115 N 
HETATM   24  O1  UNL     1       5.455  50.454   4.518  1.00  0.00    -0.532 OA
HETATM   25  O2  UNL     1       6.881  49.230   3.299  1.00  0.00    -0.532 OA
ENDBRANCH  22  23
ENDBRANCH   4  17
TORSDOF 4
ENDMDL
MODEL 2
REMARK VINA RESULT: -8.837334374      0.617      1.149
REMARK  4 active torsions:
REMARK  status: ('A' for Active; 'I' for Inactive)
REMARK    1  A    between atoms: C2_4  and  C3_5 
REMARK    2  A    between atoms: C8_10  and  N2_11 
REMARK    3  A    between atoms: C10_15  and  C11_16 
REMARK       I    between atoms: C11_16  and  N3_18 
REMARK    4  A    between atoms: N3_18  and  C12_20 
ROOT
HETATM    1  N1  UNL     1       9.059  53.938   0.456  1.00  0.00    -0.093 NA
HETATM    2  C1  UNL     1       7.794  53.342   0.815  1.00  0.00     0.103 A 
HETATM    3  S1  UNL     1       7.411  51.674   0.943  1.00  0.00    -0.074 SA
HETATM    4  C2  UNL     1       5.785  51.766   1.395  1.00  0.00     0.020 A 
HETATM    5  C9  UNL     1       5.575  53.127   1.435  1.00  0.00     0.039 A 
HETATM    6  C10 UNL     1       6.601  53.928   1.139  1.00  0.00     0.064 A 
ENDROOT
BRANCH   6   7
HETATM    7  C11 UNL     1       6.487  55.422   1.156  1.00  0.00     0.258 C 
HETATM    8  O3  UNL     1       6.343  55.965   2.272  1.00  0.00    -0.267 OA
HETATM    9  N3  UNL     1       6.540  56.168  -0.020  1.00  0.00    -0.323 N 
ATOM     10  H3  UNL     1       6.668  55.669  -0.900  1.00  0.00     0.169 HD
BRANCH   9  11
HETATM   11  C12 UNL     1       6.427  57.582  -0.065  1.00  0.00     0.035 A 
HETATM   12  C13 UNL     1       7.454  58.331  -0.657  1.00  0.00     0.029 A 
HETATM   13  C14 UNL     1       7.362  59.686  -0.736  1.00  0.00     0.002 A 
HETATM   14  C15 UNL     1       6.274  60.370  -0.246  1.00  0.00     0.000 A 
HETATM   15  C16 UNL     1       5.253  59.659   0.339  1.00  0.00     0.002 A 
HETATM   16  C17 UNL     1       5.359  58.280   0.413  1.00  0.00     0.029 A 
ENDBRANCH   9  11
ENDBRANCH   6   7
BRANCH   4  17
HETATM   17  C3  UNL     1       4.811  50.734   1.715  1.00  0.00     0.014 A 
HETATM   18  C4  UNL     1       3.629  50.710   0.947  1.00  0.00     0.015 A 
HETATM   19  C5  UNL     1       2.623  49.807   1.095  1.00  0.00     0.001 A 
HETATM   20  C6  UNL     1       2.763  48.840   2.068  1.00  0.00     0.002 A 
HETATM   21  C7  UNL     1       3.879  48.815   2.839  1.00  0.00     0.037 A 
HETATM   22  C8  UNL     1       4.918  49.778   2.662  1.00  0.00     0.114 A 
BRANCH  22  23
HETATM   23  N2  UNL     1       5.996  49.647   3.545  1.00  0.00    -0.115 N 
HETATM   24  O1  UNL     1       5.838  50.187   4.698  1.00  0.00    -0.532 OA
HETATM   25  O2  UNL     1       7.145  49.011   3.310  1.00  0.00    -0.532 OA
ENDBRANCH  22  23
ENDBRANCH   4  17
TORSDOF 4
ENDMDL
MODEL 3
REMARK VINA RESULT: -8.786222642      1.967      8.121
REMARK  4 active torsions:
REMARK  status: ('A' for Active; 'I' for Inactive)
REMARK    1  A    between atoms: C2_4  and  C3_5 
REMARK    2  A    between atoms: C8_10  and  N2_11 
REMARK    3  A    between atoms: C10_15  and  C11_16 
REMARK       I    between atoms: C11_16  and  N3_18 
REMARK    4  A    between atoms: N3_18  and  C12_20 
ROOT
HETATM    1  N1  UNL     1       8.235  52.107   0.749  1.00  0.00    -0.093 NA
HETATM    2  C1  UNL     1       7.651  53.423   0.621  1.00  0.00     0.103 A 
HETATM    3  S1  UNL     1       8.414  54.871   0.110  1.00  0.00    -0.074 SA
HETATM    4  C2  UNL     1       7.122  55.955   0.219  1.00  0.00     0.020 A 
HETATM    5  C9  UNL     1       6.102  55.141   0.662  1.00  0.00     0.039 A 
HETATM    6  C10 UNL     1       6.375  53.850   0.867  1.00  0.00     0.064 A 
ENDROOT
BRANCH   6   7
HETATM    7  C11 UNL     1       5.342  52.875   1.343  1.00  0.00     0.258 C 
HETATM    8  O3  UNL     1       4.444  53.322   2.088  1.00  0.00    -0.267 OA
HETATM    9  N3  UNL     1       5.383  51.533   0.971  1.00  0.00    -0.323 N 
ATOM     10  H3  UNL     1       6.135  51.229   0.353  1.00  0.00     0.169 HD
BRANCH   9  11
HETATM   11  C12 UNL     1       4.439  50.564   1.401  1.00  0.00     0.035 A 
HETATM   12  C13 UNL     1       4.760  49.730   2.482  1.00  0.00     0.029 A 
HETATM   13  C14 UNL     1       3.867  48.809   2.931  1.00  0.00     0.002 A 
HETATM   14  C15 UNL     1       2.628  48.656   2.354  1.00  0.00     0.000 A 
HETATM   15  C16 UNL     1       2.288  49.462   1.293  1.00  0.00     0.002 A 
HETATM   16  C17 UNL     1       3.207  50.397   0.844  1.00  0.00     0.029 A 
ENDBRANCH   9  11
ENDBRANCH   6   7
BRANCH   4  17
HETATM   17  C3  UNL     1       7.019  57.372  -0.093  1.00  0.00     0.014 A 
HETATM   18  C4  UNL     1       5.748  57.966   0.042  1.00  0.00     0.015 A 
HETATM   19  C5  UNL     1       5.474  59.278  -0.188  1.00  0.00     0.001 A 
HETATM   20  C6  UNL     1       6.512  60.094  -0.583  1.00  0.00     0.002 A 
HETATM   21  C7  UNL     1       7.758  59.577  -0.730  1.00  0.00     0.037 A 
HETATM   22  C8  UNL     1       8.015  58.195  -0.485  1.00  0.00     0.114 A 
BRANCH  22  23
HETATM   23  N2  UNL     1       9.339  57.797  -0.703  1.00  0.00    -0.115 N 
HETATM   24  O1  UNL     1       9.671  57.622  -1.930  1.00  0.00    -0.532 OA
HETATM   25  O2  UNL     1      10.276  57.601   0.227  1.00  0.00    -0.532 OA
ENDBRANCH  22  23
ENDBRANCH   4  17
TORSDOF 4
ENDMDL
MODEL 4
REMARK VINA RESULT: -8.730251925      2.046      8.107
REMARK  4 active torsions:
REMARK  status: ('A' for Active; 'I' for Inactive)
REMARK    1  A    between atoms: C2_4  and  C3_5 
REMARK    2  A    between atoms: C8_10  and  N2_11 
REMARK    3  A    between atoms: C10_15  and  C11_16 
REMARK       I    between atoms: C11_16  and  N3_18 
REMARK    4  A    between atoms: N3_18  and  C12_20 
ROOT
HETATM    1  N1  UNL     1       8.186  52.239   0.769  1.00  0.00    -0.093 NA
HETATM    2  C1  UNL     1       7.655  53.574   0.621  1.00  0.00     0.103 A 
HETATM    3  S1  UNL     1       8.470  54.977   0.064  1.00  0.00    -0.074 SA
HETATM    4  C2  UNL     1       7.226  56.117   0.170  1.00  0.00     0.020 A 
HETATM    5  C9  UNL     1       6.181  55.358   0.649  1.00  0.00     0.039 A 
HETATM    6  C10 UNL     1       6.403  54.061   0.879  1.00  0.00     0.064 A 
ENDROOT
BRANCH   6   7
HETATM    7  C11 UNL     1       5.339  53.141   1.395  1.00  0.00     0.258 C 
HETATM    8  O3  UNL     1       4.450  53.651   2.110  1.00  0.00    -0.267 OA
HETATM    9  N3  UNL     1       5.342  51.782   1.089  1.00  0.00    -0.323 N 
ATOM     10  H3  UNL     1       6.088  51.426   0.492  1.00  0.00     0.169 HD
BRANCH   9  11
HETATM   11  C12 UNL     1       4.367  50.864   1.559  1.00  0.00     0.035 A 
HETATM   12  C13 UNL     1       3.285  50.533   0.730  1.00  0.00     0.029 A 
HETATM   13  C14 UNL     1       2.348  49.638   1.144  1.00  0.00     0.002 A 
HETATM   14  C15 UNL     1       2.419  49.027   2.374  1.00  0.00     0.000 A 
HETATM   15  C16 UNL     1       3.471  49.334   3.205  1.00  0.00     0.002 A 
HETATM   16  C17 UNL     1       4.418  50.247   2.772  1.00  0.00     0.029 A 
ENDBRANCH   9  11
ENDBRANCH   6   7
BRANCH   4  17
HETATM   17  C3  UNL     1       7.177  57.530  -0.173  1.00  0.00     0.014 A 
HETATM   18  C4  UNL     1       5.957  58.200   0.048  1.00  0.00     0.015 A 
HETATM   19  C5  UNL     1       5.739  59.520  -0.196  1.00  0.00     0.001 A 
HETATM   20  C6  UNL     1       6.784  60.264  -0.697  1.00  0.00     0.002 A 
HETATM   21  C7  UNL     1       7.983  59.672  -0.932  1.00  0.00     0.037 A 
HETATM   22  C8  UNL     1       8.182  58.284  -0.669  1.00  0.00     0.114 A 
BRANCH  22  23
HETATM   23  N2  UNL     1       9.458  57.804  -0.983  1.00  0.00    -0.115 N 
HETATM   24  O1  UNL     1      10.261  57.670   0.009  1.00  0.00    -0.532 OA
HETATM   25  O2  UNL     1       9.905  57.462  -2.193  1.00  0.00    -0.532 OA
ENDBRANCH  22  23
ENDBRANCH   4  17
TORSDOF 4
ENDMDL
MODEL 5
REMARK VINA RESULT: -8.654625672      2.035      7.988
REMARK  4 active torsions:
REMARK  status: ('A' for Active; 'I' for Inactive)
REMARK    1  A    between atoms: C2_4  and  C3_5 
REMARK    2  A    between atoms: C8_10  and  N2_11 
REMARK    3  A    between atoms: C10_15  and  C11_16 
REMARK       I    between atoms: C11_16  and  N3_18 
REMARK    4  A    between atoms: N3_18  and  C12_20 
ROOT
HETATM    1  N1  UNL     1       8.452  52.690   0.627  1.00  0.00    -0.093 NA
HETATM    2  C1  UNL     1       7.809  53.981   0.545  1.00  0.00     0.103 A 
HETATM    3  S1  UNL     1       8.501  55.477   0.068  1.00  0.00    -0.074 SA
HETATM    4  C2  UNL     1       7.163  56.498   0.224  1.00  0.00     0.020 A 
HETATM    5  C9  UNL     1       6.186  55.627   0.655  1.00  0.00     0.039 A 
HETATM    6  C10 UNL     1       6.518  54.344   0.819  1.00  0.00     0.064 A 
ENDROOT
BRANCH   6   7
HETATM    7  C11 UNL     1       5.537  53.311   1.279  1.00  0.00     0.258 C 
HETATM    8  O3  UNL     1       4.744  53.648   2.184  1.00  0.00    -0.267 OA
HETATM    9  N3  UNL     1       5.510  52.034   0.720  1.00  0.00    -0.323 N 
ATOM     10  H3  UNL     1       6.176  51.820  -0.022  1.00  0.00     0.169 HD
BRANCH   9  11
HETATM   11  C12 UNL     1       4.610  51.013   1.125  1.00  0.00     0.035 A 
HETATM   12  C13 UNL     1       4.983  50.146   2.162  1.00  0.00     0.029 A 
HETATM   13  C14 UNL     1       4.132  49.173   2.587  1.00  0.00     0.002 A 
HETATM   14  C15 UNL     1       2.888  49.001   2.027  1.00  0.00     0.000 A 
HETATM   15  C16 UNL     1       2.498  49.839   1.009  1.00  0.00     0.002 A 
HETATM   16  C17 UNL     1       3.374  50.825   0.584  1.00  0.00     0.029 A 
ENDBRANCH   9  11
ENDBRANCH   6   7
BRANCH   4  17
HETATM   17  C3  UNL     1       6.993  57.917  -0.045  1.00  0.00     0.014 A 
HETATM   18  C4  UNL     1       8.012  58.556  -0.781  1.00  0.00     0.015 A 
HETATM   19  C5  UNL     1       8.008  59.868  -1.139  1.00  0.00     0.001 A 
HETATM   20  C6  UNL     1       6.930  60.637  -0.757  1.00  0.00     0.002 A 
HETATM   21  C7  UNL     1       5.919  60.076  -0.046  1.00  0.00     0.037 A 
HETATM   22  C8  UNL     1       5.952  58.697   0.318  1.00  0.00     0.114 A 
BRANCH  22  23
HETATM   23  N2  UNL     1       4.857  58.262   1.073  1.00  0.00    -0.115 N 
HETATM   24  O1  UNL     1       5.068  58.130   2.332  1.00  0.00    -0.532 OA
HETATM   25  O2  UNL     1       3.631  57.995   0.618  1.00  0.00    -0.532 OA
ENDBRANCH  22  23
ENDBRANCH   4  17
TORSDOF 4
ENDMDL
