MODEL 1
REMARK VINA RESULT: -7.900565628      0.000      0.000
REMARK  5 active torsions:
REMARK  status: ('A' for Active; 'I' for Inactive)
REMARK    1  A    between atoms: O1_2  and  C2_3 
REMARK    2  A    between atoms: C5_6  and  C6_7 
REMARK    3  A    between atoms: C6_7  and  C7_9 
REMARK    4  A    between atoms: C11_13  and  N1_14 
REMARK       I    between atoms: N1_14  and  C12_16 
REMARK       I    between atoms: C12_16  and  N2_18 
REMARK    5  A    between atoms: N2_18  and  C13_20 
ROOT
HETATM    1  C7  UNL     1       7.646  57.713   0.024  1.00  0.00     0.018 A 
HETATM    2  C8  UNL     1       6.748  58.641  -0.430  1.00  0.00     0.015 A 
HETATM    3  C9  UNL     1       5.406  58.440  -0.137  1.00  0.00     0.003 A 
HETATM    4  C10 UNL     1       4.999  57.347   0.581  1.00  0.00     0.029 A 
HETATM    5  C11 UNL     1       5.897  56.372   1.062  1.00  0.00     0.037 A 
HETATM    6  C17 UNL     1       7.212  56.598   0.760  1.00  0.00     0.045 A 
ENDROOT
BRANCH   5   7
HETATM    7  N1  UNL     1       5.376  55.267   1.753  1.00  0.00    -0.309 N 
HETATM    8  C12 UNL     1       5.408  53.935   1.310  1.00  0.00     0.321 C 
HETATM    9  O3  UNL     1       5.926  53.515   0.245  1.00  0.00    -0.247 OA
HETATM   10  N2  UNL     1       4.802  52.887   2.107  1.00  0.00    -0.335 N 
ATOM     11  H2  UNL     1       4.356  53.140   2.988  1.00  0.00     0.165 HD
ATOM     12  H1  UNL     1       4.936  55.447   2.655  1.00  0.00     0.170 HD
BRANCH  10  13
HETATM   13  C13 UNL     1       4.805  51.514   1.709  1.00  0.00     0.023 C 
HETATM   14  C14 UNL     1       4.213  50.637   2.814  1.00  0.00     0.037 C 
HETATM   15  C15 UNL     1       4.000  51.374   0.419  1.00  0.00     0.037 C 
HETATM   16  C16 UNL     1       6.221  51.020   1.493  1.00  0.00     0.037 C 
ENDBRANCH  10  13
ENDBRANCH   5   7
BRANCH   1  17
HETATM   17  C6  UNL     1       9.046  57.838  -0.272  1.00  0.00     0.199 C 
HETATM   18  O2  UNL     1       9.852  57.229   0.533  1.00  0.00    -0.286 OA
BRANCH  17  19
HETATM   19  C5  UNL     1       9.649  58.570  -1.386  1.00  0.00     0.058 A 
HETATM   20  C4  UNL     1       9.467  59.804  -1.915  1.00  0.00     0.026 A 
HETATM   21  C3  UNL     1      10.178  60.145  -2.999  1.00  0.00     0.046 A 
HETATM   22  C2  UNL     1      11.049  59.220  -3.504  1.00  0.00     0.109 A 
HETATM   23  S1  UNL     1      10.849  57.895  -2.446  1.00  0.00    -0.062 SA
BRANCH  22  24
HETATM   24  O1  UNL     1      11.898  59.332  -4.620  1.00  0.00    -0.349 OA
HETATM   25  C1  UNL     1      13.033  60.122  -4.653  1.00  0.00     0.211 C 
ENDBRANCH  22  24
ENDBRANCH  17  19
ENDBRANCH   1  17
TORSDOF 5
ENDMDL
MODEL 2
REMARK VINA RESULT: -7.817036217      1.947      2.509
REMARK  5 active torsions:
REMARK  status: ('A' for Active; 'I' for Inactive)
REMARK    1  A    between atoms: O1_2  and  C2_3 
REMARK    2  A    between atoms: C5_6  and  C6_7 
REMARK    3  A    between atoms: C6_7  and  C7_9 
REMARK    4  A    between atoms: C11_13  and  N1_14 
REMARK       I    between atoms: N1_14  and  C12_16 
REMARK       I    between atoms: C12_16  and  N2_18 
REMARK    5  A    between atoms: N2_18  and  C13_20 
ROOT
HETATM    1  C7  UNL     1       5.704  59.364   0.461  1.00  0.00     0.018 A 
HETATM    2  C8  UNL     1       4.750  60.294   0.774  1.00  0.00     0.015 A 
HETATM    3  C9  UNL     1       3.647  59.870   1.503  1.00  0.00     0.003 A 
HETATM    4  C10 UNL     1       3.523  58.562   1.893  1.00  0.00     0.029 A 
HETATM    5  C11 UNL     1       4.487  57.580   1.587  1.00  0.00     0.037 A 
HETATM    6  C17 UNL     1       5.562  58.028   0.869  1.00  0.00     0.045 A 
ENDROOT
BRANCH   5   7
HETATM    7  N1  UNL     1       4.247  56.259   1.997  1.00  0.00    -0.309 N 
HETATM    8  C12 UNL     1       5.084  55.160   1.747  1.00  0.00     0.321 C 
HETATM    9  O3  UNL     1       6.186  55.182   1.143  1.00  0.00    -0.247 OA
HETATM   10  N2  UNL     1       4.702  53.836   2.198  1.00  0.00    -0.335 N 
ATOM     11  H2  UNL     1       3.820  53.725   2.696  1.00  0.00     0.165 HD
ATOM     12  H1  UNL     1       3.391  56.082   2.521  1.00  0.00     0.170 HD
BRANCH  10  13
HETATM   13  C13 UNL     1       5.514  52.680   1.974  1.00  0.00     0.023 C 
HETATM   14  C14 UNL     1       4.995  51.498   2.796  1.00  0.00     0.037 C 
HETATM   15  C15 UNL     1       5.499  52.349   0.484  1.00  0.00     0.037 C 
HETATM   16  C16 UNL     1       6.936  52.923   2.439  1.00  0.00     0.037 C 
ENDBRANCH  10  13
ENDBRANCH   5   7
BRANCH   1  17
HETATM   17  C6  UNL     1       6.853  59.725  -0.322  1.00  0.00     0.199 C 
HETATM   18  O2  UNL     1       6.943  60.970  -0.655  1.00  0.00    -0.286 OA
BRANCH  17  19
HETATM   19  C5  UNL     1       7.926  58.839  -0.772  1.00  0.00     0.058 A 
HETATM   20  C4  UNL     1       8.244  57.543  -0.538  1.00  0.00     0.026 A 
HETATM   21  C3  UNL     1       9.360  57.049  -1.093  1.00  0.00     0.046 A 
HETATM   22  C2  UNL     1      10.110  57.889  -1.867  1.00  0.00     0.109 A 
HETATM   23  S1  UNL     1       9.233  59.352  -1.797  1.00  0.00    -0.062 SA
BRANCH  22  24
HETATM   24  O1  UNL     1      11.309  57.615  -2.551  1.00  0.00    -0.349 OA
HETATM   25  C1  UNL     1      11.372  57.201  -3.869  1.00  0.00     0.211 C 
ENDBRANCH  22  24
ENDBRANCH  17  19
ENDBRANCH   1  17
TORSDOF 5
ENDMDL
MODEL 3
REMARK VINA RESULT: -7.789155538      3.831      5.738
REMARK  5 active torsions:
REMARK  status: ('A' for Active; 'I' for Inactive)
REMARK    1  A    between atoms: O1_2  and  C2_3 
REMARK    2  A    between atoms: C5_6  and  C6_7 
REMARK    3  A    between atoms: C6_7  and  C7_9 
REMARK    4  A    between atoms: C11_13  and  N1_14 
REMARK       I    between atoms: N1_14  and  C12_16 
REMARK       I    between atoms: C12_16  and  N2_18 
REMARK    5  A    between atoms: N2_18  and  C13_20 
ROOT
HETATM    1  C7  UNL     1       6.350  53.575   1.114  1.00  0.00     0.018 A 
HETATM    2  C8  UNL     1       7.646  53.218   1.376  1.00  0.00     0.015 A 
HETATM    3  C9  UNL     1       7.863  52.188   2.280  1.00  0.00     0.003 A 
HETATM    4  C10 UNL     1       6.812  51.553   2.890  1.00  0.00     0.029 A 
HETATM    5  C11 UNL     1       5.467  51.896   2.643  1.00  0.00     0.037 A 
HETATM    6  C17 UNL     1       5.285  52.913   1.746  1.00  0.00     0.045 A 
ENDROOT
BRANCH   5   7
HETATM    7  N1  UNL     1       4.463  51.214   3.348  1.00  0.00    -0.309 N 
HETATM    8  C12 UNL     1       3.865  50.006   2.958  1.00  0.00     0.321 C 
HETATM    9  O3  UNL     1       4.145  49.331   1.935  1.00  0.00    -0.247 OA
HETATM   10  N2  UNL     1       2.811  49.421   3.762  1.00  0.00    -0.335 N 
ATOM     11  H2  UNL     1       2.518  49.905   4.611  1.00  0.00     0.165 HD
ATOM     12  H1  UNL     1       4.141  51.633   4.220  1.00  0.00     0.170 HD
BRANCH  10  13
HETATM   13  C13 UNL     1       2.166  48.192   3.416  1.00  0.00     0.023 C 
HETATM   14  C14 UNL     1       1.575  48.279   2.008  1.00  0.00     0.037 C 
HETATM   15  C15 UNL     1       3.185  47.059   3.505  1.00  0.00     0.037 C 
HETATM   16  C16 UNL     1       1.001  47.918   4.346  1.00  0.00     0.037 C 
ENDBRANCH  10  13
ENDBRANCH   5   7
BRANCH   1  17
HETATM   17  C6  UNL     1       6.053  54.656   0.216  1.00  0.00     0.199 C 
HETATM   18  O2  UNL     1       6.146  54.387  -1.044  1.00  0.00    -0.286 OA
BRANCH  17  19
HETATM   19  C5  UNL     1       5.652  56.016   0.577  1.00  0.00     0.058 A 
HETATM   20  C4  UNL     1       4.732  56.537   1.423  1.00  0.00     0.026 A 
HETATM   21  C3  UNL     1       4.593  57.870   1.473  1.00  0.00     0.046 A 
HETATM   22  C2  UNL     1       5.396  58.622   0.663  1.00  0.00     0.109 A 
HETATM   23  S1  UNL     1       6.326  57.443  -0.150  1.00  0.00    -0.062 SA
BRANCH  22  24
HETATM   24  O1  UNL     1       5.444  60.023   0.530  1.00  0.00    -0.349 OA
HETATM   25  C1  UNL     1       6.500  60.711  -0.037  1.00  0.00     0.211 C 
ENDBRANCH  22  24
ENDBRANCH  17  19
ENDBRANCH   1  17
TORSDOF 5
ENDMDL
MODEL 4
REMARK VINA RESULT: -7.786607398      3.033      5.436
REMARK  5 active torsions:
REMARK  status: ('A' for Active; 'I' for Inactive)
REMARK    1  A    between atoms: O1_2  and  C2_3 
REMARK    2  A    between atoms: C5_6  and  C6_7 
REMARK    3  A    between atoms: C6_7  and  C7_9 
REMARK    4  A    between atoms: C11_13  and  N1_14 
REMARK       I    between atoms: N1_14  and  C12_16 
REMARK       I    between atoms: C12_16  and  N2_18 
REMARK    5  A    between atoms: N2_18  and  C13_20 
ROOT
HETATM    1  C7  UNL     1       5.804  53.968   2.072  1.00  0.00     0.018 A 
HETATM    2  C8  UNL     1       5.572  53.699   0.749  1.00  0.00     0.015 A 
HETATM    3  C9  UNL     1       5.360  52.376   0.386  1.00  0.00     0.003 A 
HETATM    4  C10 UNL     1       5.385  51.377   1.323  1.00  0.00     0.029 A 
HETATM    5  C11 UNL     1       5.622  51.620   2.691  1.00  0.00     0.037 A 
HETATM    6  C17 UNL     1       5.826  52.932   3.019  1.00  0.00     0.045 A 
ENDROOT
BRANCH   5   7
HETATM    7  N1  UNL     1       5.669  50.523   3.566  1.00  0.00    -0.309 N 
HETATM    8  C12 UNL     1       4.603  49.656   3.851  1.00  0.00     0.321 C 
HETATM    9  O3  UNL     1       3.449  49.704   3.354  1.00  0.00    -0.247 OA
HETATM   10  N2  UNL     1       4.774  48.577   4.803  1.00  0.00    -0.335 N 
ATOM     11  H2  UNL     1       5.680  48.465   5.257  1.00  0.00     0.165 HD
ATOM     12  H1  UNL     1       6.556  50.340   4.036  1.00  0.00     0.170 HD
BRANCH  10  13
HETATM   13  C13 UNL     1       3.725  47.662   5.131  1.00  0.00     0.023 C 
HETATM   14  C14 UNL     1       4.261  46.532   6.013  1.00  0.00     0.037 C 
HETATM   15  C15 UNL     1       2.614  48.425   5.847  1.00  0.00     0.037 C 
HETATM   16  C16 UNL     1       3.180  46.999   3.882  1.00  0.00     0.037 C 
ENDBRANCH  10  13
ENDBRANCH   5   7
BRANCH   1  17
HETATM   17  C6  UNL     1       6.067  55.310   2.513  1.00  0.00     0.199 C 
HETATM   18  O2  UNL     1       6.398  55.442   3.755  1.00  0.00    -0.286 OA
BRANCH  17  19
HETATM   19  C5  UNL     1       6.007  56.530   1.709  1.00  0.00     0.058 A 
HETATM   20  C4  UNL     1       5.067  57.483   1.506  1.00  0.00     0.026 A 
HETATM   21  C3  UNL     1       5.335  58.470   0.639  1.00  0.00     0.046 A 
HETATM   22  C2  UNL     1       6.550  58.452   0.012  1.00  0.00     0.109 A 
HETATM   23  S1  UNL     1       7.286  57.052   0.654  1.00  0.00    -0.062 SA
BRANCH  22  24
HETATM   24  O1  UNL     1       7.065  59.362  -0.930  1.00  0.00    -0.349 OA
HETATM   25  C1  UNL     1       8.411  59.507  -1.210  1.00  0.00     0.211 C 
ENDBRANCH  22  24
ENDBRANCH  17  19
ENDBRANCH   1  17
TORSDOF 5
ENDMDL
MODEL 5
REMARK VINA RESULT: -7.752081299      3.285      4.591
REMARK  5 active torsions:
REMARK  status: ('A' for Active; 'I' for Inactive)
REMARK    1  A    between atoms: O1_2  and  C2_3 
REMARK    2  A    between atoms: C5_6  and  C6_7 
REMARK    3  A    between atoms: C6_7  and  C7_9 
REMARK    4  A    between atoms: C11_13  and  N1_14 
REMARK       I    between atoms: N1_14  and  C12_16 
REMARK       I    between atoms: C12_16  and  N2_18 
REMARK    5  A    between atoms: N2_18  and  C13_20 
ROOT
HETATM    1  C7  UNL     1       5.182  56.723   1.545  1.00  0.00     0.018 A 
HETATM    2  C8  UNL     1       4.106  55.893   1.715  1.00  0.00     0.015 A 
HETATM    3  C9  UNL     1       4.353  54.590   2.125  1.00  0.00     0.003 A 
HETATM    4  C10 UNL     1       5.632  54.153   2.348  1.00  0.00     0.029 A 
HETATM    5  C11 UNL     1       6.761  54.981   2.182  1.00  0.00     0.037 A 
HETATM    6  C17 UNL     1       6.487  56.260   1.780  1.00  0.00     0.045 A 
ENDROOT
BRANCH   5   7
HETATM    7  N1  UNL     1       8.033  54.428   2.396  1.00  0.00    -0.309 N 
HETATM    8  C12 UNL     1       8.868  53.885   1.406  1.00  0.00     0.321 C 
HETATM    9  O3  UNL     1       8.626  53.829   0.174  1.00  0.00    -0.247 OA
HETATM   10  N2  UNL     1      10.149  53.312   1.767  1.00  0.00    -0.335 N 
ATOM     11  H2  UNL     1      10.426  53.312   2.748  1.00  0.00     0.165 HD
ATOM     12  H1  UNL     1       8.381  54.419   3.354  1.00  0.00     0.170 HD
BRANCH  10  13
HETATM   13  C13 UNL     1      11.042  52.747   0.803  1.00  0.00     0.023 C 
HETATM   14  C14 UNL     1      12.431  52.551   1.414  1.00  0.00     0.037 C 
HETATM   15  C15 UNL     1      10.469  51.415   0.325  1.00  0.00     0.037 C 
HETATM   16  C16 UNL     1      11.227  53.685  -0.372  1.00  0.00     0.037 C 
ENDBRANCH  10  13
ENDBRANCH   5   7
BRANCH   1  17
HETATM   17  C6  UNL     1       5.003  58.073   1.089  1.00  0.00     0.199 C 
HETATM   18  O2  UNL     1       3.864  58.617   1.363  1.00  0.00    -0.286 OA
BRANCH  17  19
HETATM   19  C5  UNL     1       5.972  58.892   0.360  1.00  0.00     0.058 A 
HETATM   20  C4  UNL     1       6.055  60.209   0.052  1.00  0.00     0.026 A 
HETATM   21  C3  UNL     1       7.087  60.625  -0.695  1.00  0.00     0.046 A 
HETATM   22  C2  UNL     1       7.996  59.689  -1.101  1.00  0.00     0.109 A 
HETATM   23  S1  UNL     1       7.382  58.247  -0.424  1.00  0.00    -0.062 SA
BRANCH  22  24
HETATM   24  O1  UNL     1       9.152  59.869  -1.884  1.00  0.00    -0.349 OA
HETATM   25  C1  UNL     1      10.029  58.852  -2.215  1.00  0.00     0.211 C 
ENDBRANCH  22  24
ENDBRANCH  17  19
ENDBRANCH   1  17
TORSDOF 5
ENDMDL
