MODEL 1
REMARK VINA RESULT: -9.119913867      0.000      0.000
REMARK  5 active torsions:
REMARK  status: ('A' for Active; 'I' for Inactive)
REMARK       I    between atoms: C1_2  and  N1_3 
REMARK    1  A    between atoms: C1_2  and  C8_13 
REMARK    2  A    between atoms: N1_3  and  C2_5 
REMARK    3  A    between atoms: C5_8  and  O2_9 
REMARK    4  A    between atoms: C10_15  and  N2_16 
REMARK    5  A    between atoms: C11_19  and  C12_20 
ROOT
HETATM    1  C8  UNL     1       6.780  53.832   0.619  1.00  0.00     0.076 A 
HETATM    2  C9  UNL     1       8.076  54.210   0.546  1.00  0.00     0.062 A 
HETATM    3  C10 UNL     1       8.359  55.515   0.277  1.00  0.00     0.122 A 
HETATM    4  C11 UNL     1       7.322  56.351   0.093  1.00  0.00     0.049 A 
HETATM    5  S1  UNL     1       5.955  55.288   0.313  1.00  0.00    -0.081 SA
ENDROOT
BRANCH   1   6
HETATM    6  C1  UNL     1       6.200  52.496   0.896  1.00  0.00     0.263 C 
HETATM    7  O1  UNL     1       6.903  51.538   0.600  1.00  0.00    -0.267 OA
HETATM    8  N1  UNL     1       4.933  52.421   1.459  1.00  0.00    -0.323 N 
ATOM      9  H1  UNL     1       4.471  53.310   1.651  1.00  0.00     0.169 HD
BRANCH   8  10
HETATM   10  C2  UNL     1       4.217  51.267   1.792  1.00  0.00     0.035 A 
HETATM   11  C3  UNL     1       4.388  50.566   2.948  1.00  0.00     0.032 A 
HETATM   12  C4  UNL     1       3.640  49.400   3.245  1.00  0.00     0.039 A 
HETATM   13  C5  UNL     1       2.701  48.935   2.354  1.00  0.00     0.065 A 
HETATM   14  C6  UNL     1       2.526  49.639   1.187  1.00  0.00     0.039 A 
HETATM   15  C7  UNL     1       3.251  50.771   0.896  1.00  0.00     0.032 A 
BRANCH  13  16
HETATM   16  O2  UNL     1       1.959  47.796   2.629  1.00  0.00    -0.361 OA
ATOM     17  H2  UNL     1       2.160  46.967   2.208  1.00  0.00     0.217 HD
ENDBRANCH  13  16
ENDBRANCH   8  10
ENDBRANCH   1   6
BRANCH   3  18
HETATM   18  N2  UNL     1       9.751  55.932   0.242  1.00  0.00    -0.114 N 
HETATM   19  O3  UNL     1      10.113  56.810   1.027  1.00  0.00    -0.532 OA
HETATM   20  O4  UNL     1      10.640  55.293  -0.565  1.00  0.00    -0.532 OA
ENDBRANCH   3  18
BRANCH   4  21
HETATM   21  C12 UNL     1       7.138  57.755  -0.198  1.00  0.00    -0.017 A 
HETATM   22  C13 UNL     1       8.012  58.530  -0.898  1.00  0.00     0.013 A 
HETATM   23  C14 UNL     1       7.799  59.908  -1.085  1.00  0.00     0.001 A 
HETATM   24  C15 UNL     1       6.680  60.500  -0.552  1.00  0.00     0.000 A 
HETATM   25  C16 UNL     1       5.799  59.725   0.149  1.00  0.00     0.001 A 
HETATM   26  C17 UNL     1       6.024  58.396   0.319  1.00  0.00     0.013 A 
ENDBRANCH   4  21
TORSDOF 5
ENDMDL
MODEL 2
REMARK VINA RESULT: -9.117940593      0.094      1.164
REMARK  5 active torsions:
REMARK  status: ('A' for Active; 'I' for Inactive)
REMARK       I    between atoms: C1_2  and  N1_3 
REMARK    1  A    between atoms: C1_2  and  C8_13 
REMARK    2  A    between atoms: N1_3  and  C2_5 
REMARK    3  A    between atoms: C5_8  and  O2_9 
REMARK    4  A    between atoms: C10_15  and  N2_16 
REMARK    5  A    between atoms: C11_19  and  C12_20 
ROOT
HETATM    1  C8  UNL     1       6.758  53.814   0.605  1.00  0.00     0.076 A 
HETATM    2  C9  UNL     1       8.055  54.191   0.555  1.00  0.00     0.062 A 
HETATM    3  C10 UNL     1       8.344  55.496   0.290  1.00  0.00     0.122 A 
HETATM    4  C11 UNL     1       7.311  56.332   0.086  1.00  0.00     0.049 A 
HETATM    5  S1  UNL     1       5.940  55.269   0.282  1.00  0.00    -0.081 SA
ENDROOT
BRANCH   1   6
HETATM    6  C1  UNL     1       6.173  52.478   0.873  1.00  0.00     0.263 C 
HETATM    7  O1  UNL     1       6.884  51.519   0.600  1.00  0.00    -0.267 OA
HETATM    8  N1  UNL     1       4.892  52.404   1.403  1.00  0.00    -0.323 N 
ATOM      9  H1  UNL     1       4.424  53.293   1.580  1.00  0.00     0.169 HD
BRANCH   8  10
HETATM   10  C2  UNL     1       4.169  51.250   1.723  1.00  0.00     0.035 A 
HETATM   11  C3  UNL     1       3.228  50.688   0.914  1.00  0.00     0.032 A 
HETATM   12  C4  UNL     1       2.519  49.516   1.277  1.00  0.00     0.039 A 
HETATM   13  C5  UNL     1       2.767  48.903   2.483  1.00  0.00     0.065 A 
HETATM   14  C6  UNL     1       3.716  49.468   3.302  1.00  0.00     0.039 A 
HETATM   15  C7  UNL     1       4.406  50.605   2.951  1.00  0.00     0.032 A 
BRANCH  13  16
HETATM   16  O2  UNL     1       2.083  47.755   2.855  1.00  0.00    -0.361 OA
ATOM     17  H2  UNL     1       2.548  46.946   3.037  1.00  0.00     0.217 HD
ENDBRANCH  13  16
ENDBRANCH   8  10
ENDBRANCH   1   6
BRANCH   3  18
HETATM   18  N2  UNL     1       9.737  55.912   0.280  1.00  0.00    -0.114 N 
HETATM   19  O3  UNL     1      10.501  55.362  -0.514  1.00  0.00    -0.532 OA
HETATM   20  O4  UNL     1      10.149  56.952   1.055  1.00  0.00    -0.532 OA
ENDBRANCH   3  18
BRANCH   4  21
HETATM   21  C12 UNL     1       7.133  57.735  -0.210  1.00  0.00    -0.017 A 
HETATM   22  C13 UNL     1       8.012  58.504  -0.910  1.00  0.00     0.013 A 
HETATM   23  C14 UNL     1       7.804  59.883  -1.102  1.00  0.00     0.001 A 
HETATM   24  C15 UNL     1       6.686  60.480  -0.575  1.00  0.00     0.000 A 
HETATM   25  C16 UNL     1       5.800  59.711   0.126  1.00  0.00     0.001 A 
HETATM   26  C17 UNL     1       6.020  58.382   0.301  1.00  0.00     0.013 A 
ENDBRANCH   4  21
TORSDOF 5
ENDMDL
MODEL 3
REMARK VINA RESULT: -8.708522724      2.267      2.757
REMARK  5 active torsions:
REMARK  status: ('A' for Active; 'I' for Inactive)
REMARK       I    between atoms: C1_2  and  N1_3 
REMARK    1  A    between atoms: C1_2  and  C8_13 
REMARK    2  A    between atoms: N1_3  and  C2_5 
REMARK    3  A    between atoms: C5_8  and  O2_9 
REMARK    4  A    between atoms: C10_15  and  N2_16 
REMARK    5  A    between atoms: C11_19  and  C12_20 
ROOT
HETATM    1  C8  UNL     1       5.666  53.974   0.898  1.00  0.00     0.076 A 
HETATM    2  C9  UNL     1       5.010  55.058   1.368  1.00  0.00     0.062 A 
HETATM    3  C10 UNL     1       5.476  56.295   1.038  1.00  0.00     0.122 A 
HETATM    4  C11 UNL     1       6.574  56.359   0.264  1.00  0.00     0.049 A 
HETATM    5  S1  UNL     1       6.931  54.671   0.000  1.00  0.00    -0.081 SA
ENDROOT
BRANCH   1   6
HETATM    6  C1  UNL     1       5.375  52.534   1.100  1.00  0.00     0.263 C 
HETATM    7  O1  UNL     1       6.156  51.753   0.572  1.00  0.00    -0.267 OA
HETATM    8  N1  UNL     1       4.265  52.175   1.853  1.00  0.00    -0.323 N 
ATOM      9  H1  UNL     1       3.709  52.942   2.231  1.00  0.00     0.169 HD
BRANCH   8  10
HETATM   10  C2  UNL     1       3.823  50.883   2.154  1.00  0.00     0.035 A 
HETATM   11  C3  UNL     1       4.247  50.160   3.229  1.00  0.00     0.032 A 
HETATM   12  C4  UNL     1       3.771  48.852   3.497  1.00  0.00     0.039 A 
HETATM   13  C5  UNL     1       2.850  48.266   2.660  1.00  0.00     0.065 A 
HETATM   14  C6  UNL     1       2.421  48.993   1.575  1.00  0.00     0.039 A 
HETATM   15  C7  UNL     1       2.881  50.263   1.313  1.00  0.00     0.032 A 
BRANCH  13  16
HETATM   16  O2  UNL     1       2.373  46.987   2.907  1.00  0.00    -0.361 OA
ATOM     17  H2  UNL     1       1.486  46.848   3.219  1.00  0.00     0.217 HD
ENDBRANCH  13  16
ENDBRANCH   8  10
ENDBRANCH   1   6
BRANCH   3  18
HETATM   18  N2  UNL     1       4.746  57.462   1.505  1.00  0.00    -0.114 N 
HETATM   19  O3  UNL     1       5.158  58.039   2.512  1.00  0.00    -0.532 OA
HETATM   20  O4  UNL     1       3.701  57.953   0.784  1.00  0.00    -0.532 OA
ENDBRANCH   3  18
BRANCH   4  21
HETATM   21  C12 UNL     1       7.394  57.397  -0.319  1.00  0.00    -0.017 A 
HETATM   22  C13 UNL     1       7.028  58.702  -0.448  1.00  0.00     0.013 A 
HETATM   23  C14 UNL     1       7.853  59.645  -1.088  1.00  0.00     0.001 A 
HETATM   24  C15 UNL     1       9.065  59.250  -1.600  1.00  0.00     0.000 A 
HETATM   25  C16 UNL     1       9.436  57.941  -1.470  1.00  0.00     0.001 A 
HETATM   26  C17 UNL     1       8.624  57.046  -0.849  1.00  0.00     0.013 A 
ENDBRANCH   4  21
TORSDOF 5
ENDMDL
MODEL 4
REMARK VINA RESULT: -8.498021629      1.648      1.884
REMARK  5 active torsions:
REMARK  status: ('A' for Active; 'I' for Inactive)
REMARK       I    between atoms: C1_2  and  N1_3 
REMARK    1  A    between atoms: C1_2  and  C8_13 
REMARK    2  A    between atoms: N1_3  and  C2_5 
REMARK    3  A    between atoms: C5_8  and  O2_9 
REMARK    4  A    between atoms: C10_15  and  N2_16 
REMARK    5  A    between atoms: C11_19  and  C12_20 
ROOT
HETATM    1  C8  UNL     1       6.812  53.848   0.947  1.00  0.00     0.076 A 
HETATM    2  C9  UNL     1       8.076  54.301   0.797  1.00  0.00     0.062 A 
HETATM    3  C10 UNL     1       8.264  55.612   0.478  1.00  0.00     0.122 A 
HETATM    4  C11 UNL     1       7.169  56.378   0.327  1.00  0.00     0.049 A 
HETATM    5  S1  UNL     1       5.884  55.241   0.647  1.00  0.00    -0.081 SA
ENDROOT
BRANCH   1   6
HETATM    6  C1  UNL     1       6.331  52.488   1.290  1.00  0.00     0.263 C 
HETATM    7  O1  UNL     1       5.651  51.931   0.437  1.00  0.00    -0.267 OA
HETATM    8  N1  UNL     1       6.674  51.948   2.523  1.00  0.00    -0.323 N 
ATOM      9  H1  UNL     1       7.250  52.534   3.128  1.00  0.00     0.169 HD
BRANCH   8  10
HETATM   10  C2  UNL     1       6.322  50.694   3.031  1.00  0.00     0.035 A 
HETATM   11  C3  UNL     1       7.067  49.565   2.868  1.00  0.00     0.032 A 
HETATM   12  C4  UNL     1       6.672  48.313   3.401  1.00  0.00     0.039 A 
HETATM   13  C5  UNL     1       5.499  48.202   4.111  1.00  0.00     0.065 A 
HETATM   14  C6  UNL     1       4.745  49.339   4.276  1.00  0.00     0.039 A 
HETATM   15  C7  UNL     1       5.126  50.555   3.760  1.00  0.00     0.032 A 
BRANCH  13  16
HETATM   16  O2  UNL     1       5.097  46.984   4.640  1.00  0.00    -0.361 OA
ATOM     17  H2  UNL     1       4.201  46.682   4.545  1.00  0.00     0.217 HD
ENDBRANCH  13  16
ENDBRANCH   8  10
ENDBRANCH   1   6
BRANCH   3  18
HETATM   18  N2  UNL     1       9.624  56.111   0.359  1.00  0.00    -0.114 N 
HETATM   19  O3  UNL     1       9.996  56.977   1.154  1.00  0.00    -0.532 OA
HETATM   20  O4  UNL     1      10.484  55.558  -0.539  1.00  0.00    -0.532 OA
ENDBRANCH   3  18
BRANCH   4  21
HETATM   21  C12 UNL     1       6.884  57.759   0.009  1.00  0.00    -0.017 A 
HETATM   22  C13 UNL     1       7.701  58.582  -0.705  1.00  0.00     0.013 A 
HETATM   23  C14 UNL     1       7.389  59.937  -0.918  1.00  0.00     0.001 A 
HETATM   24  C15 UNL     1       6.229  60.455  -0.399  1.00  0.00     0.000 A 
HETATM   25  C16 UNL     1       5.405  59.632   0.317  1.00  0.00     0.001 A 
HETATM   26  C17 UNL     1       5.726  58.326   0.512  1.00  0.00     0.013 A 
ENDBRANCH   4  21
TORSDOF 5
ENDMDL
MODEL 5
REMARK VINA RESULT: -8.452050790      2.107      2.556
REMARK  5 active torsions:
REMARK  status: ('A' for Active; 'I' for Inactive)
REMARK       I    between atoms: C1_2  and  N1_3 
REMARK    1  A    between atoms: C1_2  and  C8_13 
REMARK    2  A    between atoms: N1_3  and  C2_5 
REMARK    3  A    between atoms: C5_8  and  O2_9 
REMARK    4  A    between atoms: C10_15  and  N2_16 
REMARK    5  A    between atoms: C11_19  and  C12_20 
ROOT
HETATM    1  C8  UNL     1       5.757  53.405   1.284  1.00  0.00     0.076 A 
HETATM    2  C9  UNL     1       5.757  54.346   2.253  1.00  0.00     0.062 A 
HETATM    3  C10 UNL     1       6.260  55.578   1.964  1.00  0.00     0.122 A 
HETATM    4  C11 UNL     1       6.734  55.780   0.722  1.00  0.00     0.049 A 
HETATM    5  S1  UNL     1       6.455  54.230  -0.030  1.00  0.00    -0.081 SA
ENDROOT
BRANCH   1   6
HETATM    6  C1  UNL     1       5.275  52.003   1.328  1.00  0.00     0.263 C 
HETATM    7  O1  UNL     1       5.910  51.198   0.659  1.00  0.00    -0.267 OA
HETATM    8  N1  UNL     1       4.164  51.704   2.106  1.00  0.00    -0.323 N 
ATOM      9  H1  UNL     1       3.742  52.484   2.610  1.00  0.00     0.169 HD
BRANCH   8  10
HETATM   10  C2  UNL     1       3.557  50.455   2.277  1.00  0.00     0.035 A 
HETATM   11  C3  UNL     1       2.656  49.915   1.409  1.00  0.00     0.032 A 
HETATM   12  C4  UNL     1       2.067  48.645   1.622  1.00  0.00     0.039 A 
HETATM   13  C5  UNL     1       2.395  47.907   2.736  1.00  0.00     0.065 A 
HETATM   14  C6  UNL     1       3.303  48.449   3.614  1.00  0.00     0.039 A 
HETATM   15  C7  UNL     1       3.877  49.682   3.409  1.00  0.00     0.032 A 
BRANCH  13  16
HETATM   16  O2  UNL     1       1.828  46.661   2.960  1.00  0.00    -0.361 OA
ATOM     17  H2  UNL     1       2.053  46.153   3.731  1.00  0.00     0.217 HD
ENDBRANCH  13  16
ENDBRANCH   8  10
ENDBRANCH   1   6
BRANCH   3  18
HETATM   18  N2  UNL     1       6.220  56.605   2.992  1.00  0.00    -0.114 N 
HETATM   19  O3  UNL     1       5.476  57.572   2.818  1.00  0.00    -0.532 OA
HETATM   20  O4  UNL     1       6.909  56.442   4.154  1.00  0.00    -0.532 OA
ENDBRANCH   3  18
BRANCH   4  21
HETATM   21  C12 UNL     1       7.332  56.871  -0.014  1.00  0.00    -0.017 A 
HETATM   22  C13 UNL     1       8.586  56.862  -0.546  1.00  0.00     0.013 A 
HETATM   23  C14 UNL     1       9.128  57.988  -1.192  1.00  0.00     0.001 A 
HETATM   24  C15 UNL     1       8.380  59.134  -1.298  1.00  0.00     0.000 A 
HETATM   25  C16 UNL     1       7.120  59.148  -0.768  1.00  0.00     0.001 A 
HETATM   26  C17 UNL     1       6.616  58.049  -0.146  1.00  0.00     0.013 A 
ENDBRANCH   4  21
TORSDOF 5
ENDMDL
