MODEL 1
REMARK VINA RESULT: -9.036267232      0.000      0.000
REMARK  4 active torsions:
REMARK  status: ('A' for Active; 'I' for Inactive)
REMARK    1  A    between atoms: C3_5  and  C4_6 
REMARK    2  A    between atoms: C7_9  and  N2_10 
REMARK    3  A    between atoms: C10_15  and  C11_16 
REMARK       I    between atoms: C11_16  and  N3_18 
REMARK    4  A    between atoms: N3_18  and  C12_20 
ROOT
HETATM    1  N1  UNL     1       6.127  61.084   0.024  1.00  0.00    -0.093 NA
HETATM    2  C1  UNL     1       5.533  59.841   0.466  1.00  0.00     0.103 A 
HETATM    3  S1  UNL     1       4.016  59.590   1.170  1.00  0.00    -0.085 SA
HETATM    4  C2  UNL     1       4.079  57.926   1.388  1.00  0.00     0.065 A 
HETATM    5  C3  UNL     1       5.331  57.566   0.888  1.00  0.00    -0.001 A 
HETATM    6  C10 UNL     1       6.115  58.555   0.403  1.00  0.00     0.075 A 
ENDROOT
BRANCH   6   7
HETATM    7  C11 UNL     1       7.471  58.433  -0.176  1.00  0.00     0.259 C 
HETATM    8  O3  UNL     1       8.319  57.767   0.520  1.00  0.00    -0.267 OA
HETATM    9  N3  UNL     1       7.911  58.956  -1.392  1.00  0.00    -0.323 N 
ATOM     10  H3  UNL     1       7.253  59.483  -1.966  1.00  0.00     0.169 HD
BRANCH   9  11
HETATM   11  C12 UNL     1       9.266  58.780  -1.869  1.00  0.00     0.035 A 
HETATM   12  C13 UNL     1       9.894  59.862  -2.449  1.00  0.00     0.029 A 
HETATM   13  C14 UNL     1      11.172  59.773  -2.958  1.00  0.00     0.002 A 
HETATM   14  C15 UNL     1      11.827  58.563  -2.881  1.00  0.00     0.000 A 
HETATM   15  C16 UNL     1      11.189  57.494  -2.302  1.00  0.00     0.002 A 
HETATM   16  C17 UNL     1       9.890  57.576  -1.781  1.00  0.00     0.029 A 
ENDBRANCH   9  11
ENDBRANCH   6   7
BRANCH   5  17
HETATM   17  C4  UNL     1       5.563  56.074   0.862  1.00  0.00    -0.024 A 
HETATM   18  C5  UNL     1       5.124  55.268   1.882  1.00  0.00     0.015 A 
HETATM   19  C6  UNL     1       5.254  53.900   1.825  1.00  0.00     0.037 A 
HETATM   20  C7  UNL     1       5.834  53.297   0.732  1.00  0.00     0.102 A 
HETATM   21  C8  UNL     1       6.274  54.109  -0.291  1.00  0.00     0.037 A 
HETATM   22  C9  UNL     1       6.148  55.480  -0.241  1.00  0.00     0.015 A 
BRANCH  20  23
HETATM   23  N2  UNL     1       5.960  51.884   0.692  1.00  0.00    -0.116 N 
HETATM   24  O1  UNL     1       4.943  51.168   0.654  1.00  0.00    -0.532 OA
HETATM   25  O2  UNL     1       7.180  51.254   0.692  1.00  0.00    -0.532 OA
ENDBRANCH  20  23
ENDBRANCH   5  17
TORSDOF 4
ENDMDL
MODEL 2
REMARK VINA RESULT: -9.017785275      2.890      6.367
REMARK  4 active torsions:
REMARK  status: ('A' for Active; 'I' for Inactive)
REMARK    1  A    between atoms: C3_5  and  C4_6 
REMARK    2  A    between atoms: C7_9  and  N2_10 
REMARK    3  A    between atoms: C10_15  and  C11_16 
REMARK       I    between atoms: C11_16  and  N3_18 
REMARK    4  A    between atoms: N3_18  and  C12_20 
ROOT
HETATM    1  N1  UNL     1       4.001  55.392   2.260  1.00  0.00    -0.093 NA
HETATM    2  C1  UNL     1       4.581  56.491   1.518  1.00  0.00     0.103 A 
HETATM    3  S1  UNL     1       3.946  58.037   1.258  1.00  0.00    -0.085 SA
HETATM    4  C2  UNL     1       5.182  58.695   0.330  1.00  0.00     0.065 A 
HETATM    5  C3  UNL     1       6.116  57.663   0.229  1.00  0.00    -0.001 A 
HETATM    6  C10 UNL     1       5.821  56.495   0.842  1.00  0.00     0.075 A 
ENDROOT
BRANCH   6   7
HETATM    7  C11 UNL     1       6.639  55.263   0.881  1.00  0.00     0.259 C 
HETATM    8  O3  UNL     1       6.399  54.401  -0.038  1.00  0.00    -0.267 OA
HETATM    9  N3  UNL     1       7.639  54.953   1.804  1.00  0.00    -0.323 N 
ATOM     10  H3  UNL     1       7.853  55.626   2.540  1.00  0.00     0.169 HD
BRANCH   9  11
HETATM   11  C12 UNL     1       8.384  53.713   1.756  1.00  0.00     0.035 A 
HETATM   12  C13 UNL     1       7.929  52.655   2.512  1.00  0.00     0.029 A 
HETATM   13  C14 UNL     1       8.596  51.448   2.549  1.00  0.00     0.002 A 
HETATM   14  C15 UNL     1       9.747  51.312   1.806  1.00  0.00     0.000 A 
HETATM   15  C16 UNL     1      10.189  52.374   1.058  1.00  0.00     0.002 A 
HETATM   16  C17 UNL     1       9.518  53.604   1.014  1.00  0.00     0.029 A 
ENDBRANCH   9  11
ENDBRANCH   6   7
BRANCH   5  17
HETATM   17  C4  UNL     1       7.393  58.073  -0.465  1.00  0.00    -0.024 A 
HETATM   18  C5  UNL     1       8.337  57.145  -0.825  1.00  0.00     0.015 A 
HETATM   19  C6  UNL     1       9.462  57.498  -1.534  1.00  0.00     0.037 A 
HETATM   20  C7  UNL     1       9.672  58.806  -1.905  1.00  0.00     0.102 A 
HETATM   21  C8  UNL     1       8.722  59.737  -1.543  1.00  0.00     0.037 A 
HETATM   22  C9  UNL     1       7.593  59.391  -0.833  1.00  0.00     0.015 A 
BRANCH  20  23
HETATM   23  N2  UNL     1      10.838  59.153  -2.636  1.00  0.00    -0.116 N 
HETATM   24  O1  UNL     1      10.886  60.228  -3.260  1.00  0.00    -0.532 OA
HETATM   25  O2  UNL     1      11.943  58.339  -2.688  1.00  0.00    -0.532 OA
ENDBRANCH  20  23
ENDBRANCH   5  17
TORSDOF 4
ENDMDL
MODEL 3
REMARK VINA RESULT: -9.003037520      3.491      5.233
REMARK  4 active torsions:
REMARK  status: ('A' for Active; 'I' for Inactive)
REMARK    1  A    between atoms: C3_5  and  C4_6 
REMARK    2  A    between atoms: C7_9  and  N2_10 
REMARK    3  A    between atoms: C10_15  and  C11_16 
REMARK       I    between atoms: C11_16  and  N3_18 
REMARK    4  A    between atoms: N3_18  and  C12_20 
ROOT
HETATM    1  N1  UNL     1      10.131  56.882   0.696  1.00  0.00    -0.093 NA
HETATM    2  C1  UNL     1       9.679  55.507   0.710  1.00  0.00     0.103 A 
HETATM    3  S1  UNL     1      10.584  54.099   0.468  1.00  0.00    -0.085 SA
HETATM    4  C2  UNL     1       9.368  52.952   0.634  1.00  0.00     0.065 A 
HETATM    5  C3  UNL     1       8.223  53.707   0.890  1.00  0.00    -0.001 A 
HETATM    6  C10 UNL     1       8.361  55.052   0.931  1.00  0.00     0.075 A 
ENDROOT
BRANCH   6   7
HETATM    7  C11 UNL     1       7.308  56.061   1.181  1.00  0.00     0.259 C 
HETATM    8  O3  UNL     1       6.947  56.203   2.403  1.00  0.00    -0.267 OA
HETATM    9  N3  UNL     1       6.684  56.870   0.230  1.00  0.00    -0.323 N 
ATOM     10  H3  UNL     1       6.960  56.781  -0.747  1.00  0.00     0.169 HD
BRANCH   9  11
HETATM   11  C12 UNL     1       5.660  57.831   0.580  1.00  0.00     0.035 A 
HETATM   12  C13 UNL     1       5.896  59.160   0.300  1.00  0.00     0.029 A 
HETATM   13  C14 UNL     1       4.988  60.144   0.629  1.00  0.00     0.002 A 
HETATM   14  C15 UNL     1       3.818  59.775   1.255  1.00  0.00     0.000 A 
HETATM   15  C16 UNL     1       3.596  58.448   1.528  1.00  0.00     0.002 A 
HETATM   16  C17 UNL     1       4.514  57.441   1.198  1.00  0.00     0.029 A 
ENDBRANCH   9  11
ENDBRANCH   6   7
BRANCH   5  17
HETATM   17  C4  UNL     1       7.007  52.869   1.206  1.00  0.00    -0.024 A 
HETATM   18  C5  UNL     1       5.920  52.847   0.369  1.00  0.00     0.015 A 
HETATM   19  C6  UNL     1       4.846  52.021   0.605  1.00  0.00     0.037 A 
HETATM   20  C7  UNL     1       4.832  51.186   1.699  1.00  0.00     0.102 A 
HETATM   21  C8  UNL     1       5.925  51.211   2.539  1.00  0.00     0.037 A 
HETATM   22  C9  UNL     1       7.005  52.035   2.309  1.00  0.00     0.015 A 
BRANCH  20  23
HETATM   23  N2  UNL     1       3.715  50.342   1.927  1.00  0.00    -0.116 N 
HETATM   24  O1  UNL     1       3.267  50.200   3.079  1.00  0.00    -0.532 OA
HETATM   25  O2  UNL     1       3.089  49.659   0.914  1.00  0.00    -0.532 OA
ENDBRANCH  20  23
ENDBRANCH   5  17
TORSDOF 4
ENDMDL
MODEL 4
REMARK VINA RESULT: -8.970705040      3.954      5.816
REMARK  4 active torsions:
REMARK  status: ('A' for Active; 'I' for Inactive)
REMARK    1  A    between atoms: C3_5  and  C4_6 
REMARK    2  A    between atoms: C7_9  and  N2_10 
REMARK    3  A    between atoms: C10_15  and  C11_16 
REMARK       I    between atoms: C11_16  and  N3_18 
REMARK    4  A    between atoms: N3_18  and  C12_20 
ROOT
HETATM    1  N1  UNL     1      10.254  55.186   0.615  1.00  0.00    -0.093 NA
HETATM    2  C1  UNL     1       9.614  53.890   0.683  1.00  0.00     0.103 A 
HETATM    3  S1  UNL     1      10.307  52.361   0.482  1.00  0.00    -0.085 SA
HETATM    4  C2  UNL     1       8.945  51.403   0.702  1.00  0.00     0.065 A 
HETATM    5  C3  UNL     1       7.921  52.321   0.941  1.00  0.00    -0.001 A 
HETATM    6  C10 UNL     1       8.248  53.633   0.933  1.00  0.00     0.075 A 
ENDROOT
BRANCH   6   7
HETATM    7  C11 UNL     1       7.351  54.789   1.157  1.00  0.00     0.259 C 
HETATM    8  O3  UNL     1       7.286  55.222   2.362  1.00  0.00    -0.267 OA
HETATM    9  N3  UNL     1       6.586  55.451   0.196  1.00  0.00    -0.323 N 
ATOM     10  H3  UNL     1       6.627  55.129  -0.771  1.00  0.00     0.169 HD
BRANCH   9  11
HETATM   11  C12 UNL     1       5.736  56.576   0.520  1.00  0.00     0.035 A 
HETATM   12  C13 UNL     1       6.132  57.828   0.101  1.00  0.00     0.029 A 
HETATM   13  C14 UNL     1       5.398  58.958   0.395  1.00  0.00     0.002 A 
HETATM   14  C15 UNL     1       4.241  58.818   1.129  1.00  0.00     0.000 A 
HETATM   15  C16 UNL     1       3.859  57.565   1.540  1.00  0.00     0.002 A 
HETATM   16  C17 UNL     1       4.599  56.411   1.246  1.00  0.00     0.029 A 
ENDBRANCH   9  11
ENDBRANCH   6   7
BRANCH   5  17
HETATM   17  C4  UNL     1       6.605  51.674   1.300  1.00  0.00    -0.024 A 
HETATM   18  C5  UNL     1       5.463  51.943   0.589  1.00  0.00     0.015 A 
HETATM   19  C6  UNL     1       4.279  51.294   0.853  1.00  0.00     0.037 A 
HETATM   20  C7  UNL     1       4.209  50.346   1.849  1.00  0.00     0.102 A 
HETATM   21  C8  UNL     1       5.358  50.077   2.561  1.00  0.00     0.037 A 
HETATM   22  C9  UNL     1       6.547  50.724   2.302  1.00  0.00     0.015 A 
BRANCH  20  23
HETATM   23  N2  UNL     1       2.980  49.686   2.108  1.00  0.00    -0.116 N 
HETATM   24  O1  UNL     1       2.475  48.947   1.244  1.00  0.00    -0.532 OA
HETATM   25  O2  UNL     1       2.304  49.829   3.294  1.00  0.00    -0.532 OA
ENDBRANCH  20  23
ENDBRANCH   5  17
TORSDOF 4
ENDMDL
MODEL 5
REMARK VINA RESULT: -8.896637847      4.003      6.012
REMARK  4 active torsions:
REMARK  status: ('A' for Active; 'I' for Inactive)
REMARK    1  A    between atoms: C3_5  and  C4_6 
REMARK    2  A    between atoms: C7_9  and  N2_10 
REMARK    3  A    between atoms: C10_15  and  C11_16 
REMARK       I    between atoms: C11_16  and  N3_18 
REMARK    4  A    between atoms: N3_18  and  C12_20 
ROOT
HETATM    1  N1  UNL     1      10.333  54.684   0.348  1.00  0.00    -0.093 NA
HETATM    2  C1  UNL     1       9.613  53.436   0.487  1.00  0.00     0.103 A 
HETATM    3  S1  UNL     1      10.199  51.858   0.322  1.00  0.00    -0.085 SA
HETATM    4  C2  UNL     1       8.786  51.001   0.624  1.00  0.00     0.065 A 
HETATM    5  C3  UNL     1       7.833  51.992   0.863  1.00  0.00    -0.001 A 
HETATM    6  C10 UNL     1       8.243  53.279   0.792  1.00  0.00     0.075 A 
ENDROOT
BRANCH   6   7
HETATM    7  C11 UNL     1       7.432  54.499   1.002  1.00  0.00     0.259 C 
HETATM    8  O3  UNL     1       7.497  55.020   2.172  1.00  0.00    -0.267 OA
HETATM    9  N3  UNL     1       6.621  55.134   0.060  1.00  0.00    -0.323 N 
ATOM     10  H3  UNL     1       6.560  54.742  -0.879  1.00  0.00     0.169 HD
BRANCH   9  11
HETATM   11  C12 UNL     1       5.863  56.328   0.368  1.00  0.00     0.035 A 
HETATM   12  C13 UNL     1       4.735  56.196   1.149  1.00  0.00     0.029 A 
HETATM   13  C14 UNL     1       3.938  57.276   1.464  1.00  0.00     0.002 A 
HETATM   14  C15 UNL     1       4.290  58.515   0.976  1.00  0.00     0.000 A 
HETATM   15  C16 UNL     1       5.416  58.632   0.199  1.00  0.00     0.002 A 
HETATM   16  C17 UNL     1       6.232  57.539  -0.126  1.00  0.00     0.029 A 
ENDBRANCH   9  11
ENDBRANCH   6   7
BRANCH   5  17
HETATM   17  C4  UNL     1       6.492  51.447   1.290  1.00  0.00    -0.024 A 
HETATM   18  C5  UNL     1       5.347  51.750   0.596  1.00  0.00     0.015 A 
HETATM   19  C6  UNL     1       4.135  51.189   0.926  1.00  0.00     0.037 A 
HETATM   20  C7  UNL     1       4.038  50.300   1.972  1.00  0.00     0.102 A 
HETATM   21  C8  UNL     1       5.189  49.998   2.667  1.00  0.00     0.037 A 
HETATM   22  C9  UNL     1       6.406  50.555   2.343  1.00  0.00     0.015 A 
BRANCH  20  23
HETATM   23  N2  UNL     1       2.779  49.732   2.299  1.00  0.00    -0.116 N 
HETATM   24  O1  UNL     1       2.312  49.870   3.444  1.00  0.00    -0.532 OA
HETATM   25  O2  UNL     1       2.034  49.021   1.392  1.00  0.00    -0.532 OA
ENDBRANCH  20  23
ENDBRANCH   5  17
TORSDOF 4
ENDMDL
