MODEL 1
REMARK VINA RESULT: -6.351331700      0.000      0.000
REMARK  7 active torsions:
REMARK  status: ('A' for Active; 'I' for Inactive)
REMARK    1  A    between atoms: C3_3  and  C4_4 
REMARK    2  A    between atoms: C4_4  and  C5_5 
REMARK    3  A    between atoms: C6_8  and  S1_9 
REMARK    4  A    between atoms: S1_9  and  C7_10 
REMARK    5  A    between atoms: C7_10  and  N2_11 
REMARK    6  A    between atoms: N2_11  and  O1_13 
REMARK    7  A    between atoms: C10_17  and  O2_18 
ROOT
HETATM    1  C5  UNL     1      17.329   3.880  12.262  1.00  0.00     0.086 A 
HETATM    2  N1  UNL     1      17.270   3.171  13.412  1.00  0.00    -0.333 N 
ATOM      3  H1  UNL     1      17.437   3.555  14.343  1.00  0.00     0.168 HD
HETATM    4  C6  UNL     1      16.960   1.895  13.153  1.00  0.00     0.154 A 
HETATM    5  N3  UNL     1      16.818   1.781  11.821  1.00  0.00    -0.310 N 
HETATM    6  C9  UNL     1      16.485   0.583  11.089  1.00  0.00     0.160 C 
HETATM    7  C10 UNL     1      17.039   2.986  11.240  1.00  0.00     0.171 A 
ENDROOT
BRANCH   1   8
HETATM    8  C4  UNL     1      17.632   5.293  12.079  1.00  0.00     0.048 C 
BRANCH   8   9
HETATM    9  C3  UNL     1      16.783   6.168  11.612  1.00  0.00    -0.006 A 
HETATM   10  C2  UNL     1      16.843   6.800  10.389  1.00  0.00     0.035 A 
HETATM   11  C1  UNL     1      17.806   6.607   9.471  1.00  0.00     0.044 C 
HETATM   12  N4  UNL     1      15.796   7.617  10.288  1.00  0.00    -0.355 N 
HETATM   13  C12 UNL     1      15.027   7.566  11.394  1.00  0.00     0.008 A 
HETATM   14  C14 UNL     1      15.531   8.447   9.135  1.00  0.00     0.156 C 
HETATM   15  C11 UNL     1      15.650   6.654  12.225  1.00  0.00     0.038 A 
HETATM   16  C13 UNL     1      13.769   8.337  11.656  1.00  0.00     0.068 C 
ENDBRANCH   8   9
ENDBRANCH   1   8
BRANCH   7  17
HETATM   17  O2  UNL     1      16.986   3.279   9.874  1.00  0.00    -0.344 OA
ATOM     18  H2  UNL     1      16.655   2.710   9.189  1.00  0.00     0.219 HD
ENDBRANCH   7  17
BRANCH   4  19
HETATM   19  S1  UNL     1      16.755   0.534  14.321  1.00  0.00    -0.046 SA
BRANCH  19  20
HETATM   20  C7  UNL     1      16.598   1.194  15.971  1.00  0.00     0.166 C 
BRANCH  20  21
HETATM   21  N2  UNL     1      15.993   0.525  16.899  1.00  0.00    -0.272 N 
ATOM     22  H2  UNL     1      16.549   0.126  17.656  1.00  0.00     0.194 HD
BRANCH  21  23
HETATM   23  O1  UNL     1      14.647   0.332  16.907  1.00  0.00    -0.285 OA
HETATM   24  C8  UNL     1      13.758   1.432  16.919  1.00  0.00     0.237 C 
ENDBRANCH  21  23
ENDBRANCH  20  21
ENDBRANCH  19  20
ENDBRANCH   4  19
TORSDOF 7
ENDMDL
MODEL 2
REMARK VINA RESULT: -6.329087107      3.595      4.825
REMARK  7 active torsions:
REMARK  status: ('A' for Active; 'I' for Inactive)
REMARK    1  A    between atoms: C3_3  and  C4_4 
REMARK    2  A    between atoms: C4_4  and  C5_5 
REMARK    3  A    between atoms: C6_8  and  S1_9 
REMARK    4  A    between atoms: S1_9  and  C7_10 
REMARK    5  A    between atoms: C7_10  and  N2_11 
REMARK    6  A    between atoms: N2_11  and  O1_13 
REMARK    7  A    between atoms: C10_17  and  O2_18 
ROOT
HETATM    1  C5  UNL     1      18.470   3.420  11.137  1.00  0.00     0.086 A 
HETATM    2  N1  UNL     1      17.789   3.859  12.219  1.00  0.00    -0.333 N 
ATOM      3  H1  UNL     1      17.747   4.831  12.527  1.00  0.00     0.168 HD
HETATM    4  C6  UNL     1      17.178   2.835  12.828  1.00  0.00     0.154 A 
HETATM    5  N3  UNL     1      17.470   1.724  12.128  1.00  0.00    -0.310 N 
HETATM    6  C9  UNL     1      17.025   0.382  12.417  1.00  0.00     0.160 C 
HETATM    7  C10 UNL     1      18.264   2.048  11.079  1.00  0.00     0.171 A 
ENDROOT
BRANCH   1   8
HETATM    8  C4  UNL     1      19.272   4.189  10.193  1.00  0.00     0.048 C 
BRANCH   8   9
HETATM    9  C3  UNL     1      20.576   4.241  10.216  1.00  0.00    -0.006 A 
HETATM   10  C2  UNL     1      21.434   3.771   9.246  1.00  0.00     0.035 A 
HETATM   11  C1  UNL     1      21.051   3.173   8.105  1.00  0.00     0.044 C 
HETATM   12  N4  UNL     1      22.684   4.012   9.640  1.00  0.00    -0.355 N 
HETATM   13  C12 UNL     1      22.708   4.628  10.839  1.00  0.00     0.008 A 
HETATM   14  C14 UNL     1      23.854   3.654   8.871  1.00  0.00     0.156 C 
HETATM   15  C11 UNL     1      21.382   4.771  11.199  1.00  0.00     0.038 A 
HETATM   16  C13 UNL     1      23.920   5.060  11.608  1.00  0.00     0.068 C 
ENDBRANCH   8   9
ENDBRANCH   1   8
BRANCH   7  17
HETATM   17  O2  UNL     1      18.782   1.173  10.119  1.00  0.00    -0.344 OA
ATOM     18  H2  UNL     1      18.280   0.645   9.510  1.00  0.00     0.219 HD
ENDBRANCH   7  17
BRANCH   4  19
HETATM   19  S1  UNL     1      16.144   2.867  14.306  1.00  0.00    -0.046 SA
BRANCH  19  20
HETATM   20  C7  UNL     1      17.068   2.206  15.683  1.00  0.00     0.166 C 
BRANCH  20  21
HETATM   21  N2  UNL     1      17.101   0.932  15.909  1.00  0.00    -0.272 N 
ATOM     22  H2  UNL     1      17.988   0.440  15.803  1.00  0.00     0.194 HD
BRANCH  21  23
HETATM   23  O1  UNL     1      16.003   0.222  16.281  1.00  0.00    -0.285 OA
HETATM   24  C8  UNL     1      15.174   0.671  17.336  1.00  0.00     0.237 C 
ENDBRANCH  21  23
ENDBRANCH  20  21
ENDBRANCH  19  20
ENDBRANCH   4  19
TORSDOF 7
ENDMDL
MODEL 3
REMARK VINA RESULT: -6.205258192      3.945      5.238
REMARK  7 active torsions:
REMARK  status: ('A' for Active; 'I' for Inactive)
REMARK    1  A    between atoms: C3_3  and  C4_4 
REMARK    2  A    between atoms: C4_4  and  C5_5 
REMARK    3  A    between atoms: C6_8  and  S1_9 
REMARK    4  A    between atoms: S1_9  and  C7_10 
REMARK    5  A    between atoms: C7_10  and  N2_11 
REMARK    6  A    between atoms: N2_11  and  O1_13 
REMARK    7  A    between atoms: C10_17  and  O2_18 
ROOT
HETATM    1  C5  UNL     1      19.593   2.616  11.152  1.00  0.00     0.086 A 
HETATM    2  N1  UNL     1      19.256   3.553  12.067  1.00  0.00    -0.333 N 
ATOM      3  H1  UNL     1      19.887   4.268  12.429  1.00  0.00     0.168 HD
HETATM    4  C6  UNL     1      17.974   3.408  12.426  1.00  0.00     0.154 A 
HETATM    5  N3  UNL     1      17.482   2.366  11.735  1.00  0.00    -0.310 N 
HETATM    6  C9  UNL     1      16.138   1.844  11.803  1.00  0.00     0.160 C 
HETATM    7  C10 UNL     1      18.452   1.853  10.940  1.00  0.00     0.171 A 
ENDROOT
BRANCH   1   8
HETATM    8  C4  UNL     1      20.876   2.406  10.495  1.00  0.00     0.048 C 
BRANCH   8   9
HETATM    9  C3  UNL     1      21.331   3.152   9.525  1.00  0.00    -0.006 A 
HETATM   10  C2  UNL     1      22.332   4.095   9.613  1.00  0.00     0.035 A 
HETATM   11  C1  UNL     1      23.007   4.397  10.736  1.00  0.00     0.044 C 
HETATM   12  N4  UNL     1      22.502   4.639   8.409  1.00  0.00    -0.355 N 
HETATM   13  C12 UNL     1      21.656   4.103   7.506  1.00  0.00     0.008 A 
HETATM   14  C14 UNL     1      23.472   5.671   8.121  1.00  0.00     0.156 C 
HETATM   15  C11 UNL     1      20.921   3.169   8.211  1.00  0.00     0.038 A 
HETATM   16  C13 UNL     1      21.545   4.453   6.053  1.00  0.00     0.068 C 
ENDBRANCH   8   9
ENDBRANCH   1   8
BRANCH   7  17
HETATM   17  O2  UNL     1      18.334   0.764  10.071  1.00  0.00    -0.344 OA
ATOM     18  H2  UNL     1      18.631  -0.123  10.236  1.00  0.00     0.219 HD
ENDBRANCH   7  17
BRANCH   4  19
HETATM   19  S1  UNL     1      17.025   4.390  13.607  1.00  0.00    -0.046 SA
BRANCH  19  20
HETATM   20  C7  UNL     1      16.742   3.423  15.080  1.00  0.00     0.166 C 
BRANCH  20  21
HETATM   21  N2  UNL     1      17.722   2.830  15.683  1.00  0.00    -0.272 N 
ATOM     22  H2  UNL     1      18.584   3.351  15.845  1.00  0.00     0.194 HD
BRANCH  21  23
HETATM   23  O1  UNL     1      17.650   1.541  16.110  1.00  0.00    -0.285 OA
HETATM   24  C8  UNL     1      16.740   0.632  15.519  1.00  0.00     0.237 C 
ENDBRANCH  21  23
ENDBRANCH  20  21
ENDBRANCH  19  20
ENDBRANCH   4  19
TORSDOF 7
ENDMDL
MODEL 4
REMARK VINA RESULT: -6.168180458      2.480      4.472
REMARK  7 active torsions:
REMARK  status: ('A' for Active; 'I' for Inactive)
REMARK    1  A    between atoms: C3_3  and  C4_4 
REMARK    2  A    between atoms: C4_4  and  C5_5 
REMARK    3  A    between atoms: C6_8  and  S1_9 
REMARK    4  A    between atoms: S1_9  and  C7_10 
REMARK    5  A    between atoms: C7_10  and  N2_11 
REMARK    6  A    between atoms: N2_11  and  O1_13 
REMARK    7  A    between atoms: C10_17  and  O2_18 
ROOT
HETATM    1  C5  UNL     1      16.236   3.554  13.874  1.00  0.00     0.086 A 
HETATM    2  N1  UNL     1      16.555   2.876  12.749  1.00  0.00    -0.333 N 
ATOM      3  H1  UNL     1      16.612   3.287  11.817  1.00  0.00     0.168 HD
HETATM    4  C6  UNL     1      16.785   1.588  13.035  1.00  0.00     0.154 A 
HETATM    5  N3  UNL     1      16.612   1.437  14.359  1.00  0.00    -0.310 N 
HETATM    6  C9  UNL     1      16.755   0.215  15.113  1.00  0.00     0.160 C 
HETATM    7  C10 UNL     1      16.273   2.629  14.909  1.00  0.00     0.171 A 
ENDROOT
BRANCH   1   8
HETATM    8  C4  UNL     1      15.912   4.967  14.024  1.00  0.00     0.048 C 
BRANCH   8   9
HETATM    9  C3  UNL     1      16.768   5.937  13.846  1.00  0.00    -0.006 A 
HETATM   10  C2  UNL     1      16.956   6.666  12.693  1.00  0.00     0.035 A 
HETATM   11  C1  UNL     1      16.271   6.487  11.550  1.00  0.00     0.044 C 
HETATM   12  N4  UNL     1      17.918   7.560  12.915  1.00  0.00    -0.355 N 
HETATM   13  C12 UNL     1      18.391   7.466  14.174  1.00  0.00     0.008 A 
HETATM   14  C14 UNL     1      18.385   8.503  11.926  1.00  0.00     0.156 C 
HETATM   15  C11 UNL     1      17.666   6.444  14.757  1.00  0.00     0.038 A 
HETATM   16  C13 UNL     1      19.472   8.296  14.797  1.00  0.00     0.068 C 
ENDBRANCH   8   9
ENDBRANCH   1   8
BRANCH   7  17
HETATM   17  O2  UNL     1      16.009   2.884  16.258  1.00  0.00    -0.344 OA
ATOM     18  H2  UNL     1      16.109   3.718  16.703  1.00  0.00     0.219 HD
ENDBRANCH   7  17
BRANCH   4  19
HETATM   19  S1  UNL     1      17.243   0.256  11.907  1.00  0.00    -0.046 SA
BRANCH  19  20
HETATM   20  C7  UNL     1      18.593   0.800  10.874  1.00  0.00     0.166 C 
BRANCH  20  21
HETATM   21  N2  UNL     1      19.635   1.369  11.389  1.00  0.00    -0.272 N 
ATOM     22  H2  UNL     1      20.484   0.815  11.510  1.00  0.00     0.194 HD
BRANCH  21  23
HETATM   23  O1  UNL     1      19.647   2.673  11.774  1.00  0.00    -0.285 OA
HETATM   24  C8  UNL     1      19.491   3.710  10.825  1.00  0.00     0.237 C 
ENDBRANCH  21  23
ENDBRANCH  20  21
ENDBRANCH  19  20
ENDBRANCH   4  19
TORSDOF 7
ENDMDL
MODEL 5
REMARK VINA RESULT: -6.134424053      2.069      2.698
REMARK  7 active torsions:
REMARK  status: ('A' for Active; 'I' for Inactive)
REMARK    1  A    between atoms: C3_3  and  C4_4 
REMARK    2  A    between atoms: C4_4  and  C5_5 
REMARK    3  A    between atoms: C6_8  and  S1_9 
REMARK    4  A    between atoms: S1_9  and  C7_10 
REMARK    5  A    between atoms: C7_10  and  N2_11 
REMARK    6  A    between atoms: N2_11  and  O1_13 
REMARK    7  A    between atoms: C10_17  and  O2_18 
ROOT
HETATM    1  C5  UNL     1      16.873   3.913  12.385  1.00  0.00     0.086 A 
HETATM    2  N1  UNL     1      16.861   3.215  13.543  1.00  0.00    -0.333 N 
ATOM      3  H1  UNL     1      16.858   3.631  14.475  1.00  0.00     0.168 HD
HETATM    4  C6  UNL     1      16.854   1.900  13.291  1.00  0.00     0.154 A 
HETATM    5  N3  UNL     1      16.861   1.751  11.955  1.00  0.00    -0.310 N 
HETATM    6  C9  UNL     1      16.858   0.505  11.227  1.00  0.00     0.160 C 
HETATM    7  C10 UNL     1      16.873   2.971  11.365  1.00  0.00     0.171 A 
ENDROOT
BRANCH   1   8
HETATM    8  C4  UNL     1      16.884   5.357  12.193  1.00  0.00     0.048 C 
BRANCH   8   9
HETATM    9  C3  UNL     1      17.784   6.155  12.701  1.00  0.00    -0.006 A 
HETATM   10  C2  UNL     1      19.001   6.483  12.143  1.00  0.00     0.035 A 
HETATM   11  C1  UNL     1      19.455   6.021  10.966  1.00  0.00     0.044 C 
HETATM   12  N4  UNL     1      19.627   7.321  12.968  1.00  0.00    -0.355 N 
HETATM   13  C12 UNL     1      18.884   7.576  14.063  1.00  0.00     0.008 A 
HETATM   14  C14 UNL     1      20.934   7.879  12.709  1.00  0.00     0.156 C 
HETATM   15  C11 UNL     1      17.726   6.841  13.893  1.00  0.00     0.038 A 
HETATM   16  C13 UNL     1      19.245   8.466  15.213  1.00  0.00     0.068 C 
ENDBRANCH   8   9
ENDBRANCH   1   8
BRANCH   7  17
HETATM   17  O2  UNL     1      16.884   3.237   9.992  1.00  0.00    -0.344 OA
ATOM     18  H2  UNL     1      17.637   3.188   9.416  1.00  0.00     0.219 HD
ENDBRANCH   7  17
BRANCH   4  19
HETATM   19  S1  UNL     1      16.837   0.535  14.470  1.00  0.00    -0.046 SA
BRANCH  19  20
HETATM   20  C7  UNL     1      16.484   1.170  16.100  1.00  0.00     0.166 C 
BRANCH  20  21
HETATM   21  N2  UNL     1      15.765   0.492  16.935  1.00  0.00    -0.272 N 
ATOM     22  H2  UNL     1      16.228   0.036  17.722  1.00  0.00     0.194 HD
BRANCH  21  23
HETATM   23  O1  UNL     1      14.417   0.360  16.808  1.00  0.00    -0.285 OA
HETATM   24  C8  UNL     1      13.568   1.487  16.903  1.00  0.00     0.237 C 
ENDBRANCH  21  23
ENDBRANCH  20  21
ENDBRANCH  19  20
ENDBRANCH   4  19
TORSDOF 7
ENDMDL
