MODEL 1
REMARK VINA RESULT: -6.814738896      0.000      0.000
REMARK  5 active torsions:
REMARK  status: ('A' for Active; 'I' for Inactive)
REMARK    1  A    between atoms: O1_1  and  C1_3 
REMARK    2  A    between atoms: C1_3  and  C2_4 
REMARK    3  A    between atoms: C2_4  and  C3_5 
REMARK    4  A    between atoms: N1_8  and  C6_9 
REMARK    5  A    between atoms: C8_15  and  N4_16 
ROOT
HETATM    1  C6  UNL     1      17.660   4.507  12.848  1.00  0.00     0.695 A 
HETATM    2  N2  UNL     1      16.944   5.639  12.716  1.00  0.00    -0.187 N 
ATOM      3  H2  UNL     1      17.189   6.308  11.986  1.00  0.00     0.185 HD
HETATM    4  C7  UNL     1      15.917   5.897  13.529  1.00  0.00     0.215 A 
HETATM    5  N3  UNL     1      15.606   5.011  14.484  1.00  0.00    -0.187 N 
ATOM      6  H3  UNL     1      14.819   5.215  15.101  1.00  0.00     0.185 HD
HETATM    7  C8  UNL     1      16.283   3.864  14.665  1.00  0.00     0.695 A 
HETATM    8  N5  UNL     1      17.316   3.644  13.817  1.00  0.00    -0.022 N 
ATOM      9  H5  UNL     1      17.857   2.786  13.918  1.00  0.00     0.203 HD
ENDROOT
BRANCH   1  10
HETATM   10  N1  UNL     1      18.763   4.248  11.962  1.00  0.00    -0.215 N 
HETATM   11  C5  UNL     1      18.788   2.881  11.456  1.00  0.00     0.143 C 
HETATM   12  C4  UNL     1      20.219   2.553  11.095  1.00  0.00     0.045 C 
HETATM   13  C3  UNL     1      20.495   3.125   9.720  1.00  0.00     0.080 C 
HETATM   14  N6  UNL     1      19.782   4.312   9.439  1.00  0.00    -0.415 N 
HETATM   15  C15 UNL     1      20.068   5.437  10.247  1.00  0.00     0.134 C 
ATOM     16  H6  UNL     1      19.093   4.355   8.688  1.00  0.00     0.153 HD
HETATM   17  C14 UNL     1      19.673   5.313  11.686  1.00  0.00     0.160 C 
BRANCH  13  18
HETATM   18  C2  UNL     1      21.988   3.308   9.496  1.00  0.00     0.050 C 
BRANCH  18  19
HETATM   19  C1  UNL     1      22.288   3.533   8.029  1.00  0.00     0.166 C 
BRANCH  19  20
HETATM   20  O1  UNL     1      21.515   2.672   7.237  1.00  0.00    -0.401 OA
ATOM     21  H1  UNL     1      21.768   2.748   6.324  1.00  0.00     0.209 HD
ENDBRANCH  19  20
ENDBRANCH  18  19
ENDBRANCH  13  18
ENDBRANCH   1  10
BRANCH   7  22
HETATM   22  N4  UNL     1      15.938   2.928  15.691  1.00  0.00    -0.217 N 
HETATM   23  C9  UNL     1      14.640   3.014  16.267  1.00  0.00     0.141 C 
HETATM   24  C10 UNL     1      14.217   1.886  17.113  1.00  0.00     0.020 C 
HETATM   25  C11 UNL     1      15.202   0.802  17.325  1.00  0.00     0.003 C 
HETATM   26  C12 UNL     1      16.193   0.620  16.215  1.00  0.00     0.020 C 
HETATM   27  C13 UNL     1      16.942   1.951  16.073  1.00  0.00     0.141 C 
ENDBRANCH   7  22
TORSDOF 5
ENDMDL
MODEL 2
REMARK VINA RESULT: -6.756130812      1.941      2.925
REMARK  5 active torsions:
REMARK  status: ('A' for Active; 'I' for Inactive)
REMARK    1  A    between atoms: O1_1  and  C1_3 
REMARK    2  A    between atoms: C1_3  and  C2_4 
REMARK    3  A    between atoms: C2_4  and  C3_5 
REMARK    4  A    between atoms: N1_8  and  C6_9 
REMARK    5  A    between atoms: C8_15  and  N4_16 
ROOT
HETATM    1  C6  UNL     1      18.260   1.855  11.480  1.00  0.00     0.695 A 
HETATM    2  N2  UNL     1      18.034   0.596  11.064  1.00  0.00    -0.187 N 
ATOM      3  H2  UNL     1      18.429   0.279  10.178  1.00  0.00     0.185 HD
HETATM    4  C7  UNL     1      17.299  -0.245  11.796  1.00  0.00     0.215 A 
HETATM    5  N3  UNL     1      16.787   0.184  12.957  1.00  0.00    -0.187 N 
ATOM      6  H3  UNL     1      16.227  -0.464  13.511  1.00  0.00     0.185 HD
HETATM    7  C8  UNL     1      16.977   1.431  13.424  1.00  0.00     0.695 A 
HETATM    8  N5  UNL     1      17.729   2.247  12.648  1.00  0.00    -0.022 N 
ATOM      9  H5  UNL     1      17.900   3.201  12.965  1.00  0.00     0.203 HD
ENDROOT
BRANCH   1  10
HETATM   10  N1  UNL     1      19.055   2.745  10.675  1.00  0.00    -0.215 N 
HETATM   11  C5  UNL     1      18.425   4.040  10.452  1.00  0.00     0.143 C 
HETATM   12  C4  UNL     1      18.987   4.607   9.169  1.00  0.00     0.045 C 
HETATM   13  C3  UNL     1      20.321   5.249   9.487  1.00  0.00     0.080 C 
HETATM   14  N6  UNL     1      21.026   4.617  10.535  1.00  0.00    -0.415 N 
HETATM   15  C15 UNL     1      21.431   3.279  10.317  1.00  0.00     0.134 C 
ATOM     16  H6  UNL     1      21.233   5.102  11.408  1.00  0.00     0.153 HD
HETATM   17  C14 UNL     1      20.321   2.281  10.204  1.00  0.00     0.160 C 
BRANCH  13  18
HETATM   18  C2  UNL     1      21.178   5.375   8.237  1.00  0.00     0.050 C 
BRANCH  18  19
HETATM   19  C1  UNL     1      20.585   4.578   7.096  1.00  0.00     0.166 C 
BRANCH  19  20
HETATM   20  O1  UNL     1      21.391   3.467   6.808  1.00  0.00    -0.401 OA
ATOM     21  H1  UNL     1      22.237   3.554   7.232  1.00  0.00     0.209 HD
ENDBRANCH  19  20
ENDBRANCH  18  19
ENDBRANCH  13  18
ENDBRANCH   1  10
BRANCH   7  22
HETATM   22  N4  UNL     1      16.422   1.872  14.666  1.00  0.00    -0.217 N 
HETATM   23  C9  UNL     1      15.654   3.070  14.669  1.00  0.00     0.141 C 
HETATM   24  C10 UNL     1      14.877   3.353  15.887  1.00  0.00     0.020 C 
HETATM   25  C11 UNL     1      15.013   2.394  17.006  1.00  0.00     0.003 C 
HETATM   26  C12 UNL     1      15.350   0.991  16.601  1.00  0.00     0.020 C 
HETATM   27  C13 UNL     1      16.682   1.061  15.843  1.00  0.00     0.141 C 
ENDBRANCH   7  22
TORSDOF 5
ENDMDL
MODEL 3
REMARK VINA RESULT: -6.752697611      1.275      1.762
REMARK  5 active torsions:
REMARK  status: ('A' for Active; 'I' for Inactive)
REMARK    1  A    between atoms: O1_1  and  C1_3 
REMARK    2  A    between atoms: C1_3  and  C2_4 
REMARK    3  A    between atoms: C2_4  and  C3_5 
REMARK    4  A    between atoms: N1_8  and  C6_9 
REMARK    5  A    between atoms: C8_15  and  N4_16 
ROOT
HETATM    1  C6  UNL     1      17.501   4.551  12.985  1.00  0.00     0.695 A 
HETATM    2  N2  UNL     1      16.766   5.669  12.841  1.00  0.00    -0.187 N 
ATOM      3  H2  UNL     1      17.015   6.346  12.120  1.00  0.00     0.185 HD
HETATM    4  C7  UNL     1      15.715   5.902  13.631  1.00  0.00     0.215 A 
HETATM    5  N3  UNL     1      15.399   5.003  14.573  1.00  0.00    -0.187 N 
ATOM      6  H3  UNL     1      14.594   5.188  15.172  1.00  0.00     0.185 HD
HETATM    7  C8  UNL     1      16.095   3.869  14.765  1.00  0.00     0.695 A 
HETATM    8  N5  UNL     1      17.152   3.676  13.940  1.00  0.00    -0.022 N 
ATOM      9  H5  UNL     1      17.707   2.827  14.050  1.00  0.00     0.203 HD
ENDROOT
BRANCH   1  10
HETATM   10  N1  UNL     1      18.630   4.319  12.123  1.00  0.00    -0.215 N 
HETATM   11  C5  UNL     1      19.643   5.363  12.206  1.00  0.00     0.143 C 
HETATM   12  C4  UNL     1      20.404   5.365  10.900  1.00  0.00     0.045 C 
HETATM   13  C3  UNL     1      21.449   4.271  10.967  1.00  0.00     0.080 C 
HETATM   14  N6  UNL     1      21.060   3.154  11.739  1.00  0.00    -0.415 N 
HETATM   15  C15 UNL     1      19.944   2.416  11.279  1.00  0.00     0.134 C 
ATOM     16  H6  UNL     1      21.560   2.892  12.589  1.00  0.00     0.153 HD
HETATM   17  C14 UNL     1      18.634   3.139  11.318  1.00  0.00     0.160 C 
BRANCH  13  18
HETATM   18  C2  UNL     1      21.893   3.855   9.573  1.00  0.00     0.050 C 
BRANCH  18  19
HETATM   19  C1  UNL     1      23.403   3.848   9.470  1.00  0.00     0.166 C 
BRANCH  19  20
HETATM   20  O1  UNL     1      23.978   4.180  10.705  1.00  0.00    -0.401 OA
ATOM     21  H1  UNL     1      24.918   4.284  10.615  1.00  0.00     0.209 HD
ENDBRANCH  19  20
ENDBRANCH  18  19
ENDBRANCH  13  18
ENDBRANCH   1  10
BRANCH   7  22
HETATM   22  N4  UNL     1      15.744   2.921  15.776  1.00  0.00    -0.217 N 
HETATM   23  C9  UNL     1      14.409   2.929  16.268  1.00  0.00     0.141 C 
HETATM   24  C10 UNL     1      14.005   1.782  17.099  1.00  0.00     0.020 C 
HETATM   25  C11 UNL     1      15.041   0.764  17.384  1.00  0.00     0.003 C 
HETATM   26  C12 UNL     1      16.110   0.637  16.341  1.00  0.00     0.020 C 
HETATM   27  C13 UNL     1      16.781   2.012  16.232  1.00  0.00     0.141 C 
ENDBRANCH   7  22
TORSDOF 5
ENDMDL
MODEL 4
REMARK VINA RESULT: -6.658133589      4.187      7.664
REMARK  5 active torsions:
REMARK  status: ('A' for Active; 'I' for Inactive)
REMARK    1  A    between atoms: O1_1  and  C1_3 
REMARK    2  A    between atoms: C1_3  and  C2_4 
REMARK    3  A    between atoms: C2_4  and  C3_5 
REMARK    4  A    between atoms: N1_8  and  C6_9 
REMARK    5  A    between atoms: C8_15  and  N4_16 
ROOT
HETATM    1  C6  UNL     1      16.831   6.049  13.601  1.00  0.00     0.695 A 
HETATM    2  N2  UNL     1      18.035   6.631  13.751  1.00  0.00    -0.187 N 
ATOM      3  H2  UNL     1      18.640   6.347  14.521  1.00  0.00     0.185 HD
HETATM    4  C7  UNL     1      18.447   7.577  12.903  1.00  0.00     0.215 A 
HETATM    5  N3  UNL     1      17.643   7.941  11.895  1.00  0.00    -0.187 N 
ATOM      6  H3  UNL     1      17.965   8.663  11.252  1.00  0.00     0.185 HD
HETATM    7  C8  UNL     1      16.430   7.396  11.695  1.00  0.00     0.695 A 
HETATM    8  N5  UNL     1      16.055   6.441  12.579  1.00  0.00    -0.022 N 
ATOM      9  H5  UNL     1      15.143   6.000  12.463  1.00  0.00     0.203 HD
ENDROOT
BRANCH   1  10
HETATM   10  N1  UNL     1      16.406   5.031  14.525  1.00  0.00    -0.215 N 
HETATM   11  C5  UNL     1      14.967   5.022  14.751  1.00  0.00     0.143 C 
HETATM   12  C4  UNL     1      14.721   4.411  16.111  1.00  0.00     0.045 C 
HETATM   13  C3  UNL     1      14.763   2.905  15.961  1.00  0.00     0.080 C 
HETATM   14  N6  UNL     1      15.649   2.453  14.958  1.00  0.00    -0.415 N 
HETATM   15  C15 UNL     1      17.023   2.730  15.146  1.00  0.00     0.134 C 
ATOM     16  H6  UNL     1      15.313   1.951  14.136  1.00  0.00     0.153 HD
HETATM   17  C14 UNL     1      17.400   4.178  15.095  1.00  0.00     0.160 C 
BRANCH  13  18
HETATM   18  C2  UNL     1      15.045   2.231  17.295  1.00  0.00     0.050 C 
BRANCH  18  19
HETATM   19  C1  UNL     1      14.520   0.811  17.302  1.00  0.00     0.166 C 
BRANCH  19  20
HETATM   20  O1  UNL     1      15.512  -0.077  16.862  1.00  0.00    -0.401 OA
ATOM     21  H1  UNL     1      15.550  -0.837  17.430  1.00  0.00     0.209 HD
ENDBRANCH  19  20
ENDBRANCH  18  19
ENDBRANCH  13  18
ENDBRANCH   1  10
BRANCH   7  22
HETATM   22  N4  UNL     1      15.584   7.797  10.613  1.00  0.00    -0.217 N 
HETATM   23  C9  UNL     1      15.700   7.101   9.378  1.00  0.00     0.141 C 
HETATM   24  C10 UNL     1      14.645   7.346   8.381  1.00  0.00     0.020 C 
HETATM   25  C11 UNL     1      13.600   8.332   8.740  1.00  0.00     0.003 C 
HETATM   26  C12 UNL     1      13.336   8.469  10.209  1.00  0.00     0.020 C 
HETATM   27  C13 UNL     1      14.661   8.892  10.855  1.00  0.00     0.141 C 
ENDBRANCH   7  22
TORSDOF 5
ENDMDL
MODEL 5
REMARK VINA RESULT: -6.647753599      1.933      2.720
REMARK  5 active torsions:
REMARK  status: ('A' for Active; 'I' for Inactive)
REMARK    1  A    between atoms: O1_1  and  C1_3 
REMARK    2  A    between atoms: C1_3  and  C2_4 
REMARK    3  A    between atoms: C2_4  and  C3_5 
REMARK    4  A    between atoms: N1_8  and  C6_9 
REMARK    5  A    between atoms: C8_15  and  N4_16 
ROOT
HETATM    1  C6  UNL     1      18.437   2.008  11.727  1.00  0.00     0.695 A 
HETATM    2  N2  UNL     1      18.079   0.842  11.160  1.00  0.00    -0.187 N 
ATOM      3  H2  UNL     1      18.506   0.557  10.279  1.00  0.00     0.185 HD
HETATM    4  C7  UNL     1      17.170   0.052  11.738  1.00  0.00     0.215 A 
HETATM    5  N3  UNL     1      16.616   0.438  12.896  1.00  0.00    -0.187 N 
ATOM      6  H3  UNL     1      15.924  -0.171  13.331  1.00  0.00     0.185 HD
HETATM    7  C8  UNL     1      16.933   1.592  13.509  1.00  0.00     0.695 A 
HETATM    8  N5  UNL     1      17.860   2.359  12.886  1.00  0.00    -0.022 N 
ATOM      9  H5  UNL     1      18.131   3.243  13.318  1.00  0.00     0.203 HD
ENDROOT
BRANCH   1  10
HETATM   10  N1  UNL     1      19.418   2.845  11.088  1.00  0.00    -0.215 N 
HETATM   11  C5  UNL     1      19.957   2.270   9.863  1.00  0.00     0.143 C 
HETATM   12  C4  UNL     1      21.330   2.864   9.643  1.00  0.00     0.045 C 
HETATM   13  C3  UNL     1      21.152   4.220   8.994  1.00  0.00     0.080 C 
HETATM   14  N6  UNL     1      19.971   4.891   9.381  1.00  0.00    -0.415 N 
HETATM   15  C15 UNL     1      19.854   5.243  10.746  1.00  0.00     0.134 C 
ATOM     16  H6  UNL     1      19.237   5.111   8.708  1.00  0.00     0.153 HD
HETATM   17  C14 UNL     1      19.742   4.095  11.699  1.00  0.00     0.160 C 
BRANCH  13  18
HETATM   18  C2  UNL     1      22.381   5.091   9.205  1.00  0.00     0.050 C 
BRANCH  18  19
HETATM   19  C1  UNL     1      23.357   4.425  10.150  1.00  0.00     0.166 C 
BRANCH  19  20
HETATM   20  O1  UNL     1      24.524   4.056   9.464  1.00  0.00    -0.401 OA
ATOM     21  H1  UNL     1      24.328   3.877   8.552  1.00  0.00     0.209 HD
ENDBRANCH  19  20
ENDBRANCH  18  19
ENDBRANCH  13  18
ENDBRANCH   1  10
BRANCH   7  22
HETATM   22  N4  UNL     1      16.332   1.988  14.745  1.00  0.00    -0.217 N 
HETATM   23  C9  UNL     1      15.529   3.162  14.753  1.00  0.00     0.141 C 
HETATM   24  C10 UNL     1      14.711   3.395  15.955  1.00  0.00     0.020 C 
HETATM   25  C11 UNL     1      14.847   2.415  17.056  1.00  0.00     0.003 C 
HETATM   26  C12 UNL     1      15.238   1.032  16.630  1.00  0.00     0.020 C 
HETATM   27  C13 UNL     1      16.586   1.159  15.910  1.00  0.00     0.141 C 
ENDBRANCH   7  22
TORSDOF 5
ENDMDL
