MODEL 1
REMARK VINA RESULT: -7.002610154      0.000      0.000
REMARK  6 active torsions:
REMARK  status: ('A' for Active; 'I' for Inactive)
REMARK    1  A    between atoms: O1_2  and  C2_3 
REMARK    2  A    between atoms: C9_12  and  O4_13 
REMARK    3  A    between atoms: C9_12  and  O5_15 
REMARK    4  A    between atoms: C10_17  and  O6_18 
REMARK    5  A    between atoms: O6_18  and  C11_19 
REMARK    6  A    between atoms: C11_19  and  C13_21 
ROOT
HETATM    1  C2  UNL     1      16.759   1.885  12.453  1.00  0.00     0.079 C 
HETATM    2  C3  UNL     1      16.778   2.434  11.250  1.00  0.00     0.042 C 
HETATM    3  C4  UNL     1      16.939   3.861  10.976  1.00  0.00     0.185 C 
HETATM    4  O2  UNL     1      18.112   4.177  10.289  1.00  0.00    -0.344 OA
HETATM    5  C5  UNL     1      18.126   5.566  10.411  1.00  0.00     0.158 C 
HETATM    6  C6  UNL     1      17.060   6.128   9.501  1.00  0.00     0.078 C 
HETATM    7  C7  UNL     1      19.473   6.145  10.032  1.00  0.00     0.078 C 
HETATM    8  O3  UNL     1      17.841   5.792  11.757  1.00  0.00    -0.342 OA
HETATM    9  C8  UNL     1      17.059   4.725  12.188  1.00  0.00     0.223 C 
HETATM   10  C9  UNL     1      17.817   3.907  13.248  1.00  0.00     0.222 C 
HETATM   11  C10 UNL     1      16.913   2.783  13.620  1.00  0.00     0.243 C 
ENDROOT
BRANCH  11  12
HETATM   12  O6  UNL     1      17.202   2.141  14.789  1.00  0.00    -0.361 OA
BRANCH  12  13
HETATM   13  C11 UNL     1      16.322   2.285  15.817  1.00  0.00     0.187 C 
HETATM   14  C12 UNL     1      15.169   3.158  15.296  1.00  0.00     0.048 C 
BRANCH  13  15
HETATM   15  C13 UNL     1      15.703   1.025  16.271  1.00  0.00     0.151 C 
HETATM   16  C14 UNL     1      14.607   1.053  17.260  1.00  0.00     0.093 C 
HETATM   17  O7  UNL     1      16.092  -0.027  15.832  1.00  0.00    -0.296 OA
ENDBRANCH  13  15
ENDBRANCH  12  13
ENDBRANCH  11  12
BRANCH   1  18
HETATM   18  O1  UNL     1      16.605   0.530  12.700  1.00  0.00    -0.358 OA
HETATM   19  C1  UNL     1      17.094  -0.454  11.778  1.00  0.00     0.209 C 
ENDBRANCH   1  18
BRANCH  10  20
HETATM   20  O4  UNL     1      18.155   4.718  14.307  1.00  0.00    -0.361 OA
ATOM     21  H4  UNL     1      18.103   4.225  15.117  1.00  0.00     0.213 HD
ENDBRANCH  10  20
BRANCH  10  22
HETATM   22  O5  UNL     1      18.967   3.461  12.551  1.00  0.00    -0.361 OA
ATOM     23  H5  UNL     1      19.049   2.555  12.825  1.00  0.00     0.213 HD
ENDBRANCH  10  22
TORSDOF 6
ENDMDL
MODEL 2
REMARK VINA RESULT: -6.733456549      1.566      2.018
REMARK  6 active torsions:
REMARK  status: ('A' for Active; 'I' for Inactive)
REMARK    1  A    between atoms: O1_2  and  C2_3 
REMARK    2  A    between atoms: C9_12  and  O4_13 
REMARK    3  A    between atoms: C9_12  and  O5_15 
REMARK    4  A    between atoms: C10_17  and  O6_18 
REMARK    5  A    between atoms: O6_18  and  C11_19 
REMARK    6  A    between atoms: C11_19  and  C13_21 
ROOT
HETATM    1  C2  UNL     1      17.009   3.830  12.098  1.00  0.00     0.079 C 
HETATM    2  C3  UNL     1      17.438   4.696  11.197  1.00  0.00     0.042 C 
HETATM    3  C4  UNL     1      18.406   5.764  11.446  1.00  0.00     0.185 C 
HETATM    4  O2  UNL     1      19.603   5.619  10.743  1.00  0.00    -0.344 OA
HETATM    5  C5  UNL     1      20.395   6.584  11.365  1.00  0.00     0.158 C 
HETATM    6  C6  UNL     1      19.919   7.944  10.911  1.00  0.00     0.078 C 
HETATM    7  C7  UNL     1      21.858   6.415  11.012  1.00  0.00     0.078 C 
HETATM    8  O3  UNL     1      20.177   6.377  12.725  1.00  0.00    -0.342 OA
HETATM    9  C8  UNL     1      18.894   5.856  12.854  1.00  0.00     0.223 C 
HETATM   10  C9  UNL     1      18.959   4.418  13.399  1.00  0.00     0.222 C 
HETATM   11  C10 UNL     1      17.548   3.945  13.473  1.00  0.00     0.243 C 
ENDROOT
BRANCH  11  12
HETATM   12  O6  UNL     1      17.320   2.854  14.259  1.00  0.00    -0.361 OA
BRANCH  12  13
HETATM   13  C11 UNL     1      16.744   3.065  15.474  1.00  0.00     0.187 C 
HETATM   14  C12 UNL     1      15.286   3.471  15.208  1.00  0.00     0.048 C 
BRANCH  13  15
HETATM   15  C13 UNL     1      16.681   1.869  16.335  1.00  0.00     0.151 C 
HETATM   16  C14 UNL     1      15.555   1.691  17.273  1.00  0.00     0.093 C 
HETATM   17  O7  UNL     1      17.550   1.037  16.272  1.00  0.00    -0.296 OA
ENDBRANCH  13  15
ENDBRANCH  12  13
ENDBRANCH  11  12
BRANCH   1  18
HETATM   18  O1  UNL     1      16.091   2.821  11.850  1.00  0.00    -0.358 OA
HETATM   19  C1  UNL     1      16.431   1.690  11.037  1.00  0.00     0.209 C 
ENDBRANCH   1  18
BRANCH  10  20
HETATM   20  O4  UNL     1      19.607   4.411  14.613  1.00  0.00    -0.361 OA
ATOM     21  H4  UNL     1      20.461   4.817  14.523  1.00  0.00     0.213 HD
ENDBRANCH  10  20
BRANCH  10  22
HETATM   22  O5  UNL     1      19.703   3.730  12.411  1.00  0.00    -0.361 OA
ATOM     23  H5  UNL     1      19.133   3.010  12.171  1.00  0.00     0.213 HD
ENDBRANCH  10  22
TORSDOF 6
ENDMDL
MODEL 3
REMARK VINA RESULT: -6.682582573      2.088      5.926
REMARK  6 active torsions:
REMARK  status: ('A' for Active; 'I' for Inactive)
REMARK    1  A    between atoms: O1_2  and  C2_3 
REMARK    2  A    between atoms: C9_12  and  O4_13 
REMARK    3  A    between atoms: C9_12  and  O5_15 
REMARK    4  A    between atoms: C10_17  and  O6_18 
REMARK    5  A    between atoms: O6_18  and  C11_19 
REMARK    6  A    between atoms: C11_19  and  C13_21 
ROOT
HETATM    1  C2  UNL     1      17.241   3.132  13.789  1.00  0.00     0.079 C 
HETATM    2  C3  UNL     1      16.581   3.793  14.724  1.00  0.00     0.042 C 
HETATM    3  C4  UNL     1      15.561   3.219  15.602  1.00  0.00     0.185 C 
HETATM    4  O2  UNL     1      15.916   3.210  16.952  1.00  0.00    -0.344 OA
HETATM    5  C5  UNL     1      14.919   2.393  17.483  1.00  0.00     0.158 C 
HETATM    6  C6  UNL     1      13.629   3.176  17.497  1.00  0.00     0.078 C 
HETATM    7  C7  UNL     1      15.257   1.946  18.891  1.00  0.00     0.078 C 
HETATM    8  O3  UNL     1      14.868   1.308  16.609  1.00  0.00    -0.342 OA
HETATM    9  C8  UNL     1      15.261   1.777  15.360  1.00  0.00     0.223 C 
HETATM   10  C9  UNL     1      16.581   1.111  14.936  1.00  0.00     0.222 C 
HETATM   11  C10 UNL     1      16.927   1.696  13.610  1.00  0.00     0.243 C 
ENDROOT
BRANCH  11  12
HETATM   12  O6  UNL     1      17.844   1.008  12.870  1.00  0.00    -0.361 OA
BRANCH  12  13
HETATM   13  C11 UNL     1      17.399   0.382  11.747  1.00  0.00     0.187 C 
HETATM   14  C12 UNL     1      16.197   1.190  11.234  1.00  0.00     0.048 C 
BRANCH  13  15
HETATM   15  C13 UNL     1      18.372   0.355  10.638  1.00  0.00     0.151 C 
HETATM   16  C14 UNL     1      19.669   1.046  10.775  1.00  0.00     0.093 C 
HETATM   17  O7  UNL     1      18.107  -0.233   9.620  1.00  0.00    -0.296 OA
ENDBRANCH  13  15
ENDBRANCH  12  13
ENDBRANCH  11  12
BRANCH   1  18
HETATM   18  O1  UNL     1      18.206   3.687  12.962  1.00  0.00    -0.358 OA
HETATM   19  C1  UNL     1      19.087   4.716  13.434  1.00  0.00     0.209 C 
ENDBRANCH   1  18
BRANCH  10  20
HETATM   20  O4  UNL     1      16.425  -0.256  14.911  1.00  0.00    -0.361 OA
ATOM     21  H4  UNL     1      16.968  -0.629  14.226  1.00  0.00     0.213 HD
ENDBRANCH  10  20
BRANCH  10  22
HETATM   22  O5  UNL     1      17.486   1.509  15.950  1.00  0.00    -0.361 OA
ATOM     23  H5  UNL     1      17.474   0.775  16.553  1.00  0.00     0.213 HD
ENDBRANCH  10  22
TORSDOF 6
ENDMDL
MODEL 4
REMARK VINA RESULT: -6.590371355      2.575      3.574
REMARK  6 active torsions:
REMARK  status: ('A' for Active; 'I' for Inactive)
REMARK    1  A    between atoms: O1_2  and  C2_3 
REMARK    2  A    between atoms: C9_12  and  O4_13 
REMARK    3  A    between atoms: C9_12  and  O5_15 
REMARK    4  A    between atoms: C10_17  and  O6_18 
REMARK    5  A    between atoms: O6_18  and  C11_19 
REMARK    6  A    between atoms: C11_19  and  C13_21 
ROOT
HETATM    1  C2  UNL     1      18.623   1.720  11.510  1.00  0.00     0.079 C 
HETATM    2  C3  UNL     1      19.355   1.486  10.435  1.00  0.00     0.042 C 
HETATM    3  C4  UNL     1      20.071   2.503   9.664  1.00  0.00     0.185 C 
HETATM    4  O2  UNL     1      21.459   2.359   9.691  1.00  0.00    -0.344 OA
HETATM    5  C5  UNL     1      21.863   3.570   9.130  1.00  0.00     0.158 C 
HETATM    6  C6  UNL     1      21.563   3.525   7.650  1.00  0.00     0.078 C 
HETATM    7  C7  UNL     1      23.342   3.816   9.341  1.00  0.00     0.078 C 
HETATM    8  O3  UNL     1      21.093   4.524   9.793  1.00  0.00    -0.342 OA
HETATM    9  C8  UNL     1      19.905   3.901  10.159  1.00  0.00     0.223 C 
HETATM   10  C9  UNL     1      19.798   3.824  11.693  1.00  0.00     0.222 C 
HETATM   11  C10 UNL     1      18.516   3.122  11.978  1.00  0.00     0.243 C 
ENDROOT
BRANCH  11  12
HETATM   12  O6  UNL     1      18.025   3.256  13.244  1.00  0.00    -0.361 OA
BRANCH  12  13
HETATM   13  C11 UNL     1      16.796   3.823  13.383  1.00  0.00     0.187 C 
HETATM   14  C12 UNL     1      15.931   2.820  14.164  1.00  0.00     0.048 C 
BRANCH  13  15
HETATM   15  C13 UNL     1      16.785   5.069  14.173  1.00  0.00     0.151 C 
HETATM   16  C14 UNL     1      15.528   5.548  14.780  1.00  0.00     0.093 C 
HETATM   17  O7  UNL     1      17.804   5.694  14.322  1.00  0.00    -0.296 OA
ENDBRANCH  13  15
ENDBRANCH  12  13
ENDBRANCH  11  12
BRANCH   1  18
HETATM   18  O1  UNL     1      17.948   0.748  12.233  1.00  0.00    -0.358 OA
HETATM   19  C1  UNL     1      16.917  -0.045  11.629  1.00  0.00     0.209 C 
ENDBRANCH   1  18
BRANCH  10  20
HETATM   20  O4  UNL     1      19.864   5.090  12.228  1.00  0.00    -0.361 OA
ATOM     21  H4  UNL     1      20.050   5.719  11.540  1.00  0.00     0.213 HD
ENDBRANCH  10  20
BRANCH  10  22
HETATM   22  O5  UNL     1      20.926   3.048  12.057  1.00  0.00    -0.361 OA
ATOM     23  H5  UNL     1      21.060   3.275  12.969  1.00  0.00     0.213 HD
ENDBRANCH  10  22
TORSDOF 6
ENDMDL
MODEL 5
REMARK VINA RESULT: -6.471608148      1.969      3.611
REMARK  6 active torsions:
REMARK  status: ('A' for Active; 'I' for Inactive)
REMARK    1  A    between atoms: O1_2  and  C2_3 
REMARK    2  A    between atoms: C9_12  and  O4_13 
REMARK    3  A    between atoms: C9_12  and  O5_15 
REMARK    4  A    between atoms: C10_17  and  O6_18 
REMARK    5  A    between atoms: O6_18  and  C11_19 
REMARK    6  A    between atoms: C11_19  and  C13_21 
ROOT
HETATM    1  C2  UNL     1      16.329   4.189  13.004  1.00  0.00     0.079 C 
HETATM    2  C3  UNL     1      17.155   4.060  11.980  1.00  0.00     0.042 C 
HETATM    3  C4  UNL     1      18.032   2.914  11.742  1.00  0.00     0.185 C 
HETATM    4  O2  UNL     1      17.723   2.195  10.586  1.00  0.00    -0.344 OA
HETATM    5  C5  UNL     1      18.510   1.057  10.763  1.00  0.00     0.158 C 
HETATM    6  C6  UNL     1      19.951   1.442  10.526  1.00  0.00     0.078 C 
HETATM    7  C7  UNL     1      18.115  -0.047   9.803  1.00  0.00     0.078 C 
HETATM    8  O3  UNL     1      18.275   0.684  12.085  1.00  0.00    -0.342 OA
HETATM    9  C8  UNL     1      17.970   1.847  12.784  1.00  0.00     0.223 C 
HETATM   10  C9  UNL     1      16.517   1.797  13.288  1.00  0.00     0.222 C 
HETATM   11  C10 UNL     1      16.284   3.088  13.993  1.00  0.00     0.243 C 
ENDROOT
BRANCH  11  12
HETATM   12  O6  UNL     1      15.209   3.129  14.832  1.00  0.00    -0.361 OA
BRANCH  12  13
HETATM   13  C11 UNL     1      15.456   3.119  16.170  1.00  0.00     0.187 C 
HETATM   14  C12 UNL     1      14.371   3.988  16.828  1.00  0.00     0.048 C 
BRANCH  13  15
HETATM   15  C13 UNL     1      15.348   1.790  16.800  1.00  0.00     0.151 C 
HETATM   16  C14 UNL     1      14.023   1.246  17.157  1.00  0.00     0.093 C 
HETATM   17  O7  UNL     1      16.343   1.148  17.022  1.00  0.00    -0.296 OA
ENDBRANCH  13  15
ENDBRANCH  12  13
ENDBRANCH  11  12
BRANCH   1  18
HETATM   18  O1  UNL     1      15.503   5.281  13.219  1.00  0.00    -0.358 OA
HETATM   19  C1  UNL     1      15.758   6.543  12.587  1.00  0.00     0.209 C 
ENDBRANCH   1  18
BRANCH  10  20
HETATM   20  O4  UNL     1      16.340   0.691  14.088  1.00  0.00    -0.361 OA
ATOM     21  H4  UNL     1      16.302   0.957  14.999  1.00  0.00     0.213 HD
ENDBRANCH  10  20
BRANCH  10  22
HETATM   22  O5  UNL     1      15.764   1.696  12.093  1.00  0.00    -0.361 OA
ATOM     23  H5  UNL     1      14.989   2.212  12.280  1.00  0.00     0.213 HD
ENDBRANCH  10  22
TORSDOF 6
ENDMDL
