MODEL 1
REMARK VINA RESULT: -6.822589541      0.000      0.000
REMARK  5 active torsions:
REMARK  status: ('A' for Active; 'I' for Inactive)
REMARK    1  A    between atoms: C2_2  and  N1_3 
REMARK    2  A    between atoms: N1_3  and  C3_5 
REMARK    3  A    between atoms: C8_18  and  N6_19 
REMARK    4  A    between atoms: N7_23  and  C12_24 
REMARK    5  A    between atoms: C12_24  and  C13_25 
ROOT
HETATM    1  C13 UNL     1      16.518   5.833  14.539  1.00  0.00     0.144 C 
HETATM    2  C14 UNL     1      15.948   6.077  13.252  1.00  0.00     0.060 C 
HETATM    3  N8  UNL     1      15.474   6.304  12.225  1.00  0.00    -0.197 NA
ENDROOT
BRANCH   1   4
HETATM    4  C12 UNL     1      17.538   4.740  14.667  1.00  0.00     0.163 C 
BRANCH   4   5
HETATM    5  N7  UNL     1      17.313   3.525  13.981  1.00  0.00    -0.164 N 
HETATM    6  C6  UNL     1      17.896   3.142  12.808  1.00  0.00     0.172 A 
HETATM    7  N4  UNL     1      18.796   3.732  12.012  1.00  0.00    -0.170 N 
HETATM    8  C7  UNL     1      17.367   1.879  12.497  1.00  0.00     0.139 A 
HETATM    9  C4  UNL     1      19.166   3.048  10.884  1.00  0.00     0.681 A 
HETATM   10  C5  UNL     1      19.427   5.003  12.316  1.00  0.00     0.177 C 
HETATM   11  N2  UNL     1      18.645   1.821  10.591  1.00  0.00    -0.175 N 
HETATM   12  N3  UNL     1      19.994   3.562  10.078  1.00  0.00    -0.234 N 
HETATM   13  C3  UNL     1      17.747   1.194  11.361  1.00  0.00     0.148 A 
ATOM     14  H2  UNL     1      18.957   1.357   9.739  1.00  0.00     0.186 HD
ATOM     15  H32 UNL     1      20.269   3.053   9.238  1.00  0.00     0.174 HD
ATOM     16  H31 UNL     1      20.384   4.479  10.298  1.00  0.00     0.174 HD
HETATM   17  N5  UNL     1      16.506   1.534  13.463  1.00  0.00    -0.184 N 
HETATM   18  C8  UNL     1      16.460   2.524  14.379  1.00  0.00     0.684 A 
ATOM     19  H5  UNL     1      15.972   0.665  13.501  1.00  0.00     0.184 HD
BRANCH  13  20
HETATM   20  N1  UNL     1      17.308   0.037  11.015  1.00  0.00    -0.374 N 
ATOM     21  H1  UNL     1      16.970   0.018  10.053  1.00  0.00     0.161 HD
BRANCH  20  22
HETATM   22  C2  UNL     1      17.188  -1.191  11.644  1.00  0.00     0.116 C 
HETATM   23  C1  UNL     1      18.414  -2.045  11.273  1.00  0.00     0.026 C 
ENDBRANCH  20  22
ENDBRANCH  13  20
BRANCH  18  24
HETATM   24  N6  UNL     1      15.727   2.504  15.589  1.00  0.00    -0.217 N 
HETATM   25  C9  UNL     1      15.786   1.681  16.812  1.00  0.00     0.143 C 
HETATM   26  C10 UNL     1      14.269   1.820  16.910  1.00  0.00     0.041 C 
HETATM   27  C11 UNL     1      14.583   3.145  16.216  1.00  0.00     0.143 C 
ENDBRANCH  18  24
ENDBRANCH   4   5
ENDBRANCH   1   4
TORSDOF 5
ENDMDL
MODEL 2
REMARK VINA RESULT: -6.796272793      1.417      5.384
REMARK  5 active torsions:
REMARK  status: ('A' for Active; 'I' for Inactive)
REMARK    1  A    between atoms: C2_2  and  N1_3 
REMARK    2  A    between atoms: N1_3  and  C3_5 
REMARK    3  A    between atoms: C8_18  and  N6_19 
REMARK    4  A    between atoms: N7_23  and  C12_24 
REMARK    5  A    between atoms: C12_24  and  C13_25 
ROOT
HETATM    1  C13 UNL     1      18.969   3.328  10.707  1.00  0.00     0.144 C 
HETATM    2  C14 UNL     1      19.806   2.616   9.796  1.00  0.00     0.060 C 
HETATM    3  N8  UNL     1      20.511   2.059   9.070  1.00  0.00    -0.197 NA
ENDROOT
BRANCH   1   4
HETATM    4  C12 UNL     1      17.575   2.819  10.935  1.00  0.00     0.163 C 
BRANCH   4   5
HETATM    5  N7  UNL     1      17.242   2.313  12.210  1.00  0.00    -0.164 N 
HETATM    6  C6  UNL     1      16.811   3.042  13.280  1.00  0.00     0.172 A 
HETATM    7  N4  UNL     1      16.573   4.349  13.444  1.00  0.00    -0.170 N 
HETATM    8  C7  UNL     1      16.618   2.130  14.330  1.00  0.00     0.139 A 
HETATM    9  C4  UNL     1      16.141   4.748  14.682  1.00  0.00     0.681 A 
HETATM   10  C5  UNL     1      16.688   5.327  12.379  1.00  0.00     0.177 C 
HETATM   11  N2  UNL     1      15.957   3.852  15.696  1.00  0.00    -0.175 N 
HETATM   12  N3  UNL     1      15.921   5.972  14.909  1.00  0.00    -0.234 N 
HETATM   13  C3  UNL     1      16.179   2.537  15.573  1.00  0.00     0.148 A 
ATOM     14  H2  UNL     1      15.632   4.205  16.596  1.00  0.00     0.186 HD
ATOM     15  H32 UNL     1      15.599   6.269  15.830  1.00  0.00     0.174 HD
ATOM     16  H31 UNL     1      16.058   6.641  14.151  1.00  0.00     0.174 HD
HETATM   17  N5  UNL     1      16.922   0.904  13.883  1.00  0.00    -0.184 N 
HETATM   18  C8  UNL     1      17.303   0.994  12.592  1.00  0.00     0.684 A 
ATOM     19  H5  UNL     1      16.874   0.044  14.430  1.00  0.00     0.184 HD
BRANCH  13  20
HETATM   20  N1  UNL     1      15.978   1.761  16.577  1.00  0.00    -0.374 N 
ATOM     21  H1  UNL     1      16.676   1.020  16.644  1.00  0.00     0.161 HD
BRANCH  20  22
HETATM   22  C2  UNL     1      15.035   1.697  17.589  1.00  0.00     0.116 C 
HETATM   23  C1  UNL     1      13.667   1.390  16.953  1.00  0.00     0.026 C 
ENDBRANCH  20  22
ENDBRANCH  13  20
BRANCH  18  24
HETATM   24  N6  UNL     1      17.629  -0.091  11.744  1.00  0.00    -0.217 N 
HETATM   25  C9  UNL     1      16.941  -1.341  11.365  1.00  0.00     0.143 C 
HETATM   26  C10 UNL     1      18.313  -2.007  11.296  1.00  0.00     0.041 C 
HETATM   27  C11 UNL     1      18.723  -0.583  10.924  1.00  0.00     0.143 C 
ENDBRANCH  18  24
ENDBRANCH   4   5
ENDBRANCH   1   4
TORSDOF 5
ENDMDL
MODEL 3
REMARK VINA RESULT: -6.793392979      1.832      4.717
REMARK  5 active torsions:
REMARK  status: ('A' for Active; 'I' for Inactive)
REMARK    1  A    between atoms: C2_2  and  N1_3 
REMARK    2  A    between atoms: N1_3  and  C3_5 
REMARK    3  A    between atoms: C8_18  and  N6_19 
REMARK    4  A    between atoms: N7_23  and  C12_24 
REMARK    5  A    between atoms: C12_24  and  C13_25 
ROOT
HETATM    1  C13 UNL     1      16.982   3.319  15.179  1.00  0.00     0.144 C 
HETATM    2  C14 UNL     1      17.220   2.051  15.792  1.00  0.00     0.060 C 
HETATM    3  N8  UNL     1      17.412   1.043  16.320  1.00  0.00    -0.197 NA
ENDROOT
BRANCH   1   4
HETATM    4  C12 UNL     1      16.632   3.345  13.719  1.00  0.00     0.163 C 
BRANCH   4   5
HETATM    5  N7  UNL     1      17.676   3.488  12.779  1.00  0.00    -0.164 N 
HETATM    6  C6  UNL     1      18.182   2.506  11.979  1.00  0.00     0.172 A 
HETATM    7  N4  UNL     1      17.872   1.212  11.833  1.00  0.00    -0.170 N 
HETATM    8  C7  UNL     1      19.207   3.097  11.224  1.00  0.00     0.139 A 
HETATM    9  C4  UNL     1      18.603   0.500  10.920  1.00  0.00     0.681 A 
HETATM   10  C5  UNL     1      16.780   0.564  12.535  1.00  0.00     0.177 C 
HETATM   11  N2  UNL     1      19.598   1.085  10.191  1.00  0.00    -0.175 N 
HETATM   12  N3  UNL     1      18.375  -0.733  10.751  1.00  0.00    -0.234 N 
HETATM   13  C3  UNL     1      19.939   2.375  10.303  1.00  0.00     0.148 A 
ATOM     14  H2  UNL     1      20.110   0.508   9.524  1.00  0.00     0.186 HD
ATOM     15  H32 UNL     1      18.920  -1.262  10.071  1.00  0.00     0.174 HD
ATOM     16  H31 UNL     1      17.631  -1.170  11.296  1.00  0.00     0.174 HD
HETATM   17  N5  UNL     1      19.292   4.389  11.569  1.00  0.00    -0.184 N 
HETATM   18  C8  UNL     1      18.365   4.648  12.514  1.00  0.00     0.684 A 
ATOM     19  H5  UNL     1      19.949   5.065  11.180  1.00  0.00     0.184 HD
BRANCH  13  20
HETATM   20  N1  UNL     1      20.887   2.850   9.576  1.00  0.00    -0.374 N 
ATOM     21  H1  UNL     1      21.730   3.048  10.114  1.00  0.00     0.161 HD
BRANCH  20  22
HETATM   22  C2  UNL     1      21.029   3.154   8.233  1.00  0.00     0.116 C 
HETATM   23  C1  UNL     1      20.228   4.437   7.943  1.00  0.00     0.026 C 
ENDBRANCH  20  22
ENDBRANCH  13  20
BRANCH  18  24
HETATM   24  N6  UNL     1      18.086   5.915  13.080  1.00  0.00    -0.217 N 
HETATM   25  C9  UNL     1      17.530   7.176  12.551  1.00  0.00     0.143 C 
HETATM   26  C10 UNL     1      18.453   7.919  13.514  1.00  0.00     0.041 C 
HETATM   27  C11 UNL     1      18.241   6.643  14.328  1.00  0.00     0.143 C 
ENDBRANCH  18  24
ENDBRANCH   4   5
ENDBRANCH   1   4
TORSDOF 5
ENDMDL
MODEL 4
REMARK VINA RESULT: -6.756356864      1.986      4.739
REMARK  5 active torsions:
REMARK  status: ('A' for Active; 'I' for Inactive)
REMARK    1  A    between atoms: C2_2  and  N1_3 
REMARK    2  A    between atoms: N1_3  and  C3_5 
REMARK    3  A    between atoms: C8_18  and  N6_19 
REMARK    4  A    between atoms: N7_23  and  C12_24 
REMARK    5  A    between atoms: C12_24  and  C13_25 
ROOT
HETATM    1  C13 UNL     1      15.754   3.073  15.295  1.00  0.00     0.144 C 
HETATM    2  C14 UNL     1      16.821   2.255  15.778  1.00  0.00     0.060 C 
HETATM    3  N8  UNL     1      17.663   1.587  16.198  1.00  0.00    -0.197 NA
ENDROOT
BRANCH   1   4
HETATM    4  C12 UNL     1      15.830   3.575  13.882  1.00  0.00     0.163 C 
BRANCH   4   5
HETATM    5  N7  UNL     1      17.095   3.638  13.257  1.00  0.00    -0.164 N 
HETATM    6  C6  UNL     1      17.995   4.659  13.356  1.00  0.00     0.172 A 
HETATM    7  N4  UNL     1      17.974   5.817  14.027  1.00  0.00    -0.170 N 
HETATM    8  C7  UNL     1      19.095   4.298  12.562  1.00  0.00     0.139 A 
HETATM    9  C4  UNL     1      19.071   6.627  13.896  1.00  0.00     0.681 A 
HETATM   10  C5  UNL     1      16.898   6.212  14.916  1.00  0.00     0.177 C 
HETATM   11  N2  UNL     1      20.135   6.266  13.120  1.00  0.00    -0.175 N 
HETATM   12  N3  UNL     1      19.104   7.745  14.485  1.00  0.00    -0.234 N 
HETATM   13  C3  UNL     1      20.198   5.117  12.435  1.00  0.00     0.148 A 
ATOM     14  H2  UNL     1      20.926   6.907  13.059  1.00  0.00     0.186 HD
ATOM     15  H32 UNL     1      19.921   8.348  14.387  1.00  0.00     0.174 HD
ATOM     16  H31 UNL     1      18.309   8.014  15.065  1.00  0.00     0.174 HD
HETATM   17  N5  UNL     1      18.846   3.098  12.020  1.00  0.00    -0.184 N 
HETATM   18  C8  UNL     1      17.633   2.676  12.433  1.00  0.00     0.684 A 
ATOM     19  H5  UNL     1      19.472   2.587  11.397  1.00  0.00     0.184 HD
BRANCH  13  20
HETATM   20  N1  UNL     1      21.239   4.851  11.730  1.00  0.00    -0.374 N 
ATOM     21  H1  UNL     1      22.005   4.477  12.290  1.00  0.00     0.161 HD
BRANCH  20  22
HETATM   22  C2  UNL     1      21.562   4.954  10.387  1.00  0.00     0.116 C 
HETATM   23  C1  UNL     1      21.787   3.535   9.836  1.00  0.00     0.026 C 
ENDBRANCH  20  22
ENDBRANCH  13  20
BRANCH  18  24
HETATM   24  N6  UNL     1      17.044   1.423  12.142  1.00  0.00    -0.217 N 
HETATM   25  C9  UNL     1      16.978   0.130  12.850  1.00  0.00     0.143 C 
HETATM   26  C10 UNL     1      17.022  -0.553  11.486  1.00  0.00     0.041 C 
HETATM   27  C11 UNL     1      16.326   0.744  11.077  1.00  0.00     0.143 C 
ENDBRANCH  18  24
ENDBRANCH   4   5
ENDBRANCH   1   4
TORSDOF 5
ENDMDL
MODEL 5
REMARK VINA RESULT: -6.577928865      1.236      1.381
REMARK  5 active torsions:
REMARK  status: ('A' for Active; 'I' for Inactive)
REMARK    1  A    between atoms: C2_2  and  N1_3 
REMARK    2  A    between atoms: N1_3  and  C3_5 
REMARK    3  A    between atoms: C8_18  and  N6_19 
REMARK    4  A    between atoms: N7_23  and  C12_24 
REMARK    5  A    between atoms: C12_24  and  C13_25 
ROOT
HETATM    1  C13 UNL     1      17.221   6.164  12.734  1.00  0.00     0.144 C 
HETATM    2  C14 UNL     1      16.484   5.921  11.535  1.00  0.00     0.060 C 
HETATM    3  N8  UNL     1      15.877   5.760  10.567  1.00  0.00    -0.197 NA
ENDROOT
BRANCH   1   4
HETATM    4  C12 UNL     1      18.212   5.128  13.179  1.00  0.00     0.163 C 
BRANCH   4   5
HETATM    5  N7  UNL     1      18.009   3.788  12.781  1.00  0.00    -0.164 N 
HETATM    6  C6  UNL     1      18.649   3.144  11.762  1.00  0.00     0.172 A 
HETATM    7  N4  UNL     1      19.596   3.535  10.901  1.00  0.00    -0.170 N 
HETATM    8  C7  UNL     1      18.122   1.842  11.724  1.00  0.00     0.139 A 
HETATM    9  C4  UNL     1      20.017   2.608   9.983  1.00  0.00     0.681 A 
HETATM   10  C5  UNL     1      20.225   4.841  10.937  1.00  0.00     0.177 C 
HETATM   11  N2  UNL     1      19.498   1.346   9.954  1.00  0.00    -0.175 N 
HETATM   12  N3  UNL     1      20.892   2.922   9.127  1.00  0.00    -0.234 N 
HETATM   13  C3  UNL     1      18.553   0.913  10.799  1.00  0.00     0.148 A 
ATOM     14  H2  UNL     1      19.850   0.697   9.251  1.00  0.00     0.186 HD
ATOM     15  H32 UNL     1      21.206   2.232   8.444  1.00  0.00     0.174 HD
ATOM     16  H31 UNL     1      21.281   3.865   9.149  1.00  0.00     0.174 HD
HETATM   17  N5  UNL     1      17.207   1.730  12.696  1.00  0.00    -0.184 N 
HETATM   18  C8  UNL     1      17.125   2.905  13.354  1.00  0.00     0.684 A 
ATOM     19  H5  UNL     1      16.662   0.893  12.904  1.00  0.00     0.184 HD
BRANCH  13  20
HETATM   20  N1  UNL     1      18.120  -0.293  10.706  1.00  0.00    -0.374 N 
ATOM     21  H1  UNL     1      18.087  -0.624   9.742  1.00  0.00     0.161 HD
BRANCH  20  22
HETATM   22  C2  UNL     1      17.688  -1.248  11.612  1.00  0.00     0.116 C 
HETATM   23  C1  UNL     1      18.470  -2.548  11.350  1.00  0.00     0.026 C 
ENDBRANCH  20  22
ENDBRANCH  13  20
BRANCH  18  24
HETATM   24  N6  UNL     1      16.328   3.165  14.494  1.00  0.00    -0.217 N 
HETATM   25  C9  UNL     1      16.380   2.730  15.903  1.00  0.00     0.143 C 
HETATM   26  C10 UNL     1      14.853   2.760  15.907  1.00  0.00     0.041 C 
HETATM   27  C11 UNL     1      15.107   3.856  14.874  1.00  0.00     0.143 C 
ENDBRANCH  18  24
ENDBRANCH   4   5
ENDBRANCH   1   4
TORSDOF 5
ENDMDL
