MODEL 1
REMARK VINA RESULT: -9.571469575      0.000      0.000
REMARK  6 active torsions:
REMARK  status: ('A' for Active; 'I' for Inactive)
REMARK    1  A    between atoms: C2_2  and  N1_3 
REMARK    2  A    between atoms: C2_2  and  C3_7 
REMARK    3  A    between atoms: C6_13  and  N3_14 
REMARK    4  A    between atoms: N3_14  and  N4_16 
REMARK    5  A    between atoms: C7_18  and  C8_19 
REMARK    6  A    between atoms: C11_28  and  N7_29 
ROOT
HETATM    1  N3  UNL     1      18.152 -36.809   5.004  1.00  0.00    -0.132 N 
ATOM      2  H3  UNL     1      18.833 -37.547   5.182  1.00  0.00     0.205 HD
ENDROOT
BRANCH   1   3
HETATM    3  C6  UNL     1      17.850 -36.625   3.759  1.00  0.00     0.700 A 
HETATM    4  N2  UNL     1      17.121 -35.593   3.330  1.00  0.00    -0.155 N 
HETATM    5  C5  UNL     1      16.812 -35.408   2.042  1.00  0.00     0.261 A 
ATOM      6  H2  UNL     1      16.784 -34.915   4.014  1.00  0.00     0.187 HD
HETATM    7  C4  UNL     1      17.278 -36.340   1.125  1.00  0.00     0.102 A 
HETATM    8  O1  UNL     1      16.116 -34.416   1.656  1.00  0.00    -0.268 OA
HETATM    9  C3  UNL     1      18.030 -37.408   1.549  1.00  0.00     0.062 A 
HETATM   10  N8  UNL     1      18.293 -37.517   2.860  1.00  0.00    -0.192 N 
ATOM     11  H8  UNL     1      18.851 -38.307   3.185  1.00  0.00     0.184 HD
BRANCH   9  12
HETATM   12  C2  UNL     1      18.537 -38.413   0.586  1.00  0.00     0.229 C 
HETATM   13  C1  UNL     1      17.363 -39.231   0.098  1.00  0.00     0.046 C 
BRANCH  12  14
HETATM   14  N1  UNL     1      19.512 -39.236   1.279  1.00  0.00    -0.070 N 
ATOM     15  H13 UNL     1      19.557 -40.175   0.883  1.00  0.00     0.275 HD
ATOM     16  H12 UNL     1      20.465 -38.933   1.078  1.00  0.00     0.275 HD
ATOM     17  H11 UNL     1      19.334 -39.264   2.283  1.00  0.00     0.275 HD
ENDBRANCH  12  14
ENDBRANCH   9  12
ENDBRANCH   1   3
BRANCH   1  18
HETATM   18  N4  UNL     1      17.711 -36.186   6.073  1.00  0.00    -0.295 N 
HETATM   19  C7  UNL     1      17.983 -35.193   6.797  1.00  0.00     0.140 C 
ATOM     20  H4  UNL     1      16.882 -36.660   6.432  1.00  0.00     0.186 HD
BRANCH  19  21
HETATM   21  C8  UNL     1      19.079 -34.264   6.629  1.00  0.00     0.092 A 
HETATM   22  N5  UNL     1      19.660 -34.086   5.429  1.00  0.00    -0.305 N 
HETATM   23  C9  UNL     1      20.690 -33.220   5.243  1.00  0.00     0.327 A 
ATOM     24  H5  UNL     1      19.315 -34.618   4.630  1.00  0.00     0.171 HD
HETATM   25  O2  UNL     1      21.173 -33.115   4.092  1.00  0.00    -0.247 OA
HETATM   26  N6  UNL     1      21.174 -32.500   6.256  1.00  0.00    -0.273 N 
HETATM   27  C10 UNL     1      20.628 -32.651   7.443  1.00  0.00     0.284 A 
ATOM     28  H6  UNL     1      21.947 -31.850   6.115  1.00  0.00     0.173 HD
HETATM   29  O3  UNL     1      21.087 -31.966   8.411  1.00  0.00    -0.265 OA
HETATM   30  C11 UNL     1      19.551 -33.536   7.712  1.00  0.00     0.198 A 
BRANCH  30  31
HETATM   31  N7  UNL     1      19.049 -33.613   9.014  1.00  0.00    -0.107 N 
HETATM   32  O4  UNL     1      18.164 -32.966   9.533  1.00  0.00    -0.531 OA
HETATM   33  O5  UNL     1      19.629 -34.566   9.870  1.00  0.00    -0.531 OA
ENDBRANCH  30  31
ENDBRANCH  19  21
ENDBRANCH   1  18
TORSDOF 6
ENDMDL
MODEL 2
REMARK VINA RESULT: -8.939102669      2.352      7.292
REMARK  6 active torsions:
REMARK  status: ('A' for Active; 'I' for Inactive)
REMARK    1  A    between atoms: C2_2  and  N1_3 
REMARK    2  A    between atoms: C2_2  and  C3_7 
REMARK    3  A    between atoms: C6_13  and  N3_14 
REMARK    4  A    between atoms: N3_14  and  N4_16 
REMARK    5  A    between atoms: C7_18  and  C8_19 
REMARK    6  A    between atoms: C11_28  and  N7_29 
ROOT
HETATM    1  N3  UNL     1      19.699 -34.986   4.854  1.00  0.00    -0.132 N 
ATOM      2  H3  UNL     1      20.313 -35.259   4.087  1.00  0.00     0.205 HD
ENDROOT
BRANCH   1   3
HETATM    3  C6  UNL     1      20.063 -33.926   5.502  1.00  0.00     0.700 A 
HETATM    4  N2  UNL     1      20.694 -32.900   4.926  1.00  0.00    -0.155 N 
HETATM    5  C5  UNL     1      21.067 -31.807   5.600  1.00  0.00     0.261 A 
ATOM      6  H2  UNL     1      20.900 -32.952   3.928  1.00  0.00     0.187 HD
HETATM    7  C4  UNL     1      20.779 -31.753   6.957  1.00  0.00     0.102 A 
HETATM    8  O1  UNL     1      21.668 -30.842   5.029  1.00  0.00    -0.268 OA
HETATM    9  C3  UNL     1      20.131 -32.800   7.566  1.00  0.00     0.062 A 
HETATM   10  N8  UNL     1      19.792 -33.858   6.814  1.00  0.00    -0.192 N 
ATOM     11  H8  UNL     1      19.309 -34.641   7.257  1.00  0.00     0.184 HD
BRANCH   9  12
HETATM   12  C2  UNL     1      19.814 -32.761   9.012  1.00  0.00     0.229 C 
HETATM   13  C1  UNL     1      20.666 -31.691   9.652  1.00  0.00     0.046 C 
BRANCH  12  14
HETATM   14  N1  UNL     1      20.101 -34.075   9.562  1.00  0.00    -0.070 N 
ATOM     15  H13 UNL     1      19.245 -34.599   9.743  1.00  0.00     0.275 HD
ATOM     16  H12 UNL     1      20.517 -34.689   8.861  1.00  0.00     0.275 HD
ATOM     17  H11 UNL     1      20.684 -34.014  10.397  1.00  0.00     0.275 HD
ENDBRANCH  12  14
ENDBRANCH   9  12
ENDBRANCH   1   3
BRANCH   1  18
HETATM   18  N4  UNL     1      18.656 -35.762   5.039  1.00  0.00    -0.295 N 
HETATM   19  C7  UNL     1      17.920 -36.564   4.407  1.00  0.00     0.140 C 
ATOM     20  H4  UNL     1      18.340 -35.691   6.007  1.00  0.00     0.186 HD
BRANCH  19  21
HETATM   21  C8  UNL     1      18.034 -36.940   3.015  1.00  0.00     0.092 A 
HETATM   22  N5  UNL     1      18.640 -38.083   2.651  1.00  0.00    -0.305 N 
HETATM   23  C9  UNL     1      18.761 -38.460   1.352  1.00  0.00     0.327 A 
ATOM     24  H5  UNL     1      19.023 -38.690   3.376  1.00  0.00     0.171 HD
HETATM   25  O2  UNL     1      19.341 -39.542   1.101  1.00  0.00    -0.247 OA
HETATM   26  N6  UNL     1      18.275 -37.701   0.368  1.00  0.00    -0.273 N 
HETATM   27  C10 UNL     1      17.675 -36.576   0.690  1.00  0.00     0.284 A 
ATOM     28  H6  UNL     1      18.365 -37.985  -0.607  1.00  0.00     0.173 HD
HETATM   29  O3  UNL     1      17.211 -35.850  -0.245  1.00  0.00    -0.265 OA
HETATM   30  C11 UNL     1      17.513 -36.118   2.024  1.00  0.00     0.198 A 
BRANCH  30  31
HETATM   31  N7  UNL     1      16.857 -34.904   2.247  1.00  0.00    -0.107 N 
HETATM   32  O4  UNL     1      15.868 -34.458   1.705  1.00  0.00    -0.531 OA
HETATM   33  O5  UNL     1      17.392 -34.058   3.235  1.00  0.00    -0.531 OA
ENDBRANCH  30  31
ENDBRANCH  19  21
ENDBRANCH   1  18
TORSDOF 6
ENDMDL
MODEL 3
REMARK VINA RESULT: -8.870669163      3.493      5.517
REMARK  6 active torsions:
REMARK  status: ('A' for Active; 'I' for Inactive)
REMARK    1  A    between atoms: C2_2  and  N1_3 
REMARK    2  A    between atoms: C2_2  and  C3_7 
REMARK    3  A    between atoms: C6_13  and  N3_14 
REMARK    4  A    between atoms: N3_14  and  N4_16 
REMARK    5  A    between atoms: C7_18  and  C8_19 
REMARK    6  A    between atoms: C11_28  and  N7_29 
ROOT
HETATM    1  N3  UNL     1      17.365 -31.012   5.819  1.00  0.00    -0.132 N 
ATOM      2  H3  UNL     1      16.359 -31.162   5.881  1.00  0.00     0.205 HD
ENDROOT
BRANCH   1   3
HETATM    3  C6  UNL     1      18.066 -32.071   5.566  1.00  0.00     0.700 A 
HETATM    4  N2  UNL     1      19.275 -32.028   5.000  1.00  0.00    -0.155 N 
HETATM    5  C5  UNL     1      19.994 -33.126   4.742  1.00  0.00     0.261 A 
ATOM      6  H2  UNL     1      19.666 -31.119   4.754  1.00  0.00     0.187 HD
HETATM    7  C4  UNL     1      19.445 -34.354   5.082  1.00  0.00     0.102 A 
HETATM    8  O1  UNL     1      21.143 -33.060   4.201  1.00  0.00    -0.268 OA
HETATM    9  C3  UNL     1      18.203 -34.417   5.666  1.00  0.00     0.062 A 
HETATM   10  N8  UNL     1      17.550 -33.266   5.890  1.00  0.00    -0.192 N 
ATOM     11  H8  UNL     1      16.627 -33.302   6.322  1.00  0.00     0.184 HD
BRANCH   9  12
HETATM   12  C2  UNL     1      17.601 -35.718   6.037  1.00  0.00     0.229 C 
HETATM   13  C1  UNL     1      17.892 -35.971   7.498  1.00  0.00     0.046 C 
BRANCH  12  14
HETATM   14  N1  UNL     1      18.194 -36.737   5.188  1.00  0.00    -0.070 N 
ATOM     15  H13 UNL     1      19.160 -36.510   4.953  1.00  0.00     0.275 HD
ATOM     16  H12 UNL     1      18.356 -37.602   5.704  1.00  0.00     0.275 HD
ATOM     17  H11 UNL     1      17.635 -36.900   4.351  1.00  0.00     0.275 HD
ENDBRANCH  12  14
ENDBRANCH   9  12
ENDBRANCH   1   3
BRANCH   1  18
HETATM   18  N4  UNL     1      17.759 -29.773   6.007  1.00  0.00    -0.295 N 
HETATM   19  C7  UNL     1      18.539 -29.104   6.733  1.00  0.00     0.140 C 
ATOM     20  H4  UNL     1      17.278 -29.155   5.354  1.00  0.00     0.186 HD
BRANCH  19  21
HETATM   21  C8  UNL     1      19.401 -29.605   7.781  1.00  0.00     0.092 A 
HETATM   22  N5  UNL     1      18.892 -30.080   8.932  1.00  0.00    -0.305 N 
HETATM   23  C9  UNL     1      19.678 -30.556   9.932  1.00  0.00     0.327 A 
ATOM     24  H5  UNL     1      17.880 -30.083   9.059  1.00  0.00     0.171 HD
HETATM   25  O2  UNL     1      19.121 -30.979  10.972  1.00  0.00    -0.247 OA
HETATM   26  N6  UNL     1      21.007 -30.575   9.812  1.00  0.00    -0.273 N 
HETATM   27  C10 UNL     1      21.537 -30.119   8.699  1.00  0.00     0.284 A 
ATOM     28  H6  UNL     1      21.596 -30.934  10.564  1.00  0.00     0.173 HD
HETATM   29  O3  UNL     1      22.803 -30.134   8.582  1.00  0.00    -0.265 OA
HETATM   30  C11 UNL     1      20.779 -29.605   7.613  1.00  0.00     0.198 A 
BRANCH  30  31
HETATM   31  N7  UNL     1      21.452 -29.147   6.477  1.00  0.00    -0.107 N 
HETATM   32  O4  UNL     1      21.901 -28.045   6.245  1.00  0.00    -0.531 OA
HETATM   33  O5  UNL     1      21.653 -30.070   5.435  1.00  0.00    -0.531 OA
ENDBRANCH  30  31
ENDBRANCH  19  21
ENDBRANCH   1  18
TORSDOF 6
ENDMDL
MODEL 4
REMARK VINA RESULT: -8.863094041      2.875      5.169
REMARK  6 active torsions:
REMARK  status: ('A' for Active; 'I' for Inactive)
REMARK    1  A    between atoms: C2_2  and  N1_3 
REMARK    2  A    between atoms: C2_2  and  C3_7 
REMARK    3  A    between atoms: C6_13  and  N3_14 
REMARK    4  A    between atoms: N3_14  and  N4_16 
REMARK    5  A    between atoms: C7_18  and  C8_19 
REMARK    6  A    between atoms: C11_28  and  N7_29 
ROOT
HETATM    1  N3  UNL     1      21.398 -33.229   5.926  1.00  0.00    -0.132 N 
ATOM      2  H3  UNL     1      22.195 -33.644   6.409  1.00  0.00     0.205 HD
ENDROOT
BRANCH   1   3
HETATM    3  C6  UNL     1      20.271 -33.844   6.090  1.00  0.00     0.700 A 
HETATM    4  N2  UNL     1      19.644 -33.918   7.265  1.00  0.00    -0.155 N 
HETATM    5  C5  UNL     1      18.479 -34.555   7.428  1.00  0.00     0.261 A 
ATOM      6  H2  UNL     1      20.071 -33.469   8.075  1.00  0.00     0.187 HD
HETATM    7  C4  UNL     1      17.912 -35.161   6.316  1.00  0.00     0.102 A 
HETATM    8  O1  UNL     1      17.900 -34.612   8.559  1.00  0.00    -0.268 OA
HETATM    9  C3  UNL     1      18.544 -35.095   5.098  1.00  0.00     0.062 A 
HETATM   10  N8  UNL     1      19.710 -34.435   5.024  1.00  0.00    -0.192 N 
ATOM     11  H8  UNL     1      20.187 -34.380   4.123  1.00  0.00     0.184 HD
BRANCH   9  12
HETATM   12  C2  UNL     1      17.955 -35.734   3.898  1.00  0.00     0.229 C 
HETATM   13  C1  UNL     1      17.068 -34.721   3.213  1.00  0.00     0.046 C 
BRANCH  12  14
HETATM   14  N1  UNL     1      17.200 -36.894   4.342  1.00  0.00    -0.070 N 
ATOM     15  H13 UNL     1      17.360 -37.086   5.331  1.00  0.00     0.275 HD
ATOM     16  H12 UNL     1      16.200 -36.695   4.379  1.00  0.00     0.275 HD
ATOM     17  H11 UNL     1      17.396 -37.713   3.767  1.00  0.00     0.275 HD
ENDBRANCH  12  14
ENDBRANCH   9  12
ENDBRANCH   1   3
BRANCH   1  18
HETATM   18  N4  UNL     1      21.668 -32.148   5.230  1.00  0.00    -0.295 N 
HETATM   19  C7  UNL     1      21.275 -30.960   5.094  1.00  0.00     0.140 C 
ATOM     20  H4  UNL     1      22.446 -32.331   4.596  1.00  0.00     0.186 HD
BRANCH  19  21
HETATM   21  C8  UNL     1      20.197 -30.311   5.806  1.00  0.00     0.092 A 
HETATM   22  N5  UNL     1      18.933 -30.760   5.715  1.00  0.00    -0.305 N 
HETATM   23  C9  UNL     1      17.903 -30.169   6.373  1.00  0.00     0.327 A 
ATOM     24  H5  UNL     1      18.741 -31.574   5.130  1.00  0.00     0.171 HD
HETATM   25  O2  UNL     1      16.755 -30.652   6.231  1.00  0.00    -0.247 OA
HETATM   26  N6  UNL     1      18.104 -29.103   7.150  1.00  0.00    -0.273 N 
HETATM   27  C10 UNL     1      19.330 -28.639   7.262  1.00  0.00     0.284 A 
ATOM     28  H6  UNL     1      17.329 -28.661   7.645  1.00  0.00     0.173 HD
HETATM   29  O3  UNL     1      19.525 -27.623   8.002  1.00  0.00    -0.265 OA
HETATM   30  C11 UNL     1      20.453 -29.204   6.604  1.00  0.00     0.198 A 
BRANCH  30  31
HETATM   31  N7  UNL     1      21.711 -28.625   6.799  1.00  0.00    -0.107 N 
HETATM   32  O4  UNL     1      22.248 -27.733   6.177  1.00  0.00    -0.531 OA
HETATM   33  O5  UNL     1      22.490 -29.124   7.857  1.00  0.00    -0.531 OA
ENDBRANCH  30  31
ENDBRANCH  19  21
ENDBRANCH   1  18
TORSDOF 6
ENDMDL
MODEL 5
REMARK VINA RESULT: -8.840103694      3.648      5.780
REMARK  6 active torsions:
REMARK  status: ('A' for Active; 'I' for Inactive)
REMARK    1  A    between atoms: C2_2  and  N1_3 
REMARK    2  A    between atoms: C2_2  and  C3_7 
REMARK    3  A    between atoms: C6_13  and  N3_14 
REMARK    4  A    between atoms: N3_14  and  N4_16 
REMARK    5  A    between atoms: C7_18  and  C8_19 
REMARK    6  A    between atoms: C11_28  and  N7_29 
ROOT
HETATM    1  N3  UNL     1      20.052 -33.583  10.020  1.00  0.00    -0.132 N 
ATOM      2  H3  UNL     1      21.039 -33.842  10.021  1.00  0.00     0.205 HD
ENDROOT
BRANCH   1   3
HETATM    3  C6  UNL     1      19.286 -34.331   9.292  1.00  0.00     0.700 A 
HETATM    4  N2  UNL     1      18.534 -35.312   9.793  1.00  0.00    -0.155 N 
HETATM    5  C5  UNL     1      17.745 -36.081   9.035  1.00  0.00     0.261 A 
ATOM      6  H2  UNL     1      18.563 -35.484  10.798  1.00  0.00     0.187 HD
HETATM    7  C4  UNL     1      17.718 -35.834   7.670  1.00  0.00     0.102 A 
HETATM    8  O1  UNL     1      17.036 -37.012   9.536  1.00  0.00    -0.268 OA
HETATM    9  C3  UNL     1      18.486 -34.828   7.137  1.00  0.00     0.062 A 
HETATM   10  N8  UNL     1      19.249 -34.104   7.969  1.00  0.00    -0.192 N 
ATOM     11  H8  UNL     1      19.823 -33.354   7.583  1.00  0.00     0.184 HD
BRANCH   9  12
HETATM   12  C2  UNL     1      18.471 -34.548   5.682  1.00  0.00     0.229 C 
HETATM   13  C1  UNL     1      17.642 -35.615   5.006  1.00  0.00     0.046 C 
BRANCH  12  14
HETATM   14  N1  UNL     1      19.847 -34.563   5.216  1.00  0.00    -0.070 N 
ATOM     15  H13 UNL     1      19.915 -34.932   4.268  1.00  0.00     0.275 HD
ATOM     16  H12 UNL     1      20.192 -33.618   5.044  1.00  0.00     0.275 HD
ATOM     17  H11 UNL     1      20.456 -35.071   5.858  1.00  0.00     0.275 HD
ENDBRANCH  12  14
ENDBRANCH   9  12
ENDBRANCH   1   3
BRANCH   1  18
HETATM   18  N4  UNL     1      19.747 -32.541  10.758  1.00  0.00    -0.295 N 
HETATM   19  C7  UNL     1      19.191 -31.416  10.664  1.00  0.00     0.140 C 
ATOM     20  H4  UNL     1      20.061 -32.692  11.717  1.00  0.00     0.186 HD
BRANCH  19  21
HETATM   21  C8  UNL     1      18.611 -30.826   9.477  1.00  0.00     0.092 A 
HETATM   22  N5  UNL     1      17.283 -30.645   9.368  1.00  0.00    -0.305 N 
HETATM   23  C9  UNL     1      16.713 -30.095   8.266  1.00  0.00     0.327 A 
ATOM     24  H5  UNL     1      16.682 -30.931  10.142  1.00  0.00     0.171 HD
HETATM   25  O2  UNL     1      15.467 -29.963   8.247  1.00  0.00    -0.247 OA
HETATM   26  N6  UNL     1      17.457 -29.703   7.230  1.00  0.00    -0.273 N 
HETATM   27  C10 UNL     1      18.760 -29.865   7.304  1.00  0.00     0.284 A 
ATOM     28  H6  UNL     1      17.027 -29.288   6.402  1.00  0.00     0.173 HD
HETATM   29  O3  UNL     1      19.471 -29.494   6.318  1.00  0.00    -0.265 OA
HETATM   30  C11 UNL     1      19.424 -30.433   8.422  1.00  0.00     0.198 A 
BRANCH  30  31
HETATM   31  N7  UNL     1      20.817 -30.556   8.390  1.00  0.00    -0.107 N 
HETATM   32  O4  UNL     1      21.664 -29.725   8.641  1.00  0.00    -0.531 OA
HETATM   33  O5  UNL     1      21.342 -31.806   8.021  1.00  0.00    -0.531 OA
ENDBRANCH  30  31
ENDBRANCH  19  21
ENDBRANCH   1  18
TORSDOF 6
ENDMDL
