MODEL 1
REMARK VINA RESULT: -8.343205660      0.000      0.000
REMARK  6 active torsions:
REMARK  status: ('A' for Active; 'I' for Inactive)
REMARK    1  A    between atoms: O1_2  and  C2_3 
REMARK    2  A    between atoms: C2_3  and  C3_5 
REMARK    3  A    between atoms: C7_13  and  O4_14 
REMARK    4  A    between atoms: C9_16  and  N3_17 
REMARK    5  A    between atoms: N3_17  and  N4_18 
REMARK       I    between atoms: N4_18  and  C10_20 
REMARK    6  A    between atoms: C13_27  and  N6_28 
ROOT
HETATM    1  C3  UNL     1      18.237 -30.440   6.706  1.00  0.00     0.093 C 
HETATM    2  C4  UNL     1      19.312 -31.157   6.481  1.00  0.00     0.036 C 
HETATM    3  C5  UNL     1      20.549 -30.380   6.549  1.00  0.00     0.070 C 
HETATM    4  N1  UNL     1      19.531 -32.566   6.179  1.00  0.00    -0.248 N 
HETATM    5  C6  UNL     1      20.536 -33.175   5.383  1.00  0.00     0.330 A 
HETATM    6  O3  UNL     1      21.546 -32.814   4.699  1.00  0.00    -0.247 OA
HETATM    7  N2  UNL     1      19.980 -34.427   5.631  1.00  0.00    -0.289 N 
ATOM      8  H2  UNL     1      20.199 -35.379   5.339  1.00  0.00     0.169 HD
HETATM    9  C7  UNL     1      18.970 -33.830   6.469  1.00  0.00     0.267 A 
HETATM   10  C9  UNL     1      17.616 -34.111   5.896  1.00  0.00     0.279 C 
HETATM   11  N5  UNL     1      16.523 -33.475   6.579  1.00  0.00    -0.330 N 
ATOM     12  H5  UNL     1      15.867 -34.149   6.975  1.00  0.00     0.164 HD
HETATM   13  C12 UNL     1      16.134 -32.127   6.837  1.00  0.00     0.270 C 
HETATM   14  O6  UNL     1      14.946 -32.011   7.254  1.00  0.00    -0.266 OA
HETATM   15  C13 UNL     1      16.800 -30.852   6.727  1.00  0.00     0.112 C 
ENDROOT
BRANCH  10  16
HETATM   16  N3  UNL     1      17.540 -33.832   4.462  1.00  0.00    -0.106 NA
BRANCH  16  17
HETATM   17  N4  UNL     1      17.714 -35.076   3.808  1.00  0.00    -0.272 N 
HETATM   18  C10 UNL     1      17.135 -35.359   2.557  1.00  0.00     0.229 C 
HETATM   19  C11 UNL     1      17.353 -36.672   1.925  1.00  0.00     0.118 C 
HETATM   20  O5  UNL     1      16.439 -34.495   1.988  1.00  0.00    -0.273 OA
ATOM     21  H4  UNL     1      18.280 -35.794   4.260  1.00  0.00     0.185 HD
ENDBRANCH  16  17
ENDBRANCH  10  16
BRANCH   9  22
HETATM   22  O4  UNL     1      19.102 -34.293   7.769  1.00  0.00    -0.345 OA
HETATM   23  C8  UNL     1      18.283 -35.366   8.072  1.00  0.00     0.207 C 
ENDBRANCH   9  22
BRANCH  15  24
HETATM   24  N6  UNL     1      16.008 -29.834   6.622  1.00  0.00    -0.394 N 
ATOM     25  H62 UNL     1      15.236 -29.823   7.290  1.00  0.00     0.156 HD
ATOM     26  H61 UNL     1      16.298 -29.205   5.873  1.00  0.00     0.156 HD
ENDBRANCH  15  24
BRANCH   1  27
HETATM   27  C2  UNL     1      18.357 -29.042   6.983  1.00  0.00     0.297 C 
HETATM   28  O2  UNL     1      18.456 -28.078   6.211  1.00  0.00    -0.259 OA
BRANCH  27  29
HETATM   29  O1  UNL     1      18.372 -28.639   8.348  1.00  0.00    -0.322 OA
HETATM   30  C1  UNL     1      18.701 -27.316   8.723  1.00  0.00     0.213 C 
ENDBRANCH  27  29
ENDBRANCH   1  27
TORSDOF 6
ENDMDL
MODEL 2
REMARK VINA RESULT: -7.955781154      3.620      5.573
REMARK  6 active torsions:
REMARK  status: ('A' for Active; 'I' for Inactive)
REMARK    1  A    between atoms: O1_2  and  C2_3 
REMARK    2  A    between atoms: C2_3  and  C3_5 
REMARK    3  A    between atoms: C7_13  and  O4_14 
REMARK    4  A    between atoms: C9_16  and  N3_17 
REMARK    5  A    between atoms: N3_17  and  N4_18 
REMARK       I    between atoms: N4_18  and  C10_20 
REMARK    6  A    between atoms: C13_27  and  N6_28 
ROOT
HETATM    1  C3  UNL     1      16.962 -33.360  11.326  1.00  0.00     0.093 C 
HETATM    2  C4  UNL     1      16.861 -32.228  10.670  1.00  0.00     0.036 C 
HETATM    3  C5  UNL     1      16.184 -31.179  11.430  1.00  0.00     0.070 C 
HETATM    4  N1  UNL     1      17.285 -31.799   9.343  1.00  0.00    -0.248 N 
HETATM    5  C6  UNL     1      16.683 -30.867   8.460  1.00  0.00     0.330 A 
HETATM    6  O3  UNL     1      15.669 -30.097   8.447  1.00  0.00    -0.247 OA
HETATM    7  N2  UNL     1      17.680 -31.107   7.519  1.00  0.00    -0.289 N 
ATOM      8  H2  UNL     1      17.876 -30.765   6.578  1.00  0.00     0.169 HD
HETATM    9  C7  UNL     1      18.324 -32.035   8.415  1.00  0.00     0.267 A 
HETATM   10  C9  UNL     1      18.366 -33.391   7.784  1.00  0.00     0.279 C 
HETATM   11  N5  UNL     1      18.886 -34.436   8.623  1.00  0.00    -0.330 N 
ATOM     12  H5  UNL     1      19.732 -34.858   8.238  1.00  0.00     0.164 HD
HETATM   13  C12 UNL     1      18.504 -35.026   9.864  1.00  0.00     0.270 C 
HETATM   14  O6  UNL     1      19.101 -36.110  10.118  1.00  0.00    -0.266 OA
HETATM   15  C13 UNL     1      17.577 -34.657  10.907  1.00  0.00     0.112 C 
ENDROOT
BRANCH  10  16
HETATM   16  N3  UNL     1      17.076 -33.794   7.224  1.00  0.00    -0.106 NA
BRANCH  16  17
HETATM   17  N4  UNL     1      17.336 -34.219   5.898  1.00  0.00    -0.272 N 
HETATM   18  C10 UNL     1      17.645 -35.554   5.580  1.00  0.00     0.229 C 
HETATM   19  C11 UNL     1      17.904 -35.935   4.181  1.00  0.00     0.118 C 
HETATM   20  O5  UNL     1      17.698 -36.410   6.485  1.00  0.00    -0.273 OA
ATOM     21  H4  UNL     1      17.298 -33.531   5.146  1.00  0.00     0.185 HD
ENDBRANCH  16  17
ENDBRANCH  10  16
BRANCH   9  22
HETATM   22  O4  UNL     1      19.585 -31.567   8.751  1.00  0.00    -0.345 OA
HETATM   23  C8  UNL     1      20.551 -31.810   7.792  1.00  0.00     0.207 C 
ENDBRANCH   9  22
BRANCH  15  24
HETATM   24  N6  UNL     1      17.179 -35.639  11.650  1.00  0.00    -0.394 N 
ATOM     25  H62 UNL     1      17.825 -35.901  12.394  1.00  0.00     0.156 HD
ATOM     26  H61 UNL     1      16.267 -35.990  11.355  1.00  0.00     0.156 HD
ENDBRANCH  15  24
BRANCH   1  27
HETATM   27  C2  UNL     1      16.433 -33.466  12.651  1.00  0.00     0.297 C 
HETATM   28  O2  UNL     1      16.998 -33.373  13.749  1.00  0.00    -0.259 OA
BRANCH  27  29
HETATM   29  O1  UNL     1      15.039 -33.719  12.786  1.00  0.00    -0.322 OA
HETATM   30  C1  UNL     1      14.529 -34.483  13.860  1.00  0.00     0.213 C 
ENDBRANCH  27  29
ENDBRANCH   1  27
TORSDOF 6
ENDMDL
MODEL 3
REMARK VINA RESULT: -7.955296602      1.495      1.527
REMARK  6 active torsions:
REMARK  status: ('A' for Active; 'I' for Inactive)
REMARK    1  A    between atoms: O1_2  and  C2_3 
REMARK    2  A    between atoms: C2_3  and  C3_5 
REMARK    3  A    between atoms: C7_13  and  O4_14 
REMARK    4  A    between atoms: C9_16  and  N3_17 
REMARK    5  A    between atoms: N3_17  and  N4_18 
REMARK       I    between atoms: N4_18  and  C10_20 
REMARK    6  A    between atoms: C13_27  and  N6_28 
ROOT
HETATM    1  C3  UNL     1      18.848 -29.913   7.329  1.00  0.00     0.093 C 
HETATM    2  C4  UNL     1      19.626 -30.966   7.419  1.00  0.00     0.036 C 
HETATM    3  C5  UNL     1      21.014 -30.631   7.736  1.00  0.00     0.070 C 
HETATM    4  N1  UNL     1      19.396 -32.397   7.270  1.00  0.00    -0.248 N 
HETATM    5  C6  UNL     1      20.266 -33.406   6.783  1.00  0.00     0.330 A 
HETATM    6  O3  UNL     1      21.457 -33.496   6.345  1.00  0.00    -0.247 OA
HETATM    7  N2  UNL     1      19.269 -34.361   6.969  1.00  0.00    -0.289 N 
ATOM      8  H2  UNL     1      19.197 -35.364   6.801  1.00  0.00     0.169 HD
HETATM    9  C7  UNL     1      18.382 -33.354   7.496  1.00  0.00     0.267 A 
HETATM   10  C9  UNL     1      17.164 -33.259   6.630  1.00  0.00     0.279 C 
HETATM   11  N5  UNL     1      16.246 -32.211   6.985  1.00  0.00    -0.330 N 
ATOM     12  H5  UNL     1      15.330 -32.572   7.252  1.00  0.00     0.164 HD
HETATM   13  C12 UNL     1      16.309 -30.788   7.053  1.00  0.00     0.270 C 
HETATM   14  O6  UNL     1      15.178 -30.233   7.161  1.00  0.00    -0.266 OA
HETATM   15  C13 UNL     1      17.386 -29.828   7.027  1.00  0.00     0.112 C 
ENDROOT
BRANCH  10  16
HETATM   16  N3  UNL     1      17.489 -33.180   5.206  1.00  0.00    -0.106 NA
BRANCH  16  17
HETATM   17  N4  UNL     1      16.980 -34.364   4.618  1.00  0.00    -0.272 N 
HETATM   18  C10 UNL     1      17.816 -35.370   4.102  1.00  0.00     0.229 C 
HETATM   19  C11 UNL     1      17.228 -36.580   3.503  1.00  0.00     0.118 C 
HETATM   20  O5  UNL     1      19.055 -35.232   4.153  1.00  0.00    -0.273 OA
ATOM     21  H4  UNL     1      15.970 -34.491   4.567  1.00  0.00     0.185 HD
ENDBRANCH  16  17
ENDBRANCH  10  16
BRANCH   9  22
HETATM   22  O4  UNL     1      18.072 -33.643   8.816  1.00  0.00    -0.345 OA
HETATM   23  C8  UNL     1      17.106 -34.620   8.968  1.00  0.00     0.207 C 
ENDBRANCH   9  22
BRANCH  15  24
HETATM   24  N6  UNL     1      17.039 -28.634   6.667  1.00  0.00    -0.394 N 
ATOM     25  H62 UNL     1      16.410 -28.159   7.315  1.00  0.00     0.156 HD
ATOM     26  H61 UNL     1      17.464 -28.369   5.778  1.00  0.00     0.156 HD
ENDBRANCH  15  24
BRANCH   1  27
HETATM   27  C2  UNL     1      19.389 -28.605   7.537  1.00  0.00     0.297 C 
HETATM   28  O2  UNL     1      20.089 -27.901   6.797  1.00  0.00    -0.259 OA
BRANCH  27  29
HETATM   29  O1  UNL     1      19.109 -27.965   8.777  1.00  0.00    -0.322 OA
HETATM   30  C1  UNL     1      18.670 -26.623   8.831  1.00  0.00     0.213 C 
ENDBRANCH  27  29
ENDBRANCH   1  27
TORSDOF 6
ENDMDL
MODEL 4
REMARK VINA RESULT: -7.890861637      1.977      2.467
REMARK  6 active torsions:
REMARK  status: ('A' for Active; 'I' for Inactive)
REMARK    1  A    between atoms: O1_2  and  C2_3 
REMARK    2  A    between atoms: C2_3  and  C3_5 
REMARK    3  A    between atoms: C7_13  and  O4_14 
REMARK    4  A    between atoms: C9_16  and  N3_17 
REMARK    5  A    between atoms: N3_17  and  N4_18 
REMARK       I    between atoms: N4_18  and  C10_20 
REMARK    6  A    between atoms: C13_27  and  N6_28 
ROOT
HETATM    1  C3  UNL     1      17.280 -30.891   7.157  1.00  0.00     0.093 C 
HETATM    2  C4  UNL     1      18.510 -30.478   6.960  1.00  0.00     0.036 C 
HETATM    3  C5  UNL     1      18.629 -29.021   6.918  1.00  0.00     0.070 C 
HETATM    4  N1  UNL     1      19.781 -31.168   6.775  1.00  0.00    -0.248 N 
HETATM    5  C6  UNL     1      20.910 -30.791   6.003  1.00  0.00     0.330 A 
HETATM    6  O3  UNL     1      21.263 -29.823   5.257  1.00  0.00    -0.247 OA
HETATM    7  N2  UNL     1      21.562 -31.962   6.378  1.00  0.00    -0.289 N 
ATOM      8  H2  UNL     1      22.468 -32.378   6.164  1.00  0.00     0.169 HD
HETATM    9  C7  UNL     1      20.437 -32.346   7.194  1.00  0.00     0.267 A 
HETATM   10  C9  UNL     1      19.877 -33.641   6.693  1.00  0.00     0.279 C 
HETATM   11  N5  UNL     1      18.678 -34.080   7.355  1.00  0.00    -0.330 N 
ATOM     12  H5  UNL     1      18.803 -34.975   7.830  1.00  0.00     0.164 HD
HETATM   13  C12 UNL     1      17.356 -33.567   7.506  1.00  0.00     0.270 C 
HETATM   14  O6  UNL     1      16.529 -34.413   7.951  1.00  0.00    -0.266 OA
HETATM   15  C13 UNL     1      16.745 -32.283   7.262  1.00  0.00     0.112 C 
ENDROOT
BRANCH  10  16
HETATM   16  N3  UNL     1      19.681 -33.649   5.244  1.00  0.00    -0.106 NA
BRANCH  16  17
HETATM   17  N4  UNL     1      19.361 -34.984   4.896  1.00  0.00    -0.272 N 
HETATM   18  C10 UNL     1      18.211 -35.317   4.158  1.00  0.00     0.229 C 
HETATM   19  C11 UNL     1      17.932 -36.725   3.825  1.00  0.00     0.118 C 
HETATM   20  O5  UNL     1      17.431 -34.417   3.788  1.00  0.00    -0.273 OA
ATOM     21  H4  UNL     1      19.988 -35.732   5.192  1.00  0.00     0.185 HD
ENDBRANCH  16  17
ENDBRANCH  10  16
BRANCH   9  22
HETATM   22  O4  UNL     1      20.821 -32.414   8.525  1.00  0.00    -0.345 OA
HETATM   23  C8  UNL     1      19.856 -31.975   9.413  1.00  0.00     0.207 C 
ENDBRANCH   9  22
BRANCH  15  24
HETATM   24  N6  UNL     1      15.462 -32.317   7.095  1.00  0.00    -0.394 N 
ATOM     25  H62 UNL     1      15.006 -31.404   7.096  1.00  0.00     0.156 HD
ATOM     26  H61 UNL     1      15.120 -33.272   6.988  1.00  0.00     0.156 HD
ENDBRANCH  15  24
BRANCH   1  27
HETATM   27  C2  UNL     1      16.223 -29.939   7.306  1.00  0.00     0.297 C 
HETATM   28  O2  UNL     1      15.722 -29.163   6.481  1.00  0.00    -0.259 OA
BRANCH  27  29
HETATM   29  O1  UNL     1      15.615 -29.823   8.588  1.00  0.00    -0.322 OA
HETATM   30  C1  UNL     1      16.381 -29.551   9.744  1.00  0.00     0.213 C 
ENDBRANCH  27  29
ENDBRANCH   1  27
TORSDOF 6
ENDMDL
MODEL 5
REMARK VINA RESULT: -7.839980820      2.092      2.354
REMARK  6 active torsions:
REMARK  status: ('A' for Active; 'I' for Inactive)
REMARK    1  A    between atoms: O1_2  and  C2_3 
REMARK    2  A    between atoms: C2_3  and  C3_5 
REMARK    3  A    between atoms: C7_13  and  O4_14 
REMARK    4  A    between atoms: C9_16  and  N3_17 
REMARK    5  A    between atoms: N3_17  and  N4_18 
REMARK       I    between atoms: N4_18  and  C10_20 
REMARK    6  A    between atoms: C13_27  and  N6_28 
ROOT
HETATM    1  C3  UNL     1      18.394 -29.249   8.024  1.00  0.00     0.093 C 
HETATM    2  C4  UNL     1      19.084 -30.320   8.340  1.00  0.00     0.036 C 
HETATM    3  C5  UNL     1      20.326 -30.016   9.049  1.00  0.00     0.070 C 
HETATM    4  N1  UNL     1      18.871 -31.746   8.133  1.00  0.00    -0.248 N 
HETATM    5  C6  UNL     1      19.818 -32.781   7.924  1.00  0.00     0.330 A 
HETATM    6  O3  UNL     1      21.083 -32.904   7.854  1.00  0.00    -0.247 OA
HETATM    7  N2  UNL     1      18.786 -33.709   7.811  1.00  0.00    -0.289 N 
ATOM      8  H2  UNL     1      18.740 -34.712   7.631  1.00  0.00     0.169 HD
HETATM    9  C7  UNL     1      17.810 -32.676   8.053  1.00  0.00     0.267 A 
HETATM   10  C9  UNL     1      16.903 -32.560   6.868  1.00  0.00     0.279 C 
HETATM   11  N5  UNL     1      15.949 -31.486   6.936  1.00  0.00    -0.330 N 
ATOM     12  H5  UNL     1      14.985 -31.822   6.924  1.00  0.00     0.164 HD
HETATM   13  C12 UNL     1      16.025 -30.064   7.017  1.00  0.00     0.270 C 
HETATM   14  O6  UNL     1      14.928 -29.481   6.788  1.00  0.00    -0.266 OA
HETATM   15  C13 UNL     1      17.088 -29.131   7.306  1.00  0.00     0.112 C 
ENDROOT
BRANCH  10  16
HETATM   16  N3  UNL     1      17.631 -32.502   5.602  1.00  0.00    -0.106 NA
BRANCH  16  17
HETATM   17  N4  UNL     1      17.255 -33.658   4.876  1.00  0.00    -0.272 N 
HETATM   18  C10 UNL     1      18.172 -34.670   4.538  1.00  0.00     0.229 C 
HETATM   19  C11 UNL     1      17.720 -35.850   3.781  1.00  0.00     0.118 C 
HETATM   20  O5  UNL     1      19.366 -34.562   4.881  1.00  0.00    -0.273 OA
ATOM     21  H4  UNL     1      16.282 -33.761   4.586  1.00  0.00     0.185 HD
ENDBRANCH  16  17
ENDBRANCH  10  16
BRANCH   9  22
HETATM   22  O4  UNL     1      17.119 -32.945   9.225  1.00  0.00    -0.345 OA
HETATM   23  C8  UNL     1      16.082 -33.847   9.075  1.00  0.00     0.207 C 
ENDBRANCH   9  22
BRANCH  15  24
HETATM   24  N6  UNL     1      16.893 -27.933   6.859  1.00  0.00    -0.394 N 
ATOM     25  H62 UNL     1      17.744 -27.399   6.683  1.00  0.00     0.156 HD
ATOM     26  H61 UNL     1      15.899 -27.725   6.757  1.00  0.00     0.156 HD
ENDBRANCH  15  24
BRANCH   1  27
HETATM   27  C2  UNL     1      18.885 -27.953   8.379  1.00  0.00     0.297 C 
HETATM   28  O2  UNL     1      19.725 -27.235   7.821  1.00  0.00    -0.259 OA
BRANCH  27  29
HETATM   29  O1  UNL     1      18.356 -27.347   9.553  1.00  0.00    -0.322 OA
HETATM   30  C1  UNL     1      18.059 -25.966   9.599  1.00  0.00     0.213 C 
ENDBRANCH  27  29
ENDBRANCH   1  27
TORSDOF 6
ENDMDL
