MODEL 1
REMARK VINA RESULT: -9.602312749      0.000      0.000
REMARK  9 active torsions:
REMARK  status: ('A' for Active; 'I' for Inactive)
REMARK    1  A    between atoms: C2_2  and  C3_3 
REMARK    2  A    between atoms: C3_3  and  N2_7 
REMARK    3  A    between atoms: N2_7  and  C4_9 
REMARK    4  A    between atoms: C7_14  and  N4_15 
REMARK    5  A    between atoms: N4_15  and  C8_17 
REMARK    6  A    between atoms: C15_26  and  N6_27 
REMARK    7  A    between atoms: N6_27  and  C16_28 
REMARK    8  A    between atoms: C16_28  and  C17_29 
REMARK    9  A    between atoms: C19_32  and  C20_33 
ROOT
HETATM    1  C8  UNL     1       7.561  21.312-105.439  1.00  0.00     0.686 A 
HETATM    2  N5  UNL     1       8.124  22.344-104.791  1.00  0.00    -0.191 N 
ATOM      3  H5  UNL     1       7.645  23.245-104.791  1.00  0.00     0.184 HD
HETATM    4  C9  UNL     1       9.293  22.233-104.145  1.00  0.00     0.064 A 
HETATM    5  C10 UNL     1       9.835  23.314-103.496  1.00  0.00     0.031 A 
HETATM    6  C11 UNL     1      11.029  23.218-102.832  1.00  0.00     0.002 A 
HETATM    7  C12 UNL     1      11.683  22.014-102.825  1.00  0.00     0.001 A 
HETATM    8  C13 UNL     1      11.137  20.908-103.485  1.00  0.00     0.018 A 
HETATM    9  C14 UNL     1       9.946  21.040-104.136  1.00  0.00     0.050 A 
HETATM   10  C15 UNL     1       9.387  19.945-104.801  1.00  0.00     0.200 A 
HETATM   11  N8  UNL     1       8.185  20.137-105.441  1.00  0.00    -0.163 N 
ATOM     12  H8  UNL     1       7.758  19.353-105.933  1.00  0.00     0.187 HD
ENDROOT
BRANCH   1  13
HETATM   13  N4  UNL     1       6.327  21.518-106.096  1.00  0.00    -0.176 N 
ATOM     14  H4  UNL     1       6.312  21.450-107.114  1.00  0.00     0.186 HD
BRANCH  13  15
HETATM   15  C7  UNL     1       5.224  21.784-105.495  1.00  0.00     0.138 A 
HETATM   16  C6  UNL     1       4.047  21.932-106.190  1.00  0.00     0.067 A 
HETATM   17  C5  UNL     1       2.851  22.225-105.525  1.00  0.00     0.110 A 
HETATM   18  N3  UNL     1       2.858  22.362-104.190  1.00  0.00    -0.202 N 
HETATM   19  C4  UNL     1       4.009  22.216-103.514  1.00  0.00     0.684 A 
ATOM     20  H3  UNL     1       1.994  22.574-103.692  1.00  0.00     0.183 HD
HETATM   21  N9  UNL     1       5.164  21.933-104.163  1.00  0.00    -0.176 N 
ATOM     22  H9  UNL     1       6.020  21.830-103.619  1.00  0.00     0.186 HD
BRANCH  19  23
HETATM   23  N2  UNL     1       4.076  22.335-102.224  1.00  0.00    -0.181 N 
ATOM     24  H2  UNL     1       3.541  23.093-101.800  1.00  0.00     0.185 HD
BRANCH  23  25
HETATM   25  C3  UNL     1       4.812  21.518-101.364  1.00  0.00     0.090 C 
HETATM   26  N1  UNL     1       4.330  20.391-100.956  1.00  0.00    -0.388 N 
ATOM     27  H12 UNL     1       4.868  19.795-100.327  1.00  0.00     0.157 HD
ATOM     28  H11 UNL     1       3.402  20.106-101.272  1.00  0.00     0.157 HD
BRANCH  25  29
HETATM   29  C2  UNL     1       6.153  21.930-100.908  1.00  0.00     0.072 C 
HETATM   30  C1  UNL     1       7.225  21.044-101.454  1.00  0.00     0.013 C 
ENDBRANCH  25  29
ENDBRANCH  23  25
ENDBRANCH  19  23
ENDBRANCH  13  15
ENDBRANCH   1  13
BRANCH  10  31
HETATM   31  N6  UNL     1       9.896  18.860-104.837  1.00  0.00    -0.425 NA
BRANCH  31  32
HETATM   32  C16 UNL     1      10.286  17.589-104.785  1.00  0.00     0.259 C 
BRANCH  32  33
HETATM   33  C17 UNL     1      11.664  17.315-105.398  1.00  0.00    -0.020 A 
HETATM   34  C18 UNL     1      12.354  18.343-105.975  1.00  0.00     0.060 A 
HETATM   35  S1  UNL     1      13.784  17.584-106.509  1.00  0.00    -0.101 SA
HETATM   36  C19 UNL     1      13.468  15.992-105.987  1.00  0.00     0.015 A 
HETATM   37  C25 UNL     1      12.228  16.106-105.398  1.00  0.00     0.030 A 
BRANCH  36  38
HETATM   38  C20 UNL     1      14.287  14.779-106.116  1.00  0.00    -0.017 A 
HETATM   39  C21 UNL     1      13.678  13.555-106.013  1.00  0.00     0.030 A 
HETATM   40  C22 UNL     1      14.448  12.386-106.133  1.00  0.00     0.088 A 
HETATM   41  N7  UNL     1      15.777  12.470-106.348  1.00  0.00    -0.375 N 
HETATM   42  C23 UNL     1      16.394  13.648-106.451  1.00  0.00     0.088 A 
ATOM     43  H7  UNL     1      16.323  11.613-106.433  1.00  0.00     0.164 HD
HETATM   44  C24 UNL     1      15.636  14.819-106.333  1.00  0.00     0.030 A 
ENDBRANCH  36  38
ENDBRANCH  32  33
ENDBRANCH  31  32
ENDBRANCH  10  31
TORSDOF 9
ENDMDL
MODEL 2
REMARK VINA RESULT: -9.342516621      2.133      2.843
REMARK  9 active torsions:
REMARK  status: ('A' for Active; 'I' for Inactive)
REMARK    1  A    between atoms: C2_2  and  C3_3 
REMARK    2  A    between atoms: C3_3  and  N2_7 
REMARK    3  A    between atoms: N2_7  and  C4_9 
REMARK    4  A    between atoms: C7_14  and  N4_15 
REMARK    5  A    between atoms: N4_15  and  C8_17 
REMARK    6  A    between atoms: C15_26  and  N6_27 
REMARK    7  A    between atoms: N6_27  and  C16_28 
REMARK    8  A    between atoms: C16_28  and  C17_29 
REMARK    9  A    between atoms: C19_32  and  C20_33 
ROOT
HETATM    1  C8  UNL     1       7.606  21.167-105.427  1.00  0.00     0.686 A 
HETATM    2  N5  UNL     1       8.148  22.212-104.783  1.00  0.00    -0.191 N 
ATOM      3  H5  UNL     1       7.652  23.104-104.789  1.00  0.00     0.184 HD
HETATM    4  C9  UNL     1       9.317  22.127-104.133  1.00  0.00     0.064 A 
HETATM    5  C10 UNL     1       9.836  23.221-103.488  1.00  0.00     0.031 A 
HETATM    6  C11 UNL     1      11.030  23.151-102.820  1.00  0.00     0.002 A 
HETATM    7  C12 UNL     1      11.706  21.961-102.805  1.00  0.00     0.001 A 
HETATM    8  C13 UNL     1      11.183  20.841-103.460  1.00  0.00     0.018 A 
HETATM    9  C14 UNL     1       9.992  20.946-104.114  1.00  0.00     0.050 A 
HETATM   10  C15 UNL     1       9.456  19.837-104.775  1.00  0.00     0.200 A 
HETATM   11  N8  UNL     1       8.252  20.004-105.420  1.00  0.00    -0.163 N 
ATOM     12  H8  UNL     1       7.841  19.209-105.909  1.00  0.00     0.187 HD
ENDROOT
BRANCH   1  13
HETATM   13  N4  UNL     1       6.371  21.346-106.088  1.00  0.00    -0.176 N 
ATOM     14  H4  UNL     1       6.349  21.217-107.101  1.00  0.00     0.186 HD
BRANCH  13  15
HETATM   15  C7  UNL     1       5.274  21.660-105.499  1.00  0.00     0.138 A 
HETATM   16  C6  UNL     1       4.108  21.843-106.205  1.00  0.00     0.067 A 
HETATM   17  C5  UNL     1       2.920  22.187-105.552  1.00  0.00     0.110 A 
HETATM   18  N3  UNL     1       2.922  22.339-104.219  1.00  0.00    -0.202 N 
HETATM   19  C4  UNL     1       4.062  22.160-103.532  1.00  0.00     0.684 A 
ATOM     20  H3  UNL     1       2.063  22.590-103.730  1.00  0.00     0.183 HD
HETATM   21  N9  UNL     1       5.210  21.827-104.169  1.00  0.00    -0.176 N 
ATOM     22  H9  UNL     1       6.058  21.699-103.617  1.00  0.00     0.186 HD
BRANCH  19  23
HETATM   23  N2  UNL     1       4.123  22.292-102.244  1.00  0.00    -0.181 N 
ATOM     24  H2  UNL     1       3.583  23.051-101.829  1.00  0.00     0.185 HD
BRANCH  23  25
HETATM   25  C3  UNL     1       4.862  21.488-101.373  1.00  0.00     0.090 C 
HETATM   26  N1  UNL     1       4.385  20.363-100.954  1.00  0.00    -0.388 N 
ATOM     27  H12 UNL     1       4.925  19.777-100.318  1.00  0.00     0.157 HD
ATOM     28  H11 UNL     1       3.459  20.070-101.269  1.00  0.00     0.157 HD
BRANCH  25  29
HETATM   29  C2  UNL     1       6.200  21.912-100.918  1.00  0.00     0.072 C 
HETATM   30  C1  UNL     1       7.275  21.009-101.428  1.00  0.00     0.013 C 
ENDBRANCH  25  29
ENDBRANCH  23  25
ENDBRANCH  19  23
ENDBRANCH  13  15
ENDBRANCH   1  13
BRANCH  10  31
HETATM   31  N6  UNL     1       9.985  18.762-104.803  1.00  0.00    -0.425 NA
BRANCH  31  32
HETATM   32  C16 UNL     1      10.396  17.498-104.748  1.00  0.00     0.259 C 
BRANCH  32  33
HETATM   33  C17 UNL     1      11.587  17.170-105.655  1.00  0.00    -0.020 A 
HETATM   34  C18 UNL     1      12.472  16.202-105.270  1.00  0.00     0.060 A 
HETATM   35  S1  UNL     1      13.598  16.191-106.550  1.00  0.00    -0.101 SA
HETATM   36  C19 UNL     1      12.916  17.407-107.534  1.00  0.00     0.015 A 
HETATM   37  C25 UNL     1      11.806  17.792-106.815  1.00  0.00     0.030 A 
BRANCH  36  38
HETATM   38  C20 UNL     1      13.372  17.938-108.825  1.00  0.00    -0.017 A 
HETATM   39  C21 UNL     1      14.716  17.961-109.095  1.00  0.00     0.030 A 
HETATM   40  C22 UNL     1      15.166  18.468-110.326  1.00  0.00     0.088 A 
HETATM   41  N7  UNL     1      14.281  18.928-111.234  1.00  0.00    -0.375 N 
HETATM   42  C23 UNL     1      12.969  18.917-110.996  1.00  0.00     0.088 A 
ATOM     43  H7  UNL     1      14.623  19.293-112.122  1.00  0.00     0.164 HD
HETATM   44  C24 UNL     1      12.509  18.414-109.773  1.00  0.00     0.030 A 
ENDBRANCH  36  38
ENDBRANCH  32  33
ENDBRANCH  31  32
ENDBRANCH  10  31
TORSDOF 9
ENDMDL
MODEL 3
REMARK VINA RESULT: -9.315922511      4.042      6.481
REMARK  9 active torsions:
REMARK  status: ('A' for Active; 'I' for Inactive)
REMARK    1  A    between atoms: C2_2  and  C3_3 
REMARK    2  A    between atoms: C3_3  and  N2_7 
REMARK    3  A    between atoms: N2_7  and  C4_9 
REMARK    4  A    between atoms: C7_14  and  N4_15 
REMARK    5  A    between atoms: N4_15  and  C8_17 
REMARK    6  A    between atoms: C15_26  and  N6_27 
REMARK    7  A    between atoms: N6_27  and  C16_28 
REMARK    8  A    between atoms: C16_28  and  C17_29 
REMARK    9  A    between atoms: C19_32  and  C20_33 
ROOT
HETATM    1  C8  UNL     1       6.218  24.122-103.101  1.00  0.00     0.686 A 
HETATM    2  N5  UNL     1       4.943  23.738-102.935  1.00  0.00    -0.191 N 
ATOM      3  H5  UNL     1       4.197  24.385-103.193  1.00  0.00     0.184 HD
HETATM    4  C9  UNL     1       4.615  22.536-102.442  1.00  0.00     0.064 A 
HETATM    5  C10 UNL     1       3.297  22.184-102.287  1.00  0.00     0.031 A 
HETATM    6  C11 UNL     1       2.944  20.960-101.784  1.00  0.00     0.002 A 
HETATM    7  C12 UNL     1       3.935  20.083-101.432  1.00  0.00     0.001 A 
HETATM    8  C13 UNL     1       5.280  20.435-101.587  1.00  0.00     0.018 A 
HETATM    9  C14 UNL     1       5.595  21.661-102.091  1.00  0.00     0.050 A 
HETATM   10  C15 UNL     1       6.934  22.030-102.251  1.00  0.00     0.200 A 
HETATM   11  N8  UNL     1       7.192  23.280-102.764  1.00  0.00    -0.163 N 
ATOM     12  H8  UNL     1       8.160  23.571-102.889  1.00  0.00     0.187 HD
ENDROOT
BRANCH   1  13
HETATM   13  N4  UNL     1       6.475  25.408-103.626  1.00  0.00    -0.176 N 
ATOM     14  H4  UNL     1       5.781  25.813-104.255  1.00  0.00     0.186 HD
BRANCH  13  15
HETATM   15  C7  UNL     1       7.524  26.100-103.362  1.00  0.00     0.138 A 
HETATM   16  C6  UNL     1       8.678  25.962-104.098  1.00  0.00     0.067 A 
HETATM   17  C5  UNL     1       9.815  26.720-103.799  1.00  0.00     0.110 A 
HETATM   18  N3  UNL     1       9.775  27.593-102.782  1.00  0.00    -0.202 N 
HETATM   19  C4  UNL     1       8.647  27.727-102.066  1.00  0.00     0.684 A 
ATOM     20  H3  UNL     1      10.597  28.153-102.554  1.00  0.00     0.183 HD
HETATM   21  N9  UNL     1       7.549  26.990-102.358  1.00  0.00    -0.176 N 
ATOM     22  H9  UNL     1       6.709  27.116-101.793  1.00  0.00     0.186 HD
BRANCH  19  23
HETATM   23  N2  UNL     1       8.550  28.556-101.073  1.00  0.00    -0.181 N 
ATOM     24  H2  UNL     1       8.111  28.209-100.220  1.00  0.00     0.185 HD
BRANCH  23  25
HETATM   25  C3  UNL     1       8.992  29.880-101.067  1.00  0.00     0.090 C 
HETATM   26  N1  UNL     1      10.087  30.203-100.461  1.00  0.00    -0.388 N 
ATOM     27  H12 UNL     1      10.410  31.170-100.456  1.00  0.00     0.157 HD
ATOM     28  H11 UNL     1      10.624  29.476 -99.987  1.00  0.00     0.157 HD
BRANCH  25  29
HETATM   29  C2  UNL     1       8.218  30.931-101.752  1.00  0.00     0.072 C 
HETATM   30  C1  UNL     1       6.848  31.083-101.175  1.00  0.00     0.013 C 
ENDBRANCH  25  29
ENDBRANCH  23  25
ENDBRANCH  19  23
ENDBRANCH  13  15
ENDBRANCH   1  13
BRANCH  10  31
HETATM   31  N6  UNL     1       7.856  21.316-101.971  1.00  0.00    -0.425 NA
BRANCH  31  32
HETATM   32  C16 UNL     1       8.823  20.414-101.827  1.00  0.00     0.259 C 
BRANCH  32  33
HETATM   33  C17 UNL     1      10.076  20.676-102.670  1.00  0.00    -0.020 A 
HETATM   34  C18 UNL     1      10.652  21.915-102.641  1.00  0.00     0.060 A 
HETATM   35  S1  UNL     1      11.972  21.740-103.706  1.00  0.00    -0.101 SA
HETATM   36  C19 UNL     1      11.758  20.109-104.154  1.00  0.00     0.015 A 
HETATM   37  C25 UNL     1      10.637  19.743-103.442  1.00  0.00     0.030 A 
BRANCH  36  38
HETATM   38  C20 UNL     1      12.547  19.272-105.068  1.00  0.00    -0.017 A 
HETATM   39  C21 UNL     1      13.805  19.685-105.423  1.00  0.00     0.030 A 
HETATM   40  C22 UNL     1      14.571  18.896-106.298  1.00  0.00     0.088 A 
HETATM   41  N7  UNL     1      14.071  17.742-106.783  1.00  0.00    -0.375 N 
HETATM   42  C23 UNL     1      12.850  17.318-106.453  1.00  0.00     0.088 A 
ATOM     43  H7  UNL     1      14.638  17.179-107.417  1.00  0.00     0.164 HD
HETATM   44  C24 UNL     1      12.078  18.096-105.583  1.00  0.00     0.030 A 
ENDBRANCH  36  38
ENDBRANCH  32  33
ENDBRANCH  31  32
ENDBRANCH  10  31
TORSDOF 9
ENDMDL
MODEL 4
REMARK VINA RESULT: -9.269275270      2.653      5.861
REMARK  9 active torsions:
REMARK  status: ('A' for Active; 'I' for Inactive)
REMARK    1  A    between atoms: C2_2  and  C3_3 
REMARK    2  A    between atoms: C3_3  and  N2_7 
REMARK    3  A    between atoms: N2_7  and  C4_9 
REMARK    4  A    between atoms: C7_14  and  N4_15 
REMARK    5  A    between atoms: N4_15  and  C8_17 
REMARK    6  A    between atoms: C15_26  and  N6_27 
REMARK    7  A    between atoms: N6_27  and  C16_28 
REMARK    8  A    between atoms: C16_28  and  C17_29 
REMARK    9  A    between atoms: C19_32  and  C20_33 
ROOT
HETATM    1  C8  UNL     1       6.185  24.166-102.998  1.00  0.00     0.686 A 
HETATM    2  N5  UNL     1       4.900  23.808-102.858  1.00  0.00    -0.191 N 
ATOM      3  H5  UNL     1       4.173  24.491-103.073  1.00  0.00     0.184 HD
HETATM    4  C9  UNL     1       4.536  22.586-102.445  1.00  0.00     0.064 A 
HETATM    5  C10 UNL     1       3.209  22.262-102.313  1.00  0.00     0.031 A 
HETATM    6  C11 UNL     1       2.820  21.018-101.892  1.00  0.00     0.002 A 
HETATM    7  C12 UNL     1       3.785  20.092-101.599  1.00  0.00     0.001 A 
HETATM    8  C13 UNL     1       5.139  20.415-101.730  1.00  0.00     0.018 A 
HETATM    9  C14 UNL     1       5.490  21.663-102.153  1.00  0.00     0.050 A 
HETATM   10  C15 UNL     1       6.840  22.002-102.288  1.00  0.00     0.200 A 
HETATM   11  N8  UNL     1       7.133  23.276-102.717  1.00  0.00    -0.163 N 
ATOM     12  H8  UNL     1       8.111  23.547-102.823  1.00  0.00     0.187 HD
ENDROOT
BRANCH   1  13
HETATM   13  N4  UNL     1       6.480  25.476-103.437  1.00  0.00    -0.176 N 
ATOM     14  H4  UNL     1       5.707  26.050-103.775  1.00  0.00     0.186 HD
BRANCH  13  15
HETATM   15  C7  UNL     1       7.656  25.991-103.437  1.00  0.00     0.138 A 
HETATM   16  C6  UNL     1       7.935  27.141-102.736  1.00  0.00     0.067 A 
HETATM   17  C5  UNL     1       9.220  27.694-102.746  1.00  0.00     0.110 A 
HETATM   18  N3  UNL     1      10.190  27.091-103.449  1.00  0.00    -0.202 N 
HETATM   19  C4  UNL     1       9.915  25.968-104.133  1.00  0.00     0.684 A 
ATOM     20  H3  UNL     1      11.132  27.483-103.465  1.00  0.00     0.183 HD
HETATM   21  N9  UNL     1       8.669  25.436-104.120  1.00  0.00    -0.176 N 
ATOM     22  H9  UNL     1       8.494  24.583-104.650  1.00  0.00     0.186 HD
BRANCH  19  23
HETATM   23  N2  UNL     1      10.813  25.341-104.827  1.00  0.00    -0.181 N 
ATOM     24  H2  UNL     1      11.496  25.912-105.325  1.00  0.00     0.185 HD
BRANCH  23  25
HETATM   25  C3  UNL     1      10.929  23.956-104.956  1.00  0.00     0.090 C 
HETATM   26  N1  UNL     1      10.624  23.373-106.069  1.00  0.00    -0.388 N 
ATOM     27  H12 UNL     1      10.710  22.361-106.162  1.00  0.00     0.157 HD
ATOM     28  H11 UNL     1      10.297  23.939-106.851  1.00  0.00     0.157 HD
BRANCH  25  29
HETATM   29  C2  UNL     1      11.403  23.137-103.825  1.00  0.00     0.072 C 
HETATM   30  C1  UNL     1      12.477  22.183-104.237  1.00  0.00     0.013 C 
ENDBRANCH  25  29
ENDBRANCH  23  25
ENDBRANCH  19  23
ENDBRANCH  13  15
ENDBRANCH   1  13
BRANCH  10  31
HETATM   31  N6  UNL     1       7.740  21.246-102.055  1.00  0.00    -0.425 NA
BRANCH  31  32
HETATM   32  C16 UNL     1       8.792  20.433-101.996  1.00  0.00     0.259 C 
BRANCH  32  33
HETATM   33  C17 UNL     1       9.362  20.022-103.358  1.00  0.00    -0.020 A 
HETATM   34  C18 UNL     1       8.760  20.476-104.498  1.00  0.00     0.060 A 
HETATM   35  S1  UNL     1       9.708  19.774-105.729  1.00  0.00    -0.101 SA
HETATM   36  C19 UNL     1      10.837  18.930-104.767  1.00  0.00     0.015 A 
HETATM   37  C25 UNL     1      10.428  19.230-103.487  1.00  0.00     0.030 A 
BRANCH  36  38
HETATM   38  C20 UNL     1      11.969  18.085-105.169  1.00  0.00    -0.017 A 
HETATM   39  C21 UNL     1      13.195  18.669-105.361  1.00  0.00     0.030 A 
HETATM   40  C22 UNL     1      14.287  17.873-105.747  1.00  0.00     0.088 A 
HETATM   41  N7  UNL     1      14.129  16.546-105.927  1.00  0.00    -0.375 N 
HETATM   42  C23 UNL     1      12.947  15.954-105.746  1.00  0.00     0.088 A 
ATOM     43  H7  UNL     1      14.931  15.982-106.206  1.00  0.00     0.164 HD
HETATM   44  C24 UNL     1      11.852  16.736-105.361  1.00  0.00     0.030 A 
ENDBRANCH  36  38
ENDBRANCH  32  33
ENDBRANCH  31  32
ENDBRANCH  10  31
TORSDOF 9
ENDMDL
MODEL 5
REMARK VINA RESULT: -9.263605835      2.954     10.375
REMARK  9 active torsions:
REMARK  status: ('A' for Active; 'I' for Inactive)
REMARK    1  A    between atoms: C2_2  and  C3_3 
REMARK    2  A    between atoms: C3_3  and  N2_7 
REMARK    3  A    between atoms: N2_7  and  C4_9 
REMARK    4  A    between atoms: C7_14  and  N4_15 
REMARK    5  A    between atoms: N4_15  and  C8_17 
REMARK    6  A    between atoms: C15_26  and  N6_27 
REMARK    7  A    between atoms: N6_27  and  C16_28 
REMARK    8  A    between atoms: C16_28  and  C17_29 
REMARK    9  A    between atoms: C19_32  and  C20_33 
ROOT
HETATM    1  C8  UNL     1      13.513  18.784-105.562  1.00  0.00     0.686 A 
HETATM    2  N5  UNL     1      12.628  18.130-106.330  1.00  0.00    -0.191 N 
ATOM      3  H5  UNL     1      12.975  17.492-107.046  1.00  0.00     0.184 HD
HETATM    4  C9  UNL     1      11.304  18.286-106.190  1.00  0.00     0.064 A 
HETATM    5  C10 UNL     1      10.433  17.599-106.998  1.00  0.00     0.031 A 
HETATM    6  C11 UNL     1       9.078  17.748-106.869  1.00  0.00     0.002 A 
HETATM    7  C12 UNL     1       8.598  18.603-105.913  1.00  0.00     0.001 A 
HETATM    8  C13 UNL     1       9.480  19.307-105.086  1.00  0.00     0.018 A 
HETATM    9  C14 UNL     1      10.823  19.134-105.242  1.00  0.00     0.050 A 
HETATM   10  C15 UNL     1      11.718  19.831-104.425  1.00  0.00     0.200 A 
HETATM   11  N8  UNL     1      13.062  19.617-104.629  1.00  0.00    -0.163 N 
ATOM     12  H8  UNL     1      13.734  20.114-104.045  1.00  0.00     0.187 HD
ENDROOT
BRANCH   1  13
HETATM   13  N4  UNL     1      14.891  18.562-105.779  1.00  0.00    -0.176 N 
ATOM     14  H4  UNL     1      15.506  19.376-105.812  1.00  0.00     0.186 HD
BRANCH  13  15
HETATM   15  C7  UNL     1      15.421  17.402-105.936  1.00  0.00     0.138 A 
HETATM   16  C6  UNL     1      16.022  17.043-107.120  1.00  0.00     0.067 A 
HETATM   17  C5  UNL     1      16.593  15.776-107.280  1.00  0.00     0.110 A 
HETATM   18  N3  UNL     1      16.552  14.903-106.262  1.00  0.00    -0.202 N 
HETATM   19  C4  UNL     1      15.964  15.256-105.107  1.00  0.00     0.684 A 
ATOM     20  H3  UNL     1      16.965  13.976-106.365  1.00  0.00     0.183 HD
HETATM   21  N9  UNL     1      15.412  16.484-104.958  1.00  0.00    -0.176 N 
ATOM     22  H9  UNL     1      14.974  16.720-104.068  1.00  0.00     0.186 HD
BRANCH  19  23
HETATM   23  N2  UNL     1      15.897  14.455-104.090  1.00  0.00    -0.181 N 
ATOM     24  H2  UNL     1      15.158  13.752-104.102  1.00  0.00     0.185 HD
BRANCH  23  25
HETATM   25  C3  UNL     1      16.744  14.467-102.981  1.00  0.00     0.090 C 
HETATM   26  N1  UNL     1      17.997  14.179-103.110  1.00  0.00    -0.388 N 
ATOM     27  H12 UNL     1      18.616  14.188-102.299  1.00  0.00     0.157 HD
ATOM     28  H11 UNL     1      18.359  13.941-104.034  1.00  0.00     0.157 HD
BRANCH  25  29
HETATM   29  C2  UNL     1      16.223  14.810-101.645  1.00  0.00     0.072 C 
HETATM   30  C1  UNL     1      15.227  13.809-101.159  1.00  0.00     0.013 C 
ENDBRANCH  25  29
ENDBRANCH  23  25
ENDBRANCH  19  23
ENDBRANCH  13  15
ENDBRANCH   1  13
BRANCH  10  31
HETATM   31  N6  UNL     1      11.376  20.592-103.564  1.00  0.00    -0.425 NA
BRANCH  31  32
HETATM   32  C16 UNL     1      11.061  21.586-102.738  1.00  0.00     0.259 C 
BRANCH  32  33
HETATM   33  C17 UNL     1       9.622  22.096-102.864  1.00  0.00    -0.020 A 
HETATM   34  C18 UNL     1       9.394  23.314-103.439  1.00  0.00     0.060 A 
HETATM   35  S1  UNL     1       7.697  23.457-103.357  1.00  0.00    -0.101 SA
HETATM   36  C19 UNL     1       7.327  21.974-102.601  1.00  0.00     0.015 A 
HETATM   37  C25 UNL     1       8.568  21.401-102.432  1.00  0.00     0.030 A 
BRANCH  36  38
HETATM   38  C20 UNL     1       6.025  21.417-102.210  1.00  0.00    -0.017 A 
HETATM   39  C21 UNL     1       5.712  21.338-100.877  1.00  0.00     0.030 A 
HETATM   40  C22 UNL     1       4.471  20.805-100.488  1.00  0.00     0.088 A 
HETATM   41  N7  UNL     1       3.597  20.374-101.420  1.00  0.00    -0.375 N 
HETATM   42  C23 UNL     1       3.878  20.438-102.723  1.00  0.00     0.088 A 
ATOM     43  H7  UNL     1       2.701  19.990-101.123  1.00  0.00     0.164 HD
HETATM   44  C24 UNL     1       5.110  20.968-103.122  1.00  0.00     0.030 A 
ENDBRANCH  36  38
ENDBRANCH  32  33
ENDBRANCH  31  32
ENDBRANCH  10  31
TORSDOF 9
ENDMDL
