MODEL 1
REMARK VINA RESULT: -8.958692077      0.000      0.000
REMARK  8 active torsions:
REMARK  status: ('A' for Active; 'I' for Inactive)
REMARK    1  A    between atoms: N1_1  and  C1_4 
REMARK    2  A    between atoms: C2_7  and  N3_8 
REMARK    3  A    between atoms: N3_8  and  C3_10 
REMARK    4  A    between atoms: C12_21  and  C13_22 
REMARK    5  A    between atoms: C16_25  and  C17_26 
REMARK    6  A    between atoms: C20_32  and  N6_33 
REMARK    7  A    between atoms: N6_33  and  C21_35 
REMARK    8  A    between atoms: C21_35  and  C22_36 
ROOT
HETATM    1  C1  UNL     1      15.423  16.728-105.623  1.00  0.00     0.134 A 
HETATM    2  N2  UNL     1      15.156  17.948-105.149  1.00  0.00    -0.326 N 
ATOM      3  H2  UNL     1      15.961  18.483-104.822  1.00  0.00     0.169 HD
HETATM    4  C2  UNL     1      13.962  18.563-105.046  1.00  0.00     0.125 A 
HETATM    5  C12 UNL     1      12.749  18.063-105.408  1.00  0.00     0.061 A 
HETATM    6  S1  UNL     1      12.882  16.458-106.062  1.00  0.00    -0.064 SA
HETATM    7  C20 UNL     1      14.467  15.859-106.108  1.00  0.00     0.115 A 
ENDROOT
BRANCH   4   8
HETATM    8  N3  UNL     1      14.020  19.902-104.540  1.00  0.00    -0.341 N 
ATOM      9  H3  UNL     1      14.363  20.032-103.588  1.00  0.00     0.167 HD
BRANCH   8  10
HETATM   10  C3  UNL     1      13.678  20.935-105.186  1.00  0.00     0.047 A 
HETATM   11  C4  UNL     1      14.176  21.219-106.429  1.00  0.00     0.047 A 
HETATM   12  C5  UNL     1      13.794  22.367-107.109  1.00  0.00     0.090 A 
HETATM   13  N4  UNL     1      12.912  23.221-106.536  1.00  0.00    -0.365 N 
HETATM   14  C6  UNL     1      12.401  22.967-105.308  1.00  0.00     0.044 A 
ATOM     15  H4  UNL     1      12.630  24.065-107.035  1.00  0.00     0.165 HD
HETATM   16  C7  UNL     1      11.510  23.828-104.719  1.00  0.00     0.030 A 
HETATM   17  C11 UNL     1      12.781  21.812-104.613  1.00  0.00     0.017 A 
HETATM   18  C8  UNL     1      10.958  23.629-103.473  1.00  0.00     0.002 A 
HETATM   19  C9  UNL     1      11.342  22.474-102.786  1.00  0.00     0.001 A 
HETATM   20  C10 UNL     1      12.234  21.607-103.369  1.00  0.00     0.016 A 
ENDBRANCH   8  10
ENDBRANCH   4   8
BRANCH   5  21
HETATM   21  C13 UNL     1      11.445  18.702-105.332  1.00  0.00    -0.015 A 
HETATM   22  C14 UNL     1      11.009  19.286-106.530  1.00  0.00     0.014 A 
HETATM   23  C15 UNL     1       9.795  19.906-106.682  1.00  0.00     0.017 A 
HETATM   24  C16 UNL     1       8.977  19.943-105.589  1.00  0.00     0.029 A 
HETATM   25  C18 UNL     1       9.362  19.383-104.397  1.00  0.00     0.017 A 
HETATM   26  C19 UNL     1      10.587  18.776-104.301  1.00  0.00     0.014 A 
BRANCH  24  27
HETATM   27  C17 UNL     1       7.674  20.587-105.684  1.00  0.00     0.264 C 
HETATM   28  N5  UNL     1       7.320  21.385-106.803  1.00  0.00    -0.057 NA
HETATM   29  O1  UNL     1       6.833  20.446-104.766  1.00  0.00    -0.271 OA
ENDBRANCH  24  27
ENDBRANCH   5  21
BRANCH   1  30
HETATM   30  N1  UNL     1      16.665  16.287-105.647  1.00  0.00    -0.383 N 
ATOM     31  H12 UNL     1      17.294  16.765-106.292  1.00  0.00     0.157 HD
ATOM     32  H11 UNL     1      16.943  15.513-105.043  1.00  0.00     0.157 HD
ENDBRANCH   1  30
BRANCH   7  33
HETATM   33  N6  UNL     1      14.813  14.692-106.551  1.00  0.00    -0.377 N 
ATOM     34  H6  UNL     1      15.509  14.660-107.297  1.00  0.00     0.160 HD
BRANCH  33  35
HETATM   35  C21 UNL     1      14.301  13.455-106.079  1.00  0.00     0.160 C 
BRANCH  35  36
HETATM   36  C22 UNL     1      14.624  13.204-104.641  1.00  0.00    -0.025 A 
HETATM   37  C23 UNL     1      13.602  13.232-103.715  1.00  0.00     0.011 A 
HETATM   38  C24 UNL     1      13.853  13.006-102.379  1.00  0.00     0.018 A 
HETATM   39  C25 UNL     1      15.142  12.750-101.971  1.00  0.00     0.087 A 
HETATM   40  N7  UNL     1      16.135  12.726-102.894  1.00  0.00    -0.375 N 
HETATM   41  C26 UNL     1      15.890  12.946-104.195  1.00  0.00     0.096 A 
ATOM     42  H7  UNL     1      17.091  12.536-102.592  1.00  0.00     0.164 HD
ENDBRANCH  35  36
ENDBRANCH  33  35
ENDBRANCH   7  33
TORSDOF 8
ENDMDL
MODEL 2
REMARK VINA RESULT: -8.799866478      3.638      8.278
REMARK  8 active torsions:
REMARK  status: ('A' for Active; 'I' for Inactive)
REMARK    1  A    between atoms: N1_1  and  C1_4 
REMARK    2  A    between atoms: C2_7  and  N3_8 
REMARK    3  A    between atoms: N3_8  and  C3_10 
REMARK    4  A    between atoms: C12_21  and  C13_22 
REMARK    5  A    between atoms: C16_25  and  C17_26 
REMARK    6  A    between atoms: C20_32  and  N6_33 
REMARK    7  A    between atoms: N6_33  and  C21_35 
REMARK    8  A    between atoms: C21_35  and  C22_36 
ROOT
HETATM    1  C1  UNL     1       8.786  21.580-104.960  1.00  0.00     0.134 A 
HETATM    2  N2  UNL     1       9.355  21.101-106.070  1.00  0.00    -0.326 N 
ATOM      3  H2  UNL     1       9.022  21.500-106.947  1.00  0.00     0.169 HD
HETATM    4  C2  UNL     1      10.313  20.159-106.179  1.00  0.00     0.125 A 
HETATM    5  C12 UNL     1      10.914  19.481-105.165  1.00  0.00     0.061 A 
HETATM    6  S1  UNL     1      10.304  19.967-103.612  1.00  0.00    -0.064 SA
HETATM    7  C20 UNL     1       9.104  21.164-103.684  1.00  0.00     0.115 A 
ENDROOT
BRANCH   4   8
HETATM    8  N3  UNL     1      10.752  19.906-107.519  1.00  0.00    -0.341 N 
ATOM      9  H3  UNL     1      10.113  19.407-108.139  1.00  0.00     0.167 HD
BRANCH   8  10
HETATM   10  C3  UNL     1      11.873  20.254-107.991  1.00  0.00     0.047 A 
HETATM   11  C4  UNL     1      12.365  21.524-107.848  1.00  0.00     0.047 A 
HETATM   12  C5  UNL     1      13.591  21.882-108.388  1.00  0.00     0.090 A 
HETATM   13  N4  UNL     1      14.317  20.962-109.068  1.00  0.00    -0.365 N 
HETATM   14  C6  UNL     1      13.858  19.698-109.227  1.00  0.00     0.044 A 
ATOM     15  H4  UNL     1      15.220  21.224-109.465  1.00  0.00     0.165 HD
HETATM   16  C7  UNL     1      14.585  18.761-109.917  1.00  0.00     0.030 A 
HETATM   17  C11 UNL     1      12.620  19.327-108.685  1.00  0.00     0.017 A 
HETATM   18  C8  UNL     1      14.171  17.462-110.115  1.00  0.00     0.002 A 
HETATM   19  C9  UNL     1      12.936  17.099-109.572  1.00  0.00     0.001 A 
HETATM   20  C10 UNL     1      12.202  18.032-108.881  1.00  0.00     0.016 A 
ENDBRANCH   8  10
ENDBRANCH   4   8
BRANCH   5  21
HETATM   21  C13 UNL     1      11.963  18.476-105.241  1.00  0.00    -0.015 A 
HETATM   22  C14 UNL     1      11.502  17.154-105.321  1.00  0.00     0.014 A 
HETATM   23  C15 UNL     1      12.325  16.063-105.437  1.00  0.00     0.017 A 
HETATM   24  C16 UNL     1      13.669  16.301-105.477  1.00  0.00     0.029 A 
HETATM   25  C18 UNL     1      14.164  17.579-105.403  1.00  0.00     0.017 A 
HETATM   26  C19 UNL     1      13.296  18.633-105.288  1.00  0.00     0.014 A 
BRANCH  24  27
HETATM   27  C17 UNL     1      14.597  15.186-105.599  1.00  0.00     0.264 C 
HETATM   28  N5  UNL     1      14.250  14.005-106.306  1.00  0.00    -0.057 NA
HETATM   29  O1  UNL     1      15.732  15.249-105.073  1.00  0.00    -0.271 OA
ENDBRANCH  24  27
ENDBRANCH   5  21
BRANCH   1  30
HETATM   30  N1  UNL     1       7.855  22.510-105.045  1.00  0.00    -0.383 N 
ATOM     31  H12 UNL     1       6.891  22.176-105.044  1.00  0.00     0.157 HD
ATOM     32  H11 UNL     1       8.121  23.493-105.108  1.00  0.00     0.157 HD
ENDBRANCH   1  30
BRANCH   7  33
HETATM   33  N6  UNL     1       8.503  21.682-102.661  1.00  0.00    -0.377 N 
ATOM     34  H6  UNL     1       8.587  22.690-102.527  1.00  0.00     0.160 HD
BRANCH  33  35
HETATM   35  C21 UNL     1       7.734  20.957-101.712  1.00  0.00     0.160 C 
BRANCH  35  36
HETATM   36  C22 UNL     1       6.277  21.287-101.773  1.00  0.00    -0.025 A 
HETATM   37  C23 UNL     1       5.360  20.316-101.426  1.00  0.00     0.011 A 
HETATM   38  C24 UNL     1       4.007  20.577-101.467  1.00  0.00     0.018 A 
HETATM   39  C25 UNL     1       3.573  21.822-101.860  1.00  0.00     0.087 A 
HETATM   40  N7  UNL     1       4.488  22.765-102.196  1.00  0.00    -0.375 N 
HETATM   41  C26 UNL     1       5.805  22.512-102.157  1.00  0.00     0.096 A 
ATOM     42  H7  UNL     1       4.166  23.688-102.487  1.00  0.00     0.164 HD
ENDBRANCH  35  36
ENDBRANCH  33  35
ENDBRANCH   7  33
TORSDOF 8
ENDMDL
MODEL 3
REMARK VINA RESULT: -8.777309036      4.307      9.083
REMARK  8 active torsions:
REMARK  status: ('A' for Active; 'I' for Inactive)
REMARK    1  A    between atoms: N1_1  and  C1_4 
REMARK    2  A    between atoms: C2_7  and  N3_8 
REMARK    3  A    between atoms: N3_8  and  C3_10 
REMARK    4  A    between atoms: C12_21  and  C13_22 
REMARK    5  A    between atoms: C16_25  and  C17_26 
REMARK    6  A    between atoms: C20_32  and  N6_33 
REMARK    7  A    between atoms: N6_33  and  C21_35 
REMARK    8  A    between atoms: C21_35  and  C22_36 
ROOT
HETATM    1  C1  UNL     1       6.883  23.042-102.202  1.00  0.00     0.134 A 
HETATM    2  N2  UNL     1       7.852  23.614-102.922  1.00  0.00    -0.326 N 
ATOM      3  H2  UNL     1       7.701  24.590-103.174  1.00  0.00     0.169 HD
HETATM    4  C2  UNL     1       9.003  23.067-103.358  1.00  0.00     0.125 A 
HETATM    5  C12 UNL     1       9.433  21.792-103.158  1.00  0.00     0.061 A 
HETATM    6  S1  UNL     1       8.295  20.868-102.224  1.00  0.00    -0.064 SA
HETATM    7  C20 UNL     1       6.909  21.732-101.769  1.00  0.00     0.115 A 
ENDROOT
BRANCH   4   8
HETATM    8  N3  UNL     1       9.863  23.969-104.067  1.00  0.00    -0.341 N 
ATOM      9  H3  UNL     1      10.765  23.612-104.382  1.00  0.00     0.167 HD
BRANCH   8  10
HETATM   10  C3  UNL     1       9.585  25.175-104.330  1.00  0.00     0.047 A 
HETATM   11  C4  UNL     1       8.683  25.524-105.298  1.00  0.00     0.047 A 
HETATM   12  C5  UNL     1       8.410  26.856-105.576  1.00  0.00     0.090 A 
HETATM   13  N4  UNL     1       9.043  27.829-104.877  1.00  0.00    -0.365 N 
HETATM   14  C6  UNL     1       9.940  27.515-103.912  1.00  0.00     0.044 A 
ATOM     15  H4  UNL     1       8.842  28.808-105.080  1.00  0.00     0.165 HD
HETATM   16  C7  UNL     1      10.589  28.493-103.202  1.00  0.00     0.030 A 
HETATM   17  C11 UNL     1      10.224  26.174-103.625  1.00  0.00     0.017 A 
HETATM   18  C8  UNL     1      11.514  28.240-102.213  1.00  0.00     0.002 A 
HETATM   19  C9  UNL     1      11.792  26.899-101.933  1.00  0.00     0.001 A 
HETATM   20  C10 UNL     1      11.147  25.914-102.640  1.00  0.00     0.016 A 
ENDBRANCH   8  10
ENDBRANCH   4   8
BRANCH   5  21
HETATM   21  C13 UNL     1      10.675  21.173-103.593  1.00  0.00    -0.015 A 
HETATM   22  C14 UNL     1      10.526  19.899-104.160  1.00  0.00     0.014 A 
HETATM   23  C15 UNL     1      11.565  19.161-104.666  1.00  0.00     0.017 A 
HETATM   24  C16 UNL     1      12.811  19.719-104.605  1.00  0.00     0.029 A 
HETATM   25  C18 UNL     1      13.002  20.964-104.059  1.00  0.00     0.017 A 
HETATM   26  C19 UNL     1      11.927  21.658-103.568  1.00  0.00     0.014 A 
BRANCH  24  27
HETATM   27  C17 UNL     1      13.957  18.987-105.124  1.00  0.00     0.264 C 
HETATM   28  N5  UNL     1      15.249  19.573-105.178  1.00  0.00    -0.057 NA
HETATM   29  O1  UNL     1      13.821  17.814-105.540  1.00  0.00    -0.271 OA
ENDBRANCH  24  27
ENDBRANCH   5  21
BRANCH   1  30
HETATM   30  N1  UNL     1       5.816  23.738-101.862  1.00  0.00    -0.383 N 
ATOM     31  H12 UNL     1       5.675  24.612-102.370  1.00  0.00     0.157 HD
ATOM     32  H11 UNL     1       5.194  23.393-101.131  1.00  0.00     0.157 HD
ENDBRANCH   1  30
BRANCH   7  33
HETATM   33  N6  UNL     1       5.926  21.257-101.073  1.00  0.00    -0.377 N 
ATOM     34  H6  UNL     1       5.887  21.504-100.084  1.00  0.00     0.160 HD
BRANCH  33  35
HETATM   35  C21 UNL     1       4.897  20.419-101.579  1.00  0.00     0.160 C 
BRANCH  35  36
HETATM   36  C22 UNL     1       3.913  21.158-102.429  1.00  0.00    -0.025 A 
HETATM   37  C23 UNL     1       2.862  21.809-101.816  1.00  0.00     0.011 A 
HETATM   38  C24 UNL     1       1.932  22.503-102.559  1.00  0.00     0.018 A 
HETATM   39  C25 UNL     1       2.059  22.542-103.929  1.00  0.00     0.087 A 
HETATM   40  N7  UNL     1       3.097  21.897-104.515  1.00  0.00    -0.375 N 
HETATM   41  C26 UNL     1       4.003  21.221-103.792  1.00  0.00     0.096 A 
ATOM     42  H7  UNL     1       3.192  21.926-105.531  1.00  0.00     0.164 HD
ENDBRANCH  35  36
ENDBRANCH  33  35
ENDBRANCH   7  33
TORSDOF 8
ENDMDL
MODEL 4
REMARK VINA RESULT: -8.760287273      3.017      4.558
REMARK  8 active torsions:
REMARK  status: ('A' for Active; 'I' for Inactive)
REMARK    1  A    between atoms: N1_1  and  C1_4 
REMARK    2  A    between atoms: C2_7  and  N3_8 
REMARK    3  A    between atoms: N3_8  and  C3_10 
REMARK    4  A    between atoms: C12_21  and  C13_22 
REMARK    5  A    between atoms: C16_25  and  C17_26 
REMARK    6  A    between atoms: C20_32  and  N6_33 
REMARK    7  A    between atoms: N6_33  and  C21_35 
REMARK    8  A    between atoms: C21_35  and  C22_36 
ROOT
HETATM    1  C1  UNL     1      12.472  20.337-104.428  1.00  0.00     0.134 A 
HETATM    2  N2  UNL     1      11.929  21.397-103.821  1.00  0.00    -0.326 N 
ATOM      3  H2  UNL     1      12.553  22.189-103.668  1.00  0.00     0.169 HD
HETATM    4  C2  UNL     1      10.664  21.552-103.384  1.00  0.00     0.125 A 
HETATM    5  C12 UNL     1       9.651  20.648-103.467  1.00  0.00     0.061 A 
HETATM    6  S1  UNL     1      10.162  19.177-104.240  1.00  0.00    -0.064 SA
HETATM    7  C20 UNL     1      11.789  19.175-104.718  1.00  0.00     0.115 A 
ENDROOT
BRANCH   4   8
HETATM    8  N3  UNL     1      10.381  22.838-102.819  1.00  0.00    -0.341 N 
ATOM      9  H3  UNL     1      10.158  22.878-101.824  1.00  0.00     0.167 HD
BRANCH   8  10
HETATM   10  C3  UNL     1      10.387  23.928-103.463  1.00  0.00     0.047 A 
HETATM   11  C4  UNL     1      11.522  24.434-104.035  1.00  0.00     0.047 A 
HETATM   12  C5  UNL     1      11.502  25.639-104.723  1.00  0.00     0.090 A 
HETATM   13  N4  UNL     1      10.340  26.327-104.832  1.00  0.00    -0.365 N 
HETATM   14  C6  UNL     1       9.200  25.853-104.277  1.00  0.00     0.044 A 
ATOM     15  H4  UNL     1      10.324  27.213-105.339  1.00  0.00     0.165 HD
HETATM   16  C7  UNL     1       8.020  26.545-104.380  1.00  0.00     0.030 A 
HETATM   17  C11 UNL     1       9.210  24.637-103.580  1.00  0.00     0.017 A 
HETATM   18  C8  UNL     1       6.829  26.118-103.835  1.00  0.00     0.002 A 
HETATM   19  C9  UNL     1       6.847  24.905-103.141  1.00  0.00     0.001 A 
HETATM   20  C10 UNL     1       8.025  24.206-103.034  1.00  0.00     0.016 A 
ENDBRANCH   8  10
ENDBRANCH   4   8
BRANCH   5  21
HETATM   21  C13 UNL     1       8.271  20.787-103.028  1.00  0.00    -0.015 A 
HETATM   22  C14 UNL     1       7.332  20.863-104.066  1.00  0.00     0.014 A 
HETATM   23  C15 UNL     1       5.979  20.960-103.867  1.00  0.00     0.017 A 
HETATM   24  C16 UNL     1       5.542  20.980-102.573  1.00  0.00     0.029 A 
HETATM   25  C18 UNL     1       6.426  20.906-101.527  1.00  0.00     0.017 A 
HETATM   26  C19 UNL     1       7.768  20.811-101.783  1.00  0.00     0.014 A 
BRANCH  24  27
HETATM   27  C17 UNL     1       4.116  21.081-102.294  1.00  0.00     0.264 C 
HETATM   28  N5  UNL     1       3.264  19.947-102.363  1.00  0.00    -0.057 NA
HETATM   29  O1  UNL     1       3.610  22.184-101.985  1.00  0.00    -0.271 OA
ENDBRANCH  24  27
ENDBRANCH   5  21
BRANCH   1  30
HETATM   30  N1  UNL     1      13.740  20.363-104.788  1.00  0.00    -0.383 N 
ATOM     31  H12 UNL     1      13.990  21.065-105.485  1.00  0.00     0.157 HD
ATOM     32  H11 UNL     1      14.401  19.705-104.374  1.00  0.00     0.157 HD
ENDBRANCH   1  30
BRANCH   7  33
HETATM   33  N6  UNL     1      12.393  18.195-105.311  1.00  0.00    -0.377 N 
ATOM     34  H6  UNL     1      13.279  18.400-105.773  1.00  0.00     0.160 HD
BRANCH  33  35
HETATM   35  C21 UNL     1      11.918  16.858-105.368  1.00  0.00     0.160 C 
BRANCH  35  36
HETATM   36  C22 UNL     1      13.010  15.865-105.612  1.00  0.00    -0.025 A 
HETATM   37  C23 UNL     1      12.904  14.609-105.052  1.00  0.00     0.011 A 
HETATM   38  C24 UNL     1      13.886  13.663-105.251  1.00  0.00     0.018 A 
HETATM   39  C25 UNL     1      14.983  13.983-106.018  1.00  0.00     0.087 A 
HETATM   40  N7  UNL     1      15.071  15.221-106.561  1.00  0.00    -0.375 N 
HETATM   41  C26 UNL     1      14.115  16.143-106.368  1.00  0.00     0.096 A 
ATOM     42  H7  UNL     1      15.883  15.458-107.131  1.00  0.00     0.164 HD
ENDBRANCH  35  36
ENDBRANCH  33  35
ENDBRANCH   7  33
TORSDOF 8
ENDMDL
MODEL 5
REMARK VINA RESULT: -8.738580776      3.645      5.516
REMARK  8 active torsions:
REMARK  status: ('A' for Active; 'I' for Inactive)
REMARK    1  A    between atoms: N1_1  and  C1_4 
REMARK    2  A    between atoms: C2_7  and  N3_8 
REMARK    3  A    between atoms: N3_8  and  C3_10 
REMARK    4  A    between atoms: C12_21  and  C13_22 
REMARK    5  A    between atoms: C16_25  and  C17_26 
REMARK    6  A    between atoms: C20_32  and  N6_33 
REMARK    7  A    between atoms: N6_33  and  C21_35 
REMARK    8  A    between atoms: C21_35  and  C22_36 
ROOT
HETATM    1  C1  UNL     1      12.545  20.363-104.441  1.00  0.00     0.134 A 
HETATM    2  N2  UNL     1      11.989  21.422-103.845  1.00  0.00    -0.326 N 
ATOM      3  H2  UNL     1      12.602  22.225-103.705  1.00  0.00     0.169 HD
HETATM    4  C2  UNL     1      10.723  21.566-103.406  1.00  0.00     0.125 A 
HETATM    5  C12 UNL     1       9.723  20.646-103.474  1.00  0.00     0.061 A 
HETATM    6  S1  UNL     1      10.251  19.173-104.230  1.00  0.00    -0.064 SA
HETATM    7  C20 UNL     1      11.876  19.187-104.714  1.00  0.00     0.115 A 
ENDROOT
BRANCH   4   8
HETATM    8  N3  UNL     1      10.424  22.855-102.857  1.00  0.00    -0.341 N 
ATOM      9  H3  UNL     1      10.223  22.907-101.858  1.00  0.00     0.167 HD
BRANCH   8  10
HETATM   10  C3  UNL     1      10.390  23.933-103.519  1.00  0.00     0.047 A 
HETATM   11  C4  UNL     1      11.496  24.442-104.146  1.00  0.00     0.047 A 
HETATM   12  C5  UNL     1      11.433  25.634-104.853  1.00  0.00     0.090 A 
HETATM   13  N4  UNL     1      10.259  26.307-104.927  1.00  0.00    -0.365 N 
HETATM   14  C6  UNL     1       9.148  25.829-104.318  1.00  0.00     0.044 A 
ATOM     15  H4  UNL     1      10.212  27.183-105.447  1.00  0.00     0.165 HD
HETATM   16  C7  UNL     1       7.956  26.505-104.385  1.00  0.00     0.030 A 
HETATM   17  C11 UNL     1       9.201  24.626-103.601  1.00  0.00     0.017 A 
HETATM   18  C8  UNL     1       6.793  26.074-103.785  1.00  0.00     0.002 A 
HETATM   19  C9  UNL     1       6.854  24.873-103.072  1.00  0.00     0.001 A 
HETATM   20  C10 UNL     1       8.044  24.191-103.000  1.00  0.00     0.016 A 
ENDBRANCH   8  10
ENDBRANCH   4   8
BRANCH   5  21
HETATM   21  C13 UNL     1       8.343  20.772-103.031  1.00  0.00    -0.015 A 
HETATM   22  C14 UNL     1       7.403  20.870-104.067  1.00  0.00     0.014 A 
HETATM   23  C15 UNL     1       6.050  20.958-103.866  1.00  0.00     0.017 A 
HETATM   24  C16 UNL     1       5.613  20.947-102.572  1.00  0.00     0.029 A 
HETATM   25  C18 UNL     1       6.498  20.852-101.527  1.00  0.00     0.017 A 
HETATM   26  C19 UNL     1       7.840  20.765-101.786  1.00  0.00     0.014 A 
BRANCH  24  27
HETATM   27  C17 UNL     1       4.187  21.038-102.290  1.00  0.00     0.264 C 
HETATM   28  N5  UNL     1       3.338  19.904-102.382  1.00  0.00    -0.057 NA
HETATM   29  O1  UNL     1       3.678  22.134-101.958  1.00  0.00    -0.271 OA
ENDBRANCH  24  27
ENDBRANCH   5  21
BRANCH   1  30
HETATM   30  N1  UNL     1      13.811  20.402-104.806  1.00  0.00    -0.383 N 
ATOM     31  H12 UNL     1      14.437  20.916-104.187  1.00  0.00     0.157 HD
ATOM     32  H11 UNL     1      14.108  19.935-105.663  1.00  0.00     0.157 HD
ENDBRANCH   1  30
BRANCH   7  33
HETATM   33  N6  UNL     1      12.492  18.208-105.296  1.00  0.00    -0.377 N 
ATOM     34  H6  UNL     1      13.448  18.012-105.000  1.00  0.00     0.160 HD
BRANCH  33  35
HETATM   35  C21 UNL     1      11.940  17.387-106.314  1.00  0.00     0.160 C 
BRANCH  35  36
HETATM   36  C22 UNL     1      12.322  17.834-107.689  1.00  0.00    -0.025 A 
HETATM   37  C23 UNL     1      12.977  16.948-108.519  1.00  0.00     0.011 A 
HETATM   38  C24 UNL     1      13.347  17.317-109.795  1.00  0.00     0.018 A 
HETATM   39  C25 UNL     1      13.056  18.586-110.239  1.00  0.00     0.087 A 
HETATM   40  N7  UNL     1      12.411  19.444-109.411  1.00  0.00    -0.375 N 
HETATM   41  C26 UNL     1      12.051  19.085-108.169  1.00  0.00     0.096 A 
ATOM     42  H7  UNL     1      12.195  20.385-109.740  1.00  0.00     0.164 HD
ENDBRANCH  35  36
ENDBRANCH  33  35
ENDBRANCH   7  33
TORSDOF 8
ENDMDL
