MODEL 1
REMARK VINA RESULT: -9.184934966      0.000      0.000
REMARK  7 active torsions:
REMARK  status: ('A' for Active; 'I' for Inactive)
REMARK    1  A    between atoms: C3_4  and  N2_5 
REMARK       I    between atoms: N2_5  and  C4_7 
REMARK       I    between atoms: C4_7  and  N3_9 
REMARK    2  A    between atoms: N3_9  and  N4_11 
REMARK    3  A    between atoms: C5_13  and  C6_14 
REMARK    4  A    between atoms: C18_28  and  N6_29 
REMARK    5  A    between atoms: N6_29  and  C19_30 
REMARK    6  A    between atoms: C22_33  and  S1_34 
REMARK    7  A    between atoms: S1_34  and  N7_35 
ROOT
HETATM    1  N1  UNL     1      15.501  19.172-107.604  1.00  0.00    -0.191 NA
HETATM    2  C1  UNL     1      15.037  18.216-107.141  1.00  0.00     0.107 C 
HETATM    3  C2  UNL     1      14.475  17.004-106.572  1.00  0.00     0.130 A 
HETATM    4  C3  UNL     1      13.238  17.114-105.940  1.00  0.00     0.134 A 
HETATM    5  N5  UNL     1      12.728  15.991-105.420  1.00  0.00    -0.340 N 
ATOM      6  H5  UNL     1      11.824  16.035-104.950  1.00  0.00     0.167 HD
HETATM    7  C12 UNL     1      13.371  14.791-105.494  1.00  0.00     0.047 A 
HETATM    8  C13 UNL     1      12.772  13.701-104.921  1.00  0.00     0.030 A 
HETATM    9  C14 UNL     1      13.397  12.471-104.966  1.00  0.00     0.002 A 
HETATM   10  C15 UNL     1      14.613  12.329-105.578  1.00  0.00     0.001 A 
HETATM   11  C16 UNL     1      15.205  13.438-106.153  1.00  0.00     0.017 A 
HETATM   12  C17 UNL     1      14.582  14.672-106.109  1.00  0.00     0.033 A 
HETATM   13  C18 UNL     1      15.184  15.808-106.680  1.00  0.00     0.144 A 
ENDROOT
BRANCH   4  14
HETATM   14  N2  UNL     1      12.636  18.389-105.877  1.00  0.00    -0.292 N 
HETATM   15  C4  UNL     1      11.496  18.711-105.149  1.00  0.00     0.340 C 
HETATM   16  O1  UNL     1      10.792  17.932-104.438  1.00  0.00    -0.245 OA
HETATM   17  N3  UNL     1      11.005  20.067-105.158  1.00  0.00    -0.252 N 
ATOM     18  H3  UNL     1      11.488  20.788-105.695  1.00  0.00     0.191 HD
ATOM     19  H2  UNL     1      13.076  19.139-106.410  1.00  0.00     0.172 HD
BRANCH  17  20
HETATM   20  N4  UNL     1       9.869  20.377-104.428  1.00  0.00    -0.307 N 
HETATM   21  C5  UNL     1       9.869  21.362-103.615  1.00  0.00     0.118 C 
ATOM     22  H4  UNL     1       9.026  19.815-104.542  1.00  0.00     0.186 HD
BRANCH  21  23
HETATM   23  C6  UNL     1       8.649  21.640-102.877  1.00  0.00    -0.019 A 
HETATM   24  C7  UNL     1       8.110  20.744-101.987  1.00  0.00     0.013 A 
HETATM   25  C8  UNL     1       6.960  21.028-101.299  1.00  0.00     0.001 A 
HETATM   26  C9  UNL     1       6.310  22.235-101.487  1.00  0.00     0.000 A 
HETATM   27  C10 UNL     1       6.852  23.136-102.383  1.00  0.00     0.001 A 
HETATM   28  C11 UNL     1       7.999  22.841-103.061  1.00  0.00     0.013 A 
ENDBRANCH  21  23
ENDBRANCH  17  20
ENDBRANCH   4  14
BRANCH  13  29
HETATM   29  N6  UNL     1      16.222  15.736-107.202  1.00  0.00    -0.403 NA
BRANCH  29  30
HETATM   30  C19 UNL     1      17.411  15.648-107.799  1.00  0.00     0.107 A 
HETATM   31  C20 UNL     1      18.570  15.179-107.156  1.00  0.00     0.046 A 
HETATM   32  C21 UNL     1      19.783  15.092-107.782  1.00  0.00     0.028 A 
HETATM   33  C22 UNL     1      19.922  15.468-109.096  1.00  0.00     0.079 A 
HETATM   34  C23 UNL     1      18.808  15.934-109.763  1.00  0.00     0.028 A 
HETATM   35  C24 UNL     1      17.590  16.026-109.149  1.00  0.00     0.046 A 
BRANCH  33  36
HETATM   36  S1  UNL     1      21.444  15.378-109.941  1.00  0.00     0.256 S 
HETATM   37  O2  UNL     1      22.520  14.878-109.018  1.00  0.00    -0.201 OA
HETATM   38  O3  UNL     1      21.835  16.736-110.455  1.00  0.00    -0.201 OA
BRANCH  36  39
HETATM   39  N7  UNL     1      21.319  14.317-111.289  1.00  0.00    -0.324 N 
ATOM     40  H72 UNL     1      21.250  13.302-111.211  1.00  0.00     0.169 HD
ATOM     41  H71 UNL     1      21.324  14.847-112.160  1.00  0.00     0.169 HD
ENDBRANCH  36  39
ENDBRANCH  33  36
ENDBRANCH  29  30
ENDBRANCH  13  29
TORSDOF 7
ENDMDL
MODEL 2
REMARK VINA RESULT: -9.061554367      0.877      1.297
REMARK  7 active torsions:
REMARK  status: ('A' for Active; 'I' for Inactive)
REMARK    1  A    between atoms: C3_4  and  N2_5 
REMARK       I    between atoms: N2_5  and  C4_7 
REMARK       I    between atoms: C4_7  and  N3_9 
REMARK    2  A    between atoms: N3_9  and  N4_11 
REMARK    3  A    between atoms: C5_13  and  C6_14 
REMARK    4  A    between atoms: C18_28  and  N6_29 
REMARK    5  A    between atoms: N6_29  and  C19_30 
REMARK    6  A    between atoms: C22_33  and  S1_34 
REMARK    7  A    between atoms: S1_34  and  N7_35 
ROOT
HETATM    1  N1  UNL     1      15.478  18.970-107.126  1.00  0.00    -0.191 NA
HETATM    2  C1  UNL     1      15.033  17.957-106.782  1.00  0.00     0.107 C 
HETATM    3  C2  UNL     1      14.494  16.675-106.364  1.00  0.00     0.130 A 
HETATM    4  C3  UNL     1      13.251  16.684-105.735  1.00  0.00     0.134 A 
HETATM    5  N5  UNL     1      12.763  15.497-105.355  1.00  0.00    -0.340 N 
ATOM      6  H5  UNL     1      11.856  15.466-104.890  1.00  0.00     0.167 HD
HETATM    7  C12 UNL     1      13.433  14.327-105.564  1.00  0.00     0.047 A 
HETATM    8  C13 UNL     1      12.854  13.165-105.128  1.00  0.00     0.030 A 
HETATM    9  C14 UNL     1      13.506  11.962-105.313  1.00  0.00     0.002 A 
HETATM   10  C15 UNL     1      14.728  11.919-105.928  1.00  0.00     0.001 A 
HETATM   11  C16 UNL     1      15.299  13.100-106.363  1.00  0.00     0.017 A 
HETATM   12  C17 UNL     1      14.649  14.307-106.179  1.00  0.00     0.033 A 
HETATM   13  C18 UNL     1      15.229  15.515-106.608  1.00  0.00     0.144 A 
ENDROOT
BRANCH   4  14
HETATM   14  N2  UNL     1      12.622  17.929-105.526  1.00  0.00    -0.292 N 
HETATM   15  C4  UNL     1      11.355  18.115-104.987  1.00  0.00     0.340 C 
HETATM   16  O1  UNL     1      10.541  17.220-104.607  1.00  0.00    -0.245 OA
HETATM   17  N3  UNL     1      10.846  19.453-104.809  1.00  0.00    -0.252 N 
ATOM     18  H3  UNL     1      11.409  20.260-105.077  1.00  0.00     0.191 HD
ATOM     19  H2  UNL     1      13.142  18.765-105.793  1.00  0.00     0.172 HD
BRANCH  17  20
HETATM   20  N4  UNL     1       9.582  19.628-104.269  1.00  0.00    -0.307 N 
HETATM   21  C5  UNL     1       9.202  20.777-103.862  1.00  0.00     0.118 C 
ATOM     22  H4  UNL     1       8.949  18.831-104.196  1.00  0.00     0.186 HD
BRANCH  21  23
HETATM   23  C6  UNL     1       7.867  20.900-103.304  1.00  0.00    -0.019 A 
HETATM   24  C7  UNL     1       6.737  20.809-104.079  1.00  0.00     0.013 A 
HETATM   25  C8  UNL     1       5.487  20.926-103.531  1.00  0.00     0.001 A 
HETATM   26  C9  UNL     1       5.333  21.139-102.172  1.00  0.00     0.000 A 
HETATM   27  C10 UNL     1       6.470  21.231-101.393  1.00  0.00     0.001 A 
HETATM   28  C11 UNL     1       7.710  21.112-101.952  1.00  0.00     0.013 A 
ENDBRANCH  21  23
ENDBRANCH  17  20
ENDBRANCH   4  14
BRANCH  13  29
HETATM   29  N6  UNL     1      16.272  15.527-107.126  1.00  0.00    -0.403 NA
BRANCH  29  30
HETATM   30  C19 UNL     1      17.468  15.540-107.714  1.00  0.00     0.107 A 
HETATM   31  C20 UNL     1      17.672  15.924-109.051  1.00  0.00     0.046 A 
HETATM   32  C21 UNL     1      18.905  15.934-109.641  1.00  0.00     0.028 A 
HETATM   33  C22 UNL     1      20.023  15.562-108.936  1.00  0.00     0.079 A 
HETATM   34  C23 UNL     1      19.866  15.177-107.620  1.00  0.00     0.028 A 
HETATM   35  C24 UNL     1      18.638  15.162-107.018  1.00  0.00     0.046 A 
BRANCH  33  36
HETATM   36  S1  UNL     1      21.618  15.555-109.639  1.00  0.00     0.256 S 
HETATM   37  O2  UNL     1      22.392  14.362-109.154  1.00  0.00    -0.201 OA
HETATM   38  O3  UNL     1      22.360  16.806-109.258  1.00  0.00    -0.201 OA
BRANCH  36  39
HETATM   39  N7  UNL     1      21.515  15.502-111.355  1.00  0.00    -0.324 N 
ATOM     40  H72 UNL     1      21.891  14.744-111.926  1.00  0.00     0.169 HD
ATOM     41  H71 UNL     1      21.031  16.328-111.707  1.00  0.00     0.169 HD
ENDBRANCH  36  39
ENDBRANCH  33  36
ENDBRANCH  29  30
ENDBRANCH  13  29
TORSDOF 7
ENDMDL
MODEL 3
REMARK VINA RESULT: -8.833409547      4.075      5.591
REMARK  7 active torsions:
REMARK  status: ('A' for Active; 'I' for Inactive)
REMARK    1  A    between atoms: C3_4  and  N2_5 
REMARK       I    between atoms: N2_5  and  C4_7 
REMARK       I    between atoms: C4_7  and  N3_9 
REMARK    2  A    between atoms: N3_9  and  N4_11 
REMARK    3  A    between atoms: C5_13  and  C6_14 
REMARK    4  A    between atoms: C18_28  and  N6_29 
REMARK    5  A    between atoms: N6_29  and  C19_30 
REMARK    6  A    between atoms: C22_33  and  S1_34 
REMARK    7  A    between atoms: S1_34  and  N7_35 
ROOT
HETATM    1  N1  UNL     1      11.670  19.342-104.069  1.00  0.00    -0.191 NA
HETATM    2  C1  UNL     1      11.935  19.365-105.196  1.00  0.00     0.107 C 
HETATM    3  C2  UNL     1      12.288  19.377-106.605  1.00  0.00     0.130 A 
HETATM    4  C3  UNL     1      11.659  20.326-107.408  1.00  0.00     0.134 A 
HETATM    5  N5  UNL     1      11.992  20.330-108.705  1.00  0.00    -0.340 N 
ATOM      6  H5  UNL     1      11.551  21.011-109.322  1.00  0.00     0.167 HD
HETATM    7  C12 UNL     1      12.897  19.457-109.232  1.00  0.00     0.047 A 
HETATM    8  C13 UNL     1      13.162  19.533-110.574  1.00  0.00     0.030 A 
HETATM    9  C14 UNL     1      14.065  18.660-111.146  1.00  0.00     0.002 A 
HETATM   10  C15 UNL     1      14.699  17.715-110.385  1.00  0.00     0.001 A 
HETATM   11  C16 UNL     1      14.422  17.651-109.032  1.00  0.00     0.017 A 
HETATM   12  C17 UNL     1      13.517  18.524-108.456  1.00  0.00     0.033 A 
HETATM   13  C18 UNL     1      13.221  18.457-107.082  1.00  0.00     0.144 A 
ENDROOT
BRANCH   4  14
HETATM   14  N2  UNL     1      10.714  21.184-106.806  1.00  0.00    -0.292 N 
HETATM   15  C4  UNL     1       9.471  20.802-106.316  1.00  0.00     0.340 C 
HETATM   16  O1  UNL     1       8.961  19.641-106.333  1.00  0.00    -0.245 OA
HETATM   17  N3  UNL     1       8.614  21.787-105.702  1.00  0.00    -0.252 N 
ATOM     18  H3  UNL     1       8.915  22.759-105.628  1.00  0.00     0.191 HD
ATOM     19  H2  UNL     1      10.965  22.169-106.724  1.00  0.00     0.172 HD
BRANCH  17  20
HETATM   20  N4  UNL     1       7.378  21.395-105.214  1.00  0.00    -0.307 N 
HETATM   21  C5  UNL     1       7.195  21.237-103.961  1.00  0.00     0.118 C 
ATOM     22  H4  UNL     1       6.608  21.232-105.862  1.00  0.00     0.186 HD
BRANCH  21  23
HETATM   23  C6  UNL     1       5.878  20.825-103.507  1.00  0.00    -0.019 A 
HETATM   24  C7  UNL     1       4.885  20.452-104.379  1.00  0.00     0.013 A 
HETATM   25  C8  UNL     1       3.651  20.065-103.929  1.00  0.00     0.001 A 
HETATM   26  C9  UNL     1       3.375  20.039-102.573  1.00  0.00     0.000 A 
HETATM   27  C10 UNL     1       4.374  20.415-101.696  1.00  0.00     0.001 A 
HETATM   28  C11 UNL     1       5.599  20.798-102.158  1.00  0.00     0.013 A 
ENDBRANCH  21  23
ENDBRANCH  17  20
ENDBRANCH   4  14
BRANCH  13  29
HETATM   29  N6  UNL     1      13.728  17.663-106.399  1.00  0.00    -0.403 NA
BRANCH  29  30
HETATM   30  C19 UNL     1      14.305  16.751-105.615  1.00  0.00     0.107 A 
HETATM   31  C20 UNL     1      15.557  16.934-105.002  1.00  0.00     0.046 A 
HETATM   32  C21 UNL     1      16.136  15.991-104.199  1.00  0.00     0.028 A 
HETATM   33  C22 UNL     1      15.502  14.798-103.950  1.00  0.00     0.079 A 
HETATM   34  C23 UNL     1      14.270  14.579-104.532  1.00  0.00     0.028 A 
HETATM   35  C24 UNL     1      13.681  15.514-105.338  1.00  0.00     0.046 A 
BRANCH  33  36
HETATM   36  S1  UNL     1      16.195  13.562-102.935  1.00  0.00     0.256 S 
HETATM   37  O2  UNL     1      15.676  12.210-103.339  1.00  0.00    -0.201 OA
HETATM   38  O3  UNL     1      15.839  13.810-101.495  1.00  0.00    -0.201 OA
BRANCH  36  39
HETATM   39  N7  UNL     1      17.909  13.570-103.066  1.00  0.00    -0.324 N 
ATOM     40  H72 UNL     1      18.416  13.857-103.905  1.00  0.00     0.169 HD
ATOM     41  H71 UNL     1      18.334  13.252-102.196  1.00  0.00     0.169 HD
ENDBRANCH  36  39
ENDBRANCH  33  36
ENDBRANCH  29  30
ENDBRANCH  13  29
TORSDOF 7
ENDMDL
MODEL 4
REMARK VINA RESULT: -8.783203001      3.549      5.818
REMARK  7 active torsions:
REMARK  status: ('A' for Active; 'I' for Inactive)
REMARK    1  A    between atoms: C3_4  and  N2_5 
REMARK       I    between atoms: N2_5  and  C4_7 
REMARK       I    between atoms: C4_7  and  N3_9 
REMARK    2  A    between atoms: N3_9  and  N4_11 
REMARK    3  A    between atoms: C5_13  and  C6_14 
REMARK    4  A    between atoms: C18_28  and  N6_29 
REMARK    5  A    between atoms: N6_29  and  C19_30 
REMARK    6  A    between atoms: C22_33  and  S1_34 
REMARK    7  A    between atoms: S1_34  and  N7_35 
ROOT
HETATM    1  N1  UNL     1      10.740  17.064-105.602  1.00  0.00    -0.191 NA
HETATM    2  C1  UNL     1      10.955  18.094-106.087  1.00  0.00     0.107 C 
HETATM    3  C2  UNL     1      11.250  19.381-106.693  1.00  0.00     0.130 A 
HETATM    4  C3  UNL     1      10.176  20.241-106.909  1.00  0.00     0.134 A 
HETATM    5  N5  UNL     1      10.459  21.424-107.467  1.00  0.00    -0.340 N 
ATOM      6  H5  UNL     1       9.697  22.080-107.640  1.00  0.00     0.167 HD
HETATM    7  C12 UNL     1      11.728  21.788-107.813  1.00  0.00     0.047 A 
HETATM    8  C13 UNL     1      11.913  23.017-108.389  1.00  0.00     0.030 A 
HETATM    9  C14 UNL     1      13.181  23.416-108.762  1.00  0.00     0.002 A 
HETATM   10  C15 UNL     1      14.257  22.594-108.563  1.00  0.00     0.001 A 
HETATM   11  C16 UNL     1      14.054  21.357-107.981  1.00  0.00     0.017 A 
HETATM   12  C17 UNL     1      12.785  20.954-107.606  1.00  0.00     0.033 A 
HETATM   13  C18 UNL     1      12.569  19.691-107.024  1.00  0.00     0.144 A 
ENDROOT
BRANCH   4  14
HETATM   14  N2  UNL     1       8.886  19.796-106.552  1.00  0.00    -0.292 N 
HETATM   15  C4  UNL     1       7.987  20.484-105.745  1.00  0.00     0.340 C 
HETATM   16  O1  UNL     1       8.162  21.606-105.181  1.00  0.00    -0.245 OA
HETATM   17  N3  UNL     1       6.688  19.915-105.482  1.00  0.00    -0.252 N 
ATOM     18  H3  UNL     1       6.427  19.013-105.882  1.00  0.00     0.191 HD
ATOM     19  H2  UNL     1       8.587  18.891-106.917  1.00  0.00     0.172 HD
BRANCH  17  20
HETATM   20  N4  UNL     1       5.798  20.609-104.678  1.00  0.00    -0.307 N 
HETATM   21  C5  UNL     1       4.565  20.279-104.637  1.00  0.00     0.118 C 
ATOM     22  H4  UNL     1       6.130  21.392-104.115  1.00  0.00     0.186 HD
BRANCH  21  23
HETATM   23  C6  UNL     1       3.679  21.043-103.777  1.00  0.00    -0.019 A 
HETATM   24  C7  UNL     1       2.970  22.128-104.233  1.00  0.00     0.013 A 
HETATM   25  C8  UNL     1       2.138  22.833-103.404  1.00  0.00     0.001 A 
HETATM   26  C9  UNL     1       1.992  22.466-102.078  1.00  0.00     0.000 A 
HETATM   27  C10 UNL     1       2.706  21.375-101.620  1.00  0.00     0.001 A 
HETATM   28  C11 UNL     1       3.530  20.681-102.456  1.00  0.00     0.013 A 
ENDBRANCH  21  23
ENDBRANCH  17  20
ENDBRANCH   4  14
BRANCH  13  29
HETATM   29  N6  UNL     1      13.453  18.955-106.846  1.00  0.00    -0.403 NA
BRANCH  29  30
HETATM   30  C19 UNL     1      14.463  18.110-106.638  1.00  0.00     0.107 A 
HETATM   31  C20 UNL     1      14.892  17.711-105.359  1.00  0.00     0.046 A 
HETATM   32  C21 UNL     1      15.928  16.842-105.161  1.00  0.00     0.028 A 
HETATM   33  C22 UNL     1      16.609  16.308-106.228  1.00  0.00     0.079 A 
HETATM   34  C23 UNL     1      16.219  16.674-107.500  1.00  0.00     0.028 A 
HETATM   35  C24 UNL     1      15.185  17.543-107.711  1.00  0.00     0.046 A 
BRANCH  33  36
HETATM   36  S1  UNL     1      17.938  15.197-106.031  1.00  0.00     0.256 S 
HETATM   37  O2  UNL     1      17.903  14.586-104.658  1.00  0.00    -0.201 OA
HETATM   38  O3  UNL     1      19.247  15.912-106.214  1.00  0.00    -0.201 OA
BRANCH  36  39
HETATM   39  N7  UNL     1      17.849  13.945-107.207  1.00  0.00    -0.324 N 
ATOM     40  H72 UNL     1      17.524  14.083-108.165  1.00  0.00     0.169 HD
ATOM     41  H71 UNL     1      18.165  13.061-106.809  1.00  0.00     0.169 HD
ENDBRANCH  36  39
ENDBRANCH  33  36
ENDBRANCH  29  30
ENDBRANCH  13  29
TORSDOF 7
ENDMDL
MODEL 5
REMARK VINA RESULT: -8.772484006      3.764      5.170
REMARK  7 active torsions:
REMARK  status: ('A' for Active; 'I' for Inactive)
REMARK    1  A    between atoms: C3_4  and  N2_5 
REMARK       I    between atoms: N2_5  and  C4_7 
REMARK       I    between atoms: C4_7  and  N3_9 
REMARK    2  A    between atoms: N3_9  and  N4_11 
REMARK    3  A    between atoms: C5_13  and  C6_14 
REMARK    4  A    between atoms: C18_28  and  N6_29 
REMARK    5  A    between atoms: N6_29  and  C19_30 
REMARK    6  A    between atoms: C22_33  and  S1_34 
REMARK    7  A    between atoms: S1_34  and  N7_35 
ROOT
HETATM    1  N1  UNL     1      10.939  16.833-105.209  1.00  0.00    -0.191 NA
HETATM    2  C1  UNL     1      11.528  17.356-106.058  1.00  0.00     0.107 C 
HETATM    3  C2  UNL     1      12.288  18.000-107.115  1.00  0.00     0.130 A 
HETATM    4  C3  UNL     1      11.626  18.957-107.881  1.00  0.00     0.134 A 
HETATM    5  N5  UNL     1      12.336  19.545-108.851  1.00  0.00    -0.340 N 
ATOM      6  H5  UNL     1      11.883  20.251-109.432  1.00  0.00     0.167 HD
HETATM    7  C12 UNL     1      13.643  19.237-109.094  1.00  0.00     0.047 A 
HETATM    8  C13 UNL     1      14.280  19.886-110.117  1.00  0.00     0.030 A 
HETATM    9  C14 UNL     1      15.599  19.595-110.400  1.00  0.00     0.002 A 
HETATM   10  C15 UNL     1      16.278  18.659-109.666  1.00  0.00     0.001 A 
HETATM   11  C16 UNL     1      15.621  18.012-108.636  1.00  0.00     0.017 A 
HETATM   12  C17 UNL     1      14.300  18.302-108.351  1.00  0.00     0.033 A 
HETATM   13  C18 UNL     1      13.621  17.639-107.312  1.00  0.00     0.144 A 
ENDROOT
BRANCH   4  14
HETATM   14  N2  UNL     1      10.268  19.212-107.595  1.00  0.00    -0.292 N 
HETATM   15  C4  UNL     1       9.796  20.082-106.620  1.00  0.00     0.340 C 
HETATM   16  O1  UNL     1      10.482  20.779-105.812  1.00  0.00    -0.245 OA
HETATM   17  N3  UNL     1       8.374  20.262-106.454  1.00  0.00    -0.252 N 
ATOM     18  H3  UNL     1       7.716  19.755-107.046  1.00  0.00     0.191 HD
ATOM     19  H2  UNL     1       9.573  18.716-108.153  1.00  0.00     0.172 HD
BRANCH  17  20
HETATM   20  N4  UNL     1       7.913  21.133-105.480  1.00  0.00    -0.307 N 
HETATM   21  C5  UNL     1       7.320  20.689-104.440  1.00  0.00     0.118 C 
ATOM     22  H4  UNL     1       8.050  22.137-105.595  1.00  0.00     0.186 HD
BRANCH  21  23
HETATM   23  C6  UNL     1       6.858  21.649-103.453  1.00  0.00    -0.019 A 
HETATM   24  C7  UNL     1       6.606  21.298-102.149  1.00  0.00     0.013 A 
HETATM   25  C8  UNL     1       6.173  22.221-101.234  1.00  0.00     0.001 A 
HETATM   26  C9  UNL     1       5.980  23.540-101.606  1.00  0.00     0.000 A 
HETATM   27  C10 UNL     1       6.233  23.893-102.917  1.00  0.00     0.001 A 
HETATM   28  C11 UNL     1       6.665  22.964-103.818  1.00  0.00     0.013 A 
ENDBRANCH  21  23
ENDBRANCH  17  20
ENDBRANCH   4  14
BRANCH  13  29
HETATM   29  N6  UNL     1      14.156  16.829-106.670  1.00  0.00    -0.403 NA
BRANCH  29  30
HETATM   30  C19 UNL     1      14.764  15.898-105.934  1.00  0.00     0.107 A 
HETATM   31  C20 UNL     1      15.599  16.194-104.842  1.00  0.00     0.046 A 
HETATM   32  C21 UNL     1      16.215  15.228-104.095  1.00  0.00     0.028 A 
HETATM   33  C22 UNL     1      16.039  13.897-104.387  1.00  0.00     0.079 A 
HETATM   34  C23 UNL     1      15.225  13.565-105.451  1.00  0.00     0.028 A 
HETATM   35  C24 UNL     1      14.605  14.521-106.206  1.00  0.00     0.046 A 
BRANCH  33  36
HETATM   36  S1  UNL     1      16.800  12.627-103.468  1.00  0.00     0.256 S 
HETATM   37  O2  UNL     1      16.710  11.324-104.213  1.00  0.00    -0.201 OA
HETATM   38  O3  UNL     1      16.126  12.473-102.133  1.00  0.00    -0.201 OA
BRANCH  36  39
HETATM   39  N7  UNL     1      18.455  13.002-103.186  1.00  0.00    -0.324 N 
ATOM     40  H72 UNL     1      18.935  12.836-102.301  1.00  0.00     0.169 HD
ATOM     41  H71 UNL     1      18.874  13.407-104.023  1.00  0.00     0.169 HD
ENDBRANCH  36  39
ENDBRANCH  33  36
ENDBRANCH  29  30
ENDBRANCH  13  29
TORSDOF 7
ENDMDL
