MODEL 1
REMARK VINA RESULT: -8.281391109      0.000      0.000
REMARK  5 active torsions:
REMARK  status: ('A' for Active; 'I' for Inactive)
REMARK    1  A    between atoms: C2_2  and  N1_5 
REMARK    2  A    between atoms: N1_5  and  C4_7 
REMARK    3  A    between atoms: C4_7  and  N2_9 
REMARK    4  A    between atoms: N2_9  and  N3_11 
REMARK    5  A    between atoms: C8_16  and  C9_17 
ROOT
HETATM    1  N3  UNL     1     -10.398   3.027   9.936  1.00  0.00    -0.307 N 
ATOM      2  H3  UNL     1      -9.922   3.785   9.448  1.00  0.00     0.186 HD
HETATM    3  C5  UNL     1     -11.114   3.320  10.972  1.00  0.00     0.004 C 
HETATM    4  C6  UNL     1     -11.179   4.746  11.361  1.00  0.00     0.054 C 
HETATM    5  C7  UNL     1     -12.169   4.896  12.491  1.00  0.00     0.011 C 
HETATM    6  C8  UNL     1     -11.825   3.881  13.541  1.00  0.00    -0.006 C 
HETATM    7  C13 UNL     1     -12.222   2.521  13.051  1.00  0.00     0.011 C 
HETATM    8  C14 UNL     1     -11.791   2.223  11.664  1.00  0.00     0.054 C 
ENDROOT
BRANCH   1   9
HETATM    9  N2  UNL     1     -10.242   1.728   9.450  1.00  0.00    -0.276 N 
ATOM     10  H2  UNL     1      -9.854   0.992  10.038  1.00  0.00     0.189 HD
BRANCH   9  11
HETATM   11  C4  UNL     1     -10.637   1.465   8.123  1.00  0.00     0.189 C 
HETATM   12  S1  UNL     1      -9.842   0.326   7.280  1.00  0.00    -0.039 SA
BRANCH  11  13
HETATM   13  N1  UNL     1     -11.699   2.170   7.528  1.00  0.00    -0.331 N 
ATOM     14  H1  UNL     1     -11.565   3.136   7.229  1.00  0.00     0.165 HD
BRANCH  13  15
HETATM   15  C2  UNL     1     -12.970   1.532   7.344  1.00  0.00     0.170 C 
HETATM   16  C1  UNL     1     -13.463   1.804   5.921  1.00  0.00     0.076 C 
HETATM   17  C3  UNL     1     -13.946   2.140   8.343  1.00  0.00     0.076 C 
HETATM   18  F1  UNL     1     -12.818   0.194   7.574  1.00  0.00    -0.220 F 
ENDBRANCH  13  15
ENDBRANCH  11  13
ENDBRANCH   9  11
ENDBRANCH   1   9
BRANCH   6  19
HETATM   19  C9  UNL     1     -12.488   4.176  14.861  1.00  0.00    -0.048 C 
HETATM   20  C10 UNL     1     -13.486   3.142  15.264  1.00  0.00     0.015 C 
HETATM   21  C11 UNL     1     -13.104   5.567  14.765  1.00  0.00     0.015 C 
HETATM   22  C12 UNL     1     -11.425   4.245  15.935  1.00  0.00     0.015 C 
ENDBRANCH   6  19
TORSDOF 5
ENDMDL
MODEL 2
REMARK VINA RESULT: -8.190604826      0.824      1.111
REMARK  5 active torsions:
REMARK  status: ('A' for Active; 'I' for Inactive)
REMARK    1  A    between atoms: C2_2  and  N1_5 
REMARK    2  A    between atoms: N1_5  and  C4_7 
REMARK    3  A    between atoms: C4_7  and  N2_9 
REMARK    4  A    between atoms: N2_9  and  N3_11 
REMARK    5  A    between atoms: C8_16  and  C9_17 
ROOT
HETATM    1  N3  UNL     1     -10.457   3.188   9.990  1.00  0.00    -0.307 N 
ATOM      2  H3  UNL     1      -9.998   3.961   9.509  1.00  0.00     0.186 HD
HETATM    3  C5  UNL     1     -11.164   3.454  11.039  1.00  0.00     0.004 C 
HETATM    4  C6  UNL     1     -11.244   4.871  11.453  1.00  0.00     0.054 C 
HETATM    5  C7  UNL     1     -12.222   4.988  12.597  1.00  0.00     0.011 C 
HETATM    6  C8  UNL     1     -11.851   3.962  13.626  1.00  0.00    -0.006 C 
HETATM    7  C13 UNL     1     -12.233   2.604  13.118  1.00  0.00     0.011 C 
HETATM    8  C14 UNL     1     -11.816   2.335  11.721  1.00  0.00     0.054 C 
ENDROOT
BRANCH   1   9
HETATM    9  N2  UNL     1     -10.289   1.900   9.480  1.00  0.00    -0.276 N 
ATOM     10  H2  UNL     1      -9.854   1.167  10.040  1.00  0.00     0.189 HD
BRANCH   9  11
HETATM   11  C4  UNL     1     -10.738   1.640   8.170  1.00  0.00     0.189 C 
HETATM   12  S1  UNL     1     -10.048   0.433   7.329  1.00  0.00    -0.039 SA
BRANCH  11  13
HETATM   13  N1  UNL     1     -11.764   2.408   7.590  1.00  0.00    -0.331 N 
ATOM     14  H1  UNL     1     -11.537   3.265   7.085  1.00  0.00     0.165 HD
BRANCH  13  15
HETATM   15  C2  UNL     1     -13.130   1.986   7.708  1.00  0.00     0.170 C 
HETATM   16  C1  UNL     1     -13.200   0.788   8.658  1.00  0.00     0.076 C 
HETATM   17  C3  UNL     1     -13.608   1.564   6.324  1.00  0.00     0.076 C 
HETATM   18  F1  UNL     1     -13.867   3.038   8.171  1.00  0.00    -0.220 F 
ENDBRANCH  13  15
ENDBRANCH  11  13
ENDBRANCH   9  11
ENDBRANCH   1   9
BRANCH   6  19
HETATM   19  C9  UNL     1     -12.501   4.226  14.959  1.00  0.00    -0.048 C 
HETATM   20  C10 UNL     1     -13.437   3.143  15.383  1.00  0.00     0.015 C 
HETATM   21  C11 UNL     1     -13.187   5.583  14.875  1.00  0.00     0.015 C 
HETATM   22  C12 UNL     1     -11.420   4.349  16.011  1.00  0.00     0.015 C 
ENDBRANCH   6  19
TORSDOF 5
ENDMDL
MODEL 3
REMARK VINA RESULT: -8.137356333      1.727      1.984
REMARK  5 active torsions:
REMARK  status: ('A' for Active; 'I' for Inactive)
REMARK    1  A    between atoms: C2_2  and  N1_5 
REMARK    2  A    between atoms: N1_5  and  C4_7 
REMARK    3  A    between atoms: C4_7  and  N2_9 
REMARK    4  A    between atoms: N2_9  and  N3_11 
REMARK    5  A    between atoms: C8_16  and  C9_17 
ROOT
HETATM    1  N3  UNL     1     -10.454   2.989  10.127  1.00  0.00    -0.307 N 
ATOM      2  H3  UNL     1      -9.982   3.732   9.611  1.00  0.00     0.186 HD
HETATM    3  C5  UNL     1     -11.166   3.314  11.156  1.00  0.00     0.004 C 
HETATM    4  C6  UNL     1     -11.233   4.752  11.497  1.00  0.00     0.054 C 
HETATM    5  C7  UNL     1     -12.219   4.936  12.626  1.00  0.00     0.011 C 
HETATM    6  C8  UNL     1     -11.867   3.958  13.708  1.00  0.00    -0.006 C 
HETATM    7  C13 UNL     1     -12.261   2.581  13.265  1.00  0.00     0.011 C 
HETATM    8  C14 UNL     1     -11.836   2.238  11.887  1.00  0.00     0.054 C 
ENDROOT
BRANCH   1   9
HETATM    9  N2  UNL     1     -10.297   1.675   9.683  1.00  0.00    -0.276 N 
ATOM     10  H2  UNL     1      -9.797   0.988  10.247  1.00  0.00     0.189 HD
BRANCH   9  11
HETATM   11  C4  UNL     1     -10.848   1.325   8.434  1.00  0.00     0.189 C 
HETATM   12  S1  UNL     1     -12.448   1.066   8.328  1.00  0.00    -0.039 SA
BRANCH  11  13
HETATM   13  N1  UNL     1     -10.036   1.199   7.293  1.00  0.00    -0.331 N 
ATOM     14  H1  UNL     1      -9.380   0.422   7.218  1.00  0.00     0.165 HD
BRANCH  13  15
HETATM   15  C2  UNL     1     -10.130   2.163   6.234  1.00  0.00     0.170 C 
HETATM   16  C1  UNL     1     -10.385   3.545   6.841  1.00  0.00     0.076 C 
HETATM   17  C3  UNL     1     -11.308   1.772   5.352  1.00  0.00     0.076 C 
HETATM   18  F1  UNL     1      -8.966   2.136   5.522  1.00  0.00    -0.220 F 
ENDBRANCH  13  15
ENDBRANCH  11  13
ENDBRANCH   9  11
ENDBRANCH   1   9
BRANCH   6  19
HETATM   19  C9  UNL     1     -12.524   4.295  15.020  1.00  0.00    -0.048 C 
HETATM   20  C10 UNL     1     -13.494   3.257  15.478  1.00  0.00     0.015 C 
HETATM   21  C11 UNL     1     -13.172   5.666  14.871  1.00  0.00     0.015 C 
HETATM   22  C12 UNL     1     -11.453   4.434  16.080  1.00  0.00     0.015 C 
ENDBRANCH   6  19
TORSDOF 5
ENDMDL
MODEL 4
REMARK VINA RESULT: -8.114992355      1.515      2.068
REMARK  5 active torsions:
REMARK  status: ('A' for Active; 'I' for Inactive)
REMARK    1  A    between atoms: C2_2  and  N1_5 
REMARK    2  A    between atoms: N1_5  and  C4_7 
REMARK    3  A    between atoms: C4_7  and  N2_9 
REMARK    4  A    between atoms: N2_9  and  N3_11 
REMARK    5  A    between atoms: C8_16  and  C9_17 
ROOT
HETATM    1  N3  UNL     1     -10.702   2.978  10.130  1.00  0.00    -0.307 N 
ATOM      2  H3  UNL     1     -10.231   3.706   9.595  1.00  0.00     0.186 HD
HETATM    3  C5  UNL     1     -11.342   3.322  11.200  1.00  0.00     0.004 C 
HETATM    4  C6  UNL     1     -11.333   4.757  11.555  1.00  0.00     0.054 C 
HETATM    5  C7  UNL     1     -12.246   4.970  12.739  1.00  0.00     0.011 C 
HETATM    6  C8  UNL     1     -11.873   3.970  13.792  1.00  0.00    -0.006 C 
HETATM    7  C13 UNL     1     -12.346   2.613  13.363  1.00  0.00     0.011 C 
HETATM    8  C14 UNL     1     -12.013   2.266  11.960  1.00  0.00     0.054 C 
ENDROOT
BRANCH   1   9
HETATM    9  N2  UNL     1     -10.622   1.663   9.670  1.00  0.00    -0.276 N 
ATOM     10  H2  UNL     1     -10.114   0.953  10.197  1.00  0.00     0.189 HD
BRANCH   9  11
HETATM   11  C4  UNL     1     -11.263   1.344   8.456  1.00  0.00     0.189 C 
HETATM   12  S1  UNL     1     -12.874   1.135   8.450  1.00  0.00    -0.039 SA
BRANCH  11  13
HETATM   13  N1  UNL     1     -10.530   1.206   7.263  1.00  0.00    -0.331 N 
ATOM     14  H1  UNL     1      -9.897   0.416   7.143  1.00  0.00     0.165 HD
BRANCH  13  15
HETATM   15  C2  UNL     1     -10.672   2.178   6.217  1.00  0.00     0.170 C 
HETATM   16  C1  UNL     1      -9.626   1.900   5.135  1.00  0.00     0.076 C 
HETATM   17  C3  UNL     1     -10.422   3.554   6.823  1.00  0.00     0.076 C 
HETATM   18  F1  UNL     1     -11.941   2.094   5.721  1.00  0.00    -0.220 F 
ENDBRANCH  13  15
ENDBRANCH  11  13
ENDBRANCH   9  11
ENDBRANCH   1   9
BRANCH   6  19
HETATM   19  C9  UNL     1     -12.442   4.320  15.142  1.00  0.00    -0.048 C 
HETATM   20  C10 UNL     1     -11.396   4.534  16.185  1.00  0.00     0.015 C 
HETATM   21  C11 UNL     1     -13.425   3.222  15.526  1.00  0.00     0.015 C 
HETATM   22  C12 UNL     1     -13.245   5.597  15.014  1.00  0.00     0.015 C 
ENDBRANCH   6  19
TORSDOF 5
ENDMDL
MODEL 5
REMARK VINA RESULT: -8.083377285      1.526      1.808
REMARK  5 active torsions:
REMARK  status: ('A' for Active; 'I' for Inactive)
REMARK    1  A    between atoms: C2_2  and  N1_5 
REMARK    2  A    between atoms: N1_5  and  C4_7 
REMARK    3  A    between atoms: C4_7  and  N2_9 
REMARK    4  A    between atoms: N2_9  and  N3_11 
REMARK    5  A    between atoms: C8_16  and  C9_17 
ROOT
HETATM    1  N3  UNL     1     -10.478   3.030  10.106  1.00  0.00    -0.307 N 
ATOM      2  H3  UNL     1     -10.003   3.774   9.596  1.00  0.00     0.186 HD
HETATM    3  C5  UNL     1     -11.185   3.352  11.140  1.00  0.00     0.004 C 
HETATM    4  C6  UNL     1     -11.242   4.787  11.493  1.00  0.00     0.054 C 
HETATM    5  C7  UNL     1     -12.223   4.969  12.626  1.00  0.00     0.011 C 
HETATM    6  C8  UNL     1     -11.875   3.980  13.699  1.00  0.00    -0.006 C 
HETATM    7  C13 UNL     1     -12.280   2.609  13.246  1.00  0.00     0.011 C 
HETATM    8  C14 UNL     1     -11.861   2.274  11.864  1.00  0.00     0.054 C 
ENDROOT
BRANCH   1   9
HETATM    9  N2  UNL     1     -10.331   1.719   9.652  1.00  0.00    -0.276 N 
ATOM     10  H2  UNL     1      -9.810   1.031  10.195  1.00  0.00     0.189 HD
BRANCH   9  11
HETATM   11  C4  UNL     1     -10.923   1.372   8.420  1.00  0.00     0.189 C 
HETATM   12  S1  UNL     1     -12.500   0.987   8.389  1.00  0.00    -0.039 SA
BRANCH  11  13
HETATM   13  N1  UNL     1     -10.168   1.356   7.233  1.00  0.00    -0.331 N 
ATOM     14  H1  UNL     1      -9.385   0.711   7.135  1.00  0.00     0.165 HD
BRANCH  13  15
HETATM   15  C2  UNL     1     -10.502   2.248   6.159  1.00  0.00     0.170 C 
HETATM   16  C1  UNL     1      -9.457   2.103   5.050  1.00  0.00     0.076 C 
HETATM   17  C3  UNL     1     -10.467   3.669   6.707  1.00  0.00     0.076 C 
HETATM   18  F1  UNL     1     -11.754   1.935   5.713  1.00  0.00    -0.220 F 
ENDBRANCH  13  15
ENDBRANCH  11  13
ENDBRANCH   9  11
ENDBRANCH   1   9
BRANCH   6  19
HETATM   19  C9  UNL     1     -12.527   4.311  15.016  1.00  0.00    -0.048 C 
HETATM   20  C10 UNL     1     -13.501   3.275  15.469  1.00  0.00     0.015 C 
HETATM   21  C11 UNL     1     -13.169   5.686  14.879  1.00  0.00     0.015 C 
HETATM   22  C12 UNL     1     -11.452   4.437  16.073  1.00  0.00     0.015 C 
ENDBRANCH   6  19
TORSDOF 5
ENDMDL
