MODEL 1
REMARK VINA RESULT: -8.267484156      0.000      0.000
REMARK  2 active torsions:
REMARK  status: ('A' for Active; 'I' for Inactive)
REMARK       I    between atoms: C1_2  and  N1_3 
REMARK    1  A    between atoms: C1_2  and  C5_12 
REMARK    2  A    between atoms: N1_3  and  C2_5 
ROOT
HETATM    1  O1  UNL     1      -9.604   1.513   5.920  1.00  0.00    -0.273 OA
HETATM    2  C1  UNL     1     -10.453   2.424   5.798  1.00  0.00     0.228 C 
HETATM    3  N1  UNL     1     -10.746   2.897   4.494  1.00  0.00    -0.292 N 
ATOM      4  H1  UNL     1     -11.224   2.280   3.837  1.00  0.00     0.172 HD
ENDROOT
BRANCH   2   5
HETATM    5  C5  UNL     1     -11.103   2.952   7.018  1.00  0.00     0.078 C 
HETATM    6  C6  UNL     1     -12.075   1.901   7.501  1.00  0.00     0.015 C 
HETATM    7  C7  UNL     1     -12.686   2.224   8.829  1.00  0.00     0.010 C 
HETATM    8  C8  UNL     1     -11.767   2.878   9.797  1.00  0.00    -0.040 C 
HETATM    9  C9  UNL     1     -11.983   2.309  11.167  1.00  0.00     0.009 C 
HETATM   10  C12 UNL     1     -12.072   4.346  10.005  1.00  0.00     0.009 C 
HETATM   11  C13 UNL     1     -10.329   2.687   9.384  1.00  0.00     0.010 C 
HETATM   12  C10 UNL     1     -11.484   3.357  12.138  1.00  0.00     0.001 C 
HETATM   13  C11 UNL     1     -11.346   4.622  11.320  1.00  0.00     0.001 C 
HETATM   14  C14 UNL     1     -10.087   3.330   8.037  1.00  0.00     0.015 C 
ENDBRANCH   2   5
BRANCH   3  15
HETATM   15  C2  UNL     1     -10.418   4.106   4.112  1.00  0.00     0.232 A 
HETATM   16  N2  UNL     1      -9.365   4.403   3.336  1.00  0.00    -0.328 N 
HETATM   17  C3  UNL     1      -9.327   5.735   3.144  1.00  0.00     0.142 A 
ATOM     18  H2  UNL     1      -8.702   3.730   2.954  1.00  0.00     0.168 HD
HETATM   19  C4  UNL     1     -10.394   6.248   3.830  1.00  0.00     0.164 A 
HETATM   20 CL1  UNL     1     -10.822   7.959   3.918  1.00  0.00    -0.055 Cl
HETATM   21  O2  UNL     1     -11.012   5.241   4.389  1.00  0.00    -0.265 OA
ENDBRANCH   3  15
TORSDOF 2
ENDMDL
MODEL 2
REMARK VINA RESULT: -8.219949134      4.084      6.670
REMARK  2 active torsions:
REMARK  status: ('A' for Active; 'I' for Inactive)
REMARK       I    between atoms: C1_2  and  N1_3 
REMARK    1  A    between atoms: C1_2  and  C5_12 
REMARK    2  A    between atoms: N1_3  and  C2_5 
ROOT
HETATM    1  O1  UNL     1     -13.497   0.705   8.731  1.00  0.00    -0.273 OA
HETATM    2  C1  UNL     1     -12.460   1.384   8.905  1.00  0.00     0.228 C 
HETATM    3  N1  UNL     1     -11.881   1.403  10.199  1.00  0.00    -0.292 N 
ATOM      4  H1  UNL     1     -11.459   0.551  10.567  1.00  0.00     0.172 HD
ENDROOT
BRANCH   2   5
HETATM    5  C5  UNL     1     -11.898   2.125   7.753  1.00  0.00     0.078 C 
HETATM    6  C6  UNL     1     -10.543   1.528   7.453  1.00  0.00     0.015 C 
HETATM    7  C7  UNL     1      -9.923   2.065   6.200  1.00  0.00     0.010 C 
HETATM    8  C8  UNL     1     -10.878   2.319   5.091  1.00  0.00    -0.040 C 
HETATM    9  C9  UNL     1     -10.276   1.880   3.790  1.00  0.00     0.009 C 
HETATM   10  C12 UNL     1     -11.129   3.792   4.849  1.00  0.00     0.009 C 
HETATM   11  C13 UNL     1     -12.178   1.590   5.324  1.00  0.00     0.010 C 
HETATM   12  C10 UNL     1     -10.996   2.660   2.711  1.00  0.00     0.001 C 
HETATM   13  C11 UNL     1     -11.716   3.773   3.440  1.00  0.00     0.001 C 
HETATM   14  C14 UNL     1     -12.830   2.087   6.595  1.00  0.00     0.015 C 
ENDBRANCH   2   5
BRANCH   3  15
HETATM   15  C2  UNL     1     -11.877   2.487  10.933  1.00  0.00     0.232 A 
HETATM   16  N2  UNL     1     -11.518   3.704  10.496  1.00  0.00    -0.328 N 
HETATM   17  C3  UNL     1     -11.631   4.582  11.510  1.00  0.00     0.142 A 
ATOM     18  H2  UNL     1     -11.210   3.927   9.550  1.00  0.00     0.168 HD
HETATM   19  C4  UNL     1     -12.071   3.864  12.587  1.00  0.00     0.164 A 
HETATM   20 CL1  UNL     1     -12.392   4.526  14.193  1.00  0.00    -0.055 Cl
HETATM   21  O2  UNL     1     -12.203   2.624  12.195  1.00  0.00    -0.265 OA
ENDBRANCH   3  15
TORSDOF 2
ENDMDL
MODEL 3
REMARK VINA RESULT: -8.120371433      3.766      6.549
REMARK  2 active torsions:
REMARK  status: ('A' for Active; 'I' for Inactive)
REMARK       I    between atoms: C1_2  and  N1_3 
REMARK    1  A    between atoms: C1_2  and  C5_12 
REMARK    2  A    between atoms: N1_3  and  C2_5 
ROOT
HETATM    1  O1  UNL     1     -13.462   0.649   8.467  1.00  0.00    -0.273 OA
HETATM    2  C1  UNL     1     -12.418   1.261   8.786  1.00  0.00     0.228 C 
HETATM    3  N1  UNL     1     -11.912   1.082  10.098  1.00  0.00    -0.292 N 
ATOM      4  H1  UNL     1     -11.534   0.174  10.365  1.00  0.00     0.172 HD
ENDROOT
BRANCH   2   5
HETATM    5  C5  UNL     1     -11.774   2.132   7.778  1.00  0.00     0.078 C 
HETATM    6  C6  UNL     1     -10.465   1.483   7.394  1.00  0.00     0.015 C 
HETATM    7  C7  UNL     1      -9.776   2.165   6.253  1.00  0.00     0.010 C 
HETATM    8  C8  UNL     1     -10.683   2.677   5.193  1.00  0.00    -0.040 C 
HETATM    9  C9  UNL     1     -10.090   2.410   3.842  1.00  0.00     0.009 C 
HETATM   10  C12 UNL     1     -10.810   4.185   5.197  1.00  0.00     0.009 C 
HETATM   11  C13 UNL     1     -12.042   2.030   5.291  1.00  0.00     0.010 C 
HETATM   12  C10 UNL     1     -10.721   3.414   2.902  1.00  0.00     0.001 C 
HETATM   13  C11 UNL     1     -11.365   4.447   3.800  1.00  0.00     0.001 C 
HETATM   14  C14 UNL     1     -12.680   2.363   6.622  1.00  0.00     0.015 C 
ENDBRANCH   2   5
BRANCH   3  15
HETATM   15  C2  UNL     1     -11.917   2.056  10.975  1.00  0.00     0.232 A 
HETATM   16  N2  UNL     1     -11.984   1.886  12.304  1.00  0.00    -0.328 N 
HETATM   17  C3  UNL     1     -11.969   3.094  12.898  1.00  0.00     0.142 A 
ATOM     18  H2  UNL     1     -12.036   0.988  12.785  1.00  0.00     0.168 HD
HETATM   19  C4  UNL     1     -11.892   4.013  11.889  1.00  0.00     0.164 A 
HETATM   20 CL1  UNL     1     -11.841   5.765  12.106  1.00  0.00    -0.055 Cl
HETATM   21  O2  UNL     1     -11.863   3.347  10.763  1.00  0.00    -0.265 OA
ENDBRANCH   3  15
TORSDOF 2
ENDMDL
MODEL 4
REMARK VINA RESULT: -7.967810813      3.599      6.453
REMARK  2 active torsions:
REMARK  status: ('A' for Active; 'I' for Inactive)
REMARK       I    between atoms: C1_2  and  N1_3 
REMARK    1  A    between atoms: C1_2  and  C5_12 
REMARK    2  A    between atoms: N1_3  and  C2_5 
ROOT
HETATM    1  O1  UNL     1      -9.992   0.137   8.734  1.00  0.00    -0.273 OA
HETATM    2  C1  UNL     1     -10.200   1.371   8.702  1.00  0.00     0.228 C 
HETATM    3  N1  UNL     1      -9.730   2.158   9.783  1.00  0.00    -0.292 N 
ATOM      4  H1  UNL     1      -8.725   2.269   9.917  1.00  0.00     0.172 HD
ENDROOT
BRANCH   2   5
HETATM    5  C5  UNL     1     -10.921   1.936   7.539  1.00  0.00     0.078 C 
HETATM    6  C6  UNL     1     -10.229   3.225   7.164  1.00  0.00     0.015 C 
HETATM    7  C7  UNL     1     -10.745   3.828   5.895  1.00  0.00     0.010 C 
HETATM    8  C8  UNL     1     -11.097   2.846   4.836  1.00  0.00    -0.040 C 
HETATM    9  C9  UNL     1     -10.643   3.353   3.500  1.00  0.00     0.009 C 
HETATM   10  C12 UNL     1     -12.590   2.700   4.635  1.00  0.00     0.009 C 
HETATM   11  C13 UNL     1     -10.465   1.506   5.116  1.00  0.00     0.010 C 
HETATM   12  C10 UNL     1     -11.500   2.648   2.472  1.00  0.00     0.001 C 
HETATM   13  C11 UNL     1     -12.648   2.050   3.255  1.00  0.00     0.001 C 
HETATM   14  C14 UNL     1     -10.981   0.953   6.425  1.00  0.00     0.015 C 
ENDBRANCH   2   5
BRANCH   3  15
HETATM   15  C2  UNL     1     -10.555   2.745  10.615  1.00  0.00     0.232 A 
HETATM   16  N2  UNL     1     -11.493   2.111  11.334  1.00  0.00    -0.328 N 
HETATM   17  C3  UNL     1     -12.157   3.017  12.077  1.00  0.00     0.142 A 
ATOM     18  H2  UNL     1     -11.674   1.108  11.320  1.00  0.00     0.168 HD
HETATM   19  C4  UNL     1     -11.595   4.229  11.790  1.00  0.00     0.164 A 
HETATM   20 CL1  UNL     1     -12.086   5.774  12.492  1.00  0.00    -0.055 Cl
HETATM   21  O2  UNL     1     -10.646   4.017  10.916  1.00  0.00    -0.265 OA
ENDBRANCH   3  15
TORSDOF 2
ENDMDL
MODEL 5
REMARK VINA RESULT: -7.962064780      3.788      6.404
REMARK  2 active torsions:
REMARK  status: ('A' for Active; 'I' for Inactive)
REMARK       I    between atoms: C1_2  and  N1_3 
REMARK    1  A    between atoms: C1_2  and  C5_12 
REMARK    2  A    between atoms: N1_3  and  C2_5 
ROOT
HETATM    1  O1  UNL     1      -9.981   0.511   9.088  1.00  0.00    -0.273 OA
HETATM    2  C1  UNL     1     -10.365   1.698   8.982  1.00  0.00     0.228 C 
HETATM    3  N1  UNL     1      -9.858   2.650   9.901  1.00  0.00    -0.292 N 
ATOM      4  H1  UNL     1      -8.871   2.902   9.863  1.00  0.00     0.172 HD
ENDROOT
BRANCH   2   5
HETATM    5  C5  UNL     1     -11.321   2.038   7.904  1.00  0.00     0.078 C 
HETATM    6  C6  UNL     1     -10.615   2.976   6.955  1.00  0.00     0.015 C 
HETATM    7  C7  UNL     1     -11.403   3.275   5.718  1.00  0.00     0.010 C 
HETATM    8  C8  UNL     1     -12.176   2.125   5.178  1.00  0.00    -0.040 C 
HETATM    9  C9  UNL     1     -12.079   2.105   3.683  1.00  0.00     0.009 C 
HETATM   10  C12 UNL     1     -13.667   2.254   5.403  1.00  0.00     0.009 C 
HETATM   11  C13 UNL     1     -11.664   0.823   5.742  1.00  0.00     0.010 C 
HETATM   12  C10 UNL     1     -13.285   1.331   3.196  1.00  0.00     0.001 C 
HETATM   13  C11 UNL     1     -14.214   1.255   4.387  1.00  0.00     0.001 C 
HETATM   14  C14 UNL     1     -11.834   0.807   7.245  1.00  0.00     0.015 C 
ENDBRANCH   2   5
BRANCH   3  15
HETATM   15  C2  UNL     1     -10.627   3.214  10.799  1.00  0.00     0.232 A 
HETATM   16  N2  UNL     1     -11.427   2.549  11.646  1.00  0.00    -0.328 N 
HETATM   17  C3  UNL     1     -12.071   3.438  12.425  1.00  0.00     0.142 A 
ATOM     18  H2  UNL     1     -11.529   1.535  11.693  1.00  0.00     0.168 HD
HETATM   19  C4  UNL     1     -11.642   4.673  12.028  1.00  0.00     0.164 A 
HETATM   20 CL1  UNL     1     -12.171   6.209  12.721  1.00  0.00    -0.055 Cl
HETATM   21  O2  UNL     1     -10.784   4.489  11.058  1.00  0.00    -0.265 OA
ENDBRANCH   3  15
TORSDOF 2
ENDMDL
