MODEL 1
REMARK VINA RESULT: -6.185697409      0.000      0.000
REMARK  5 active torsions:
REMARK  status: ('A' for Active; 'I' for Inactive)
REMARK    1  A    between atoms: C2_2  and  N1_3 
REMARK    2  A    between atoms: C2_2  and  C3_7 
REMARK    3  A    between atoms: C6_12  and  C7_13 
REMARK    4  A    between atoms: C7_13  and  C8_14 
REMARK    5  A    between atoms: C8_14  and  C9_15 
ROOT
HETATM    1  C3  UNL     1     -12.111   3.660  13.664  1.00  0.00     0.032 A 
HETATM    2  S1  UNL     1     -12.313   5.000  14.688  1.00  0.00    -0.084 SA
HETATM    3  C4  UNL     1     -12.324   6.243  13.522  1.00  0.00     0.053 A 
HETATM    4 BR1  UNL     1     -12.511   8.148  13.764  1.00  0.00    -0.043 Br
HETATM    5  C5  UNL     1     -12.168   5.567  12.346  1.00  0.00     0.048 A 
HETATM    6  C6  UNL     1     -12.057   4.218  12.421  1.00  0.00     0.034 A 
ENDROOT
BRANCH   1   7
HETATM    7  C2  UNL     1     -12.025   2.232  14.090  1.00  0.00     0.220 C 
HETATM    8  C1  UNL     1     -13.395   1.618  13.989  1.00  0.00     0.045 C 
BRANCH   7   9
HETATM    9  N1  UNL     1     -11.449   2.107  15.400  1.00  0.00    -0.071 N 
ATOM     10  H13 UNL     1     -12.173   1.970  16.105  1.00  0.00     0.275 HD
ATOM     11  H12 UNL     1     -10.954   1.220  15.497  1.00  0.00     0.275 HD
ATOM     12  H11 UNL     1     -10.843   2.890  15.646  1.00  0.00     0.275 HD
ENDBRANCH   7   9
ENDBRANCH   1   7
BRANCH   6  13
HETATM   13  C7  UNL     1     -11.879   3.351  11.245  1.00  0.00    -0.065 C 
BRANCH  13  14
HETATM   14  C8  UNL     1     -11.739   2.659  10.271  1.00  0.00    -0.092 C 
BRANCH  14  15
HETATM   15  C9  UNL     1     -11.574   1.840   9.074  1.00  0.00     0.013 C 
HETATM   16  C10 UNL     1     -11.332   2.795   7.926  1.00  0.00     0.028 C 
HETATM   17  C11 UNL     1     -12.835   1.066   8.745  1.00  0.00     0.028 C 
HETATM   18  C12 UNL     1     -10.413   0.896   9.150  1.00  0.00     0.028 C 
ENDBRANCH  14  15
ENDBRANCH  13  14
ENDBRANCH   6  13
TORSDOF 5
ENDMDL
MODEL 2
REMARK VINA RESULT: -5.971195917      3.039      6.093
REMARK  5 active torsions:
REMARK  status: ('A' for Active; 'I' for Inactive)
REMARK    1  A    between atoms: C2_2  and  N1_3 
REMARK    2  A    between atoms: C2_2  and  C3_7 
REMARK    3  A    between atoms: C6_12  and  C7_13 
REMARK    4  A    between atoms: C7_13  and  C8_14 
REMARK    5  A    between atoms: C8_14  and  C9_15 
ROOT
HETATM    1  C3  UNL     1     -12.310   4.587  13.829  1.00  0.00     0.032 A 
HETATM    2  S1  UNL     1     -11.898   3.159  13.008  1.00  0.00    -0.084 SA
HETATM    3  C4  UNL     1     -11.552   3.810  11.472  1.00  0.00     0.053 A 
HETATM    4 BR1  UNL     1     -10.985   2.914   9.861  1.00  0.00    -0.043 Br
HETATM    5  C5  UNL     1     -11.771   5.146  11.645  1.00  0.00     0.048 A 
HETATM    6  C6  UNL     1     -12.167   5.552  12.877  1.00  0.00     0.034 A 
ENDROOT
BRANCH   1   7
HETATM    7  C2  UNL     1     -12.722   4.692  15.261  1.00  0.00     0.220 C 
HETATM    8  C1  UNL     1     -11.483   4.773  16.111  1.00  0.00     0.045 C 
BRANCH   7   9
HETATM    9  N1  UNL     1     -13.593   3.615  15.639  1.00  0.00    -0.071 N 
ATOM     10  H13 UNL     1     -13.106   2.944  16.235  1.00  0.00     0.275 HD
ATOM     11  H12 UNL     1     -14.304   3.935  16.296  1.00  0.00     0.275 HD
ATOM     12  H11 UNL     1     -14.020   3.148  14.839  1.00  0.00     0.275 HD
ENDBRANCH   7   9
ENDBRANCH   1   7
BRANCH   6  13
HETATM   13  C7  UNL     1     -12.447   6.955  13.219  1.00  0.00    -0.065 C 
BRANCH  13  14
HETATM   14  C8  UNL     1     -12.688   8.104  13.481  1.00  0.00    -0.092 C 
BRANCH  14  15
HETATM   15  C9  UNL     1     -13.002   9.498  13.784  1.00  0.00     0.013 C 
HETATM   16  C10 UNL     1     -13.397  10.147  12.476  1.00  0.00     0.028 C 
HETATM   17  C11 UNL     1     -11.789  10.248  14.299  1.00  0.00     0.028 C 
HETATM   18  C12 UNL     1     -14.137   9.659  14.747  1.00  0.00     0.028 C 
ENDBRANCH  14  15
ENDBRANCH  13  14
ENDBRANCH   6  13
TORSDOF 5
ENDMDL
MODEL 3
REMARK VINA RESULT: -5.947458529      5.078      7.056
REMARK  5 active torsions:
REMARK  status: ('A' for Active; 'I' for Inactive)
REMARK    1  A    between atoms: C2_2  and  N1_3 
REMARK    2  A    between atoms: C2_2  and  C3_7 
REMARK    3  A    between atoms: C6_12  and  C7_13 
REMARK    4  A    between atoms: C7_13  and  C8_14 
REMARK    5  A    between atoms: C8_14  and  C9_15 
ROOT
HETATM    1  C3  UNL     1     -11.708   2.307   5.719  1.00  0.00     0.032 A 
HETATM    2  S1  UNL     1     -11.501   2.643   4.067  1.00  0.00    -0.084 SA
HETATM    3  C4  UNL     1     -10.611   4.091   4.186  1.00  0.00     0.053 A 
HETATM    4 BR1  UNL     1      -9.915   5.219   2.784  1.00  0.00    -0.043 Br
HETATM    5  C5  UNL     1     -10.497   4.276   5.533  1.00  0.00     0.048 A 
HETATM    6  C6  UNL     1     -11.070   3.344   6.334  1.00  0.00     0.034 A 
ENDROOT
BRANCH   1   7
HETATM    7  C2  UNL     1     -12.427   1.133   6.296  1.00  0.00     0.220 C 
HETATM    8  C1  UNL     1     -13.612   1.633   7.077  1.00  0.00     0.045 C 
BRANCH   7   9
HETATM    9  N1  UNL     1     -11.546   0.309   7.077  1.00  0.00    -0.071 N 
ATOM     10  H13 UNL     1     -11.138   0.840   7.847  1.00  0.00     0.275 HD
ATOM     11  H12 UNL     1     -12.073  -0.381   7.612  1.00  0.00     0.275 HD
ATOM     12  H11 UNL     1     -10.820  -0.140   6.519  1.00  0.00     0.275 HD
ENDBRANCH   7   9
ENDBRANCH   1   7
BRANCH   6  13
HETATM   13  C7  UNL     1     -11.038   3.405   7.804  1.00  0.00    -0.065 C 
BRANCH  13  14
HETATM   14  C8  UNL     1     -11.030   3.444   9.006  1.00  0.00    -0.092 C 
BRANCH  14  15
HETATM   15  C9  UNL     1     -11.017   3.464  10.466  1.00  0.00     0.013 C 
HETATM   16  C10 UNL     1      -9.572   3.317  10.889  1.00  0.00     0.028 C 
HETATM   17  C11 UNL     1     -11.770   2.286  11.051  1.00  0.00     0.028 C 
HETATM   18  C12 UNL     1     -11.547   4.738  11.050  1.00  0.00     0.028 C 
ENDBRANCH  14  15
ENDBRANCH  13  14
ENDBRANCH   6  13
TORSDOF 5
ENDMDL
MODEL 4
REMARK VINA RESULT: -5.915121599      3.909      5.793
REMARK  5 active torsions:
REMARK  status: ('A' for Active; 'I' for Inactive)
REMARK    1  A    between atoms: C2_2  and  N1_3 
REMARK    2  A    between atoms: C2_2  and  C3_7 
REMARK    3  A    between atoms: C6_12  and  C7_13 
REMARK    4  A    between atoms: C7_13  and  C8_14 
REMARK    5  A    between atoms: C8_14  and  C9_15 
ROOT
HETATM    1  C3  UNL     1     -10.730   2.036   8.370  1.00  0.00     0.032 A 
HETATM    2  S1  UNL     1     -11.008   1.900  10.040  1.00  0.00    -0.084 SA
HETATM    3  C4  UNL     1     -11.370   3.527  10.395  1.00  0.00     0.053 A 
HETATM    4 BR1  UNL     1     -11.826   4.340  12.085  1.00  0.00    -0.043 Br
HETATM    5  C5  UNL     1     -11.263   4.142   9.182  1.00  0.00     0.048 A 
HETATM    6  C6  UNL     1     -10.929   3.363   8.123  1.00  0.00     0.034 A 
ENDROOT
BRANCH   1   7
HETATM    7  C2  UNL     1     -10.361   0.923   7.445  1.00  0.00     0.220 C 
HETATM    8  C1  UNL     1     -11.613   0.419   6.780  1.00  0.00     0.045 C 
BRANCH   7   9
HETATM    9  N1  UNL     1      -9.632  -0.109   8.129  1.00  0.00    -0.071 N 
ATOM     10  H13 UNL     1      -9.947  -0.198   9.095  1.00  0.00     0.275 HD
ATOM     11  H12 UNL     1      -9.897  -1.031   7.782  1.00  0.00     0.275 HD
ATOM     12  H11 UNL     1      -8.622   0.020   8.085  1.00  0.00     0.275 HD
ENDBRANCH   7   9
ENDBRANCH   1   7
BRANCH   6  13
HETATM   13  C7  UNL     1     -10.770   3.877   6.754  1.00  0.00    -0.065 C 
BRANCH  13  14
HETATM   14  C8  UNL     1     -10.661   4.294   5.631  1.00  0.00    -0.092 C 
BRANCH  14  15
HETATM   15  C9  UNL     1     -10.556   4.799   4.264  1.00  0.00     0.013 C 
HETATM   16  C10 UNL     1     -11.929   4.663   3.645  1.00  0.00     0.028 C 
HETATM   17  C11 UNL     1      -9.610   3.960   3.428  1.00  0.00     0.028 C 
HETATM   18  C12 UNL     1     -10.149   6.238   4.189  1.00  0.00     0.028 C 
ENDBRANCH  14  15
ENDBRANCH  13  14
ENDBRANCH   6  13
TORSDOF 5
ENDMDL
MODEL 5
REMARK VINA RESULT: -5.878961137      5.145      7.119
REMARK  5 active torsions:
REMARK  status: ('A' for Active; 'I' for Inactive)
REMARK    1  A    between atoms: C2_2  and  N1_3 
REMARK    2  A    between atoms: C2_2  and  C3_7 
REMARK    3  A    between atoms: C6_12  and  C7_13 
REMARK    4  A    between atoms: C7_13  and  C8_14 
REMARK    5  A    between atoms: C8_14  and  C9_15 
ROOT
HETATM    1  C3  UNL     1     -11.742   2.286   5.636  1.00  0.00     0.032 A 
HETATM    2  S1  UNL     1     -11.577   2.613   3.978  1.00  0.00    -0.084 SA
HETATM    3  C4  UNL     1     -10.677   4.057   4.066  1.00  0.00     0.053 A 
HETATM    4 BR1  UNL     1     -10.013   5.177   2.642  1.00  0.00    -0.043 Br
HETATM    5  C5  UNL     1     -10.528   4.249   5.410  1.00  0.00     0.048 A 
HETATM    6  C6  UNL     1     -11.084   3.322   6.229  1.00  0.00     0.034 A 
ENDROOT
BRANCH   1   7
HETATM    7  C2  UNL     1     -12.451   1.117   6.237  1.00  0.00     0.220 C 
HETATM    8  C1  UNL     1     -13.623   1.624   7.032  1.00  0.00     0.045 C 
BRANCH   7   9
HETATM    9  N1  UNL     1     -11.557   0.301   7.011  1.00  0.00    -0.071 N 
ATOM     10  H13 UNL     1     -10.916   0.879   7.555  1.00  0.00     0.275 HD
ATOM     11  H12 UNL     1     -12.054  -0.160   7.774  1.00  0.00     0.275 HD
ATOM     12  H11 UNL     1     -11.046  -0.378   6.447  1.00  0.00     0.275 HD
ENDBRANCH   7   9
ENDBRANCH   1   7
BRANCH   6  13
HETATM   13  C7  UNL     1     -11.014   3.390   7.698  1.00  0.00    -0.065 C 
BRANCH  13  14
HETATM   14  C8  UNL     1     -10.964   3.425   8.899  1.00  0.00    -0.092 C 
BRANCH  14  15
HETATM   15  C9  UNL     1     -10.894   3.442  10.357  1.00  0.00     0.013 C 
HETATM   16  C10 UNL     1     -11.691   2.253  10.844  1.00  0.00     0.028 C 
HETATM   17  C11 UNL     1     -11.550   4.680  10.937  1.00  0.00     0.028 C 
HETATM   18  C12 UNL     1      -9.499   3.319  10.890  1.00  0.00     0.028 C 
ENDBRANCH  14  15
ENDBRANCH  13  14
ENDBRANCH   6  13
TORSDOF 5
ENDMDL
