MODEL 1
REMARK VINA RESULT: -6.643257755      0.000      0.000
REMARK  9 active torsions:
REMARK  status: ('A' for Active; 'I' for Inactive)
REMARK    1  A    between atoms: N1_2  and  C4_5 
REMARK    2  A    between atoms: N2_8  and  C7_9 
REMARK    3  A    between atoms: C7_9  and  O1_10 
REMARK    4  A    between atoms: C7_9  and  C8_12 
REMARK    5  A    between atoms: C8_12  and  C9_13 
REMARK    6  A    between atoms: C9_13  and  C10_14 
REMARK    7  A    between atoms: C11_15  and  C12_16 
REMARK    8  A    between atoms: C18_23  and  C19_24 
REMARK    9  A    between atoms: C19_24  and  O2_25 
ROOT
HETATM    1  C7  UNL     1       6.633   8.983  -6.550  1.00  0.00     0.358 C 
ENDROOT
BRANCH   1   2
HETATM    2  N2  UNL     1       7.109   9.497  -7.833  1.00  0.00     0.123 N 
HETATM    3  C6  UNL     1       6.528   8.632  -8.850  1.00  0.00     0.278 C 
HETATM    4  C5  UNL     1       6.954   9.009 -10.237  1.00  0.00     0.064 C 
HETATM    5  C4  UNL     1       6.717  10.467 -10.543  1.00  0.00     0.193 C 
HETATM    6  C20 UNL     1       6.062  11.114  -9.368  1.00  0.00     0.071 C 
HETATM    7  C18 UNL     1       6.791  10.874  -8.055  1.00  0.00     0.251 C 
BRANCH   5   8
HETATM    8  N1  UNL     1       5.843  10.638 -11.688  1.00  0.00    -0.074 N 
HETATM    9  C1  UNL     1       6.547  10.459 -12.931  1.00  0.00     0.272 C 
HETATM   10  C2  UNL     1       4.753   9.712 -11.574  1.00  0.00     0.272 C 
HETATM   11  C3  UNL     1       5.285  11.988 -11.706  1.00  0.00     0.272 C 
ENDBRANCH   5   8
BRANCH   7  12
HETATM   12  C19 UNL     1       8.079  11.685  -8.148  1.00  0.00     0.200 C 
BRANCH  12  13
HETATM   13  O2  UNL     1       9.182  10.812  -8.216  1.00  0.00    -0.399 OA
ATOM     14  H2  UNL     1       9.623  10.920  -9.050  1.00  0.00     0.209 HD
ENDBRANCH  12  13
ENDBRANCH   7  12
ENDBRANCH   1   2
BRANCH   1  15
HETATM   15  O1  UNL     1       6.143   7.693  -6.858  1.00  0.00    -0.368 OA
ATOM     16  H1  UNL     1       5.277   7.677  -6.469  1.00  0.00     0.212 HD
ENDBRANCH   1  15
BRANCH   1  17
HETATM   17  C8  UNL     1       5.519   9.843  -6.073  1.00  0.00     0.086 C 
BRANCH  17  18
HETATM   18  C9  UNL     1       5.611  10.335  -4.671  1.00  0.00     0.028 C 
HETATM   19  C13 UNL     1       5.390   9.106  -3.774  1.00  0.00     0.023 C 
HETATM   20  C14 UNL     1       5.340   9.457  -2.324  1.00  0.00     0.002 C 
HETATM   21  C15 UNL     1       6.617  10.151  -1.905  1.00  0.00     0.000 C 
HETATM   22  C16 UNL     1       6.814  11.335  -2.792  1.00  0.00     0.002 C 
HETATM   23  C17 UNL     1       6.911  10.932  -4.264  1.00  0.00     0.023 C 
BRANCH  18  24
HETATM   24  C10 UNL     1       4.516  11.292  -4.402  1.00  0.00    -0.096 C 
HETATM   25  C11 UNL     1       3.627  12.076  -4.203  1.00  0.00    -0.095 C 
BRANCH  25  26
HETATM   26  C12 UNL     1       2.538  13.051  -3.970  1.00  0.00     0.178 C 
HETATM   27 BR1  UNL     1       3.378  14.752  -3.634  1.00  0.00    -0.083 Br
ENDBRANCH  25  26
ENDBRANCH  18  24
ENDBRANCH  17  18
ENDBRANCH   1  17
TORSDOF 9
ENDMDL
MODEL 2
REMARK VINA RESULT: -6.569277506      1.777      2.573
REMARK  9 active torsions:
REMARK  status: ('A' for Active; 'I' for Inactive)
REMARK    1  A    between atoms: N1_2  and  C4_5 
REMARK    2  A    between atoms: N2_8  and  C7_9 
REMARK    3  A    between atoms: C7_9  and  O1_10 
REMARK    4  A    between atoms: C7_9  and  C8_12 
REMARK    5  A    between atoms: C8_12  and  C9_13 
REMARK    6  A    between atoms: C9_13  and  C10_14 
REMARK    7  A    between atoms: C11_15  and  C12_16 
REMARK    8  A    between atoms: C18_23  and  C19_24 
REMARK    9  A    between atoms: C19_24  and  O2_25 
ROOT
HETATM    1  C7  UNL     1       6.654   9.022  -6.500  1.00  0.00     0.358 C 
ENDROOT
BRANCH   1   2
HETATM    2  N2  UNL     1       7.130   9.499  -7.798  1.00  0.00     0.123 N 
HETATM    3  C6  UNL     1       6.499   8.643  -8.793  1.00  0.00     0.278 C 
HETATM    4  C5  UNL     1       6.918   8.983 -10.192  1.00  0.00     0.064 C 
HETATM    5  C4  UNL     1       6.732  10.445 -10.516  1.00  0.00     0.193 C 
HETATM    6  C20 UNL     1       6.122  11.134  -9.340  1.00  0.00     0.071 C 
HETATM    7  C18 UNL     1       6.862  10.884  -8.035  1.00  0.00     0.251 C 
BRANCH   5   8
HETATM    8  N1  UNL     1       5.848  10.634 -11.649  1.00  0.00    -0.074 N 
HETATM    9  C1  UNL     1       6.542  10.486 -12.902  1.00  0.00     0.272 C 
HETATM   10  C2  UNL     1       4.766   9.698 -11.546  1.00  0.00     0.272 C 
HETATM   11  C3  UNL     1       5.280  11.980 -11.633  1.00  0.00     0.272 C 
ENDBRANCH   5   8
BRANCH   7  12
HETATM   12  C19 UNL     1       8.179  11.643  -8.160  1.00  0.00     0.200 C 
BRANCH  12  13
HETATM   13  O2  UNL     1       9.245  10.727  -8.241  1.00  0.00    -0.399 OA
ATOM     14  H2  UNL     1       9.023  10.033  -8.851  1.00  0.00     0.209 HD
ENDBRANCH  12  13
ENDBRANCH   7  12
ENDBRANCH   1   2
BRANCH   1  15
HETATM   15  O1  UNL     1       6.108   7.749  -6.782  1.00  0.00    -0.368 OA
ATOM     16  H1  UNL     1       6.846   7.248  -7.106  1.00  0.00     0.212 HD
ENDBRANCH   1  15
BRANCH   1  17
HETATM   17  C8  UNL     1       5.584   9.933  -6.017  1.00  0.00     0.086 C 
BRANCH  17  18
HETATM   18  C9  UNL     1       5.614  10.289  -4.572  1.00  0.00     0.028 C 
HETATM   19  C13 UNL     1       4.504  11.333  -4.369  1.00  0.00     0.023 C 
HETATM   20  C14 UNL     1       4.480  11.879  -2.980  1.00  0.00     0.002 C 
HETATM   21  C15 UNL     1       4.295  10.762  -1.977  1.00  0.00     0.000 C 
HETATM   22  C16 UNL     1       5.378   9.758  -2.197  1.00  0.00     0.002 C 
HETATM   23  C17 UNL     1       5.341   9.184  -3.614  1.00  0.00     0.023 C 
BRANCH  18  24
HETATM   24  C10 UNL     1       6.904  10.930  -4.239  1.00  0.00    -0.096 C 
HETATM   25  C11 UNL     1       7.948  11.467  -3.982  1.00  0.00    -0.095 C 
BRANCH  25  26
HETATM   26  C12 UNL     1       9.235  12.135  -3.680  1.00  0.00     0.178 C 
HETATM   27 BR1  UNL     1      10.362  10.815  -2.844  1.00  0.00    -0.083 Br
ENDBRANCH  25  26
ENDBRANCH  18  24
ENDBRANCH  17  18
ENDBRANCH   1  17
TORSDOF 9
ENDMDL
MODEL 3
REMARK VINA RESULT: -6.392845434      3.052      7.106
REMARK  9 active torsions:
REMARK  status: ('A' for Active; 'I' for Inactive)
REMARK    1  A    between atoms: N1_2  and  C4_5 
REMARK    2  A    between atoms: N2_8  and  C7_9 
REMARK    3  A    between atoms: C7_9  and  O1_10 
REMARK    4  A    between atoms: C7_9  and  C8_12 
REMARK    5  A    between atoms: C8_12  and  C9_13 
REMARK    6  A    between atoms: C9_13  and  C10_14 
REMARK    7  A    between atoms: C11_15  and  C12_16 
REMARK    8  A    between atoms: C18_23  and  C19_24 
REMARK    9  A    between atoms: C19_24  and  O2_25 
ROOT
HETATM    1  C7  UNL     1       7.322   9.406  -7.895  1.00  0.00     0.358 C 
ENDROOT
BRANCH   1   2
HETATM    2  N2  UNL     1       6.822  10.298  -6.849  1.00  0.00     0.123 N 
HETATM    3  C6  UNL     1       5.397  10.021  -6.736  1.00  0.00     0.278 C 
HETATM    4  C5  UNL     1       4.721  10.891  -5.718  1.00  0.00     0.064 C 
HETATM    5  C4  UNL     1       5.405  10.851  -4.374  1.00  0.00     0.193 C 
HETATM    6  C20 UNL     1       6.550   9.895  -4.434  1.00  0.00     0.071 C 
HETATM    7  C18 UNL     1       7.497  10.150  -5.596  1.00  0.00     0.251 C 
BRANCH   5   8
HETATM    8  N1  UNL     1       4.506  10.401  -3.329  1.00  0.00    -0.074 N 
HETATM    9  C1  UNL     1       4.920  10.862  -2.030  1.00  0.00     0.272 C 
HETATM   10  C2  UNL     1       3.180  10.855  -3.639  1.00  0.00     0.272 C 
HETATM   11  C3  UNL     1       4.478   8.941  -3.274  1.00  0.00     0.272 C 
ENDBRANCH   5   8
BRANCH   7  12
HETATM   12  C19 UNL     1       8.224  11.447  -5.254  1.00  0.00     0.200 C 
BRANCH  12  13
HETATM   13  O2  UNL     1       9.260  11.179  -4.339  1.00  0.00    -0.399 OA
ATOM     14  H2  UNL     1       9.780  10.448  -4.652  1.00  0.00     0.209 HD
ENDBRANCH  12  13
ENDBRANCH   7  12
ENDBRANCH   1   2
BRANCH   1  15
HETATM   15  O1  UNL     1       8.558   8.944  -7.389  1.00  0.00    -0.368 OA
ATOM     16  H1  UNL     1       9.009   9.736  -7.122  1.00  0.00     0.212 HD
ENDBRANCH   1  15
BRANCH   1  17
HETATM   17  C8  UNL     1       7.549  10.198  -9.131  1.00  0.00     0.086 C 
BRANCH  17  18
HETATM   18  C9  UNL     1       6.399  10.313 -10.069  1.00  0.00     0.028 C 
HETATM   19  C13 UNL     1       5.543   9.056  -9.848  1.00  0.00     0.023 C 
HETATM   20  C14 UNL     1       4.400   8.967 -10.804  1.00  0.00     0.002 C 
HETATM   21  C15 UNL     1       3.519  10.190 -10.688  1.00  0.00     0.000 C 
HETATM   22  C16 UNL     1       4.371  11.397 -10.900  1.00  0.00     0.002 C 
HETATM   23  C17 UNL     1       5.500  11.482  -9.872  1.00  0.00     0.023 C 
BRANCH  18  24
HETATM   24  C10 UNL     1       6.886  10.288 -11.466  1.00  0.00    -0.096 C 
HETATM   25  C11 UNL     1       7.264  10.276 -12.607  1.00  0.00    -0.095 C 
BRANCH  25  26
HETATM   26  C12 UNL     1       7.713  10.261 -14.017  1.00  0.00     0.178 C 
HETATM   27 BR1  UNL     1       6.406  11.252 -15.028  1.00  0.00    -0.083 Br
ENDBRANCH  25  26
ENDBRANCH  18  24
ENDBRANCH  17  18
ENDBRANCH   1  17
TORSDOF 9
ENDMDL
MODEL 4
REMARK VINA RESULT: -6.300140411      1.891      2.525
REMARK  9 active torsions:
REMARK  status: ('A' for Active; 'I' for Inactive)
REMARK    1  A    between atoms: N1_2  and  C4_5 
REMARK    2  A    between atoms: N2_8  and  C7_9 
REMARK    3  A    between atoms: C7_9  and  O1_10 
REMARK    4  A    between atoms: C7_9  and  C8_12 
REMARK    5  A    between atoms: C8_12  and  C9_13 
REMARK    6  A    between atoms: C9_13  and  C10_14 
REMARK    7  A    between atoms: C11_15  and  C12_16 
REMARK    8  A    between atoms: C18_23  and  C19_24 
REMARK    9  A    between atoms: C19_24  and  O2_25 
ROOT
HETATM    1  C7  UNL     1       5.977   9.322  -5.890  1.00  0.00     0.358 C 
ENDROOT
BRANCH   1   2
HETATM    2  N2  UNL     1       6.627   9.492  -7.189  1.00  0.00     0.123 N 
HETATM    3  C6  UNL     1       5.858   8.686  -8.128  1.00  0.00     0.278 C 
HETATM    4  C5  UNL     1       6.425   8.724  -9.516  1.00  0.00     0.064 C 
HETATM    5  C4  UNL     1       6.626  10.130 -10.023  1.00  0.00     0.193 C 
HETATM    6  C20 UNL     1       6.143  11.097  -8.994  1.00  0.00     0.071 C 
HETATM    7  C18 UNL     1       6.725  10.856  -7.609  1.00  0.00     0.251 C 
BRANCH   5   8
HETATM    8  N1  UNL     1       5.880  10.371 -11.243  1.00  0.00    -0.074 N 
HETATM    9  C1  UNL     1       6.724  10.312 -12.408  1.00  0.00     0.272 C 
HETATM   10  C2  UNL     1       4.818   9.410 -11.327  1.00  0.00     0.272 C 
HETATM   11  C3  UNL     1       5.280  11.703 -11.219  1.00  0.00     0.272 C 
ENDBRANCH   5   8
BRANCH   7  12
HETATM   12  C19 UNL     1       8.194  11.253  -7.708  1.00  0.00     0.200 C 
BRANCH  12  13
HETATM   13  O2  UNL     1       8.736  11.378  -6.415  1.00  0.00    -0.399 OA
ATOM     14  H2  UNL     1       8.728  10.532  -5.983  1.00  0.00     0.209 HD
ENDBRANCH  12  13
ENDBRANCH   7  12
ENDBRANCH   1   2
BRANCH   1  15
HETATM   15  O1  UNL     1       5.306   8.082  -6.001  1.00  0.00    -0.368 OA
ATOM     16  H1  UNL     1       4.986   8.073  -6.895  1.00  0.00     0.212 HD
ENDBRANCH   1  15
BRANCH   1  17
HETATM   17  C8  UNL     1       4.987  10.414  -5.703  1.00  0.00     0.086 C 
BRANCH  17  18
HETATM   18  C9  UNL     1       4.824  10.936  -4.319  1.00  0.00     0.028 C 
HETATM   19  C13 UNL     1       6.235  11.317  -3.840  1.00  0.00     0.023 C 
HETATM   20  C14 UNL     1       6.255  11.757  -2.414  1.00  0.00     0.002 C 
HETATM   21  C15 UNL     1       5.330  12.936  -2.212  1.00  0.00     0.000 C 
HETATM   22  C16 UNL     1       3.971  12.545  -2.688  1.00  0.00     0.002 C 
HETATM   23  C17 UNL     1       3.979  12.150  -4.166  1.00  0.00     0.023 C 
BRANCH  18  24
HETATM   24  C10 UNL     1       4.322   9.863  -3.433  1.00  0.00    -0.096 C 
HETATM   25  C11 UNL     1       3.933   8.983  -2.713  1.00  0.00    -0.095 C 
BRANCH  25  26
HETATM   26  C12 UNL     1       3.466   7.889  -1.832  1.00  0.00     0.178 C 
HETATM   27 BR1  UNL     1       1.723   7.370  -2.467  1.00  0.00    -0.083 Br
ENDBRANCH  25  26
ENDBRANCH  18  24
ENDBRANCH  17  18
ENDBRANCH   1  17
TORSDOF 9
ENDMDL
MODEL 5
REMARK VINA RESULT: -6.288036994      2.307      3.080
REMARK  9 active torsions:
REMARK  status: ('A' for Active; 'I' for Inactive)
REMARK    1  A    between atoms: N1_2  and  C4_5 
REMARK    2  A    between atoms: N2_8  and  C7_9 
REMARK    3  A    between atoms: C7_9  and  O1_10 
REMARK    4  A    between atoms: C7_9  and  C8_12 
REMARK    5  A    between atoms: C8_12  and  C9_13 
REMARK    6  A    between atoms: C9_13  and  C10_14 
REMARK    7  A    between atoms: C11_15  and  C12_16 
REMARK    8  A    between atoms: C18_23  and  C19_24 
REMARK    9  A    between atoms: C19_24  and  O2_25 
ROOT
HETATM    1  C7  UNL     1       6.382  10.731  -5.308  1.00  0.00     0.358 C 
ENDROOT
BRANCH   1   2
HETATM    2  N2  UNL     1       6.532  10.060  -6.599  1.00  0.00     0.123 N 
HETATM    3  C6  UNL     1       5.185   9.922  -7.135  1.00  0.00     0.278 C 
HETATM    4  C5  UNL     1       5.163   9.212  -8.456  1.00  0.00     0.064 C 
HETATM    5  C4  UNL     1       6.104   9.825  -9.463  1.00  0.00     0.193 C 
HETATM    6  C20 UNL     1       6.761  11.021  -8.856  1.00  0.00     0.071 C 
HETATM    7  C18 UNL     1       7.403  10.744  -7.505  1.00  0.00     0.251 C 
BRANCH   5   8
HETATM    8  N1  UNL     1       5.404  10.261 -10.654  1.00  0.00    -0.074 N 
HETATM    9  C1  UNL     1       6.218  10.128 -11.835  1.00  0.00     0.272 C 
HETATM   10  C2  UNL     1       4.192   9.502 -10.777  1.00  0.00     0.272 C 
HETATM   11  C3  UNL     1       5.040  11.672 -10.545  1.00  0.00     0.272 C 
ENDBRANCH   5   8
BRANCH   7  12
HETATM   12  C19 UNL     1       8.617   9.870  -7.800  1.00  0.00     0.200 C 
BRANCH  12  13
HETATM   13  O2  UNL     1       9.287  10.364  -8.937  1.00  0.00    -0.399 OA
ATOM     14  H2  UNL     1      10.149  10.676  -8.687  1.00  0.00     0.209 HD
ENDBRANCH  12  13
ENDBRANCH   7  12
ENDBRANCH   1   2
BRANCH   1  15
HETATM   15  O1  UNL     1       7.607  10.482  -4.648  1.00  0.00    -0.368 OA
ATOM     16  H1  UNL     1       8.262  10.602  -5.325  1.00  0.00     0.212 HD
ENDBRANCH   1  15
BRANCH   1  17
HETATM   17  C8  UNL     1       5.269  10.090  -4.561  1.00  0.00     0.086 C 
BRANCH  17  18
HETATM   18  C9  UNL     1       4.317  11.004  -3.871  1.00  0.00     0.028 C 
HETATM   19  C13 UNL     1       5.180  11.967  -3.040  1.00  0.00     0.023 C 
HETATM   20  C14 UNL     1       4.361  12.883  -2.192  1.00  0.00     0.002 C 
HETATM   21  C15 UNL     1       3.410  13.687  -3.051  1.00  0.00     0.000 C 
HETATM   22  C16 UNL     1       2.589  12.733  -3.852  1.00  0.00     0.002 C 
HETATM   23  C17 UNL     1       3.458  11.846  -4.745  1.00  0.00     0.023 C 
BRANCH  18  24
HETATM   24  C10 UNL     1       3.472  10.232  -2.933  1.00  0.00    -0.096 C 
HETATM   25  C11 UNL     1       2.794   9.589  -2.177  1.00  0.00    -0.095 C 
BRANCH  25  26
HETATM   26  C12 UNL     1       1.960   8.783  -1.257  1.00  0.00     0.178 C 
HETATM   27 BR1  UNL     1       1.574   7.128  -2.164  1.00  0.00    -0.083 Br
ENDBRANCH  25  26
ENDBRANCH  18  24
ENDBRANCH  17  18
ENDBRANCH   1  17
TORSDOF 9
ENDMDL
