MODEL 1
REMARK VINA RESULT: -6.555435296      0.000      0.000
REMARK  7 active torsions:
REMARK  status: ('A' for Active; 'I' for Inactive)
REMARK       I    between atoms: C2_2  and  N1_4 
REMARK    1  A    between atoms: N1_4  and  C3_6 
REMARK    2  A    between atoms: C3_6  and  C4_7 
REMARK    3  A    between atoms: C3_6  and  C7_12 
REMARK    4  A    between atoms: C4_7  and  C5_8 
REMARK    5  A    between atoms: C5_8  and  C6_9 
REMARK       I    between atoms: C7_12  and  N2_14 
REMARK    6  A    between atoms: N3_19  and  C12_21 
REMARK    7  A    between atoms: C12_21  and  C13_25 
ROOT
HETATM    1  C7  UNL     1       6.019  10.307  -3.978  1.00  0.00     0.270 C 
HETATM    2  O4  UNL     1       6.862  11.178  -3.586  1.00  0.00    -0.266 OA
HETATM    3  N2  UNL     1       6.240   9.776  -5.268  1.00  0.00    -0.345 N 
HETATM    4  C8  UNL     1       5.435   8.781  -5.913  1.00  0.00     0.136 C 
HETATM    5  C9  UNL     1       5.639   8.630  -7.388  1.00  0.00     0.046 C 
HETATM    6  C10 UNL     1       6.742   7.626  -7.627  1.00  0.00     0.018 C 
HETATM    7  C11 UNL     1       5.926   9.933  -8.066  1.00  0.00     0.009 C 
HETATM    8  N3  UNL     1       5.331  10.103  -9.165  1.00  0.00    -0.351 N 
ATOM      9  H3  UNL     1       4.731   9.327  -9.444  1.00  0.00     0.166 HD
HETATM   10  C16 UNL     1       6.851  10.828  -7.379  1.00  0.00     0.121 C 
HETATM   11 BR1  UNL     1       8.377  11.203  -8.493  1.00  0.00    -0.083 Br
HETATM   12  C17 UNL     1       7.376  10.256  -6.084  1.00  0.00     0.147 C 
ENDROOT
BRANCH   1  13
HETATM   13  C3  UNL     1       4.953   9.987  -3.053  1.00  0.00     0.103 C 
BRANCH  13  14
HETATM   14  N1  UNL     1       4.987   8.612  -2.580  1.00  0.00    -0.323 N 
HETATM   15  C2  UNL     1       5.716   8.234  -1.442  1.00  0.00     0.218 C 
HETATM   16  C1  UNL     1       5.728   6.811  -0.983  1.00  0.00     0.117 C 
HETATM   17  O1  UNL     1       6.388   9.040  -0.750  1.00  0.00    -0.274 OA
ATOM     18  H1  UNL     1       4.465   7.900  -3.092  1.00  0.00     0.169 HD
ENDBRANCH  13  14
BRANCH  13  19
HETATM   19  C4  UNL     1       3.559  10.368  -3.297  1.00  0.00     0.042 C 
BRANCH  19  20
HETATM   20  C5  UNL     1       3.166  11.360  -4.284  1.00  0.00     0.087 C 
BRANCH  20  21
HETATM   21  C6  UNL     1       2.939  12.742  -3.994  1.00  0.00     0.198 C 
HETATM   22  O2  UNL     1       3.782  13.582  -3.633  1.00  0.00    -0.645 OA
HETATM   23  O3  UNL     1       1.634  13.291  -4.107  1.00  0.00    -0.645 OA
ENDBRANCH  20  21
ENDBRANCH  19  20
ENDBRANCH  13  19
ENDBRANCH   1  13
BRANCH   8  24
HETATM   24  C12 UNL     1       5.352  11.160 -10.053  1.00  0.00     0.078 C 
HETATM   25  N4  UNL     1       5.226  12.402  -9.798  1.00  0.00    -0.389 N 
ATOM     26  H42 UNL     1       5.117  12.646  -8.814  1.00  0.00     0.157 HD
ATOM     27  H41 UNL     1       5.241  13.182 -10.454  1.00  0.00     0.157 HD
BRANCH  24  28
HETATM   28  C13 UNL     1       5.514  10.798 -11.513  1.00  0.00     0.045 C 
HETATM   29  C14 UNL     1       6.863  10.220 -11.765  1.00  0.00     0.017 C 
HETATM   30  C15 UNL     1       5.316  12.028 -12.364  1.00  0.00     0.017 C 
ENDBRANCH  24  28
ENDBRANCH   8  24
TORSDOF 7
ENDMDL
MODEL 2
REMARK VINA RESULT: -6.455714577      1.171      1.388
REMARK  7 active torsions:
REMARK  status: ('A' for Active; 'I' for Inactive)
REMARK       I    between atoms: C2_2  and  N1_4 
REMARK    1  A    between atoms: N1_4  and  C3_6 
REMARK    2  A    between atoms: C3_6  and  C4_7 
REMARK    3  A    between atoms: C3_6  and  C7_12 
REMARK    4  A    between atoms: C4_7  and  C5_8 
REMARK    5  A    between atoms: C5_8  and  C6_9 
REMARK       I    between atoms: C7_12  and  N2_14 
REMARK    6  A    between atoms: N3_19  and  C12_21 
REMARK    7  A    between atoms: C12_21  and  C13_25 
ROOT
HETATM    1  C7  UNL     1       6.816  11.266  -3.746  1.00  0.00     0.270 C 
HETATM    2  O4  UNL     1       7.895  11.943  -3.698  1.00  0.00    -0.266 OA
HETATM    3  N2  UNL     1       6.653  10.450  -4.888  1.00  0.00    -0.345 N 
HETATM    4  C8  UNL     1       5.533   9.597  -5.153  1.00  0.00     0.136 C 
HETATM    5  C9  UNL     1       5.404   9.108  -6.562  1.00  0.00     0.046 C 
HETATM    6  C10 UNL     1       6.182   7.821  -6.705  1.00  0.00     0.018 C 
HETATM    7  C11 UNL     1       5.840  10.128  -7.568  1.00  0.00     0.009 C 
HETATM    8  N3  UNL     1       5.095  10.227  -8.580  1.00  0.00    -0.351 N 
ATOM      9  H3  UNL     1       4.292   9.598  -8.578  1.00  0.00     0.166 HD
HETATM   10  C16 UNL     1       7.060  10.863  -7.254  1.00  0.00     0.121 C 
HETATM   11 BR1  UNL     1       8.381  10.592  -8.628  1.00  0.00    -0.083 Br
HETATM   12  C17 UNL     1       7.685  10.441  -5.947  1.00  0.00     0.147 C 
ENDROOT
BRANCH   1  13
HETATM   13  C3  UNL     1       5.908  11.431  -2.631  1.00  0.00     0.103 C 
BRANCH  13  14
HETATM   14  N1  UNL     1       5.257  10.194  -2.225  1.00  0.00    -0.323 N 
HETATM   15  C2  UNL     1       5.887   9.264  -1.383  1.00  0.00     0.218 C 
HETATM   16  C1  UNL     1       5.188   8.003  -0.984  1.00  0.00     0.117 C 
HETATM   17  O1  UNL     1       7.045   9.420  -0.920  1.00  0.00    -0.274 OA
ATOM     18  H1  UNL     1       4.315   9.997  -2.562  1.00  0.00     0.169 HD
ENDBRANCH  13  14
BRANCH  13  19
HETATM   19  C4  UNL     1       4.931  12.522  -2.566  1.00  0.00     0.042 C 
BRANCH  19  20
HETATM   20  C5  UNL     1       4.054  12.871  -3.669  1.00  0.00     0.087 C 
BRANCH  20  21
HETATM   21  C6  UNL     1       2.763  12.293  -3.889  1.00  0.00     0.198 C 
HETATM   22  O2  UNL     1       2.473  11.084  -3.895  1.00  0.00    -0.645 OA
HETATM   23  O3  UNL     1       1.639  13.127  -4.133  1.00  0.00    -0.645 OA
ENDBRANCH  20  21
ENDBRANCH  19  20
ENDBRANCH  13  19
ENDBRANCH   1  13
BRANCH   8  24
HETATM   24  C12 UNL     1       5.180  11.042  -9.692  1.00  0.00     0.078 C 
HETATM   25  N4  UNL     1       5.356  12.304  -9.727  1.00  0.00    -0.389 N 
ATOM     26  H42 UNL     1       5.471  12.764  -8.824  1.00  0.00     0.157 HD
ATOM     27  H41 UNL     1       5.419  12.906 -10.548  1.00  0.00     0.157 HD
BRANCH  24  28
HETATM   28  C13 UNL     1       5.011  10.360 -11.031  1.00  0.00     0.045 C 
HETATM   29  C14 UNL     1       4.491   8.976 -10.854  1.00  0.00     0.017 C 
HETATM   30  C15 UNL     1       6.337  10.323 -11.750  1.00  0.00     0.017 C 
ENDBRANCH  24  28
ENDBRANCH   8  24
TORSDOF 7
ENDMDL
MODEL 3
REMARK VINA RESULT: -6.350588304      1.701      3.007
REMARK  7 active torsions:
REMARK  status: ('A' for Active; 'I' for Inactive)
REMARK       I    between atoms: C2_2  and  N1_4 
REMARK    1  A    between atoms: N1_4  and  C3_6 
REMARK    2  A    between atoms: C3_6  and  C4_7 
REMARK    3  A    between atoms: C3_6  and  C7_12 
REMARK    4  A    between atoms: C4_7  and  C5_8 
REMARK    5  A    between atoms: C5_8  and  C6_9 
REMARK       I    between atoms: C7_12  and  N2_14 
REMARK    6  A    between atoms: N3_19  and  C12_21 
REMARK    7  A    between atoms: C12_21  and  C13_25 
ROOT
HETATM    1  C7  UNL     1       5.941  10.264  -4.018  1.00  0.00     0.270 C 
HETATM    2  O4  UNL     1       6.766  11.145  -3.608  1.00  0.00    -0.266 OA
HETATM    3  N2  UNL     1       6.188   9.745  -5.309  1.00  0.00    -0.345 N 
HETATM    4  C8  UNL     1       5.407   8.743  -5.971  1.00  0.00     0.136 C 
HETATM    5  C9  UNL     1       5.633   8.605  -7.444  1.00  0.00     0.046 C 
HETATM    6  C10 UNL     1       6.754   7.619  -7.674  1.00  0.00     0.018 C 
HETATM    7  C11 UNL     1       5.911   9.917  -8.109  1.00  0.00     0.009 C 
HETATM    8  N3  UNL     1       5.329  10.086  -9.215  1.00  0.00    -0.351 N 
ATOM      9  H3  UNL     1       4.745   9.304  -9.509  1.00  0.00     0.166 HD
HETATM   10  C16 UNL     1       6.814  10.821  -7.403  1.00  0.00     0.121 C 
HETATM   11 BR1  UNL     1       8.349  11.225  -8.493  1.00  0.00    -0.083 Br
HETATM   12  C17 UNL     1       7.328  10.247  -6.105  1.00  0.00     0.147 C 
ENDROOT
BRANCH   1  13
HETATM   13  C3  UNL     1       4.866   9.923  -3.111  1.00  0.00     0.103 C 
BRANCH  13  14
HETATM   14  N1  UNL     1       4.164  11.082  -2.582  1.00  0.00    -0.323 N 
HETATM   15  C2  UNL     1       3.059  11.646  -3.239  1.00  0.00     0.218 C 
HETATM   16  C1  UNL     1       2.359  12.837  -2.666  1.00  0.00     0.117 C 
HETATM   17  O1  UNL     1       2.595  11.203  -4.320  1.00  0.00    -0.274 OA
ATOM     18  H1  UNL     1       4.484  11.497  -1.707  1.00  0.00     0.169 HD
ENDBRANCH  13  14
BRANCH  13  19
HETATM   19  C4  UNL     1       5.025   8.937  -2.038  1.00  0.00     0.042 C 
BRANCH  19  20
HETATM   20  C5  UNL     1       4.103   7.833  -1.829  1.00  0.00     0.087 C 
BRANCH  20  21
HETATM   21  C6  UNL     1       2.690   7.913  -2.032  1.00  0.00     0.198 C 
HETATM   22  O2  UNL     1       1.983   7.142  -2.705  1.00  0.00    -0.645 OA
HETATM   23  O3  UNL     1       1.939   8.959  -1.431  1.00  0.00    -0.645 OA
ENDBRANCH  20  21
ENDBRANCH  19  20
ENDBRANCH  13  19
ENDBRANCH   1  13
BRANCH   8  24
HETATM   24  C12 UNL     1       5.348  11.149 -10.096  1.00  0.00     0.078 C 
HETATM   25  N4  UNL     1       5.224  12.390  -9.831  1.00  0.00    -0.389 N 
ATOM     26  H42 UNL     1       5.121  12.627  -8.845  1.00  0.00     0.157 HD
ATOM     27  H41 UNL     1       5.238  13.174 -10.482  1.00  0.00     0.157 HD
BRANCH  24  28
HETATM   28  C13 UNL     1       5.501  10.798 -11.560  1.00  0.00     0.045 C 
HETATM   29  C14 UNL     1       6.836  10.191 -11.816  1.00  0.00     0.017 C 
HETATM   30  C15 UNL     1       5.332  12.040 -12.398  1.00  0.00     0.017 C 
ENDBRANCH  24  28
ENDBRANCH   8  24
TORSDOF 7
ENDMDL
MODEL 4
REMARK VINA RESULT: -6.191886930      1.233      3.461
REMARK  7 active torsions:
REMARK  status: ('A' for Active; 'I' for Inactive)
REMARK       I    between atoms: C2_2  and  N1_4 
REMARK    1  A    between atoms: N1_4  and  C3_6 
REMARK    2  A    between atoms: C3_6  and  C4_7 
REMARK    3  A    between atoms: C3_6  and  C7_12 
REMARK    4  A    between atoms: C4_7  and  C5_8 
REMARK    5  A    between atoms: C5_8  and  C6_9 
REMARK       I    between atoms: C7_12  and  N2_14 
REMARK    6  A    between atoms: N3_19  and  C12_21 
REMARK    7  A    between atoms: C12_21  and  C13_25 
ROOT
HETATM    1  C7  UNL     1       6.144  10.742  -3.826  1.00  0.00     0.270 C 
HETATM    2  O4  UNL     1       7.064  11.569  -3.521  1.00  0.00    -0.266 OA
HETATM    3  N2  UNL     1       6.283  10.104  -5.079  1.00  0.00    -0.345 N 
HETATM    4  C8  UNL     1       5.383   9.133  -5.627  1.00  0.00     0.136 C 
HETATM    5  C9  UNL     1       5.528   8.861  -7.091  1.00  0.00     0.046 C 
HETATM    6  C10 UNL     1       6.542   7.758  -7.284  1.00  0.00     0.018 C 
HETATM    7  C11 UNL     1       5.894  10.086  -7.871  1.00  0.00     0.009 C 
HETATM    8  N3  UNL     1       5.279  10.223  -8.964  1.00  0.00    -0.351 N 
ATOM      9  H3  UNL     1       4.613   9.479  -9.170  1.00  0.00     0.166 HD
HETATM   10  C16 UNL     1       6.907  10.951  -7.276  1.00  0.00     0.121 C 
HETATM   11 BR1  UNL     1       8.421  11.122  -8.453  1.00  0.00    -0.083 Br
HETATM   12  C17 UNL     1       7.426  10.433  -5.957  1.00  0.00     0.147 C 
ENDROOT
BRANCH   1  13
HETATM   13  C3  UNL     1       5.085  10.576  -2.853  1.00  0.00     0.103 C 
BRANCH  13  14
HETATM   14  N1  UNL     1       4.237  11.749  -2.712  1.00  0.00    -0.323 N 
HETATM   15  C2  UNL     1       3.064  11.914  -3.465  1.00  0.00     0.218 C 
HETATM   16  C1  UNL     1       2.214  13.133  -3.293  1.00  0.00     0.117 C 
HETATM   17  O1  UNL     1       2.657  11.076  -4.308  1.00  0.00    -0.274 OA
ATOM     18  H1  UNL     1       4.503  12.475  -2.046  1.00  0.00     0.169 HD
ENDBRANCH  13  14
BRANCH  13  19
HETATM   19  C4  UNL     1       5.320  10.000  -1.526  1.00  0.00     0.042 C 
BRANCH  19  20
HETATM   20  C5  UNL     1       6.112   8.802  -1.307  1.00  0.00     0.087 C 
BRANCH  20  21
HETATM   21  C6  UNL     1       5.578   7.475  -1.283  1.00  0.00     0.198 C 
HETATM   22  O2  UNL     1       6.218   6.409  -1.244  1.00  0.00    -0.645 OA
HETATM   23  O3  UNL     1       4.172   7.269  -1.302  1.00  0.00    -0.645 OA
ENDBRANCH  20  21
ENDBRANCH  19  20
ENDBRANCH  13  19
ENDBRANCH   1  13
BRANCH   8  24
HETATM   24  C12 UNL     1       5.355  11.208  -9.928  1.00  0.00     0.078 C 
HETATM   25  N4  UNL     1       5.269  12.470  -9.769  1.00  0.00    -0.389 N 
ATOM     26  H42 UNL     1       5.152  12.791  -8.808  1.00  0.00     0.157 HD
ATOM     27  H41 UNL     1       5.325  13.197 -10.482  1.00  0.00     0.157 HD
BRANCH  24  28
HETATM   28  C13 UNL     1       5.529  10.732 -11.354  1.00  0.00     0.045 C 
HETATM   29  C14 UNL     1       6.869  10.111 -11.539  1.00  0.00     0.017 C 
HETATM   30  C15 UNL     1       5.368  11.896 -12.299  1.00  0.00     0.017 C 
ENDBRANCH  24  28
ENDBRANCH   8  24
TORSDOF 7
ENDMDL
MODEL 5
REMARK VINA RESULT: -6.117010883      3.358      7.642
REMARK  7 active torsions:
REMARK  status: ('A' for Active; 'I' for Inactive)
REMARK       I    between atoms: C2_2  and  N1_4 
REMARK    1  A    between atoms: N1_4  and  C3_6 
REMARK    2  A    between atoms: C3_6  and  C4_7 
REMARK    3  A    between atoms: C3_6  and  C7_12 
REMARK    4  A    between atoms: C4_7  and  C5_8 
REMARK    5  A    between atoms: C5_8  and  C6_9 
REMARK       I    between atoms: C7_12  and  N2_14 
REMARK    6  A    between atoms: N3_19  and  C12_21 
REMARK    7  A    between atoms: C12_21  and  C13_25 
ROOT
HETATM    1  C7  UNL     1       6.293  10.397  -4.660  1.00  0.00     0.270 C 
HETATM    2  O4  UNL     1       7.205  11.202  -4.280  1.00  0.00    -0.266 OA
HETATM    3  N2  UNL     1       5.516   9.821  -3.631  1.00  0.00    -0.345 N 
HETATM    4  C8  UNL     1       4.433   8.901  -3.816  1.00  0.00     0.136 C 
HETATM    5  C9  UNL     1       3.993   8.155  -2.596  1.00  0.00     0.046 C 
HETATM    6  C10 UNL     1       2.937   8.966  -1.882  1.00  0.00     0.018 C 
HETATM    7  C11 UNL     1       5.133   7.815  -1.686  1.00  0.00     0.009 C 
HETATM    8  N3  UNL     1       5.098   6.651  -1.203  1.00  0.00    -0.351 N 
ATOM      9  H3  UNL     1       4.296   6.095  -1.498  1.00  0.00     0.166 HD
HETATM   10  C16 UNL     1       6.123   8.865  -1.474  1.00  0.00     0.121 C 
HETATM   11 BR1  UNL     1       6.240   9.312   0.396  1.00  0.00    -0.083 Br
HETATM   12  C17 UNL     1       5.803  10.140  -2.216  1.00  0.00     0.147 C 
ENDROOT
BRANCH   1  13
HETATM   13  C3  UNL     1       6.184  10.183  -6.087  1.00  0.00     0.103 C 
BRANCH  13  14
HETATM   14  N1  UNL     1       7.246  10.817  -6.852  1.00  0.00    -0.323 N 
HETATM   15  C2  UNL     1       8.127  10.077  -7.657  1.00  0.00     0.218 C 
HETATM   16  C1  UNL     1       9.207  10.761  -8.432  1.00  0.00     0.117 C 
HETATM   17  O1  UNL     1       8.070   8.827  -7.780  1.00  0.00    -0.274 OA
ATOM     18  H1  UNL     1       7.355  11.830  -6.802  1.00  0.00     0.169 HD
ENDBRANCH  13  14
BRANCH  13  19
HETATM   19  C4  UNL     1       4.920  10.341  -6.812  1.00  0.00     0.042 C 
BRANCH  19  20
HETATM   20  C5  UNL     1       4.685   9.781  -8.132  1.00  0.00     0.087 C 
BRANCH  20  21
HETATM   21  C6  UNL     1       4.943  10.469  -9.359  1.00  0.00     0.198 C 
HETATM   22  O2  UNL     1       5.467  11.589  -9.497  1.00  0.00    -0.645 OA
HETATM   23  O3  UNL     1       4.590   9.874 -10.600  1.00  0.00    -0.645 OA
ENDBRANCH  20  21
ENDBRANCH  19  20
ENDBRANCH  13  19
ENDBRANCH   1  13
BRANCH   8  24
HETATM   24  C12 UNL     1       5.961   6.001  -0.343  1.00  0.00     0.078 C 
HETATM   25  N4  UNL     1       5.815   5.797   0.907  1.00  0.00    -0.389 N 
ATOM     26  H42 UNL     1       4.945   6.137   1.316  1.00  0.00     0.157 HD
ATOM     27  H41 UNL     1       6.452   5.316   1.542  1.00  0.00     0.157 HD
BRANCH  24  28
HETATM   28  C13 UNL     1       7.251   5.496  -0.950  1.00  0.00     0.045 C 
HETATM   29  C14 UNL     1       7.019   4.228  -1.695  1.00  0.00     0.017 C 
HETATM   30  C15 UNL     1       8.268   5.271   0.141  1.00  0.00     0.017 C 
ENDBRANCH  24  28
ENDBRANCH   8  24
TORSDOF 7
ENDMDL
