MODEL 1
REMARK VINA RESULT: -8.574007078      0.000      0.000
REMARK  7 active torsions:
REMARK  status: ('A' for Active; 'I' for Inactive)
REMARK    1  A    between atoms: C3_3  and  C4_4 
REMARK    2  A    between atoms: C3_3  and  N2_19 
REMARK    3  A    between atoms: C4_4  and  N1_5 
REMARK    4  A    between atoms: N1_5  and  C5_8 
REMARK    5  A    between atoms: C16_21  and  O1_22 
REMARK    6  A    between atoms: C16_21  and  C17_24 
REMARK    7  A    between atoms: C17_24  and  C18_25 
ROOT
HETATM    1  C1  UNL     1       8.976  11.214  -7.999  1.00  0.00     0.014 C 
HETATM    2  C2  UNL     1       7.833  10.847  -8.056  1.00  0.00    -0.090 C 
HETATM    3  C3  UNL     1       6.408  10.406  -8.152  1.00  0.00     0.191 C 
ENDROOT
BRANCH   3   4
HETATM    4  C4  UNL     1       6.262   9.192  -7.290  1.00  0.00     0.271 C 
BRANCH   4   5
HETATM    5  N1  UNL     1       5.036   9.236  -6.519  1.00  0.00    -0.063 N 
ATOM      6  H12 UNL     1       4.324   9.777  -7.010  1.00  0.00     0.278 HD
ATOM      7  H11 UNL     1       4.584   8.322  -6.512  1.00  0.00     0.278 HD
BRANCH   5   8
HETATM    8  C5  UNL     1       5.200   9.721  -5.189  1.00  0.00     0.128 C 
HETATM    9  C6  UNL     1       4.241  10.909  -5.047  1.00  0.00     0.043 C 
HETATM   10  C7  UNL     1       4.292  11.499  -3.677  1.00  0.00    -0.010 C 
HETATM   11  C8  UNL     1       5.676  11.977  -3.305  1.00  0.00     0.009 C 
HETATM   12  C12 UNL     1       3.889  10.431  -2.676  1.00  0.00     0.026 C 
HETATM   13  C9  UNL     1       6.618  10.813  -3.526  1.00  0.00    -0.010 C 
HETATM   14  C10 UNL     1       6.251   9.763  -2.501  1.00  0.00     0.026 C 
HETATM   15  C14 UNL     1       6.580  10.280  -4.927  1.00  0.00     0.043 C 
HETATM   16  C11 UNL     1       4.860   9.281  -2.802  1.00  0.00     0.021 C 
HETATM   17 BR1  UNL     1       4.364   7.904  -1.548  1.00  0.00    -0.085 Br
HETATM   18  C13 UNL     1       4.820   8.688  -4.194  1.00  0.00     0.060 C 
ENDBRANCH   5   8
ENDBRANCH   4   5
ENDBRANCH   3   4
BRANCH   3  19
HETATM   19  N2  UNL     1       6.060  10.173  -9.537  1.00  0.00    -0.332 N 
HETATM   20  C15 UNL     1       6.973  10.375 -10.646  1.00  0.00     0.165 C 
HETATM   21  C16 UNL     1       6.005  10.500 -11.799  1.00  0.00     0.082 C 
HETATM   22  C20 UNL     1       5.023   9.424 -11.481  1.00  0.00     0.142 C 
HETATM   23  C21 UNL     1       4.804   9.705 -10.010  1.00  0.00     0.223 C 
HETATM   24  O2  UNL     1       3.718   9.530  -9.435  1.00  0.00    -0.273 OA
BRANCH  21  25
HETATM   25  O1  UNL     1       5.326  11.719 -11.602  1.00  0.00    -0.388 OA
ATOM     26  H1  UNL     1       4.434  11.485 -11.372  1.00  0.00     0.210 HD
ENDBRANCH  21  25
BRANCH  21  27
HETATM   27  C17 UNL     1       6.606  10.540 -13.129  1.00  0.00     0.040 C 
BRANCH  27  28
HETATM   28  C18 UNL     1       6.205  11.573 -14.103  1.00  0.00    -0.002 C 
HETATM   29  C19 UNL     1       7.012  11.667 -15.363  1.00  0.00     0.005 C 
ENDBRANCH  27  28
ENDBRANCH  21  27
ENDBRANCH   3  19
TORSDOF 7
ENDMDL
MODEL 2
REMARK VINA RESULT: -8.525464259      1.108      1.816
REMARK  7 active torsions:
REMARK  status: ('A' for Active; 'I' for Inactive)
REMARK    1  A    between atoms: C3_3  and  C4_4 
REMARK    2  A    between atoms: C3_3  and  N2_19 
REMARK    3  A    between atoms: C4_4  and  N1_5 
REMARK    4  A    between atoms: N1_5  and  C5_8 
REMARK    5  A    between atoms: C16_21  and  O1_22 
REMARK    6  A    between atoms: C16_21  and  C17_24 
REMARK    7  A    between atoms: C17_24  and  C18_25 
ROOT
HETATM    1  C1  UNL     1       8.987  11.227  -7.980  1.00  0.00     0.014 C 
HETATM    2  C2  UNL     1       7.848  10.850  -8.036  1.00  0.00    -0.090 C 
HETATM    3  C3  UNL     1       6.427  10.396  -8.130  1.00  0.00     0.191 C 
ENDROOT
BRANCH   3   4
HETATM    4  C4  UNL     1       6.293   9.177  -7.271  1.00  0.00     0.271 C 
BRANCH   4   5
HETATM    5  N1  UNL     1       5.057   9.195  -6.515  1.00  0.00    -0.063 N 
ATOM      6  H12 UNL     1       4.311   9.624  -7.062  1.00  0.00     0.278 HD
ATOM      7  H11 UNL     1       4.682   8.252  -6.421  1.00  0.00     0.278 HD
BRANCH   5   8
HETATM    8  C5  UNL     1       5.162   9.821  -5.240  1.00  0.00     0.128 C 
HETATM    9  C6  UNL     1       4.791   8.749  -4.207  1.00  0.00     0.043 C 
HETATM   10  C7  UNL     1       4.889   9.268  -2.812  1.00  0.00    -0.010 C 
HETATM   11  C8  UNL     1       3.995  10.463  -2.576  1.00  0.00     0.009 C 
HETATM   12  C12 UNL     1       6.320   9.707  -2.559  1.00  0.00     0.026 C 
HETATM   13  C9  UNL     1       4.322  11.477  -3.651  1.00  0.00    -0.010 C 
HETATM   14  C10 UNL     1       5.733  11.952  -3.378  1.00  0.00     0.026 C 
HETATM   15  C14 UNL     1       4.162  10.938  -5.042  1.00  0.00     0.043 C 
HETATM   16  C11 UNL     1       6.663  10.786  -3.559  1.00  0.00     0.021 C 
HETATM   17 BR1  UNL     1       8.481  11.354  -3.267  1.00  0.00    -0.085 Br
HETATM   18  C13 UNL     1       6.553  10.265  -4.976  1.00  0.00     0.060 C 
ENDBRANCH   5   8
ENDBRANCH   4   5
ENDBRANCH   3   4
BRANCH   3  19
HETATM   19  N2  UNL     1       6.076  10.165  -9.514  1.00  0.00    -0.332 N 
HETATM   20  C15 UNL     1       6.987  10.370 -10.624  1.00  0.00     0.165 C 
HETATM   21  C16 UNL     1       6.017  10.495 -11.776  1.00  0.00     0.082 C 
HETATM   22  C20 UNL     1       5.038   9.417 -11.458  1.00  0.00     0.142 C 
HETATM   23  C21 UNL     1       4.821   9.695  -9.986  1.00  0.00     0.223 C 
HETATM   24  O2  UNL     1       3.735   9.518  -9.409  1.00  0.00    -0.273 OA
BRANCH  21  25
HETATM   25  O1  UNL     1       5.338  11.712 -11.576  1.00  0.00    -0.388 OA
ATOM     26  H1  UNL     1       4.616  11.513 -10.991  1.00  0.00     0.210 HD
ENDBRANCH  21  25
BRANCH  21  27
HETATM   27  C17 UNL     1       6.617  10.538 -13.106  1.00  0.00     0.040 C 
BRANCH  27  28
HETATM   28  C18 UNL     1       6.205  11.565 -14.082  1.00  0.00    -0.002 C 
HETATM   29  C19 UNL     1       7.000  11.654 -15.349  1.00  0.00     0.005 C 
ENDBRANCH  27  28
ENDBRANCH  21  27
ENDBRANCH   3  19
TORSDOF 7
ENDMDL
MODEL 3
REMARK VINA RESULT: -8.482002693      1.113      1.831
REMARK  7 active torsions:
REMARK  status: ('A' for Active; 'I' for Inactive)
REMARK    1  A    between atoms: C3_3  and  C4_4 
REMARK    2  A    between atoms: C3_3  and  N2_19 
REMARK    3  A    between atoms: C4_4  and  N1_5 
REMARK    4  A    between atoms: N1_5  and  C5_8 
REMARK    5  A    between atoms: C16_21  and  O1_22 
REMARK    6  A    between atoms: C16_21  and  C17_24 
REMARK    7  A    between atoms: C17_24  and  C18_25 
ROOT
HETATM    1  C1  UNL     1       9.012  11.235  -7.975  1.00  0.00     0.014 C 
HETATM    2  C2  UNL     1       7.870  10.863  -8.025  1.00  0.00    -0.090 C 
HETATM    3  C3  UNL     1       6.447  10.416  -8.111  1.00  0.00     0.191 C 
ENDROOT
BRANCH   3   4
HETATM    4  C4  UNL     1       6.309   9.207  -7.240  1.00  0.00     0.271 C 
BRANCH   4   5
HETATM    5  N1  UNL     1       5.029   9.187  -6.561  1.00  0.00    -0.063 N 
ATOM      6  H12 UNL     1       4.326   9.679  -7.111  1.00  0.00     0.278 HD
ATOM      7  H11 UNL     1       4.632   8.248  -6.573  1.00  0.00     0.278 HD
BRANCH   5   8
HETATM    8  C5  UNL     1       5.067   9.696  -5.231  1.00  0.00     0.128 C 
HETATM    9  C6  UNL     1       6.522  10.103  -4.971  1.00  0.00     0.043 C 
HETATM   10  C7  UNL     1       6.698  10.685  -3.609  1.00  0.00    -0.010 C 
HETATM   11  C8  UNL     1       6.286   9.729  -2.514  1.00  0.00     0.009 C 
HETATM   12  C12 UNL     1       5.823  11.921  -3.494  1.00  0.00     0.026 C 
HETATM   13  C9  UNL     1       4.875   9.279  -2.830  1.00  0.00    -0.010 C 
HETATM   14  C10 UNL     1       3.991  10.497  -2.674  1.00  0.00     0.026 C 
HETATM   15  C14 UNL     1       4.746   8.650  -4.186  1.00  0.00     0.043 C 
HETATM   16  C11 UNL     1       4.389  11.502  -3.718  1.00  0.00     0.021 C 
HETATM   17 BR1  UNL     1       3.256  13.056  -3.589  1.00  0.00    -0.085 Br
HETATM   18  C13 UNL     1       4.210  10.900  -5.095  1.00  0.00     0.060 C 
ENDBRANCH   5   8
ENDBRANCH   4   5
ENDBRANCH   3   4
BRANCH   3  19
HETATM   19  N2  UNL     1       6.092  10.173  -9.493  1.00  0.00    -0.332 N 
HETATM   20  C15 UNL     1       7.004  10.355 -10.605  1.00  0.00     0.165 C 
HETATM   21  C16 UNL     1       6.034  10.478 -11.758  1.00  0.00     0.082 C 
HETATM   22  C20 UNL     1       5.043   9.415 -11.426  1.00  0.00     0.142 C 
HETATM   23  C21 UNL     1       4.831   9.712  -9.957  1.00  0.00     0.223 C 
HETATM   24  O2  UNL     1       3.744   9.554  -9.378  1.00  0.00    -0.273 OA
BRANCH  21  25
HETATM   25  O1  UNL     1       5.369  11.705 -11.571  1.00  0.00    -0.388 OA
ATOM     26  H1  UNL     1       4.641  11.701 -12.182  1.00  0.00     0.210 HD
ENDBRANCH  21  25
BRANCH  21  27
HETATM   27  C17 UNL     1       6.632  10.498 -13.089  1.00  0.00     0.040 C 
BRANCH  27  28
HETATM   28  C18 UNL     1       6.229  11.517 -14.077  1.00  0.00    -0.002 C 
HETATM   29  C19 UNL     1       7.050  11.612 -15.328  1.00  0.00     0.005 C 
ENDBRANCH  27  28
ENDBRANCH  21  27
ENDBRANCH   3  19
TORSDOF 7
ENDMDL
MODEL 4
REMARK VINA RESULT: -8.044304882      1.627      2.393
REMARK  7 active torsions:
REMARK  status: ('A' for Active; 'I' for Inactive)
REMARK    1  A    between atoms: C3_3  and  C4_4 
REMARK    2  A    between atoms: C3_3  and  N2_19 
REMARK    3  A    between atoms: C4_4  and  N1_5 
REMARK    4  A    between atoms: N1_5  and  C5_8 
REMARK    5  A    between atoms: C16_21  and  O1_22 
REMARK    6  A    between atoms: C16_21  and  C17_24 
REMARK    7  A    between atoms: C17_24  and  C18_25 
ROOT
HETATM    1  C1  UNL     1       8.609  10.636  -5.369  1.00  0.00     0.014 C 
HETATM    2  C2  UNL     1       7.505  10.502  -5.826  1.00  0.00    -0.090 C 
HETATM    3  C3  UNL     1       6.141  10.347  -6.417  1.00  0.00     0.191 C 
ENDROOT
BRANCH   3   4
HETATM    4  C4  UNL     1       5.433   9.290  -5.628  1.00  0.00     0.271 C 
BRANCH   4   5
HETATM    5  N1  UNL     1       4.322   9.843  -4.882  1.00  0.00    -0.063 N 
ATOM      6  H12 UNL     1       4.133  10.800  -5.178  1.00  0.00     0.278 HD
ATOM      7  H11 UNL     1       3.447   9.400  -5.162  1.00  0.00     0.278 HD
BRANCH   5   8
HETATM    8  C5  UNL     1       4.480   9.782  -3.467  1.00  0.00     0.128 C 
HETATM    9  C6  UNL     1       3.066   9.827  -2.877  1.00  0.00     0.043 C 
HETATM   10  C7  UNL     1       3.086   9.740  -1.388  1.00  0.00    -0.010 C 
HETATM   11  C8  UNL     1       3.883  10.855  -0.754  1.00  0.00     0.009 C 
HETATM   12  C12 UNL     1       3.734   8.426  -0.989  1.00  0.00     0.026 C 
HETATM   13  C9  UNL     1       5.250  10.844  -1.405  1.00  0.00    -0.010 C 
HETATM   14  C10 UNL     1       5.920   9.557  -0.975  1.00  0.00     0.026 C 
HETATM   15  C14 UNL     1       5.195  10.987  -2.897  1.00  0.00     0.043 C 
HETATM   16  C11 UNL     1       5.137   8.408  -1.546  1.00  0.00     0.021 C 
HETATM   17 BR1  UNL     1       5.981   6.743  -1.064  1.00  0.00    -0.085 Br
HETATM   18  C13 UNL     1       5.121   8.508  -3.057  1.00  0.00     0.060 C 
ENDBRANCH   5   8
ENDBRANCH   4   5
ENDBRANCH   3   4
BRANCH   3  19
HETATM   19  N2  UNL     1       6.250  10.036  -7.826  1.00  0.00    -0.332 N 
HETATM   20  C15 UNL     1       5.855  10.942  -8.887  1.00  0.00     0.165 C 
HETATM   21  C16 UNL     1       5.686   9.981 -10.041  1.00  0.00     0.082 C 
HETATM   22  C20 UNL     1       6.868   9.090  -9.860  1.00  0.00     0.142 C 
HETATM   23  C21 UNL     1       6.768   8.831  -8.373  1.00  0.00     0.223 C 
HETATM   24  O2  UNL     1       7.093   7.756  -7.843  1.00  0.00    -0.273 OA
BRANCH  21  25
HETATM   25  O1  UNL     1       4.557   9.199  -9.729  1.00  0.00    -0.388 OA
ATOM     26  H1  UNL     1       4.894   8.351  -9.464  1.00  0.00     0.210 HD
ENDBRANCH  21  25
BRANCH  21  27
HETATM   27  C17 UNL     1       5.454  10.592 -11.346  1.00  0.00     0.040 C 
BRANCH  27  28
HETATM   28  C18 UNL     1       6.495  10.551 -12.390  1.00  0.00    -0.002 C 
HETATM   29  C19 UNL     1       6.230  11.327 -13.644  1.00  0.00     0.005 C 
ENDBRANCH  27  28
ENDBRANCH  21  27
ENDBRANCH   3  19
TORSDOF 7
ENDMDL
MODEL 5
REMARK VINA RESULT: -8.044095976      2.204      3.311
REMARK  7 active torsions:
REMARK  status: ('A' for Active; 'I' for Inactive)
REMARK    1  A    between atoms: C3_3  and  C4_4 
REMARK    2  A    between atoms: C3_3  and  N2_19 
REMARK    3  A    between atoms: C4_4  and  N1_5 
REMARK    4  A    between atoms: N1_5  and  C5_8 
REMARK    5  A    between atoms: C16_21  and  O1_22 
REMARK    6  A    between atoms: C16_21  and  C17_24 
REMARK    7  A    between atoms: C17_24  and  C18_25 
ROOT
HETATM    1  C1  UNL     1       8.823  10.663  -5.504  1.00  0.00     0.014 C 
HETATM    2  C2  UNL     1       7.657  10.640  -5.799  1.00  0.00    -0.090 C 
HETATM    3  C3  UNL     1       6.215  10.621  -6.191  1.00  0.00     0.191 C 
ENDROOT
BRANCH   3   4
HETATM    4  C4  UNL     1       5.508   9.711  -5.236  1.00  0.00     0.271 C 
BRANCH   4   5
HETATM    5  N1  UNL     1       4.117  10.083  -5.082  1.00  0.00    -0.063 N 
ATOM      6  H12 UNL     1       3.771  10.530  -5.931  1.00  0.00     0.278 HD
ATOM      7  H11 UNL     1       3.524   9.253  -5.071  1.00  0.00     0.278 HD
BRANCH   5   8
HETATM    8  C5  UNL     1       3.853  10.901  -3.946  1.00  0.00     0.128 C 
HETATM    9  C6  UNL     1       5.111  10.833  -3.071  1.00  0.00     0.043 C 
HETATM   10  C7  UNL     1       4.979  11.676  -1.848  1.00  0.00    -0.010 C 
HETATM   11  C8  UNL     1       3.801  11.274  -0.991  1.00  0.00     0.009 C 
HETATM   12  C12 UNL     1       4.767  13.117  -2.276  1.00  0.00     0.026 C 
HETATM   13  C9  UNL     1       2.584  11.273  -1.891  1.00  0.00    -0.010 C 
HETATM   14  C10 UNL     1       2.339  12.713  -2.285  1.00  0.00     0.026 C 
HETATM   15  C14 UNL     1       2.730  10.373  -3.082  1.00  0.00     0.043 C 
HETATM   16  C11 UNL     1       3.508  13.178  -3.107  1.00  0.00     0.021 C 
HETATM   17 BR1  UNL     1       3.220  14.998  -3.674  1.00  0.00    -0.085 Br
HETATM   18  C13 UNL     1       3.634  12.313  -4.343  1.00  0.00     0.060 C 
ENDBRANCH   5   8
ENDBRANCH   4   5
ENDBRANCH   3   4
BRANCH   3  19
HETATM   19  N2  UNL     1       6.089  10.215  -7.574  1.00  0.00    -0.332 N 
HETATM   20  C15 UNL     1       5.516  11.049  -8.612  1.00  0.00     0.165 C 
HETATM   21  C16 UNL     1       5.161  10.013  -9.654  1.00  0.00     0.082 C 
HETATM   22  C20 UNL     1       6.362   9.130  -9.613  1.00  0.00     0.142 C 
HETATM   23  C21 UNL     1       6.513   8.972  -8.116  1.00  0.00     0.223 C 
HETATM   24  O2  UNL     1       6.928   7.934  -7.576  1.00  0.00    -0.273 OA
BRANCH  21  25
HETATM   25  O1  UNL     1       4.105   9.262  -9.105  1.00  0.00    -0.388 OA
ATOM     26  H1  UNL     1       4.149   8.408  -9.521  1.00  0.00     0.210 HD
ENDBRANCH  21  25
BRANCH  21  27
HETATM   27  C17 UNL     1       4.710  10.536 -10.940  1.00  0.00     0.040 C 
BRANCH  27  28
HETATM   28  C18 UNL     1       5.546  11.488 -11.697  1.00  0.00    -0.002 C 
HETATM   29  C19 UNL     1       6.324  10.937 -12.853  1.00  0.00     0.005 C 
ENDBRANCH  27  28
ENDBRANCH  21  27
ENDBRANCH   3  19
TORSDOF 7
ENDMDL
