MODEL 1
REMARK VINA RESULT: -6.505952749      0.000      0.000
REMARK  4 active torsions:
REMARK  status: ('A' for Active; 'I' for Inactive)
REMARK    1  A    between atoms: C2_2  and  N1_5 
REMARK       I    between atoms: N1_5  and  C5_7 
REMARK       I    between atoms: C5_7  and  N2_9 
REMARK    2  A    between atoms: N2_9  and  N3_11 
REMARK       I    between atoms: N3_11  and  C6_13 
REMARK    3  A    between atoms: C6_13  and  C7_15 
REMARK       I    between atoms: C7_15  and  N4_17 
REMARK    4  A    between atoms: N4_17  and  C8_19 
ROOT
HETATM    1  N3  UNL     1     -19.551  10.229  33.261  1.00  0.00    -0.258 N 
ATOM      2  H3  UNL     1     -19.818   9.248  33.349  1.00  0.00     0.190 HD
HETATM    3  C6  UNL     1     -18.236  10.587  32.880  1.00  0.00     0.327 C 
HETATM    4  O2  UNL     1     -17.947  11.802  32.783  1.00  0.00    -0.261 OA
ENDROOT
BRANCH   1   5
HETATM    5  N2  UNL     1     -20.472  11.239  33.515  1.00  0.00    -0.249 N 
HETATM    6  C5  UNL     1     -21.375  11.169  34.595  1.00  0.00     0.335 C 
HETATM    7  N1  UNL     1     -22.292  12.228  34.805  1.00  0.00    -0.334 N 
HETATM    8  O1  UNL     1     -21.330  10.157  35.340  1.00  0.00    -0.246 OA
ATOM      9  H1  UNL     1     -22.297  13.032  34.178  1.00  0.00     0.165 HD
ATOM     10  H2  UNL     1     -20.495  12.054  32.900  1.00  0.00     0.192 HD
BRANCH   7  11
HETATM   11  C2  UNL     1     -23.228  12.165  35.916  1.00  0.00     0.023 C 
HETATM   12  C1  UNL     1     -23.922  13.506  36.039  1.00  0.00     0.037 C 
HETATM   13  C3  UNL     1     -22.566  11.847  37.213  1.00  0.00     0.037 C 
HETATM   14  C4  UNL     1     -24.254  11.093  35.617  1.00  0.00     0.037 C 
ENDBRANCH   7  11
ENDBRANCH   1   5
BRANCH   3  15
HETATM   15  C7  UNL     1     -17.233   9.580  32.601  1.00  0.00     0.311 C 
HETATM   16  O3  UNL     1     -16.047   9.787  32.924  1.00  0.00    -0.262 OA
HETATM   17  N4  UNL     1     -17.599   8.381  31.970  1.00  0.00    -0.348 N 
ATOM     18  H4  UNL     1     -18.568   8.205  31.702  1.00  0.00     0.163 HD
BRANCH  17  19
HETATM   19  C8  UNL     1     -16.560   7.392  31.706  1.00  0.00     0.085 A 
HETATM   20  C9  UNL     1     -17.000   5.935  31.991  1.00  0.00     0.027 A 
HETATM   21  C10 UNL     1     -16.709   6.445  30.572  1.00  0.00     0.027 A 
ENDBRANCH  17  19
ENDBRANCH   3  15
TORSDOF 4
ENDMDL
MODEL 2
REMARK VINA RESULT: -6.495266287      5.308      5.983
REMARK  4 active torsions:
REMARK  status: ('A' for Active; 'I' for Inactive)
REMARK    1  A    between atoms: C2_2  and  N1_5 
REMARK       I    between atoms: N1_5  and  C5_7 
REMARK       I    between atoms: C5_7  and  N2_9 
REMARK    2  A    between atoms: N2_9  and  N3_11 
REMARK       I    between atoms: N3_11  and  C6_13 
REMARK    3  A    between atoms: C6_13  and  C7_15 
REMARK       I    between atoms: C7_15  and  N4_17 
REMARK    4  A    between atoms: N4_17  and  C8_19 
ROOT
HETATM    1  N3  UNL     1     -16.271  11.977  33.020  1.00  0.00    -0.258 N 
ATOM      2  H3  UNL     1     -16.287  11.270  33.756  1.00  0.00     0.190 HD
HETATM    3  C6  UNL     1     -15.954  11.622  31.687  1.00  0.00     0.327 C 
HETATM    4  O2  UNL     1     -15.946  12.518  30.811  1.00  0.00    -0.261 OA
ENDROOT
BRANCH   1   5
HETATM    5  N2  UNL     1     -16.562  13.305  33.307  1.00  0.00    -0.249 N 
HETATM    6  C5  UNL     1     -15.646  14.139  33.981  1.00  0.00     0.335 C 
HETATM    7  N1  UNL     1     -15.996  15.485  34.248  1.00  0.00    -0.334 N 
HETATM    8  O1  UNL     1     -14.540  13.648  34.323  1.00  0.00    -0.246 OA
ATOM      9  H1  UNL     1     -16.903  15.845  33.953  1.00  0.00     0.165 HD
ATOM     10  H2  UNL     1     -17.464  13.688  33.022  1.00  0.00     0.192 HD
BRANCH   7  11
HETATM   11  C2  UNL     1     -15.059  16.352  34.942  1.00  0.00     0.023 C 
HETATM   12  C1  UNL     1     -15.402  17.792  34.619  1.00  0.00     0.037 C 
HETATM   13  C3  UNL     1     -13.641  16.099  34.557  1.00  0.00     0.037 C 
HETATM   14  C4  UNL     1     -15.207  16.122  36.431  1.00  0.00     0.037 C 
ENDBRANCH   7  11
ENDBRANCH   1   5
BRANCH   3  15
HETATM   15  C7  UNL     1     -15.645  10.254  31.326  1.00  0.00     0.311 C 
HETATM   16  O3  UNL     1     -14.744  10.027  30.494  1.00  0.00    -0.262 OA
HETATM   17  N4  UNL     1     -16.358   9.195  31.910  1.00  0.00    -0.348 N 
ATOM     18  H4  UNL     1     -17.096   9.374  32.591  1.00  0.00     0.163 HD
BRANCH  17  19
HETATM   19  C8  UNL     1     -16.016   7.832  31.520  1.00  0.00     0.085 A 
HETATM   20  C9  UNL     1     -17.010   6.767  32.045  1.00  0.00     0.027 A 
HETATM   21  C10 UNL     1     -16.875   7.101  30.553  1.00  0.00     0.027 A 
ENDBRANCH  17  19
ENDBRANCH   3  15
TORSDOF 4
ENDMDL
MODEL 3
REMARK VINA RESULT: -6.421691022      5.321      6.031
REMARK  4 active torsions:
REMARK  status: ('A' for Active; 'I' for Inactive)
REMARK    1  A    between atoms: C2_2  and  N1_5 
REMARK       I    between atoms: N1_5  and  C5_7 
REMARK       I    between atoms: C5_7  and  N2_9 
REMARK    2  A    between atoms: N2_9  and  N3_11 
REMARK       I    between atoms: N3_11  and  C6_13 
REMARK    3  A    between atoms: C6_13  and  C7_15 
REMARK       I    between atoms: C7_15  and  N4_17 
REMARK    4  A    between atoms: N4_17  and  C8_19 
ROOT
HETATM    1  N3  UNL     1     -16.235  12.017  33.015  1.00  0.00    -0.258 N 
ATOM      2  H3  UNL     1     -16.238  11.317  33.758  1.00  0.00     0.190 HD
HETATM    3  C6  UNL     1     -15.936  11.650  31.682  1.00  0.00     0.327 C 
HETATM    4  O2  UNL     1     -15.942  12.538  30.798  1.00  0.00    -0.261 OA
ENDROOT
BRANCH   1   5
HETATM    5  N2  UNL     1     -16.524  13.347  33.294  1.00  0.00    -0.249 N 
HETATM    6  C5  UNL     1     -15.629  14.170  34.009  1.00  0.00     0.335 C 
HETATM    7  N1  UNL     1     -15.976  15.519  34.265  1.00  0.00    -0.334 N 
HETATM    8  O1  UNL     1     -14.543  13.667  34.395  1.00  0.00    -0.246 OA
ATOM      9  H1  UNL     1     -16.867  15.889  33.933  1.00  0.00     0.165 HD
ATOM     10  H2  UNL     1     -17.410  13.740  32.973  1.00  0.00     0.192 HD
BRANCH   7  11
HETATM   11  C2  UNL     1     -15.060  16.375  35.001  1.00  0.00     0.023 C 
HETATM   12  C1  UNL     1     -13.649  16.095  34.525  1.00  0.00     0.037 C 
HETATM   13  C3  UNL     1     -15.122  16.156  36.474  1.00  0.00     0.037 C 
HETATM   14  C4  UNL     1     -15.413  17.817  34.707  1.00  0.00     0.037 C 
ENDBRANCH   7  11
ENDBRANCH   1   5
BRANCH   3  15
HETATM   15  C7  UNL     1     -15.629  10.279  31.329  1.00  0.00     0.311 C 
HETATM   16  O3  UNL     1     -14.728  10.045  30.500  1.00  0.00    -0.262 OA
HETATM   17  N4  UNL     1     -16.345   9.226  31.918  1.00  0.00    -0.348 N 
ATOM     18  H4  UNL     1     -17.084   9.410  32.596  1.00  0.00     0.163 HD
BRANCH  17  19
HETATM   19  C8  UNL     1     -16.006   7.860  31.536  1.00  0.00     0.085 A 
HETATM   20  C9  UNL     1     -17.013   6.802  32.052  1.00  0.00     0.027 A 
HETATM   21  C10 UNL     1     -16.857   7.131  30.560  1.00  0.00     0.027 A 
ENDBRANCH  17  19
ENDBRANCH   3  15
TORSDOF 4
ENDMDL
MODEL 4
REMARK VINA RESULT: -6.377163527      0.726      1.279
REMARK  4 active torsions:
REMARK  status: ('A' for Active; 'I' for Inactive)
REMARK    1  A    between atoms: C2_2  and  N1_5 
REMARK       I    between atoms: N1_5  and  C5_7 
REMARK       I    between atoms: C5_7  and  N2_9 
REMARK    2  A    between atoms: N2_9  and  N3_11 
REMARK       I    between atoms: N3_11  and  C6_13 
REMARK    3  A    between atoms: C6_13  and  C7_15 
REMARK       I    between atoms: C7_15  and  N4_17 
REMARK    4  A    between atoms: N4_17  and  C8_19 
ROOT
HETATM    1  N3  UNL     1     -18.724  10.770  34.306  1.00  0.00    -0.258 N 
ATOM      2  H3  UNL     1     -18.612   9.979  34.941  1.00  0.00     0.190 HD
HETATM    3  C6  UNL     1     -17.983  10.838  33.102  1.00  0.00     0.327 C 
HETATM    4  O2  UNL     1     -18.149  11.826  32.348  1.00  0.00    -0.261 OA
ENDROOT
BRANCH   1   5
HETATM    5  N2  UNL     1     -19.608  11.799  34.606  1.00  0.00    -0.249 N 
HETATM    6  C5  UNL     1     -20.956  11.550  34.940  1.00  0.00     0.335 C 
HETATM    7  N1  UNL     1     -21.812  12.638  35.236  1.00  0.00    -0.334 N 
HETATM    8  O1  UNL     1     -21.349  10.355  34.961  1.00  0.00    -0.246 OA
ATOM      9  H1  UNL     1     -21.454  13.593  35.208  1.00  0.00     0.165 HD
ATOM     10  H2  UNL     1     -19.273  12.763  34.584  1.00  0.00     0.192 HD
BRANCH   7  11
HETATM   11  C2  UNL     1     -23.203  12.392  35.581  1.00  0.00     0.023 C 
HETATM   12  C1  UNL     1     -23.247  11.558  36.845  1.00  0.00     0.037 C 
HETATM   13  C3  UNL     1     -23.946  11.673  34.507  1.00  0.00     0.037 C 
HETATM   14  C4  UNL     1     -23.877  13.724  35.832  1.00  0.00     0.037 C 
ENDBRANCH   7  11
ENDBRANCH   1   5
BRANCH   3  15
HETATM   15  C7  UNL     1     -17.048   9.796  32.734  1.00  0.00     0.311 C 
HETATM   16  O3  UNL     1     -15.832   9.954  32.956  1.00  0.00    -0.262 OA
HETATM   17  N4  UNL     1     -17.513   8.617  32.130  1.00  0.00    -0.348 N 
ATOM     18  H4  UNL     1     -18.507   8.482  31.945  1.00  0.00     0.163 HD
BRANCH  17  19
HETATM   19  C8  UNL     1     -16.540   7.592  31.773  1.00  0.00     0.085 A 
HETATM   20  C9  UNL     1     -17.046   6.147  32.006  1.00  0.00     0.027 A 
HETATM   21  C10 UNL     1     -16.786   6.711  30.602  1.00  0.00     0.027 A 
ENDBRANCH  17  19
ENDBRANCH   3  15
TORSDOF 4
ENDMDL
MODEL 5
REMARK VINA RESULT: -6.255720701      3.456      3.976
REMARK  4 active torsions:
REMARK  status: ('A' for Active; 'I' for Inactive)
REMARK    1  A    between atoms: C2_2  and  N1_5 
REMARK       I    between atoms: N1_5  and  C5_7 
REMARK       I    between atoms: C5_7  and  N2_9 
REMARK    2  A    between atoms: N2_9  and  N3_11 
REMARK       I    between atoms: N3_11  and  C6_13 
REMARK    3  A    between atoms: C6_13  and  C7_15 
REMARK       I    between atoms: C7_15  and  N4_17 
REMARK    4  A    between atoms: N4_17  and  C8_19 
ROOT
HETATM    1  N3  UNL     1     -16.889  12.041  32.414  1.00  0.00    -0.258 N 
ATOM      2  H3  UNL     1     -17.179  11.373  33.128  1.00  0.00     0.190 HD
HETATM    3  C6  UNL     1     -16.115  11.621  31.306  1.00  0.00     0.327 C 
HETATM    4  O2  UNL     1     -15.779  12.472  30.450  1.00  0.00    -0.261 OA
ENDROOT
BRANCH   1   5
HETATM    5  N2  UNL     1     -17.249  13.380  32.510  1.00  0.00    -0.249 N 
HETATM    6  C5  UNL     1     -18.058  13.861  33.560  1.00  0.00     0.335 C 
HETATM    7  N1  UNL     1     -18.393  15.236  33.607  1.00  0.00    -0.334 N 
HETATM    8  O1  UNL     1     -18.456  13.038  34.424  1.00  0.00    -0.246 OA
ATOM      9  H1  UNL     1     -18.050  15.871  32.886  1.00  0.00     0.165 HD
ATOM     10  H2  UNL     1     -16.917  14.034  31.800  1.00  0.00     0.192 HD
BRANCH   7  11
HETATM   11  C2  UNL     1     -19.228  15.741  34.685  1.00  0.00     0.023 C 
HETATM   12  C1  UNL     1     -18.424  15.719  35.969  1.00  0.00     0.037 C 
HETATM   13  C3  UNL     1     -20.468  14.937  34.882  1.00  0.00     0.037 C 
HETATM   14  C4  UNL     1     -19.619  17.167  34.359  1.00  0.00     0.037 C 
ENDBRANCH   7  11
ENDBRANCH   1   5
BRANCH   3  15
HETATM   15  C7  UNL     1     -15.711  10.239  31.150  1.00  0.00     0.311 C 
HETATM   16  O3  UNL     1     -14.642   9.973  30.568  1.00  0.00    -0.262 OA
HETATM   17  N4  UNL     1     -16.523   9.210  31.652  1.00  0.00    -0.348 N 
ATOM     18  H4  UNL     1     -17.400   9.421  32.130  1.00  0.00     0.163 HD
BRANCH  17  19
HETATM   19  C8  UNL     1     -16.082   7.832  31.475  1.00  0.00     0.085 A 
HETATM   20  C9  UNL     1     -17.035   6.788  32.108  1.00  0.00     0.027 A 
HETATM   21  C10 UNL     1     -16.848   6.917  30.590  1.00  0.00     0.027 A 
ENDBRANCH  17  19
ENDBRANCH   3  15
TORSDOF 4
ENDMDL
