MODEL 1
REMARK VINA RESULT: -6.443463262      0.000      0.000
REMARK  3 active torsions:
REMARK  status: ('A' for Active; 'I' for Inactive)
REMARK       I    between atoms: C1_2  and  N2_4 
REMARK    1  A    between atoms: N2_4  and  N3_6 
REMARK       I    between atoms: N3_6  and  C2_8 
REMARK    2  A    between atoms: C2_8  and  C3_10 
REMARK       I    between atoms: C3_10  and  N4_12 
REMARK    3  A    between atoms: N4_12  and  C4_14 
ROOT
HETATM    1  C3  UNL     1     -17.066  12.015  34.442  1.00  0.00     0.311 C 
HETATM    2  O3  UNL     1     -17.749  12.249  35.455  1.00  0.00    -0.262 OA
HETATM    3  N4  UNL     1     -16.001  12.868  34.110  1.00  0.00    -0.348 N 
ATOM      4  H4  UNL     1     -15.459  12.656  33.273  1.00  0.00     0.163 HD
ENDROOT
BRANCH   1   5
HETATM    5  C2  UNL     1     -17.362  10.867  33.594  1.00  0.00     0.327 C 
HETATM    6  N3  UNL     1     -16.571   9.698  33.621  1.00  0.00    -0.258 N 
ATOM      7  H3  UNL     1     -15.767   9.638  34.247  1.00  0.00     0.190 HD
HETATM    8  O2  UNL     1     -18.358  10.905  32.801  1.00  0.00    -0.261 OA
BRANCH   6   9
HETATM    9  N2  UNL     1     -16.891   8.628  32.794  1.00  0.00    -0.251 N 
HETATM   10  C1  UNL     1     -16.202   8.378  31.578  1.00  0.00     0.347 C 
HETATM   11  N1  UNL     1     -16.600   7.258  30.797  1.00  0.00    -0.038 NA
HETATM   12  O1  UNL     1     -15.271   9.113  31.196  1.00  0.00    -0.249 OA
ATOM     13  H2  UNL     1     -17.647   8.001  33.069  1.00  0.00     0.191 HD
ENDBRANCH   6   9
ENDBRANCH   1   5
BRANCH   3  14
HETATM   14  C4  UNL     1     -15.626  14.034  34.888  1.00  0.00     0.084 C 
HETATM   15  C5  UNL     1     -14.154  14.028  35.065  1.00  0.00     0.025 C 
HETATM   16  C6  UNL     1     -13.477  15.186  34.381  1.00  0.00     0.002 C 
HETATM   17  C7  UNL     1     -14.065  16.444  34.986  1.00  0.00     0.000 C 
HETATM   18  C8  UNL     1     -15.543  16.551  34.752  1.00  0.00     0.002 C 
HETATM   19  C9  UNL     1     -16.193  15.287  34.300  1.00  0.00     0.025 C 
ENDBRANCH   3  14
TORSDOF 3
ENDMDL
MODEL 2
REMARK VINA RESULT: -6.328837903      1.826      2.582
REMARK  3 active torsions:
REMARK  status: ('A' for Active; 'I' for Inactive)
REMARK       I    between atoms: C1_2  and  N2_4 
REMARK    1  A    between atoms: N2_4  and  N3_6 
REMARK       I    between atoms: N3_6  and  C2_8 
REMARK    2  A    between atoms: C2_8  and  C3_10 
REMARK       I    between atoms: C3_10  and  N4_12 
REMARK    3  A    between atoms: N4_12  and  C4_14 
ROOT
HETATM    1  C3  UNL     1     -16.807  12.468  32.544  1.00  0.00     0.311 C 
HETATM    2  O3  UNL     1     -16.639  13.017  31.440  1.00  0.00    -0.262 OA
HETATM    3  N4  UNL     1     -17.084  13.253  33.675  1.00  0.00    -0.348 N 
ATOM      4  H4  UNL     1     -17.215  12.778  34.568  1.00  0.00     0.163 HD
ENDROOT
BRANCH   1   5
HETATM    5  C2  UNL     1     -16.715  11.020  32.675  1.00  0.00     0.327 C 
HETATM    6  N3  UNL     1     -17.631  10.155  32.038  1.00  0.00    -0.258 N 
ATOM      7  H3  UNL     1     -18.382  10.538  31.465  1.00  0.00     0.190 HD
HETATM    8  O2  UNL     1     -15.789  10.505  33.383  1.00  0.00    -0.261 OA
BRANCH   6   9
HETATM    9  N2  UNL     1     -17.505   8.779  32.193  1.00  0.00    -0.251 N 
HETATM   10  C1  UNL     1     -16.744   7.981  31.300  1.00  0.00     0.347 C 
HETATM   11  N1  UNL     1     -16.674   6.582  31.540  1.00  0.00    -0.038 NA
HETATM   12  O1  UNL     1     -16.150   8.484  30.326  1.00  0.00    -0.249 OA
ATOM     13  H2  UNL     1     -17.976   8.327  32.978  1.00  0.00     0.191 HD
ENDBRANCH   6   9
ENDBRANCH   1   5
BRANCH   3  14
HETATM   14  C4  UNL     1     -17.197  14.699  33.650  1.00  0.00     0.084 C 
HETATM   15  C5  UNL     1     -18.548  15.074  34.132  1.00  0.00     0.025 C 
HETATM   16  C6  UNL     1     -18.515  15.841  35.427  1.00  0.00     0.002 C 
HETATM   17  C7  UNL     1     -17.694  17.088  35.166  1.00  0.00     0.000 C 
HETATM   18  C8  UNL     1     -16.284  16.767  34.767  1.00  0.00     0.002 C 
HETATM   19  C9  UNL     1     -16.059  15.347  34.371  1.00  0.00     0.025 C 
ENDBRANCH   3  14
TORSDOF 3
ENDMDL
MODEL 3
REMARK VINA RESULT: -6.302444984      2.207      2.818
REMARK  3 active torsions:
REMARK  status: ('A' for Active; 'I' for Inactive)
REMARK       I    between atoms: C1_2  and  N2_4 
REMARK    1  A    between atoms: N2_4  and  N3_6 
REMARK       I    between atoms: N3_6  and  C2_8 
REMARK    2  A    between atoms: C2_8  and  C3_10 
REMARK       I    between atoms: C3_10  and  N4_12 
REMARK    3  A    between atoms: N4_12  and  C4_14 
ROOT
HETATM    1  C3  UNL     1     -15.585  11.779  31.717  1.00  0.00     0.311 C 
HETATM    2  O3  UNL     1     -16.048  12.744  31.083  1.00  0.00    -0.262 OA
HETATM    3  N4  UNL     1     -15.059  11.982  33.003  1.00  0.00    -0.348 N 
ATOM      4  H4  UNL     1     -14.683  11.174  33.501  1.00  0.00     0.163 HD
ENDROOT
BRANCH   1   5
HETATM    5  C2  UNL     1     -15.581  10.442  31.139  1.00  0.00     0.327 C 
HETATM    6  N3  UNL     1     -16.734   9.627  31.138  1.00  0.00    -0.258 N 
ATOM      7  H3  UNL     1     -17.603   9.969  31.548  1.00  0.00     0.190 HD
HETATM    8  O2  UNL     1     -14.514   9.981  30.616  1.00  0.00    -0.261 OA
BRANCH   6   9
HETATM    9  N2  UNL     1     -16.682   8.357  30.575  1.00  0.00    -0.251 N 
HETATM   10  C1  UNL     1     -16.744   7.176  31.360  1.00  0.00     0.347 C 
HETATM   11  N1  UNL     1     -16.684   5.921  30.694  1.00  0.00    -0.038 NA
HETATM   12  O1  UNL     1     -16.850   7.226  32.601  1.00  0.00    -0.249 OA
ATOM     13  H2  UNL     1     -16.596   8.271  29.562  1.00  0.00     0.191 HD
ENDBRANCH   6   9
ENDBRANCH   1   5
BRANCH   3  14
HETATM   14  C4  UNL     1     -15.018  13.271  33.668  1.00  0.00     0.084 C 
HETATM   15  C5  UNL     1     -16.101  13.314  34.679  1.00  0.00     0.025 C 
HETATM   16  C6  UNL     1     -15.583  13.402  36.089  1.00  0.00     0.002 C 
HETATM   17  C7  UNL     1     -14.755  14.669  36.163  1.00  0.00     0.000 C 
HETATM   18  C8  UNL     1     -13.584  14.640  35.227  1.00  0.00     0.002 C 
HETATM   19  C9  UNL     1     -13.648  13.572  34.187  1.00  0.00     0.025 C 
ENDBRANCH   3  14
TORSDOF 3
ENDMDL
MODEL 4
REMARK VINA RESULT: -6.015249530      3.265      4.095
REMARK  3 active torsions:
REMARK  status: ('A' for Active; 'I' for Inactive)
REMARK       I    between atoms: C1_2  and  N2_4 
REMARK    1  A    between atoms: N2_4  and  N3_6 
REMARK       I    between atoms: N3_6  and  C2_8 
REMARK    2  A    between atoms: C2_8  and  C3_10 
REMARK       I    between atoms: C3_10  and  N4_12 
REMARK    3  A    between atoms: N4_12  and  C4_14 
ROOT
HETATM    1  C3  UNL     1     -17.312  13.969  33.822  1.00  0.00     0.311 C 
HETATM    2  O3  UNL     1     -16.962  13.756  34.997  1.00  0.00    -0.262 OA
HETATM    3  N4  UNL     1     -18.310  14.920  33.556  1.00  0.00    -0.348 N 
ATOM      4  H4  UNL     1     -18.580  15.073  32.585  1.00  0.00     0.163 HD
ENDROOT
BRANCH   1   5
HETATM    5  C2  UNL     1     -16.698  13.240  32.720  1.00  0.00     0.327 C 
HETATM    6  N3  UNL     1     -15.549  12.441  32.903  1.00  0.00    -0.258 N 
ATOM      7  H3  UNL     1     -15.125  12.359  33.827  1.00  0.00     0.190 HD
HETATM    8  O2  UNL     1     -17.201  13.317  31.551  1.00  0.00    -0.261 OA
BRANCH   6   9
HETATM    9  N2  UNL     1     -14.998  11.765  31.821  1.00  0.00    -0.251 N 
HETATM   10  C1  UNL     1     -15.212  10.379  31.603  1.00  0.00     0.347 C 
HETATM   11  N1  UNL     1     -14.606   9.774  30.468  1.00  0.00    -0.038 NA
HETATM   12  O1  UNL     1     -15.911   9.700  32.380  1.00  0.00    -0.249 OA
ATOM     13  H2  UNL     1     -14.418  12.283  31.160  1.00  0.00     0.191 HD
ENDBRANCH   6   9
ENDBRANCH   1   5
BRANCH   3  14
HETATM   14  C4  UNL     1     -18.981  15.698  34.581  1.00  0.00     0.084 C 
HETATM   15  C5  UNL     1     -18.710  17.134  34.334  1.00  0.00     0.025 C 
HETATM   16  C6  UNL     1     -19.950  17.912  33.980  1.00  0.00     0.002 C 
HETATM   17  C7  UNL     1     -20.901  17.757  35.149  1.00  0.00     0.000 C 
HETATM   18  C8  UNL     1     -21.287  16.327  35.384  1.00  0.00     0.002 C 
HETATM   19  C9  UNL     1     -20.427  15.330  34.685  1.00  0.00     0.025 C 
ENDBRANCH   3  14
TORSDOF 3
ENDMDL
MODEL 5
REMARK VINA RESULT: -5.964699568      1.452      1.452
REMARK  3 active torsions:
REMARK  status: ('A' for Active; 'I' for Inactive)
REMARK       I    between atoms: C1_2  and  N2_4 
REMARK    1  A    between atoms: N2_4  and  N3_6 
REMARK       I    between atoms: N3_6  and  C2_8 
REMARK    2  A    between atoms: C2_8  and  C3_10 
REMARK       I    between atoms: C3_10  and  N4_12 
REMARK    3  A    between atoms: N4_12  and  C4_14 
ROOT
HETATM    1  C3  UNL     1     -16.146  12.702  33.645  1.00  0.00     0.311 C 
HETATM    2  O3  UNL     1     -16.140  13.553  32.738  1.00  0.00    -0.262 OA
HETATM    3  N4  UNL     1     -15.982  13.108  34.980  1.00  0.00    -0.348 N 
ATOM      4  H4  UNL     1     -15.988  12.389  35.704  1.00  0.00     0.163 HD
ENDROOT
BRANCH   1   5
HETATM    5  C2  UNL     1     -16.320  11.288  33.338  1.00  0.00     0.327 C 
HETATM    6  N3  UNL     1     -16.970  10.856  32.162  1.00  0.00    -0.258 N 
ATOM      7  H3  UNL     1     -17.333  11.540  31.497  1.00  0.00     0.190 HD
HETATM    8  O2  UNL     1     -15.879  10.405  34.144  1.00  0.00    -0.261 OA
BRANCH   6   9
HETATM    9  N2  UNL     1     -17.114   9.496  31.911  1.00  0.00    -0.251 N 
HETATM   10  C1  UNL     1     -16.226   8.782  31.065  1.00  0.00     0.347 C 
HETATM   11  N1  UNL     1     -16.454   7.393  30.869  1.00  0.00    -0.038 NA
HETATM   12  O1  UNL     1     -15.268   9.349  30.504  1.00  0.00    -0.249 OA
ATOM     13  H2  UNL     1     -17.886   8.994  32.351  1.00  0.00     0.191 HD
ENDBRANCH   6   9
ENDBRANCH   1   5
BRANCH   3  14
HETATM   14  C4  UNL     1     -15.803  14.488  35.390  1.00  0.00     0.084 C 
HETATM   15  C5  UNL     1     -14.351  14.783  35.429  1.00  0.00     0.025 C 
HETATM   16  C6  UNL     1     -13.934  15.810  34.410  1.00  0.00     0.002 C 
HETATM   17  C7  UNL     1     -14.727  17.064  34.717  1.00  0.00     0.000 C 
HETATM   18  C8  UNL     1     -16.206  16.847  34.596  1.00  0.00     0.002 C 
HETATM   19  C9  UNL     1     -16.621  15.416  34.549  1.00  0.00     0.025 C 
ENDBRANCH   3  14
TORSDOF 3
ENDMDL
