MODEL 1
REMARK VINA RESULT: -6.789806278      0.000      0.000
REMARK  4 active torsions:
REMARK  status: ('A' for Active; 'I' for Inactive)
REMARK    1  A    between atoms: C3_3  and  N1_4 
REMARK    2  A    between atoms: C3_3  and  C4_8 
REMARK       I    between atoms: C4_8  and  N2_10 
REMARK    3  A    between atoms: N2_10  and  N3_12 
REMARK       I    between atoms: N3_12  and  C5_14 
REMARK       I    between atoms: C5_14  and  N4_16 
REMARK    4  A    between atoms: N4_16  and  C6_18 
ROOT
HETATM    1  C1  UNL     1     -16.813   6.604  31.732  1.00  0.00     0.015 C 
HETATM    2  C2  UNL     1     -16.353   7.699  31.504  1.00  0.00    -0.075 C 
HETATM    3  C3  UNL     1     -15.809   9.045  31.244  1.00  0.00     0.353 C 
ENDROOT
BRANCH   3   4
HETATM    4  N1  UNL     1     -16.317   9.465  29.961  1.00  0.00    -0.056 N 
ATOM      5  H13 UNL     1     -16.531  10.461  29.922  1.00  0.00     0.276 HD
ATOM      6  H12 UNL     1     -15.609   9.453  29.227  1.00  0.00     0.276 HD
ATOM      7  H11 UNL     1     -17.122   8.874  29.751  1.00  0.00     0.276 HD
ENDBRANCH   3   4
BRANCH   3   8
HETATM    8  C4  UNL     1     -16.332   9.984  32.281  1.00  0.00     0.278 C 
HETATM    9  O1  UNL     1     -15.724  10.088  33.355  1.00  0.00    -0.268 OA
HETATM   10  N2  UNL     1     -17.514  10.712  31.979  1.00  0.00    -0.264 N 
ATOM     11  H2  UNL     1     -17.983  10.598  31.080  1.00  0.00     0.190 HD
BRANCH  10  12
HETATM   12  N3  UNL     1     -18.016  11.584  32.942  1.00  0.00    -0.249 N 
HETATM   13  C5  UNL     1     -17.780  12.975  32.841  1.00  0.00     0.335 C 
HETATM   14  O2  UNL     1     -17.120  13.466  31.861  1.00  0.00    -0.246 OA
HETATM   15  N4  UNL     1     -18.274  13.857  33.836  1.00  0.00    -0.337 N 
ATOM     16  H4  UNL     1     -18.797  13.505  34.638  1.00  0.00     0.164 HD
ATOM     17  H3  UNL     1     -18.557  11.218  33.725  1.00  0.00     0.192 HD
BRANCH  15  18
HETATM   18  C6  UNL     1     -18.014  15.276  33.678  1.00  0.00     0.086 C 
HETATM   19  C7  UNL     1     -16.770  15.574  34.486  1.00  0.00     0.025 C 
HETATM   20  C8  UNL     1     -16.524  17.028  34.684  1.00  0.00     0.002 C 
HETATM   21  C9  UNL     1     -17.783  17.866  34.730  1.00  0.00     0.000 C 
HETATM   22  C10 UNL     1     -18.890  16.990  35.281  1.00  0.00     0.002 C 
HETATM   23  C11 UNL     1     -19.226  15.993  34.197  1.00  0.00     0.025 C 
ENDBRANCH  15  18
ENDBRANCH  10  12
ENDBRANCH   3   8
TORSDOF 4
ENDMDL
MODEL 2
REMARK VINA RESULT: -6.632288356      4.103      4.819
REMARK  4 active torsions:
REMARK  status: ('A' for Active; 'I' for Inactive)
REMARK    1  A    between atoms: C3_3  and  N1_4 
REMARK    2  A    between atoms: C3_3  and  C4_8 
REMARK       I    between atoms: C4_8  and  N2_10 
REMARK    3  A    between atoms: N2_10  and  N3_12 
REMARK       I    between atoms: N3_12  and  C5_14 
REMARK       I    between atoms: C5_14  and  N4_16 
REMARK    4  A    between atoms: N4_16  and  C6_18 
ROOT
HETATM    1  C1  UNL     1     -16.791   6.923  31.537  1.00  0.00     0.015 C 
HETATM    2  C2  UNL     1     -16.404   8.060  31.674  1.00  0.00    -0.075 C 
HETATM    3  C3  UNL     1     -15.950   9.451  31.862  1.00  0.00     0.353 C 
ENDROOT
BRANCH   3   4
HETATM    4  N1  UNL     1     -16.427  10.207  30.731  1.00  0.00    -0.056 N 
ATOM      5  H13 UNL     1     -16.068   9.864  29.840  1.00  0.00     0.276 HD
ATOM      6  H12 UNL     1     -17.418  10.058  30.539  1.00  0.00     0.276 HD
ATOM      7  H11 UNL     1     -16.196  11.185  30.906  1.00  0.00     0.276 HD
ENDBRANCH   3   4
BRANCH   3   8
HETATM    8  C4  UNL     1     -16.589  10.004  33.094  1.00  0.00     0.278 C 
HETATM    9  O1  UNL     1     -15.866  10.360  34.034  1.00  0.00    -0.268 OA
HETATM   10  N2  UNL     1     -18.007  10.089  33.122  1.00  0.00    -0.264 N 
ATOM     11  H2  UNL     1     -18.565   9.787  32.324  1.00  0.00     0.190 HD
BRANCH  10  12
HETATM   12  N3  UNL     1     -18.614  10.595  34.270  1.00  0.00    -0.249 N 
HETATM   13  C5  UNL     1     -20.023  10.652  34.368  1.00  0.00     0.335 C 
HETATM   14  O2  UNL     1     -20.772  10.226  33.422  1.00  0.00    -0.246 OA
HETATM   15  N4  UNL     1     -20.637  11.188  35.529  1.00  0.00    -0.337 N 
ATOM     16  H4  UNL     1     -20.076  11.546  36.303  1.00  0.00     0.164 HD
ATOM     17  H3  UNL     1     -18.039  10.927  35.044  1.00  0.00     0.192 HD
BRANCH  15  18
HETATM   18  C6  UNL     1     -22.087  11.212  35.585  1.00  0.00     0.086 C 
HETATM   19  C7  UNL     1     -22.502  12.635  35.286  1.00  0.00     0.025 C 
HETATM   20  C8  UNL     1     -23.931  12.915  35.591  1.00  0.00     0.002 C 
HETATM   21  C9  UNL     1     -24.491  12.093  36.731  1.00  0.00     0.000 C 
HETATM   22  C10 UNL     1     -23.344  11.787  37.673  1.00  0.00     0.002 C 
HETATM   23  C11 UNL     1     -22.469  10.777  36.969  1.00  0.00     0.025 C 
ENDBRANCH  15  18
ENDBRANCH  10  12
ENDBRANCH   3   8
TORSDOF 4
ENDMDL
MODEL 3
REMARK VINA RESULT: -6.631216365      1.872      2.311
REMARK  4 active torsions:
REMARK  status: ('A' for Active; 'I' for Inactive)
REMARK    1  A    between atoms: C3_3  and  N1_4 
REMARK    2  A    between atoms: C3_3  and  C4_8 
REMARK       I    between atoms: C4_8  and  N2_10 
REMARK    3  A    between atoms: N2_10  and  N3_12 
REMARK       I    between atoms: N3_12  and  C5_14 
REMARK       I    between atoms: C5_14  and  N4_16 
REMARK    4  A    between atoms: N4_16  and  C6_18 
ROOT
HETATM    1  C1  UNL     1     -16.846   6.650  31.687  1.00  0.00     0.015 C 
HETATM    2  C2  UNL     1     -16.332   7.732  31.522  1.00  0.00    -0.075 C 
HETATM    3  C3  UNL     1     -15.721   9.063  31.340  1.00  0.00     0.353 C 
ENDROOT
BRANCH   3   4
HETATM    4  N1  UNL     1     -16.238   9.599  30.106  1.00  0.00    -0.056 N 
ATOM      5  H13 UNL     1     -16.965   9.017  29.690  1.00  0.00     0.276 HD
ATOM      6  H12 UNL     1     -16.803  10.438  30.238  1.00  0.00     0.276 HD
ATOM      7  H11 UNL     1     -15.441   9.746  29.487  1.00  0.00     0.276 HD
ENDBRANCH   3   4
BRANCH   3   8
HETATM    8  C4  UNL     1     -16.165   9.952  32.455  1.00  0.00     0.278 C 
HETATM    9  O1  UNL     1     -15.426  10.880  32.810  1.00  0.00    -0.268 OA
HETATM   10  N2  UNL     1     -17.422   9.679  33.059  1.00  0.00    -0.264 N 
ATOM     11  H2  UNL     1     -18.001   8.905  32.734  1.00  0.00     0.190 HD
BRANCH  10  12
HETATM   12  N3  UNL     1     -17.842  10.498  34.106  1.00  0.00    -0.249 N 
HETATM   13  C5  UNL     1     -18.717  11.580  33.861  1.00  0.00     0.335 C 
HETATM   14  O2  UNL     1     -19.158  11.824  32.684  1.00  0.00    -0.246 OA
HETATM   15  N4  UNL     1     -19.126  12.423  34.926  1.00  0.00    -0.337 N 
ATOM     16  H4  UNL     1     -18.791  12.268  35.877  1.00  0.00     0.164 HD
ATOM     17  H3  UNL     1     -17.516  10.314  35.054  1.00  0.00     0.192 HD
BRANCH  15  18
HETATM   18  C6  UNL     1     -20.034  13.513  34.622  1.00  0.00     0.086 C 
HETATM   19  C7  UNL     1     -19.216  14.783  34.691  1.00  0.00     0.025 C 
HETATM   20  C8  UNL     1     -20.040  16.022  34.701  1.00  0.00     0.002 C 
HETATM   21  C9  UNL     1     -21.397  15.855  35.349  1.00  0.00     0.000 C 
HETATM   22  C10 UNL     1     -21.265  14.774  36.403  1.00  0.00     0.002 C 
HETATM   23  C11 UNL     1     -21.118  13.467  35.659  1.00  0.00     0.025 C 
ENDBRANCH  15  18
ENDBRANCH  10  12
ENDBRANCH   3   8
TORSDOF 4
ENDMDL
MODEL 4
REMARK VINA RESULT: -6.561219198      2.766      2.964
REMARK  4 active torsions:
REMARK  status: ('A' for Active; 'I' for Inactive)
REMARK    1  A    between atoms: C3_3  and  N1_4 
REMARK    2  A    between atoms: C3_3  and  C4_8 
REMARK       I    between atoms: C4_8  and  N2_10 
REMARK    3  A    between atoms: N2_10  and  N3_12 
REMARK       I    between atoms: N3_12  and  C5_14 
REMARK       I    between atoms: C5_14  and  N4_16 
REMARK    4  A    between atoms: N4_16  and  C6_18 
ROOT
HETATM    1  C1  UNL     1     -16.522   6.232  31.352  1.00  0.00     0.015 C 
HETATM    2  C2  UNL     1     -16.934   7.367  31.424  1.00  0.00    -0.075 C 
HETATM    3  C3  UNL     1     -17.418   8.756  31.531  1.00  0.00     0.353 C 
ENDROOT
BRANCH   3   4
HETATM    4  N1  UNL     1     -18.686   8.709  32.216  1.00  0.00    -0.056 N 
ATOM      5  H13 UNL     1     -19.234   7.880  31.987  1.00  0.00     0.276 HD
ATOM      6  H12 UNL     1     -18.596   8.534  33.216  1.00  0.00     0.276 HD
ATOM      7  H11 UNL     1     -19.172   9.581  32.004  1.00  0.00     0.276 HD
ENDBRANCH   3   4
BRANCH   3   8
HETATM    8  C4  UNL     1     -16.463   9.535  32.375  1.00  0.00     0.278 C 
HETATM    9  O1  UNL     1     -15.345   9.806  31.917  1.00  0.00    -0.268 OA
HETATM   10  N2  UNL     1     -16.891   9.922  33.673  1.00  0.00    -0.264 N 
ATOM     11  H2  UNL     1     -17.822   9.680  34.011  1.00  0.00     0.190 HD
BRANCH  10  12
HETATM   12  N3  UNL     1     -16.005  10.642  34.472  1.00  0.00    -0.249 N 
HETATM   13  C5  UNL     1     -16.031  12.056  34.476  1.00  0.00     0.335 C 
HETATM   14  O2  UNL     1     -16.875  12.706  33.766  1.00  0.00    -0.246 OA
HETATM   15  N4  UNL     1     -15.114  12.785  35.275  1.00  0.00    -0.337 N 
ATOM     16  H4  UNL     1     -14.420  12.305  35.849  1.00  0.00     0.164 HD
ATOM     17  H3  UNL     1     -15.333  10.147  35.058  1.00  0.00     0.192 HD
BRANCH  15  18
HETATM   18  C6  UNL     1     -15.191  14.234  35.252  1.00  0.00     0.086 C 
HETATM   19  C7  UNL     1     -14.006  14.712  34.444  1.00  0.00     0.025 C 
HETATM   20  C8  UNL     1     -13.755  16.174  34.563  1.00  0.00     0.002 C 
HETATM   21  C9  UNL     1     -14.162  16.763  35.896  1.00  0.00     0.000 C 
HETATM   22  C10 UNL     1     -14.019  15.670  36.936  1.00  0.00     0.002 C 
HETATM   23  C11 UNL     1     -15.137  14.687  36.682  1.00  0.00     0.025 C 
ENDBRANCH  15  18
ENDBRANCH  10  12
ENDBRANCH   3   8
TORSDOF 4
ENDMDL
MODEL 5
REMARK VINA RESULT: -6.440565136      1.129      1.314
REMARK  4 active torsions:
REMARK  status: ('A' for Active; 'I' for Inactive)
REMARK    1  A    between atoms: C3_3  and  N1_4 
REMARK    2  A    between atoms: C3_3  and  C4_8 
REMARK       I    between atoms: C4_8  and  N2_10 
REMARK    3  A    between atoms: N2_10  and  N3_12 
REMARK       I    between atoms: N3_12  and  C5_14 
REMARK       I    between atoms: C5_14  and  N4_16 
REMARK    4  A    between atoms: N4_16  and  C6_18 
ROOT
HETATM    1  C1  UNL     1     -16.734   6.804  31.618  1.00  0.00     0.015 C 
HETATM    2  C2  UNL     1     -16.271   7.904  31.427  1.00  0.00    -0.075 C 
HETATM    3  C3  UNL     1     -15.722   9.257  31.213  1.00  0.00     0.353 C 
ENDROOT
BRANCH   3   4
HETATM    4  N1  UNL     1     -16.250   9.732  29.958  1.00  0.00    -0.056 N 
ATOM      5  H13 UNL     1     -15.539   9.818  29.232  1.00  0.00     0.276 HD
ATOM      6  H12 UNL     1     -16.838   9.046  29.485  1.00  0.00     0.276 HD
ATOM      7  H11 UNL     1     -16.734  10.609  30.151  1.00  0.00     0.276 HD
ENDBRANCH   3   4
BRANCH   3   8
HETATM    8  C4  UNL     1     -16.220  10.155  32.297  1.00  0.00     0.278 C 
HETATM    9  O1  UNL     1     -17.183   9.787  32.983  1.00  0.00    -0.268 OA
HETATM   10  N2  UNL     1     -15.558  11.399  32.482  1.00  0.00    -0.264 N 
ATOM     11  H2  UNL     1     -14.766  11.662  31.896  1.00  0.00     0.190 HD
BRANCH  10  12
HETATM   12  N3  UNL     1     -16.019  12.248  33.486  1.00  0.00    -0.249 N 
HETATM   13  C5  UNL     1     -16.880  13.325  33.173  1.00  0.00     0.335 C 
HETATM   14  O2  UNL     1     -17.270  13.536  31.972  1.00  0.00    -0.246 OA
HETATM   15  N4  UNL     1     -17.329  14.200  34.195  1.00  0.00    -0.337 N 
ATOM     16  H4  UNL     1     -17.035  14.072  35.163  1.00  0.00     0.164 HD
ATOM     17  H3  UNL     1     -15.734  12.092  34.452  1.00  0.00     0.192 HD
BRANCH  15  18
HETATM   18  C6  UNL     1     -18.221  15.283  33.822  1.00  0.00     0.086 C 
HETATM   19  C7  UNL     1     -17.621  16.547  34.395  1.00  0.00     0.025 C 
HETATM   20  C8  UNL     1     -18.547  17.711  34.369  1.00  0.00     0.002 C 
HETATM   21  C9  UNL     1     -20.009  17.339  34.491  1.00  0.00     0.000 C 
HETATM   22  C10 UNL     1     -20.084  16.062  35.304  1.00  0.00     0.002 C 
HETATM   23  C11 UNL     1     -19.560  14.957  34.417  1.00  0.00     0.025 C 
ENDBRANCH  15  18
ENDBRANCH  10  12
ENDBRANCH   3   8
TORSDOF 4
ENDMDL
