MODEL 1
REMARK VINA RESULT: -7.117444128      0.000      0.000
REMARK  4 active torsions:
REMARK  status: ('A' for Active; 'I' for Inactive)
REMARK    1  A    between atoms: C2_2  and  C3_5 
REMARK    2  A    between atoms: C3_5  and  N1_6 
REMARK    3  A    between atoms: N1_6  and  C4_8 
REMARK    4  A    between atoms: C7_11  and  N2_12 
ROOT
HETATM    1  C4  UNL     1      -0.540  42.697  68.286  1.00  0.00     0.077 C 
HETATM    2  C5  UNL     1      -1.895  43.368  68.146  1.00  0.00     0.027 C 
HETATM    3  C6  UNL     1      -2.945  42.510  67.508  1.00  0.00     0.038 C 
HETATM    4  C7  UNL     1      -3.074  41.133  68.063  1.00  0.00     0.223 C 
HETATM    5  C13 UNL     1      -1.779  40.553  68.513  1.00  0.00     0.038 C 
HETATM    6  C14 UNL     1      -0.537  41.233  67.932  1.00  0.00     0.027 C 
ENDROOT
BRANCH   1   7
HETATM    7  N1  UNL     1       0.487  43.400  67.602  1.00  0.00    -0.411 N 
ATOM      8  H1  UNL     1       1.357  42.941  67.332  1.00  0.00     0.153 HD
BRANCH   7   9
HETATM    9  C3  UNL     1       0.250  44.788  67.307  1.00  0.00     0.192 C 
BRANCH   9  10
HETATM   10  C2  UNL     1       0.761  45.086  65.900  1.00  0.00     0.255 C 
HETATM   11  C1  UNL     1       0.387  46.499  65.465  1.00  0.00     0.091 C 
HETATM   12  F1  UNL     1       0.287  44.133  65.042  1.00  0.00    -0.205 F 
HETATM   13  F2  UNL     1       2.158  44.955  65.872  1.00  0.00    -0.205 F 
ENDBRANCH   9  10
ENDBRANCH   7   9
ENDBRANCH   1   7
BRANCH   4  14
HETATM   14  N2  UNL     1      -4.023  40.993  69.140  1.00  0.00     0.093 N 
HETATM   15  C8  UNL     1      -5.132  41.822  68.857  1.00  0.00     0.273 C 
HETATM   16  C9  UNL     1      -5.881  42.407  69.986  1.00  0.00     0.030 C 
HETATM   17  C10 UNL     1      -5.094  42.623  71.244  1.00  0.00     0.003 C 
HETATM   18  C11 UNL     1      -4.421  41.283  71.542  1.00  0.00     0.030 C 
HETATM   19  C12 UNL     1      -3.447  41.047  70.419  1.00  0.00     0.273 C 
ENDBRANCH   4  14
TORSDOF 4
ENDMDL
MODEL 2
REMARK VINA RESULT: -7.080627992      0.885      1.092
REMARK  4 active torsions:
REMARK  status: ('A' for Active; 'I' for Inactive)
REMARK    1  A    between atoms: C2_2  and  C3_5 
REMARK    2  A    between atoms: C3_5  and  N1_6 
REMARK    3  A    between atoms: N1_6  and  C4_8 
REMARK    4  A    between atoms: C7_11  and  N2_12 
ROOT
HETATM    1  C4  UNL     1      -0.397  42.376  68.407  1.00  0.00     0.077 C 
HETATM    2  C5  UNL     1      -1.706  43.120  68.203  1.00  0.00     0.027 C 
HETATM    3  C6  UNL     1      -2.779  42.310  67.544  1.00  0.00     0.038 C 
HETATM    4  C7  UNL     1      -3.008  40.955  68.121  1.00  0.00     0.223 C 
HETATM    5  C13 UNL     1      -1.766  40.312  68.631  1.00  0.00     0.038 C 
HETATM    6  C14 UNL     1      -0.466  40.907  68.083  1.00  0.00     0.027 C 
ENDROOT
BRANCH   1   7
HETATM    7  N1  UNL     1       0.693  43.004  67.748  1.00  0.00    -0.411 N 
ATOM      8  H1  UNL     1       1.650  42.899  68.085  1.00  0.00     0.153 HD
BRANCH   7   9
HETATM    9  C3  UNL     1       0.391  43.794  66.585  1.00  0.00     0.192 C 
BRANCH   9  10
HETATM   10  C2  UNL     1       0.908  45.214  66.806  1.00  0.00     0.255 C 
HETATM   11  C1  UNL     1       0.716  46.071  65.560  1.00  0.00     0.091 C 
HETATM   12  F1  UNL     1       2.215  45.155  67.203  1.00  0.00    -0.205 F 
HETATM   13  F2  UNL     1       0.216  45.801  67.876  1.00  0.00    -0.205 F 
ENDBRANCH   9  10
ENDBRANCH   7   9
ENDBRANCH   1   7
BRANCH   4  14
HETATM   14  N2  UNL     1      -4.002  40.893  69.166  1.00  0.00     0.093 N 
HETATM   15  C8  UNL     1      -5.060  41.761  68.814  1.00  0.00     0.273 C 
HETATM   16  C9  UNL     1      -5.823  42.416  69.894  1.00  0.00     0.030 C 
HETATM   17  C10 UNL     1      -5.073  42.639  71.174  1.00  0.00     0.003 C 
HETATM   18  C11 UNL     1      -4.474  41.281  71.539  1.00  0.00     0.030 C 
HETATM   19  C12 UNL     1      -3.471  40.965  70.463  1.00  0.00     0.273 C 
ENDBRANCH   4  14
TORSDOF 4
ENDMDL
MODEL 3
REMARK VINA RESULT: -7.057124739      1.379      1.645
REMARK  4 active torsions:
REMARK  status: ('A' for Active; 'I' for Inactive)
REMARK    1  A    between atoms: C2_2  and  C3_5 
REMARK    2  A    between atoms: C3_5  and  N1_6 
REMARK    3  A    between atoms: N1_6  and  C4_8 
REMARK    4  A    between atoms: C7_11  and  N2_12 
ROOT
HETATM    1  C4  UNL     1      -0.335  41.788  68.870  1.00  0.00     0.077 C 
HETATM    2  C5  UNL     1      -1.507  42.713  68.588  1.00  0.00     0.027 C 
HETATM    3  C6  UNL     1      -2.633  42.069  67.838  1.00  0.00     0.038 C 
HETATM    4  C7  UNL     1      -3.092  40.756  68.372  1.00  0.00     0.223 C 
HETATM    5  C13 UNL     1      -1.994  39.938  68.957  1.00  0.00     0.038 C 
HETATM    6  C14 UNL     1      -0.587  40.347  68.515  1.00  0.00     0.027 C 
ENDROOT
BRANCH   1   7
HETATM    7  N1  UNL     1       0.878  42.260  68.303  1.00  0.00    -0.411 N 
ATOM      8  H1  UNL     1       1.387  43.045  68.711  1.00  0.00     0.153 HD
BRANCH   7   9
HETATM    9  C3  UNL     1       1.361  41.586  67.127  1.00  0.00     0.192 C 
BRANCH   9  10
HETATM   10  C2  UNL     1       0.927  42.376  65.894  1.00  0.00     0.255 C 
HETATM   11  C1  UNL     1       1.082  43.876  66.118  1.00  0.00     0.091 C 
HETATM   12  F1  UNL     1      -0.354  42.026  65.569  1.00  0.00    -0.205 F 
HETATM   13  F2  UNL     1       1.711  41.994  64.795  1.00  0.00    -0.205 F 
ENDBRANCH   9  10
ENDBRANCH   7   9
ENDBRANCH   1   7
BRANCH   4  14
HETATM   14  N2  UNL     1      -4.159  40.826  69.341  1.00  0.00     0.093 N 
HETATM   15  C8  UNL     1      -5.049  41.847  68.937  1.00  0.00     0.273 C 
HETATM   16  C9  UNL     1      -5.786  42.593  69.976  1.00  0.00     0.030 C 
HETATM   17  C10 UNL     1      -5.108  42.683  71.312  1.00  0.00     0.003 C 
HETATM   18  C11 UNL     1      -4.743  41.245  71.684  1.00  0.00     0.030 C 
HETATM   19  C12 UNL     1      -3.721  40.800  70.674  1.00  0.00     0.273 C 
ENDBRANCH   4  14
TORSDOF 4
ENDMDL
MODEL 4
REMARK VINA RESULT: -6.801853830      1.495      1.689
REMARK  4 active torsions:
REMARK  status: ('A' for Active; 'I' for Inactive)
REMARK    1  A    between atoms: C2_2  and  C3_5 
REMARK    2  A    between atoms: C3_5  and  N1_6 
REMARK    3  A    between atoms: N1_6  and  C4_8 
REMARK    4  A    between atoms: C7_11  and  N2_12 
ROOT
HETATM    1  C4  UNL     1      -0.239  41.628  68.982  1.00  0.00     0.077 C 
HETATM    2  C5  UNL     1      -1.343  42.642  68.734  1.00  0.00     0.027 C 
HETATM    3  C6  UNL     1      -2.453  42.144  67.860  1.00  0.00     0.038 C 
HETATM    4  C7  UNL     1      -3.009  40.811  68.225  1.00  0.00     0.223 C 
HETATM    5  C13 UNL     1      -1.993  39.876  68.780  1.00  0.00     0.038 C 
HETATM    6  C14 UNL     1      -0.542  40.247  68.463  1.00  0.00     0.027 C 
ENDROOT
BRANCH   1   7
HETATM    7  N1  UNL     1       1.029  42.086  68.536  1.00  0.00    -0.411 N 
ATOM      8  H1  UNL     1       1.576  42.752  69.081  1.00  0.00     0.153 HD
BRANCH   7   9
HETATM    9  C3  UNL     1       1.510  41.571  67.282  1.00  0.00     0.192 C 
BRANCH   9  10
HETATM   10  C2  UNL     1       1.772  42.741  66.337  1.00  0.00     0.255 C 
HETATM   11  C1  UNL     1       0.521  43.098  65.541  1.00  0.00     0.091 C 
HETATM   12  F1  UNL     1       2.834  42.435  65.532  1.00  0.00    -0.205 F 
HETATM   13  F2  UNL     1       2.174  43.861  67.080  1.00  0.00    -0.205 F 
ENDBRANCH   9  10
ENDBRANCH   7   9
ENDBRANCH   1   7
BRANCH   4  14
HETATM   14  N2  UNL     1      -4.129  40.843  69.135  1.00  0.00     0.093 N 
HETATM   15  C8  UNL     1      -4.980  41.901  68.745  1.00  0.00     0.273 C 
HETATM   16  C9  UNL     1      -5.764  42.596  69.784  1.00  0.00     0.030 C 
HETATM   17  C10 UNL     1      -5.162  42.595  71.159  1.00  0.00     0.003 C 
HETATM   18  C11 UNL     1      -4.839  41.132  71.464  1.00  0.00     0.030 C 
HETATM   19  C12 UNL     1      -3.768  40.729  70.487  1.00  0.00     0.273 C 
ENDBRANCH   4  14
TORSDOF 4
ENDMDL
MODEL 5
REMARK VINA RESULT: -6.777367215      0.774      1.217
REMARK  4 active torsions:
REMARK  status: ('A' for Active; 'I' for Inactive)
REMARK    1  A    between atoms: C2_2  and  C3_5 
REMARK    2  A    between atoms: C3_5  and  N1_6 
REMARK    3  A    between atoms: N1_6  and  C4_8 
REMARK    4  A    between atoms: C7_11  and  N2_12 
ROOT
HETATM    1  C4  UNL     1      -0.520  42.270  68.562  1.00  0.00     0.077 C 
HETATM    2  C5  UNL     1      -1.804  43.027  68.271  1.00  0.00     0.027 C 
HETATM    3  C6  UNL     1      -2.857  42.213  67.583  1.00  0.00     0.038 C 
HETATM    4  C7  UNL     1      -3.135  40.880  68.186  1.00  0.00     0.223 C 
HETATM    5  C13 UNL     1      -1.931  40.234  68.776  1.00  0.00     0.038 C 
HETATM    6  C14 UNL     1      -0.596  40.793  68.278  1.00  0.00     0.027 C 
ENDROOT
BRANCH   1   7
HETATM    7  N1  UNL     1       0.612  42.862  67.941  1.00  0.00    -0.411 N 
ATOM      8  H1  UNL     1       1.520  42.398  67.937  1.00  0.00     0.153 HD
BRANCH   7   9
HETATM    9  C3  UNL     1       0.424  44.145  67.318  1.00  0.00     0.192 C 
BRANCH   9  10
HETATM   10  C2  UNL     1       1.007  44.098  65.908  1.00  0.00     0.255 C 
HETATM   11  C1  UNL     1       0.818  42.722  65.278  1.00  0.00     0.091 C 
HETATM   12  F1  UNL     1       2.321  44.473  65.956  1.00  0.00    -0.205 F 
HETATM   13  F2  UNL     1       0.371  45.058  65.107  1.00  0.00    -0.205 F 
ENDBRANCH   9  10
ENDBRANCH   7   9
ENDBRANCH   1   7
BRANCH   4  14
HETATM   14  N2  UNL     1      -4.181  40.863  69.181  1.00  0.00     0.093 N 
HETATM   15  C8  UNL     1      -5.131  41.850  68.832  1.00  0.00     0.273 C 
HETATM   16  C9  UNL     1      -5.879  42.521  69.913  1.00  0.00     0.030 C 
HETATM   17  C10 UNL     1      -5.175  42.600  71.236  1.00  0.00     0.003 C 
HETATM   18  C11 UNL     1      -4.730  41.171  71.550  1.00  0.00     0.030 C 
HETATM   19  C12 UNL     1      -3.711  40.813  70.502  1.00  0.00     0.273 C 
ENDBRANCH   4  14
TORSDOF 4
ENDMDL
