MODEL 1
REMARK VINA RESULT: -7.300367111      0.000      0.000
REMARK  3 active torsions:
REMARK  status: ('A' for Active; 'I' for Inactive)
REMARK       I    between atoms: C2_2  and  N1_4 
REMARK    1  A    between atoms: N1_4  and  C3_6 
REMARK    2  A    between atoms: C3_6  and  C4_7 
REMARK    3  A    between atoms: C4_7  and  C7_10 
ROOT
HETATM    1  C7  UNL     1      -2.882  41.276  68.634  1.00  0.00     0.058 C 
HETATM    2  C8  UNL     1      -2.671  40.111  69.525  1.00  0.00     0.070 C 
HETATM    3  N2  UNL     1      -2.496  39.191  70.207  1.00  0.00    -0.196 NA
HETATM    4  C9  UNL     1      -4.162  41.039  67.883  1.00  0.00     0.031 C 
HETATM    5  C10 UNL     1      -5.311  41.861  68.372  1.00  0.00     0.081 C 
HETATM    6  C11 UNL     1      -5.426  41.994  69.838  1.00  0.00     0.243 C 
HETATM    7  F1  UNL     1      -6.160  40.949  70.389  1.00  0.00    -0.206 F 
HETATM    8  F2  UNL     1      -6.179  43.148  70.102  1.00  0.00    -0.206 F 
HETATM    9  C12 UNL     1      -4.113  42.112  70.562  1.00  0.00     0.081 C 
HETATM   10  C13 UNL     1      -3.062  42.469  69.515  1.00  0.00     0.031 C 
ENDROOT
BRANCH   1  11
HETATM   11  C4  UNL     1      -1.692  41.454  67.719  1.00  0.00    -0.011 C 
HETATM   12  C5  UNL     1      -2.236  41.363  66.291  1.00  0.00     0.018 C 
HETATM   13  C6  UNL     1      -0.732  40.328  67.904  1.00  0.00     0.018 C 
BRANCH  11  14
HETATM   14  C3  UNL     1      -1.063  42.811  67.865  1.00  0.00     0.133 C 
BRANCH  14  15
HETATM   15  N1  UNL     1       0.379  42.770  67.850  1.00  0.00    -0.361 N 
HETATM   16  C2  UNL     1       1.047  43.251  66.698  1.00  0.00     0.213 C 
HETATM   17  C1  UNL     1       2.544  43.227  66.638  1.00  0.00     0.117 C 
HETATM   18  O1  UNL     1       0.398  43.699  65.720  1.00  0.00    -0.274 OA
ATOM     19  H1  UNL     1       0.901  42.405  68.645  1.00  0.00     0.162 HD
ENDBRANCH  14  15
ENDBRANCH  11  14
ENDBRANCH   1  11
TORSDOF 3
ENDMDL
MODEL 2
REMARK VINA RESULT: -7.212842944      2.081      2.494
REMARK  3 active torsions:
REMARK  status: ('A' for Active; 'I' for Inactive)
REMARK       I    between atoms: C2_2  and  N1_4 
REMARK    1  A    between atoms: N1_4  and  C3_6 
REMARK    2  A    between atoms: C3_6  and  C4_7 
REMARK    3  A    between atoms: C4_7  and  C7_10 
ROOT
HETATM    1  C7  UNL     1      -2.808  41.222  68.836  1.00  0.00     0.058 C 
HETATM    2  C8  UNL     1      -2.712  40.072  69.765  1.00  0.00     0.070 C 
HETATM    3  N2  UNL     1      -2.626  39.164  70.479  1.00  0.00    -0.196 NA
HETATM    4  C9  UNL     1      -4.009  40.991  67.960  1.00  0.00     0.031 C 
HETATM    5  C10 UNL     1      -5.187  41.842  68.313  1.00  0.00     0.081 C 
HETATM    6  C11 UNL     1      -5.449  42.006  69.757  1.00  0.00     0.243 C 
HETATM    7  F1  UNL     1      -6.256  40.986  70.248  1.00  0.00    -0.206 F 
HETATM    8  F2  UNL     1      -6.204  43.178  69.920  1.00  0.00    -0.206 F 
HETATM    9  C12 UNL     1      -4.215  42.118  70.610  1.00  0.00     0.081 C 
HETATM   10  C13 UNL     1      -3.056  42.435  69.671  1.00  0.00     0.031 C 
ENDROOT
BRANCH   1  11
HETATM   11  C4  UNL     1      -1.528  41.361  68.045  1.00  0.00    -0.011 C 
HETATM   12  C5  UNL     1      -1.615  42.710  67.327  1.00  0.00     0.018 C 
HETATM   13  C6  UNL     1      -1.455  40.301  66.999  1.00  0.00     0.018 C 
BRANCH  11  14
HETATM   14  C3  UNL     1      -0.317  41.413  68.934  1.00  0.00     0.133 C 
BRANCH  14  15
HETATM   15  N1  UNL     1       0.608  40.332  68.692  1.00  0.00    -0.361 N 
HETATM   16  C2  UNL     1       1.100  39.614  69.807  1.00  0.00     0.213 C 
HETATM   17  C1  UNL     1       2.063  38.483  69.603  1.00  0.00     0.117 C 
HETATM   18  O1  UNL     1       0.740  39.913  70.974  1.00  0.00    -0.274 OA
ATOM     19  H1  UNL     1       0.898  40.094  67.744  1.00  0.00     0.162 HD
ENDBRANCH  14  15
ENDBRANCH  11  14
ENDBRANCH   1  11
TORSDOF 3
ENDMDL
MODEL 3
REMARK VINA RESULT: -7.169704322      2.215      3.114
REMARK  3 active torsions:
REMARK  status: ('A' for Active; 'I' for Inactive)
REMARK       I    between atoms: C2_2  and  N1_4 
REMARK    1  A    between atoms: N1_4  and  C3_6 
REMARK    2  A    between atoms: C3_6  and  C4_7 
REMARK    3  A    between atoms: C4_7  and  C7_10 
ROOT
HETATM    1  C7  UNL     1      -2.750  41.314  68.992  1.00  0.00     0.058 C 
HETATM    2  C8  UNL     1      -2.428  42.720  68.655  1.00  0.00     0.070 C 
HETATM    3  N2  UNL     1      -2.158  43.817  68.397  1.00  0.00    -0.196 NA
HETATM    4  C9  UNL     1      -3.175  41.285  70.434  1.00  0.00     0.031 C 
HETATM    5  C10 UNL     1      -4.649  41.124  70.627  1.00  0.00     0.081 C 
HETATM    6  C11 UNL     1      -5.503  41.901  69.706  1.00  0.00     0.243 C 
HETATM    7  F1  UNL     1      -5.752  43.179  70.195  1.00  0.00    -0.206 F 
HETATM    8  F2  UNL     1      -6.760  41.276  69.665  1.00  0.00    -0.206 F 
HETATM    9  C12 UNL     1      -4.981  42.001  68.299  1.00  0.00     0.081 C 
HETATM   10  C13 UNL     1      -3.916  40.920  68.146  1.00  0.00     0.031 C 
ENDROOT
BRANCH   1  11
HETATM   11  C4  UNL     1      -1.557  40.427  68.717  1.00  0.00    -0.011 C 
HETATM   12  C5  UNL     1      -1.472  40.287  67.196  1.00  0.00     0.018 C 
HETATM   13  C6  UNL     1      -1.792  39.065  69.278  1.00  0.00     0.018 C 
BRANCH  11  14
HETATM   14  C3  UNL     1      -0.269  41.053  69.175  1.00  0.00     0.133 C 
BRANCH  14  15
HETATM   15  N1  UNL     1       0.499  40.193  70.043  1.00  0.00    -0.361 N 
HETATM   16  C2  UNL     1       1.625  39.531  69.498  1.00  0.00     0.213 C 
HETATM   17  C1  UNL     1       2.453  38.629  70.362  1.00  0.00     0.117 C 
HETATM   18  O1  UNL     1       1.942  39.691  68.292  1.00  0.00    -0.274 OA
ATOM     19  H1  UNL     1       0.238  40.066  71.020  1.00  0.00     0.162 HD
ENDBRANCH  14  15
ENDBRANCH  11  14
ENDBRANCH   1  11
TORSDOF 3
ENDMDL
MODEL 4
REMARK VINA RESULT: -7.111811145      1.855      2.701
REMARK  3 active torsions:
REMARK  status: ('A' for Active; 'I' for Inactive)
REMARK       I    between atoms: C2_2  and  N1_4 
REMARK    1  A    between atoms: N1_4  and  C3_6 
REMARK    2  A    between atoms: C3_6  and  C4_7 
REMARK    3  A    between atoms: C4_7  and  C7_10 
ROOT
HETATM    1  C7  UNL     1      -0.991  40.575  68.315  1.00  0.00     0.058 C 
HETATM    2  C8  UNL     1      -1.586  39.490  69.129  1.00  0.00     0.070 C 
HETATM    3  N2  UNL     1      -2.035  38.632  69.765  1.00  0.00    -0.196 NA
HETATM    4  C9  UNL     1      -1.255  40.247  66.871  1.00  0.00     0.031 C 
HETATM    5  C10 UNL     1      -2.334  41.077  66.251  1.00  0.00     0.081 C 
HETATM    6  C11 UNL     1      -3.519  41.323  67.096  1.00  0.00     0.243 C 
HETATM    7  F1  UNL     1      -4.460  40.308  66.962  1.00  0.00    -0.206 F 
HETATM    8  F2  UNL     1      -4.155  42.476  66.610  1.00  0.00    -0.206 F 
HETATM    9  C12 UNL     1      -3.218  41.531  68.555  1.00  0.00     0.081 C 
HETATM   10  C13 UNL     1      -1.725  41.829  68.659  1.00  0.00     0.031 C 
ENDROOT
BRANCH   1  11
HETATM   11  C4  UNL     1       0.483  40.708  68.622  1.00  0.00    -0.011 C 
HETATM   12  C5  UNL     1       1.029  39.282  68.714  1.00  0.00     0.018 C 
HETATM   13  C6  UNL     1       0.671  41.345  69.957  1.00  0.00     0.018 C 
BRANCH  11  14
HETATM   14  C3  UNL     1       1.232  41.397  67.516  1.00  0.00     0.133 C 
BRANCH  14  15
HETATM   15  N1  UNL     1       1.409  42.810  67.748  1.00  0.00    -0.361 N 
HETATM   16  C2  UNL     1       0.922  43.712  66.773  1.00  0.00     0.213 C 
HETATM   17  C1  UNL     1       1.084  45.189  66.973  1.00  0.00     0.117 C 
HETATM   18  O1  UNL     1       0.354  43.289  65.734  1.00  0.00    -0.274 OA
ATOM     19  H1  UNL     1       1.871  43.148  68.592  1.00  0.00     0.162 HD
ENDBRANCH  14  15
ENDBRANCH  11  14
ENDBRANCH   1  11
TORSDOF 3
ENDMDL
MODEL 5
REMARK VINA RESULT: -7.087426190      3.859      5.402
REMARK  3 active torsions:
REMARK  status: ('A' for Active; 'I' for Inactive)
REMARK       I    between atoms: C2_2  and  N1_4 
REMARK    1  A    between atoms: N1_4  and  C3_6 
REMARK    2  A    between atoms: C3_6  and  C4_7 
REMARK    3  A    between atoms: C4_7  and  C7_10 
ROOT
HETATM    1  C7  UNL     1      -0.192  40.245  69.233  1.00  0.00     0.058 C 
HETATM    2  C8  UNL     1      -1.273  39.286  69.558  1.00  0.00     0.070 C 
HETATM    3  N2  UNL     1      -2.132  38.549  69.807  1.00  0.00    -0.196 NA
HETATM    4  C9  UNL     1       0.113  41.017  70.487  1.00  0.00     0.031 C 
HETATM    5  C10 UNL     1       1.386  40.606  71.155  1.00  0.00     0.081 C 
HETATM    6  C11 UNL     1       1.646  39.153  71.199  1.00  0.00     0.243 C 
HETATM    7  F1  UNL     1       1.069  38.564  72.318  1.00  0.00    -0.206 F 
HETATM    8  F2  UNL     1       3.028  38.974  71.365  1.00  0.00    -0.206 F 
HETATM    9  C12 UNL     1       1.219  38.402  69.968  1.00  0.00     0.081 C 
HETATM   10  C13 UNL     1       1.010  39.438  68.868  1.00  0.00     0.031 C 
ENDROOT
BRANCH   1  11
HETATM   11  C4  UNL     1      -0.615  41.137  68.088  1.00  0.00    -0.011 C 
HETATM   12  C5  UNL     1      -0.100  40.464  66.813  1.00  0.00     0.018 C 
HETATM   13  C6  UNL     1       0.059  42.463  68.197  1.00  0.00     0.018 C 
BRANCH  11  14
HETATM   14  C3  UNL     1      -2.110  41.229  67.964  1.00  0.00     0.133 C 
BRANCH  14  15
HETATM   15  N1  UNL     1      -2.594  40.829  66.665  1.00  0.00    -0.361 N 
HETATM   16  C2  UNL     1      -3.810  41.390  66.205  1.00  0.00     0.213 C 
HETATM   17  C1  UNL     1      -4.350  41.004  64.862  1.00  0.00     0.117 C 
HETATM   18  O1  UNL     1      -4.445  42.212  66.913  1.00  0.00    -0.274 OA
ATOM     19  H1  UNL     1      -2.076  40.162  66.095  1.00  0.00     0.162 HD
ENDBRANCH  14  15
ENDBRANCH  11  14
ENDBRANCH   1  11
TORSDOF 3
ENDMDL
