MODEL 1
REMARK VINA RESULT: -7.100059474      0.000      0.000
REMARK  4 active torsions:
REMARK  status: ('A' for Active; 'I' for Inactive)
REMARK    1  A    between atoms: O1_1  and  C1_3 
REMARK    2  A    between atoms: C1_3  and  C2_4 
REMARK    3  A    between atoms: C1_3  and  C11_15 
REMARK    4  A    between atoms: C2_4  and  C3_5 
ROOT
HETATM    1  C3  UNL     1      -1.406  42.224  66.949  1.00  0.00     0.065 C 
HETATM    2  C4  UNL     1      -0.249  41.547  66.185  1.00  0.00    -0.004 C 
HETATM    3  C5  UNL     1       0.872  41.133  67.071  1.00  0.00     0.005 C 
HETATM    4  C6  UNL     1       1.918  42.226  67.011  1.00  0.00     0.005 C 
HETATM    5  C7  UNL     1       1.147  43.372  66.391  1.00  0.00    -0.009 C 
HETATM    6  C8  UNL     1       0.342  42.646  65.330  1.00  0.00     0.010 C 
HETATM    7  C9  UNL     1       0.315  44.001  67.439  1.00  0.00     0.084 C 
HETATM    8  C10 UNL     1      -0.922  43.265  67.863  1.00  0.00     0.248 C 
HETATM    9  F1  UNL     1      -1.900  44.239  68.089  1.00  0.00    -0.206 F 
HETATM   10  F2  UNL     1      -0.638  42.705  69.093  1.00  0.00    -0.206 F 
ENDROOT
BRANCH   1  11
HETATM   11  C2  UNL     1      -2.308  41.165  67.487  1.00  0.00     0.045 C 
BRANCH  11  12
HETATM   12  C1  UNL     1      -3.753  41.273  67.239  1.00  0.00     0.147 C 
BRANCH  12  13
HETATM   13  O1  UNL     1      -4.210  41.600  66.005  1.00  0.00    -0.393 OA
ATOM     14  H1  UNL     1      -4.584  40.932  65.442  1.00  0.00     0.210 HD
ENDBRANCH  12  13
BRANCH  12  15
HETATM   15  C11 UNL     1      -4.451  42.196  68.234  1.00  0.00     0.150 C 
HETATM   16  C12 UNL     1      -3.914  41.972  69.630  1.00  0.00     0.036 C 
HETATM   17  C13 UNL     1      -5.180  42.311  70.431  1.00  0.00     0.029 C 
HETATM   18  C14 UNL     1      -6.216  41.666  69.535  1.00  0.00     0.168 C 
HETATM   19  O2  UNL     1      -5.800  41.977  68.270  1.00  0.00    -0.383 OA
ENDBRANCH  12  15
ENDBRANCH  11  12
ENDBRANCH   1  11
TORSDOF 4
ENDMDL
MODEL 2
REMARK VINA RESULT: -6.940134278      1.893      5.581
REMARK  4 active torsions:
REMARK  status: ('A' for Active; 'I' for Inactive)
REMARK    1  A    between atoms: O1_1  and  C1_3 
REMARK    2  A    between atoms: C1_3  and  C2_4 
REMARK    3  A    between atoms: C1_3  and  C11_15 
REMARK    4  A    between atoms: C2_4  and  C3_5 
ROOT
HETATM    1  C3  UNL     1      -4.255  41.173  69.271  1.00  0.00     0.065 C 
HETATM    2  C4  UNL     1      -5.334  41.863  70.131  1.00  0.00    -0.004 C 
HETATM    3  C5  UNL     1      -4.765  42.748  71.182  1.00  0.00     0.005 C 
HETATM    4  C6  UNL     1      -4.725  41.952  72.468  1.00  0.00     0.005 C 
HETATM    5  C7  UNL     1      -4.919  40.535  71.972  1.00  0.00    -0.009 C 
HETATM    6  C8  UNL     1      -5.982  40.738  70.908  1.00  0.00     0.010 C 
HETATM    7  C9  UNL     1      -3.632  40.043  71.437  1.00  0.00     0.084 C 
HETATM    8  C10 UNL     1      -3.205  40.563  70.095  1.00  0.00     0.248 C 
HETATM    9  F1  UNL     1      -2.599  39.490  69.433  1.00  0.00    -0.206 F 
HETATM   10  F2  UNL     1      -2.208  41.487  70.335  1.00  0.00    -0.206 F 
ENDROOT
BRANCH   1  11
HETATM   11  C2  UNL     1      -3.851  42.103  68.176  1.00  0.00     0.045 C 
BRANCH  11  12
HETATM   12  C1  UNL     1      -3.546  41.545  66.851  1.00  0.00     0.147 C 
BRANCH  12  13
HETATM   13  O1  UNL     1      -3.923  40.279  66.541  1.00  0.00    -0.393 OA
ATOM     14  H1  UNL     1      -4.496  39.795  67.124  1.00  0.00     0.210 HD
ENDBRANCH  12  13
BRANCH  12  15
HETATM   15  C11 UNL     1      -2.071  41.675  66.484  1.00  0.00     0.150 C 
HETATM   16  C12 UNL     1      -1.402  40.319  66.491  1.00  0.00     0.036 C 
HETATM   17  C13 UNL     1       0.013  40.752  66.903  1.00  0.00     0.029 C 
HETATM   18  C14 UNL     1      -0.343  41.809  67.926  1.00  0.00     0.168 C 
HETATM   19  O2  UNL     1      -1.396  42.474  67.364  1.00  0.00    -0.383 OA
ENDBRANCH  12  15
ENDBRANCH  11  12
ENDBRANCH   1  11
TORSDOF 4
ENDMDL
MODEL 3
REMARK VINA RESULT: -6.918587338      2.311      3.596
REMARK  4 active torsions:
REMARK  status: ('A' for Active; 'I' for Inactive)
REMARK    1  A    between atoms: O1_1  and  C1_3 
REMARK    2  A    between atoms: C1_3  and  C2_4 
REMARK    3  A    between atoms: C1_3  and  C11_15 
REMARK    4  A    between atoms: C2_4  and  C3_5 
ROOT
HETATM    1  C3  UNL     1      -3.137  41.101  68.655  1.00  0.00     0.065 C 
HETATM    2  C4  UNL     1      -1.609  41.306  68.724  1.00  0.00    -0.004 C 
HETATM    3  C5  UNL     1      -1.165  42.593  68.123  1.00  0.00     0.005 C 
HETATM    4  C6  UNL     1      -0.725  42.298  66.706  1.00  0.00     0.005 C 
HETATM    5  C7  UNL     1      -1.312  40.923  66.468  1.00  0.00    -0.009 C 
HETATM    6  C8  UNL     1      -1.038  40.252  67.801  1.00  0.00     0.010 C 
HETATM    7  C9  UNL     1      -2.750  41.071  66.164  1.00  0.00     0.084 C 
HETATM    8  C10 UNL     1      -3.665  41.375  67.314  1.00  0.00     0.248 C 
HETATM    9  F1  UNL     1      -4.844  40.661  67.077  1.00  0.00    -0.206 F 
HETATM   10  F2  UNL     1      -3.992  42.713  67.209  1.00  0.00    -0.206 F 
ENDROOT
BRANCH   1  11
HETATM   11  C2  UNL     1      -3.763  41.787  69.822  1.00  0.00     0.045 C 
BRANCH  11  12
HETATM   12  C1  UNL     1      -5.185  41.546  70.105  1.00  0.00     0.147 C 
BRANCH  12  13
HETATM   13  O1  UNL     1      -6.100  42.523  69.883  1.00  0.00    -0.393 OA
ATOM     14  H1  UNL     1      -6.585  42.897  70.609  1.00  0.00     0.210 HD
ENDBRANCH  12  13
BRANCH  12  15
HETATM   15  C11 UNL     1      -5.423  41.023  71.518  1.00  0.00     0.150 C 
HETATM   16  C12 UNL     1      -4.721  41.900  72.531  1.00  0.00     0.036 C 
HETATM   17  C13 UNL     1      -4.419  40.838  73.599  1.00  0.00     0.029 C 
HETATM   18  C14 UNL     1      -4.043  39.683  72.696  1.00  0.00     0.168 C 
HETATM   19  O2  UNL     1      -4.950  39.750  71.676  1.00  0.00    -0.383 OA
ENDBRANCH  12  15
ENDBRANCH  11  12
ENDBRANCH   1  11
TORSDOF 4
ENDMDL
MODEL 4
REMARK VINA RESULT: -6.890920442      3.280      4.237
REMARK  4 active torsions:
REMARK  status: ('A' for Active; 'I' for Inactive)
REMARK    1  A    between atoms: O1_1  and  C1_3 
REMARK    2  A    between atoms: C1_3  and  C2_4 
REMARK    3  A    between atoms: C1_3  and  C11_15 
REMARK    4  A    between atoms: C2_4  and  C3_5 
ROOT
HETATM    1  C3  UNL     1      -0.372  39.758  69.474  1.00  0.00     0.065 C 
HETATM    2  C4  UNL     1      -0.954  39.258  70.812  1.00  0.00    -0.004 C 
HETATM    3  C5  UNL     1      -0.596  40.126  71.965  1.00  0.00     0.005 C 
HETATM    4  C6  UNL     1       0.606  39.503  72.641  1.00  0.00     0.005 C 
HETATM    5  C7  UNL     1       1.089  38.524  71.592  1.00  0.00    -0.009 C 
HETATM    6  C8  UNL     1      -0.226  37.961  71.087  1.00  0.00     0.010 C 
HETATM    7  C9  UNL     1       1.847  39.269  70.566  1.00  0.00     0.084 C 
HETATM    8  C10 UNL     1       1.054  40.083  69.586  1.00  0.00     0.248 C 
HETATM    9  F1  UNL     1       1.703  39.955  68.353  1.00  0.00    -0.206 F 
HETATM   10  F2  UNL     1       1.200  41.402  69.968  1.00  0.00    -0.206 F 
ENDROOT
BRANCH   1  11
HETATM   11  C2  UNL     1      -1.295  40.782  68.905  1.00  0.00     0.045 C 
BRANCH  11  12
HETATM   12  C1  UNL     1      -2.741  40.522  68.928  1.00  0.00     0.147 C 
BRANCH  12  13
HETATM   13  O1  UNL     1      -3.355  39.988  67.842  1.00  0.00    -0.393 OA
ATOM     14  H1  UNL     1      -4.027  40.479  67.383  1.00  0.00     0.210 HD
ENDBRANCH  12  13
BRANCH  12  15
HETATM   15  C11 UNL     1      -3.552  41.746  69.343  1.00  0.00     0.150 C 
HETATM   16  C12 UNL     1      -4.013  41.613  70.777  1.00  0.00     0.036 C 
HETATM   17  C13 UNL     1      -5.326  42.405  70.681  1.00  0.00     0.029 C 
HETATM   18  C14 UNL     1      -5.800  41.929  69.324  1.00  0.00     0.168 C 
HETATM   19  O2  UNL     1      -4.663  41.909  68.565  1.00  0.00    -0.383 OA
ENDBRANCH  12  15
ENDBRANCH  11  12
ENDBRANCH   1  11
TORSDOF 4
ENDMDL
MODEL 5
REMARK VINA RESULT: -6.864954431      1.333      1.782
REMARK  4 active torsions:
REMARK  status: ('A' for Active; 'I' for Inactive)
REMARK    1  A    between atoms: O1_1  and  C1_3 
REMARK    2  A    between atoms: C1_3  and  C2_4 
REMARK    3  A    between atoms: C1_3  and  C11_15 
REMARK    4  A    between atoms: C2_4  and  C3_5 
ROOT
HETATM    1  C3  UNL     1      -1.157  42.010  67.290  1.00  0.00     0.065 C 
HETATM    2  C4  UNL     1      -0.442  42.959  66.306  1.00  0.00    -0.004 C 
HETATM    3  C5  UNL     1       0.515  42.257  65.409  1.00  0.00     0.005 C 
HETATM    4  C6  UNL     1       1.891  42.400  66.022  1.00  0.00     0.005 C 
HETATM    5  C7  UNL     1       1.568  42.847  67.431  1.00  0.00    -0.009 C 
HETATM    6  C8  UNL     1       0.438  43.827  67.178  1.00  0.00     0.010 C 
HETATM    7  C9  UNL     1       1.161  41.664  68.219  1.00  0.00     0.084 C 
HETATM    8  C10 UNL     1      -0.213  41.115  67.969  1.00  0.00     0.248 C 
HETATM    9  F1  UNL     1      -0.705  40.707  69.214  1.00  0.00    -0.206 F 
HETATM   10  F2  UNL     1      -0.043  39.967  67.221  1.00  0.00    -0.206 F 
ENDROOT
BRANCH   1  11
HETATM   11  C2  UNL     1      -2.339  41.413  66.604  1.00  0.00     0.045 C 
BRANCH  11  12
HETATM   12  C1  UNL     1      -3.428  40.862  67.423  1.00  0.00     0.147 C 
BRANCH  12  13
HETATM   13  O1  UNL     1      -4.340  40.023  66.870  1.00  0.00    -0.393 OA
ATOM     14  H1  UNL     1      -5.268  40.168  67.010  1.00  0.00     0.210 HD
ENDBRANCH  12  13
BRANCH  12  15
HETATM   15  C11 UNL     1      -4.207  41.941  68.168  1.00  0.00     0.150 C 
HETATM   16  C12 UNL     1      -3.941  41.856  69.655  1.00  0.00     0.036 C 
HETATM   17  C13 UNL     1      -5.294  42.371  70.169  1.00  0.00     0.029 C 
HETATM   18  C14 UNL     1      -6.210  41.690  69.175  1.00  0.00     0.168 C 
HETATM   19  O2  UNL     1      -5.555  41.817  67.981  1.00  0.00    -0.383 OA
ENDBRANCH  12  15
ENDBRANCH  11  12
ENDBRANCH   1  11
TORSDOF 4
ENDMDL
