MODEL 1
REMARK VINA RESULT: -6.842687978      0.000      0.000
REMARK  3 active torsions:
REMARK  status: ('A' for Active; 'I' for Inactive)
REMARK    1  A    between atoms: C4_6  and  C5_7 
REMARK    2  A    between atoms: C5_7  and  C6_8 
REMARK    3  A    between atoms: C5_7  and  N2_14 
ROOT
HETATM    1  C5  UNL     1      -2.484  40.775  70.368  1.00  0.00     0.294 C 
ENDROOT
BRANCH   1   2
HETATM    2  C4  UNL     1      -2.018  40.797  68.941  1.00  0.00     0.115 A 
HETATM    3  N1  UNL     1      -2.331  39.947  67.941  1.00  0.00    -0.352 N 
HETATM    4  C3  UNL     1      -1.719  40.292  66.803  1.00  0.00     0.114 A 
ATOM      5  H1  UNL     1      -2.953  39.144  68.040  1.00  0.00     0.166 HD
HETATM    6  C2  UNL     1      -0.976  41.417  67.083  1.00  0.00     0.022 A 
HETATM    7  C1  UNL     1      -0.104  42.213  66.187  1.00  0.00     0.069 C 
HETATM    8  N3  UNL     1      -1.172  41.699  68.367  1.00  0.00    -0.347 N 
ATOM      9  H3  UNL     1      -0.747  42.486  68.859  1.00  0.00     0.167 HD
ENDBRANCH   1   2
BRANCH   1  10
HETATM   10  C6  UNL     1      -1.643  39.762  71.010  1.00  0.00     0.038 C 
HETATM   11  C7  UNL     1      -0.291  39.422  70.633  1.00  0.00     0.086 C 
HETATM   12  C8  UNL     1       0.268  39.847  71.966  1.00  0.00     0.244 C 
HETATM   13  F1  UNL     1       1.057  40.974  71.945  1.00  0.00    -0.206 F 
HETATM   14  F2  UNL     1       0.928  38.867  72.685  1.00  0.00    -0.206 F 
HETATM   15  C9  UNL     1      -1.146  40.055  72.404  1.00  0.00     0.086 C 
ENDBRANCH   1  10
BRANCH   1  16
HETATM   16  N2  UNL     1      -3.855  40.765  70.332  1.00  0.00     0.100 N 
HETATM   17  C10 UNL     1      -4.311  42.132  70.031  1.00  0.00     0.273 C 
HETATM   18  C11 UNL     1      -5.119  42.614  71.188  1.00  0.00     0.032 C 
HETATM   19  C12 UNL     1      -4.727  41.622  72.288  1.00  0.00     0.032 C 
HETATM   20  C13 UNL     1      -4.684  40.389  71.371  1.00  0.00     0.273 C 
ENDBRANCH   1  16
TORSDOF 3
ENDMDL
MODEL 2
REMARK VINA RESULT: -6.617894735      3.170      4.899
REMARK  3 active torsions:
REMARK  status: ('A' for Active; 'I' for Inactive)
REMARK    1  A    between atoms: C4_6  and  C5_7 
REMARK    2  A    between atoms: C5_7  and  C6_8 
REMARK    3  A    between atoms: C5_7  and  N2_14 
ROOT
HETATM    1  C5  UNL     1      -2.616  41.140  68.386  1.00  0.00     0.294 C 
ENDROOT
BRANCH   1   2
HETATM    2  C4  UNL     1      -3.482  40.886  67.187  1.00  0.00     0.115 A 
HETATM    3  N1  UNL     1      -4.438  39.948  67.023  1.00  0.00    -0.352 N 
HETATM    4  C3  UNL     1      -4.997  40.033  65.811  1.00  0.00     0.114 A 
ATOM      5  H1  UNL     1      -4.700  39.262  67.732  1.00  0.00     0.166 HD
HETATM    6  C2  UNL     1      -4.371  41.074  65.163  1.00  0.00     0.022 A 
HETATM    7  C1  UNL     1      -4.599  41.601  63.796  1.00  0.00     0.069 C 
HETATM    8  N3  UNL     1      -3.470  41.568  66.006  1.00  0.00    -0.347 N 
ATOM      9  H3  UNL     1      -2.852  42.353  65.798  1.00  0.00     0.167 HD
ENDBRANCH   1   2
BRANCH   1  10
HETATM   10  C6  UNL     1      -3.343  42.152  69.154  1.00  0.00     0.038 C 
HETATM   11  C7  UNL     1      -4.700  42.585  68.911  1.00  0.00     0.086 C 
HETATM   12  C8  UNL     1      -5.174  42.106  70.259  1.00  0.00     0.244 C 
HETATM   13  F1  UNL     1      -6.025  41.025  70.237  1.00  0.00    -0.206 F 
HETATM   14  F2  UNL     1      -5.718  43.071  71.087  1.00  0.00    -0.206 F 
HETATM   15  C9  UNL     1      -3.744  41.798  70.565  1.00  0.00     0.086 C 
ENDBRANCH   1  10
BRANCH   1  16
HETATM   16  N2  UNL     1      -1.331  41.264  67.921  1.00  0.00     0.100 N 
HETATM   17  C10 UNL     1      -0.756  39.914  67.808  1.00  0.00     0.273 C 
HETATM   18  C11 UNL     1       0.412  39.831  68.731  1.00  0.00     0.032 C 
HETATM   19  C12 UNL     1       0.184  41.039  69.645  1.00  0.00     0.032 C 
HETATM   20  C13 UNL     1      -0.319  41.976  68.536  1.00  0.00     0.273 C 
ENDBRANCH   1  16
TORSDOF 3
ENDMDL
MODEL 3
REMARK VINA RESULT: -6.578432808      3.582      5.133
REMARK  3 active torsions:
REMARK  status: ('A' for Active; 'I' for Inactive)
REMARK    1  A    between atoms: C4_6  and  C5_7 
REMARK    2  A    between atoms: C5_7  and  C6_8 
REMARK    3  A    between atoms: C5_7  and  N2_14 
ROOT
HETATM    1  C5  UNL     1      -0.612  41.391  68.418  1.00  0.00     0.294 C 
ENDROOT
BRANCH   1   2
HETATM    2  C4  UNL     1      -0.111  42.450  67.480  1.00  0.00     0.115 A 
HETATM    3  N1  UNL     1      -0.129  42.456  66.131  1.00  0.00    -0.352 N 
HETATM    4  C3  UNL     1       0.409  43.579  65.644  1.00  0.00     0.114 A 
ATOM      5  H1  UNL     1      -0.506  41.702  65.556  1.00  0.00     0.166 HD
HETATM    6  C2  UNL     1       0.794  44.332  66.732  1.00  0.00     0.022 A 
HETATM    7  C1  UNL     1       1.445  45.663  66.768  1.00  0.00     0.069 C 
HETATM    8  N3  UNL     1       0.472  43.636  67.817  1.00  0.00    -0.347 N 
ATOM      9  H3  UNL     1       0.638  43.946  68.774  1.00  0.00     0.167 HD
ENDBRANCH   1   2
BRANCH   1  10
HETATM   10  C6  UNL     1      -1.952  41.843  68.798  1.00  0.00     0.038 C 
HETATM   11  C7  UNL     1      -2.664  42.959  68.219  1.00  0.00     0.086 C 
HETATM   12  C8  UNL     1      -3.775  42.081  67.706  1.00  0.00     0.244 C 
HETATM   13  F1  UNL     1      -3.840  41.949  66.337  1.00  0.00    -0.206 F 
HETATM   14  F2  UNL     1      -5.042  42.371  68.176  1.00  0.00    -0.206 F 
HETATM   15  C9  UNL     1      -3.115  40.954  68.433  1.00  0.00     0.086 C 
ENDBRANCH   1  10
BRANCH   1  16
HETATM   16  N2  UNL     1       0.414  41.121  69.287  1.00  0.00     0.100 N 
HETATM   17  C10 UNL     1       1.348  40.203  68.617  1.00  0.00     0.273 C 
HETATM   18  C11 UNL     1       1.388  38.932  69.398  1.00  0.00     0.032 C 
HETATM   19  C12 UNL     1       0.131  39.052  70.266  1.00  0.00     0.032 C 
HETATM   20  C13 UNL     1       0.278  40.557  70.541  1.00  0.00     0.273 C 
ENDBRANCH   1  16
TORSDOF 3
ENDMDL
MODEL 4
REMARK VINA RESULT: -6.545143322      2.836      4.430
REMARK  3 active torsions:
REMARK  status: ('A' for Active; 'I' for Inactive)
REMARK    1  A    between atoms: C4_6  and  C5_7 
REMARK    2  A    between atoms: C5_7  and  C6_8 
REMARK    3  A    between atoms: C5_7  and  N2_14 
ROOT
HETATM    1  C5  UNL     1      -2.356  40.175  69.667  1.00  0.00     0.294 C 
ENDROOT
BRANCH   1   2
HETATM    2  C4  UNL     1      -2.523  40.542  68.222  1.00  0.00     0.115 A 
HETATM    3  N1  UNL     1      -1.668  41.209  67.419  1.00  0.00    -0.352 N 
HETATM    4  C3  UNL     1      -2.168  41.348  66.187  1.00  0.00     0.114 A 
ATOM      5  H1  UNL     1      -0.757  41.562  67.714  1.00  0.00     0.166 HD
HETATM    6  C2  UNL     1      -3.406  40.743  66.196  1.00  0.00     0.022 A 
HETATM    7  C1  UNL     1      -4.391  40.606  65.098  1.00  0.00     0.069 C 
HETATM    8  N3  UNL     1      -3.594  40.269  67.424  1.00  0.00    -0.347 N 
ATOM      9  H3  UNL     1      -4.429  39.767  67.728  1.00  0.00     0.167 HD
ENDBRANCH   1   2
BRANCH   1  10
HETATM   10  C6  UNL     1      -3.074  41.222  70.396  1.00  0.00     0.038 C 
HETATM   11  C7  UNL     1      -3.698  42.386  69.809  1.00  0.00     0.086 C 
HETATM   12  C8  UNL     1      -5.071  41.976  70.274  1.00  0.00     0.244 C 
HETATM   13  F1  UNL     1      -5.945  41.600  69.279  1.00  0.00    -0.206 F 
HETATM   14  F2  UNL     1      -5.719  42.869  71.107  1.00  0.00    -0.206 F 
HETATM   15  C9  UNL     1      -4.405  40.857  71.006  1.00  0.00     0.086 C 
ENDBRANCH   1  10
BRANCH   1  16
HETATM   16  N2  UNL     1      -1.034  39.849  69.837  1.00  0.00     0.100 N 
HETATM   17  C10 UNL     1      -0.970  38.498  70.418  1.00  0.00     0.273 C 
HETATM   18  C11 UNL     1      -0.313  38.601  71.753  1.00  0.00     0.032 C 
HETATM   19  C12 UNL     1      -0.410  40.102  72.043  1.00  0.00     0.032 C 
HETATM   20  C13 UNL     1      -0.124  40.554  70.602  1.00  0.00     0.273 C 
ENDBRANCH   1  16
TORSDOF 3
ENDMDL
MODEL 5
REMARK VINA RESULT: -6.543860485      3.293      4.671
REMARK  3 active torsions:
REMARK  status: ('A' for Active; 'I' for Inactive)
REMARK    1  A    between atoms: C4_6  and  C5_7 
REMARK    2  A    between atoms: C5_7  and  C6_8 
REMARK    3  A    between atoms: C5_7  and  N2_14 
ROOT
HETATM    1  C5  UNL     1      -2.850  40.996  69.076  1.00  0.00     0.294 C 
ENDROOT
BRANCH   1   2
HETATM    2  C4  UNL     1      -1.380  40.717  69.204  1.00  0.00     0.115 A 
HETATM    3  N1  UNL     1      -0.355  41.595  69.206  1.00  0.00    -0.352 N 
HETATM    4  C3  UNL     1       0.818  40.968  69.342  1.00  0.00     0.114 A 
ATOM      5  H1  UNL     1      -0.461  42.605  69.115  1.00  0.00     0.166 HD
HETATM    6  C2  UNL     1       0.536  39.622  69.431  1.00  0.00     0.022 A 
HETATM    7  C1  UNL     1       1.464  38.478  69.589  1.00  0.00     0.069 C 
HETATM    8  N3  UNL     1      -0.785  39.499  69.347  1.00  0.00    -0.347 N 
ATOM      9  H3  UNL     1      -1.287  38.611  69.384  1.00  0.00     0.167 HD
ENDBRANCH   1   2
BRANCH   1  10
HETATM   10  C6  UNL     1      -2.990  41.616  67.757  1.00  0.00     0.038 C 
HETATM   11  C7  UNL     1      -2.604  41.023  66.498  1.00  0.00     0.086 C 
HETATM   12  C8  UNL     1      -4.016  41.034  65.974  1.00  0.00     0.244 C 
HETATM   13  F1  UNL     1      -4.602  39.797  65.827  1.00  0.00    -0.206 F 
HETATM   14  F2  UNL     1      -4.225  41.755  64.813  1.00  0.00    -0.206 F 
HETATM   15  C9  UNL     1      -4.387  41.783  67.213  1.00  0.00     0.086 C 
ENDBRANCH   1  10
BRANCH   1  16
HETATM   16  N2  UNL     1      -3.248  41.553  70.265  1.00  0.00     0.100 N 
HETATM   17  C10 UNL     1      -3.626  40.460  71.175  1.00  0.00     0.273 C 
HETATM   18  C11 UNL     1      -5.071  40.619  71.511  1.00  0.00     0.032 C 
HETATM   19  C12 UNL     1      -5.548  41.584  70.421  1.00  0.00     0.032 C 
HETATM   20  C13 UNL     1      -4.282  42.455  70.424  1.00  0.00     0.273 C 
ENDBRANCH   1  16
TORSDOF 3
ENDMDL
