MODEL 1
REMARK VINA RESULT: -7.873673881      0.000      0.000
REMARK  5 active torsions:
REMARK  status: ('A' for Active; 'I' for Inactive)
REMARK    1  A    between atoms: C2_2  and  C3_3 
REMARK    2  A    between atoms: C3_3  and  N1_4 
REMARK    3  A    between atoms: C3_3  and  C11_21 
REMARK       I    between atoms: C4_6  and  N3_8 
REMARK    4  A    between atoms: N3_8  and  N4_10 
REMARK    5  A    between atoms: C5_12  and  C6_13 
ROOT
HETATM    1  N1  UNL     1       2.912 -11.580  -5.687  1.00  0.00    -0.358 N 
ATOM      2  H1  UNL     1       2.570 -12.505  -5.423  1.00  0.00     0.162 HD
HETATM    3  C4  UNL     1       2.865 -11.224  -6.907  1.00  0.00     0.203 C 
HETATM    4  N2  UNL     1       3.306  -9.970  -7.411  1.00  0.00    -0.062 NA
HETATM    5  N3  UNL     1       2.333 -12.148  -7.846  1.00  0.00    -0.274 N 
ATOM      6  H3  UNL     1       1.561 -12.744  -7.547  1.00  0.00     0.189 HD
ENDROOT
BRANCH   1   7
HETATM    7  C3  UNL     1       3.452 -10.681  -4.636  1.00  0.00     0.087 C 
BRANCH   7   8
HETATM    8  C2  UNL     1       2.393 -10.459  -3.645  1.00  0.00     0.021 C 
HETATM    9  C1  UNL     1       2.364  -9.218  -2.856  1.00  0.00     0.007 C 
ENDBRANCH   7   8
BRANCH   7  10
HETATM   10  C11 UNL     1       4.738 -11.286  -4.238  1.00  0.00     0.008 C 
HETATM   11  C12 UNL     1       5.744 -10.092  -4.210  1.00  0.00     0.007 C 
HETATM   12  C13 UNL     1       7.118 -10.640  -3.982  1.00  0.00     0.000 C 
HETATM   13  C14 UNL     1       7.138 -12.132  -3.828  1.00  0.00     0.000 C 
HETATM   14  C15 UNL     1       6.170 -12.681  -2.849  1.00  0.00     0.000 C 
HETATM   15  C16 UNL     1       4.855 -11.884  -2.886  1.00  0.00     0.007 C 
ENDBRANCH   7  10
ENDBRANCH   1   7
BRANCH   5  16
HETATM   16  N4  UNL     1       2.801 -12.291  -9.153  1.00  0.00    -0.309 N 
HETATM   17  C5  UNL     1       2.280 -11.671 -10.156  1.00  0.00     0.120 C 
ATOM     18  H4  UNL     1       3.591 -12.914  -9.321  1.00  0.00     0.186 HD
BRANCH  17  19
HETATM   19  C6  UNL     1       2.837 -11.882 -11.487  1.00  0.00    -0.003 A 
HETATM   20  C7  UNL     1       2.012 -12.006 -12.584  1.00  0.00     0.100 A 
HETATM   21  N5  UNL     1       2.538 -12.204 -13.828  1.00  0.00    -0.373 N 
HETATM   22  C8  UNL     1       3.870 -12.282 -14.009  1.00  0.00     0.106 A 
ATOM     23  H5  UNL     1       1.914 -12.294 -14.629  1.00  0.00     0.164 HD
HETATM   24  C9  UNL     1       4.743 -12.164 -12.948  1.00  0.00     0.027 A 
HETATM   25 BR1  UNL     1       6.599 -12.283 -13.275  1.00  0.00    -0.050 Br
HETATM   26  C10 UNL     1       4.191 -11.966 -11.699  1.00  0.00     0.034 A 
ENDBRANCH  17  19
ENDBRANCH   5  16
TORSDOF 5
ENDMDL
MODEL 2
REMARK VINA RESULT: -7.783043722      3.213      8.164
REMARK  5 active torsions:
REMARK  status: ('A' for Active; 'I' for Inactive)
REMARK    1  A    between atoms: C2_2  and  C3_3 
REMARK    2  A    between atoms: C3_3  and  N1_4 
REMARK    3  A    between atoms: C3_3  and  C11_21 
REMARK       I    between atoms: C4_6  and  N3_8 
REMARK    4  A    between atoms: N3_8  and  N4_10 
REMARK    5  A    between atoms: C5_12  and  C6_13 
ROOT
HETATM    1  N1  UNL     1       2.880 -10.834  -7.981  1.00  0.00    -0.358 N 
ATOM      2  H1  UNL     1       3.317 -10.009  -8.393  1.00  0.00     0.162 HD
HETATM    3  C4  UNL     1       2.945 -11.007  -6.722  1.00  0.00     0.203 C 
HETATM    4  N2  UNL     1       2.383 -12.108  -6.018  1.00  0.00    -0.062 NA
HETATM    5  N3  UNL     1       3.631 -10.029  -5.953  1.00  0.00    -0.274 N 
ATOM      6  H3  UNL     1       3.561  -9.055  -6.245  1.00  0.00     0.189 HD
ENDROOT
BRANCH   1   7
HETATM    7  C3  UNL     1       2.185 -11.803  -8.863  1.00  0.00     0.087 C 
BRANCH   7   8
HETATM    8  C2  UNL     1       0.776 -11.403  -8.949  1.00  0.00     0.021 C 
HETATM    9  C1  UNL     1       0.350 -10.077  -8.474  1.00  0.00     0.007 C 
ENDBRANCH   7   8
BRANCH   7  10
HETATM   10  C11 UNL     1       3.017 -11.881 -10.079  1.00  0.00     0.008 C 
HETATM   11  C12 UNL     1       2.052 -11.498 -11.245  1.00  0.00     0.007 C 
HETATM   12  C13 UNL     1       2.768 -11.719 -12.541  1.00  0.00     0.000 C 
HETATM   13  C14 UNL     1       4.174 -12.209 -12.360  1.00  0.00     0.000 C 
HETATM   14  C15 UNL     1       5.003 -11.425 -11.413  1.00  0.00     0.000 C 
HETATM   15  C16 UNL     1       4.150 -10.937 -10.228  1.00  0.00     0.007 C 
ENDBRANCH   7  10
ENDBRANCH   1   7
BRANCH   5  16
HETATM   16  N4  UNL     1       4.396 -10.320  -4.823  1.00  0.00    -0.309 N 
HETATM   17  C5  UNL     1       5.628 -10.694  -4.887  1.00  0.00     0.120 C 
ATOM     18  H4  UNL     1       3.960 -10.233  -3.905  1.00  0.00     0.186 HD
BRANCH  17  19
HETATM   19  C6  UNL     1       6.349 -10.976  -3.652  1.00  0.00    -0.003 A 
HETATM   20  C7  UNL     1       5.690 -11.472  -2.549  1.00  0.00     0.100 A 
HETATM   21  N5  UNL     1       6.369 -11.734  -1.394  1.00  0.00    -0.373 N 
HETATM   22  C8  UNL     1       7.695 -11.515  -1.310  1.00  0.00     0.106 A 
ATOM     23  H5  UNL     1       5.866 -12.101  -0.587  1.00  0.00     0.164 HD
HETATM   24  C9  UNL     1       8.407 -11.021  -2.382  1.00  0.00     0.027 A 
HETATM   25 BR1  UNL     1      10.264 -10.737  -2.192  1.00  0.00    -0.050 Br
HETATM   26  C10 UNL     1       7.701 -10.761  -3.539  1.00  0.00     0.034 A 
ENDBRANCH  17  19
ENDBRANCH   5  16
TORSDOF 5
ENDMDL
MODEL 3
REMARK VINA RESULT: -7.767450476      1.953      2.786
REMARK  5 active torsions:
REMARK  status: ('A' for Active; 'I' for Inactive)
REMARK    1  A    between atoms: C2_2  and  C3_3 
REMARK    2  A    between atoms: C3_3  and  N1_4 
REMARK    3  A    between atoms: C3_3  and  C11_21 
REMARK       I    between atoms: C4_6  and  N3_8 
REMARK    4  A    between atoms: N3_8  and  N4_10 
REMARK    5  A    between atoms: C5_12  and  C6_13 
ROOT
HETATM    1  N1  UNL     1       1.923 -11.769  -6.724  1.00  0.00    -0.358 N 
ATOM      2  H1  UNL     1       1.055 -12.287  -6.588  1.00  0.00     0.162 HD
HETATM    3  C4  UNL     1       2.270 -11.436  -7.902  1.00  0.00     0.203 C 
HETATM    4  N2  UNL     1       3.450 -10.715  -8.234  1.00  0.00    -0.062 NA
HETATM    5  N3  UNL     1       1.416 -11.810  -8.974  1.00  0.00    -0.274 N 
ATOM      6  H3  UNL     1       0.410 -11.804  -8.809  1.00  0.00     0.189 HD
ENDROOT
BRANCH   1   7
HETATM    7  C3  UNL     1       2.752 -11.422  -5.543  1.00  0.00     0.087 C 
BRANCH   7   8
HETATM    8  C2  UNL     1       2.681  -9.969  -5.354  1.00  0.00     0.021 C 
HETATM    9  C1  UNL     1       2.374  -9.408  -4.029  1.00  0.00     0.007 C 
ENDBRANCH   7   8
BRANCH   7  10
HETATM   10  C11 UNL     1       2.305 -12.340  -4.478  1.00  0.00     0.008 C 
HETATM   11  C12 UNL     1       1.772 -13.597  -5.236  1.00  0.00     0.007 C 
HETATM   12  C13 UNL     1       1.137 -14.514  -4.238  1.00  0.00     0.000 C 
HETATM   13  C14 UNL     1       1.209 -13.995  -2.833  1.00  0.00     0.000 C 
HETATM   14  C15 UNL     1       2.554 -13.561  -2.385  1.00  0.00     0.000 C 
HETATM   15  C16 UNL     1       3.316 -12.889  -3.542  1.00  0.00     0.007 C 
ENDBRANCH   7  10
ENDBRANCH   1   7
BRANCH   5  16
HETATM   16  N4  UNL     1       1.870 -12.185 -10.239  1.00  0.00    -0.309 N 
HETATM   17  C5  UNL     1       1.946 -11.362 -11.229  1.00  0.00     0.120 C 
ATOM     18  H4  UNL     1       2.154 -13.153 -10.387  1.00  0.00     0.186 HD
BRANCH  17  19
HETATM   19  C6  UNL     1       2.433 -11.844 -12.516  1.00  0.00    -0.003 A 
HETATM   20  C7  UNL     1       1.554 -12.168 -13.526  1.00  0.00     0.100 A 
HETATM   21  N5  UNL     1       2.015 -12.620 -14.729  1.00  0.00    -0.373 N 
HETATM   22  C8  UNL     1       3.336 -12.757 -14.954  1.00  0.00     0.106 A 
ATOM     23  H5  UNL     1       1.351 -12.855 -15.466  1.00  0.00     0.164 HD
HETATM   24  C9  UNL     1       4.262 -12.447 -13.981  1.00  0.00     0.027 A 
HETATM   25 BR1  UNL     1       6.098 -12.664 -14.364  1.00  0.00    -0.050 Br
HETATM   26  C10 UNL     1       3.775 -11.994 -12.771  1.00  0.00     0.034 A 
ENDBRANCH  17  19
ENDBRANCH   5  16
TORSDOF 5
ENDMDL
MODEL 4
REMARK VINA RESULT: -7.724377454      2.301      3.153
REMARK  5 active torsions:
REMARK  status: ('A' for Active; 'I' for Inactive)
REMARK    1  A    between atoms: C2_2  and  C3_3 
REMARK    2  A    between atoms: C3_3  and  N1_4 
REMARK    3  A    between atoms: C3_3  and  C11_21 
REMARK       I    between atoms: C4_6  and  N3_8 
REMARK    4  A    between atoms: N3_8  and  N4_10 
REMARK    5  A    between atoms: C5_12  and  C6_13 
ROOT
HETATM    1  N1  UNL     1       2.374 -10.495  -5.268  1.00  0.00    -0.358 N 
ATOM      2  H1  UNL     1       1.364 -10.378  -5.349  1.00  0.00     0.162 HD
HETATM    3  C4  UNL     1       3.111 -10.252  -6.276  1.00  0.00     0.203 C 
HETATM    4  N2  UNL     1       4.528 -10.373  -6.300  1.00  0.00    -0.062 NA
HETATM    5  N3  UNL     1       2.477  -9.827  -7.473  1.00  0.00    -0.274 N 
ATOM      6  H3  UNL     1       1.655  -9.228  -7.393  1.00  0.00     0.189 HD
ENDROOT
BRANCH   1   7
HETATM    7  C3  UNL     1       2.949 -10.944  -3.975  1.00  0.00     0.087 C 
BRANCH   7   8
HETATM    8  C2  UNL     1       2.799  -9.849  -3.011  1.00  0.00     0.021 C 
HETATM    9  C1  UNL     1       1.897  -9.994  -1.858  1.00  0.00     0.007 C 
ENDBRANCH   7   8
BRANCH   7  10
HETATM   10  C11 UNL     1       2.333 -12.260  -3.718  1.00  0.00     0.008 C 
HETATM   11  C12 UNL     1       1.999 -12.825  -5.135  1.00  0.00     0.007 C 
HETATM   12  C13 UNL     1       1.212 -14.086  -4.966  1.00  0.00     0.000 C 
HETATM   13  C14 UNL     1       0.991 -14.453  -3.528  1.00  0.00     0.000 C 
HETATM   14  C15 UNL     1       2.207 -14.460  -2.681  1.00  0.00     0.000 C 
HETATM   15  C16 UNL     1       3.158 -13.323  -3.095  1.00  0.00     0.007 C 
ENDBRANCH   7  10
ENDBRANCH   1   7
BRANCH   5  16
HETATM   16  N4  UNL     1       2.908 -10.178  -8.753  1.00  0.00    -0.309 N 
HETATM   17  C5  UNL     1       2.793 -11.371  -9.229  1.00  0.00     0.120 C 
ATOM     18  H4  UNL     1       3.333  -9.459  -9.337  1.00  0.00     0.186 HD
BRANCH  17  19
HETATM   19  C6  UNL     1       3.272 -11.645 -10.578  1.00  0.00    -0.003 A 
HETATM   20  C7  UNL     1       4.622 -11.699 -10.849  1.00  0.00     0.100 A 
HETATM   21  N5  UNL     1       5.065 -11.956 -12.114  1.00  0.00    -0.373 N 
HETATM   22  C8  UNL     1       4.195 -12.163 -13.121  1.00  0.00     0.106 A 
ATOM     23  H5  UNL     1       6.067 -11.992 -12.298  1.00  0.00     0.164 HD
HETATM   24  C9  UNL     1       2.834 -12.122 -12.909  1.00  0.00     0.027 A 
HETATM   25 BR1  UNL     1       1.672 -12.421 -14.367  1.00  0.00    -0.050 Br
HETATM   26  C10 UNL     1       2.406 -11.860 -11.623  1.00  0.00     0.034 A 
ENDBRANCH  17  19
ENDBRANCH   5  16
TORSDOF 5
ENDMDL
MODEL 5
REMARK VINA RESULT: -7.711016656      2.713      8.387
REMARK  5 active torsions:
REMARK  status: ('A' for Active; 'I' for Inactive)
REMARK    1  A    between atoms: C2_2  and  C3_3 
REMARK    2  A    between atoms: C3_3  and  N1_4 
REMARK    3  A    between atoms: C3_3  and  C11_21 
REMARK       I    between atoms: C4_6  and  N3_8 
REMARK    4  A    between atoms: N3_8  and  N4_10 
REMARK    5  A    between atoms: C5_12  and  C6_13 
ROOT
HETATM    1  N1  UNL     1       2.966 -11.031 -11.455  1.00  0.00    -0.358 N 
ATOM      2  H1  UNL     1       3.527 -10.238 -11.769  1.00  0.00     0.162 HD
HETATM    3  C4  UNL     1       2.422 -10.991 -10.305  1.00  0.00     0.203 C 
HETATM    4  N2  UNL     1       1.618 -12.021  -9.745  1.00  0.00    -0.062 NA
HETATM    5  N3  UNL     1       2.630  -9.829  -9.514  1.00  0.00    -0.274 N 
ATOM      6  H3  UNL     1       2.685  -8.929  -9.990  1.00  0.00     0.189 HD
ENDROOT
BRANCH   1   7
HETATM    7  C3  UNL     1       2.804 -12.202 -12.350  1.00  0.00     0.087 C 
BRANCH   7   8
HETATM    8  C2  UNL     1       1.620 -11.972 -13.184  1.00  0.00     0.021 C 
HETATM    9  C1  UNL     1       1.197 -12.982 -14.168  1.00  0.00     0.007 C 
ENDBRANCH   7   8
BRANCH   7  10
HETATM   10  C11 UNL     1       4.130 -12.400 -12.968  1.00  0.00     0.008 C 
HETATM   11  C12 UNL     1       3.986 -11.814 -14.408  1.00  0.00     0.007 C 
HETATM   12  C13 UNL     1       5.235 -12.126 -15.171  1.00  0.00     0.000 C 
HETATM   13  C14 UNL     1       6.250 -12.872 -14.356  1.00  0.00     0.000 C 
HETATM   14  C15 UNL     1       6.561 -12.280 -13.033  1.00  0.00     0.000 C 
HETATM   15  C16 UNL     1       5.293 -11.676 -12.402  1.00  0.00     0.007 C 
ENDBRANCH   7  10
ENDBRANCH   1   7
BRANCH   5  16
HETATM   16  N4  UNL     1       2.765  -9.844  -8.126  1.00  0.00    -0.309 N 
HETATM   17  C5  UNL     1       3.640 -10.567  -7.514  1.00  0.00     0.120 C 
ATOM     18  H4  UNL     1       2.143  -9.257  -7.570  1.00  0.00     0.186 HD
BRANCH  17  19
HETATM   19  C6  UNL     1       3.708 -10.518  -6.058  1.00  0.00    -0.003 A 
HETATM   20  C7  UNL     1       2.564 -10.368  -5.304  1.00  0.00     0.100 A 
HETATM   21  N5  UNL     1       2.633 -10.322  -3.942  1.00  0.00    -0.373 N 
HETATM   22  C8  UNL     1       3.817 -10.422  -3.307  1.00  0.00     0.106 A 
ATOM     23  H5  UNL     1       1.778 -10.211  -3.398  1.00  0.00     0.164 HD
HETATM   24  C9  UNL     1       4.993 -10.574  -4.010  1.00  0.00     0.027 A 
HETATM   25 BR1  UNL     1       6.617 -10.708  -3.056  1.00  0.00    -0.050 Br
HETATM   26  C10 UNL     1       4.902 -10.617  -5.386  1.00  0.00     0.034 A 
ENDBRANCH  17  19
ENDBRANCH   5  16
TORSDOF 5
ENDMDL
