MODEL 1
REMARK VINA RESULT: -9.728788959      0.000      0.000
REMARK  6 active torsions:
REMARK  status: ('A' for Active; 'I' for Inactive)
REMARK    1  A    between atoms: O1_1  and  C1_3 
REMARK    2  A    between atoms: C1_3  and  C2_4 
REMARK    3  A    between atoms: C1_3  and  C13_17 
REMARK    4  A    between atoms: C2_4  and  N1_5 
REMARK    5  A    between atoms: N1_5  and  C3_7 
REMARK    6  A    between atoms: C13_17  and  N2_18 
ROOT
HETATM    1  C1  UNL     1       2.023 -12.780  -8.248  1.00  0.00     0.086 C 
ENDROOT
BRANCH   1   2
HETATM    2  O1  UNL     1       2.298 -14.086  -8.013  1.00  0.00    -0.362 OA
ATOM      3  H1  UNL     1       2.699 -14.271  -7.172  1.00  0.00     0.217 HD
ENDBRANCH   1   2
BRANCH   1   4
HETATM    4  C2  UNL     1       1.617 -11.980  -7.035  1.00  0.00     0.117 C 
BRANCH   4   5
HETATM    5  N1  UNL     1       1.891 -12.504  -5.768  1.00  0.00    -0.391 N 
ATOM      6  H1  UNL     1       1.240 -13.164  -5.342  1.00  0.00     0.159 HD
BRANCH   5   7
HETATM    7  C3  UNL     1       3.056 -12.130  -5.076  1.00  0.00     0.089 C 
HETATM    8  C4  UNL     1       3.069 -12.344  -3.597  1.00  0.00     0.009 C 
HETATM    9  C5  UNL     1       2.278 -11.369  -2.794  1.00  0.00     0.011 C 
HETATM   10  C9  UNL     1       4.535 -12.216  -3.151  1.00  0.00     0.011 C 
HETATM   11  C6  UNL     1       2.778  -9.942  -3.060  1.00  0.00    -0.013 C 
HETATM   12  C7  UNL     1       4.227  -9.812  -2.728  1.00  0.00     0.009 C 
HETATM   13  C12 UNL     1       2.549  -9.713  -4.535  1.00  0.00     0.011 C 
HETATM   14  C8  UNL     1       5.032 -10.833  -3.490  1.00  0.00    -0.013 C 
HETATM   15  C10 UNL     1       4.887 -10.544  -4.964  1.00  0.00     0.011 C 
HETATM   16  C11 UNL     1       3.419 -10.658  -5.302  1.00  0.00     0.009 C 
ENDBRANCH   5   7
ENDBRANCH   4   5
ENDBRANCH   1   4
BRANCH   1  17
HETATM   17  C13 UNL     1       1.321 -12.433  -9.516  1.00  0.00     0.338 C 
BRANCH  17  18
HETATM   18  N2  UNL     1       2.297 -12.045 -10.536  1.00  0.00     0.098 N 
HETATM   19  C14 UNL     1       3.040 -10.858 -10.070  1.00  0.00     0.276 C 
HETATM   20  C15 UNL     1       4.282 -10.651 -10.907  1.00  0.00     0.072 C 
HETATM   21  C16 UNL     1       4.742 -11.909 -11.618  1.00  0.00     0.205 C 
HETATM   22  F1  UNL     1       6.039 -11.691 -12.040  1.00  0.00    -0.244 F 
HETATM   23  C17 UNL     1       3.924 -12.142 -12.853  1.00  0.00    -0.017 A 
HETATM   24  C18 UNL     1       4.627 -12.518 -13.955  1.00  0.00     0.011 A 
HETATM   25  C22 UNL     1       2.540 -11.982 -12.873  1.00  0.00    -0.021 A 
HETATM   26  C19 UNL     1       3.936 -12.749 -15.135  1.00  0.00     0.001 A 
HETATM   27  C20 UNL     1       2.569 -12.605 -15.209  1.00  0.00     0.001 A 
HETATM   28  C21 UNL     1       1.892 -12.221 -14.064  1.00  0.00     0.009 A 
HETATM   29  C23 UNL     1       1.626 -11.584 -11.758  1.00  0.00     0.312 C 
ENDBRANCH  17  18
ENDBRANCH   1  17
TORSDOF 6
ENDMDL
MODEL 2
REMARK VINA RESULT: -9.431570923      1.805      2.588
REMARK  6 active torsions:
REMARK  status: ('A' for Active; 'I' for Inactive)
REMARK    1  A    between atoms: O1_1  and  C1_3 
REMARK    2  A    between atoms: C1_3  and  C2_4 
REMARK    3  A    between atoms: C1_3  and  C13_17 
REMARK    4  A    between atoms: C2_4  and  N1_5 
REMARK    5  A    between atoms: N1_5  and  C3_7 
REMARK    6  A    between atoms: C13_17  and  N2_18 
ROOT
HETATM    1  C1  UNL     1       2.768 -10.312  -8.516  1.00  0.00     0.086 C 
ENDROOT
BRANCH   1   2
HETATM    2  O1  UNL     1       1.600  -9.820  -8.035  1.00  0.00    -0.362 OA
ATOM      3  H1  UNL     1       1.339  -8.978  -8.388  1.00  0.00     0.217 HD
ENDBRANCH   1   2
BRANCH   1   4
HETATM    4  C2  UNL     1       3.801 -10.653  -7.470  1.00  0.00     0.117 C 
BRANCH   4   5
HETATM    5  N1  UNL     1       3.621 -10.168  -6.171  1.00  0.00    -0.391 N 
ATOM      6  H1  UNL     1       3.363  -9.192  -6.027  1.00  0.00     0.159 HD
BRANCH   5   7
HETATM    7  C3  UNL     1       3.792 -11.014  -5.062  1.00  0.00     0.089 C 
HETATM    8  C4  UNL     1       2.652 -11.119  -4.102  1.00  0.00     0.009 C 
HETATM    9  C5  UNL     1       2.466  -9.956  -3.188  1.00  0.00     0.011 C 
HETATM   10  C9  UNL     1       2.934 -12.347  -3.222  1.00  0.00     0.011 C 
HETATM   11  C6  UNL     1       3.742  -9.724  -2.367  1.00  0.00    -0.013 C 
HETATM   12  C7  UNL     1       4.098 -10.937  -1.575  1.00  0.00     0.009 C 
HETATM   13  C12 UNL     1       4.815  -9.421  -3.385  1.00  0.00     0.011 C 
HETATM   14  C8  UNL     1       4.231 -12.133  -2.481  1.00  0.00    -0.013 C 
HETATM   15  C10 UNL     1       5.372 -11.877  -3.437  1.00  0.00     0.011 C 
HETATM   16  C11 UNL     1       5.024 -10.638  -4.230  1.00  0.00     0.009 C 
ENDBRANCH   5   7
ENDBRANCH   4   5
ENDBRANCH   1   4
BRANCH   1  17
HETATM   17  C13 UNL     1       3.298  -9.735  -9.783  1.00  0.00     0.338 C 
BRANCH  17  18
HETATM   18  N2  UNL     1       3.196 -10.721 -10.861  1.00  0.00     0.098 N 
HETATM   19  C14 UNL     1       2.088 -11.650 -10.566  1.00  0.00     0.276 C 
HETATM   20  C15 UNL     1       1.717 -12.437 -11.803  1.00  0.00     0.072 C 
HETATM   21  C16 UNL     1       2.151 -11.767 -13.092  1.00  0.00     0.205 C 
HETATM   22  F1  UNL     1       1.461 -12.377 -14.123  1.00  0.00    -0.244 F 
HETATM   23  C17 UNL     1       3.607 -12.015 -13.347  1.00  0.00    -0.017 A 
HETATM   24  C18 UNL     1       3.928 -12.334 -14.631  1.00  0.00     0.011 A 
HETATM   25  C22 UNL     1       4.567 -11.928 -12.341  1.00  0.00    -0.021 A 
HETATM   26  C19 UNL     1       5.257 -12.579 -14.939  1.00  0.00     0.001 A 
HETATM   27  C20 UNL     1       6.245 -12.506 -13.983  1.00  0.00     0.001 A 
HETATM   28  C21 UNL     1       5.875 -12.178 -12.690  1.00  0.00     0.009 A 
HETATM   29  C23 UNL     1       4.382 -11.586 -10.896  1.00  0.00     0.312 C 
ENDBRANCH  17  18
ENDBRANCH   1  17
TORSDOF 6
ENDMDL
MODEL 3
REMARK VINA RESULT: -9.364961392      0.660      1.746
REMARK  6 active torsions:
REMARK  status: ('A' for Active; 'I' for Inactive)
REMARK    1  A    between atoms: O1_1  and  C1_3 
REMARK    2  A    between atoms: C1_3  and  C2_4 
REMARK    3  A    between atoms: C1_3  and  C13_17 
REMARK    4  A    between atoms: C2_4  and  N1_5 
REMARK    5  A    between atoms: N1_5  and  C3_7 
REMARK    6  A    between atoms: C13_17  and  N2_18 
ROOT
HETATM    1  C1  UNL     1       1.963 -13.252  -7.887  1.00  0.00     0.086 C 
ENDROOT
BRANCH   1   2
HETATM    2  O1  UNL     1       2.342 -14.452  -8.390  1.00  0.00    -0.362 OA
ATOM      3  H1  UNL     1       1.653 -15.103  -8.447  1.00  0.00     0.217 HD
ENDBRANCH   1   2
BRANCH   1   4
HETATM    4  C2  UNL     1       1.452 -13.282  -6.467  1.00  0.00     0.117 C 
BRANCH   4   5
HETATM    5  N1  UNL     1       2.363 -13.077  -5.426  1.00  0.00    -0.391 N 
ATOM      6  H1  UNL     1       3.053 -13.795  -5.209  1.00  0.00     0.159 HD
BRANCH   5   7
HETATM    7  C3  UNL     1       2.335 -11.888  -4.676  1.00  0.00     0.089 C 
HETATM    8  C4  UNL     1       2.914 -10.667  -5.313  1.00  0.00     0.009 C 
HETATM    9  C5  UNL     1       4.402 -10.604  -5.360  1.00  0.00     0.011 C 
HETATM   10  C9  UNL     1       2.435  -9.469  -4.476  1.00  0.00     0.011 C 
HETATM   11  C6  UNL     1       4.977 -10.702  -3.940  1.00  0.00    -0.013 C 
HETATM   12  C7  UNL     1       4.452  -9.606  -3.073  1.00  0.00     0.009 C 
HETATM   13  C12 UNL     1       4.527 -12.048  -3.425  1.00  0.00     0.011 C 
HETATM   14  C8  UNL     1       2.945  -9.622  -3.065  1.00  0.00    -0.013 C 
HETATM   15  C10 UNL     1       2.491 -10.927  -2.456  1.00  0.00     0.011 C 
HETATM   16  C11 UNL     1       3.034 -12.040  -3.320  1.00  0.00     0.009 C 
ENDBRANCH   5   7
ENDBRANCH   4   5
ENDBRANCH   1   4
BRANCH   1  17
HETATM   17  C13 UNL     1       1.273 -12.300  -8.802  1.00  0.00     0.338 C 
BRANCH  17  18
HETATM   18  N2  UNL     1       2.180 -11.897  -9.879  1.00  0.00     0.098 N 
HETATM   19  C14 UNL     1       2.914 -10.684  -9.466  1.00  0.00     0.276 C 
HETATM   20  C15 UNL     1       4.101 -10.453 -10.372  1.00  0.00     0.072 C 
HETATM   21  C16 UNL     1       4.557 -11.706 -11.094  1.00  0.00     0.205 C 
HETATM   22  F1  UNL     1       5.823 -11.457 -11.590  1.00  0.00    -0.244 F 
HETATM   23  C17 UNL     1       3.679 -11.976 -12.280  1.00  0.00    -0.017 A 
HETATM   24  C18 UNL     1       4.332 -12.345 -13.416  1.00  0.00     0.011 A 
HETATM   25  C22 UNL     1       2.293 -11.855 -12.226  1.00  0.00    -0.021 A 
HETATM   26  C19 UNL     1       3.585 -12.608 -14.553  1.00  0.00     0.001 A 
HETATM   27  C20 UNL     1       2.212 -12.503 -14.554  1.00  0.00     0.001 A 
HETATM   28  C21 UNL     1       1.588 -12.125 -13.377  1.00  0.00     0.009 A 
HETATM   29  C23 UNL     1       1.430 -11.469 -11.066  1.00  0.00     0.312 C 
ENDBRANCH  17  18
ENDBRANCH   1  17
TORSDOF 6
ENDMDL
MODEL 4
REMARK VINA RESULT: -9.170175686      1.750      2.728
REMARK  6 active torsions:
REMARK  status: ('A' for Active; 'I' for Inactive)
REMARK    1  A    between atoms: O1_1  and  C1_3 
REMARK    2  A    between atoms: C1_3  and  C2_4 
REMARK    3  A    between atoms: C1_3  and  C13_17 
REMARK    4  A    between atoms: C2_4  and  N1_5 
REMARK    5  A    between atoms: N1_5  and  C3_7 
REMARK    6  A    between atoms: C13_17  and  N2_18 
ROOT
HETATM    1  C1  UNL     1       2.782 -10.375  -8.452  1.00  0.00     0.086 C 
ENDROOT
BRANCH   1   2
HETATM    2  O1  UNL     1       1.585  -9.910  -8.020  1.00  0.00    -0.362 OA
ATOM      3  H1  UNL     1       0.972  -9.672  -8.705  1.00  0.00     0.217 HD
ENDBRANCH   1   2
BRANCH   1   4
HETATM    4  C2  UNL     1       3.784 -10.682  -7.365  1.00  0.00     0.117 C 
BRANCH   4   5
HETATM    5  N1  UNL     1       3.306 -11.038  -6.100  1.00  0.00    -0.391 N 
ATOM      6  H1  UNL     1       2.685 -11.841  -6.001  1.00  0.00     0.159 HD
BRANCH   5   7
HETATM    7  C3  UNL     1       3.675 -10.298  -4.963  1.00  0.00     0.089 C 
HETATM    8  C4  UNL     1       4.972 -10.652  -4.311  1.00  0.00     0.009 C 
HETATM    9  C5  UNL     1       4.969 -11.902  -3.498  1.00  0.00     0.011 C 
HETATM   10  C9  UNL     1       5.313  -9.493  -3.360  1.00  0.00     0.011 C 
HETATM   11  C6  UNL     1       3.906 -11.807  -2.394  1.00  0.00    -0.013 C 
HETATM   12  C7  UNL     1       4.155 -10.631  -1.511  1.00  0.00     0.009 C 
HETATM   13  C12 UNL     1       2.593 -11.655  -3.124  1.00  0.00     0.011 C 
HETATM   14  C8  UNL     1       4.220  -9.367  -2.329  1.00  0.00    -0.013 C 
HETATM   15  C10 UNL     1       2.874  -9.156  -2.980  1.00  0.00     0.011 C 
HETATM   16  C11 UNL     1       2.610 -10.354  -3.862  1.00  0.00     0.009 C 
ENDBRANCH   5   7
ENDBRANCH   4   5
ENDBRANCH   1   4
BRANCH   1  17
HETATM   17  C13 UNL     1       3.345  -9.795  -9.704  1.00  0.00     0.338 C 
BRANCH  17  18
HETATM   18  N2  UNL     1       3.228 -10.761 -10.798  1.00  0.00     0.098 N 
HETATM   19  C14 UNL     1       2.121 -11.693 -10.507  1.00  0.00     0.276 C 
HETATM   20  C15 UNL     1       1.734 -12.457 -11.753  1.00  0.00     0.072 C 
HETATM   21  C16 UNL     1       2.154 -11.764 -13.035  1.00  0.00     0.205 C 
HETATM   22  F1  UNL     1       1.450 -12.353 -14.068  1.00  0.00    -0.244 F 
HETATM   23  C17 UNL     1       3.607 -12.011 -13.312  1.00  0.00    -0.017 A 
HETATM   24  C18 UNL     1       3.911 -12.307 -14.605  1.00  0.00     0.011 A 
HETATM   25  C22 UNL     1       4.578 -11.944 -12.316  1.00  0.00    -0.021 A 
HETATM   26  C19 UNL     1       5.236 -12.549 -14.934  1.00  0.00     0.001 A 
HETATM   27  C20 UNL     1       6.235 -12.496 -13.988  1.00  0.00     0.001 A 
HETATM   28  C21 UNL     1       5.882 -12.191 -12.685  1.00  0.00     0.009 A 
HETATM   29  C23 UNL     1       4.411 -11.628 -10.863  1.00  0.00     0.312 C 
ENDBRANCH  17  18
ENDBRANCH   1  17
TORSDOF 6
ENDMDL
MODEL 5
REMARK VINA RESULT: -8.960271153      1.454      2.565
REMARK  6 active torsions:
REMARK  status: ('A' for Active; 'I' for Inactive)
REMARK    1  A    between atoms: O1_1  and  C1_3 
REMARK    2  A    between atoms: C1_3  and  C2_4 
REMARK    3  A    between atoms: C1_3  and  C13_17 
REMARK    4  A    between atoms: C2_4  and  N1_5 
REMARK    5  A    between atoms: N1_5  and  C3_7 
REMARK    6  A    between atoms: C13_17  and  N2_18 
ROOT
HETATM    1  C1  UNL     1       1.871 -13.157  -8.156  1.00  0.00     0.086 C 
ENDROOT
BRANCH   1   2
HETATM    2  O1  UNL     1       1.652 -14.482  -8.339  1.00  0.00    -0.362 OA
ATOM      3  H1  UNL     1       1.039 -14.879  -7.731  1.00  0.00     0.217 HD
ENDBRANCH   1   2
BRANCH   1   4
HETATM    4  C2  UNL     1       1.918 -12.706  -6.717  1.00  0.00     0.117 C 
BRANCH   4   5
HETATM    5  N1  UNL     1       2.026 -13.677  -5.716  1.00  0.00    -0.391 N 
ATOM      6  H1  UNL     1       2.330 -14.620  -5.958  1.00  0.00     0.159 HD
BRANCH   5   7
HETATM    7  C3  UNL     1       1.719 -13.364  -4.381  1.00  0.00     0.089 C 
HETATM    8  C4  UNL     1       2.671 -12.470  -3.654  1.00  0.00     0.009 C 
HETATM    9  C5  UNL     1       3.947 -13.103  -3.215  1.00  0.00     0.011 C 
HETATM   10  C9  UNL     1       1.942 -11.993  -2.388  1.00  0.00     0.011 C 
HETATM   11  C6  UNL     1       3.652 -14.303  -2.303  1.00  0.00    -0.013 C 
HETATM   12  C7  UNL     1       2.858 -13.886  -1.111  1.00  0.00     0.009 C 
HETATM   13  C12 UNL     1       2.861 -15.262  -3.160  1.00  0.00     0.011 C 
HETATM   14  C8  UNL     1       1.592 -13.192  -1.542  1.00  0.00    -0.013 C 
HETATM   15  C10 UNL     1       0.750 -14.180  -2.313  1.00  0.00     0.011 C 
HETATM   16  C11 UNL     1       1.557 -14.618  -3.513  1.00  0.00     0.009 C 
ENDBRANCH   5   7
ENDBRANCH   4   5
ENDBRANCH   1   4
BRANCH   1  17
HETATM   17  C13 UNL     1       1.234 -12.208  -9.111  1.00  0.00     0.338 C 
BRANCH  17  18
HETATM   18  N2  UNL     1       2.183 -11.853 -10.170  1.00  0.00     0.098 N 
HETATM   19  C14 UNL     1       2.952 -10.664  -9.754  1.00  0.00     0.276 C 
HETATM   20  C15 UNL     1       4.169 -10.491 -10.633  1.00  0.00     0.072 C 
HETATM   21  C16 UNL     1       4.594 -11.770 -11.327  1.00  0.00     0.205 C 
HETATM   22  F1  UNL     1       5.880 -11.575 -11.793  1.00  0.00    -0.244 F 
HETATM   23  C17 UNL     1       3.737 -12.022 -12.531  1.00  0.00    -0.017 A 
HETATM   24  C18 UNL     1       4.403 -12.431 -13.645  1.00  0.00     0.011 A 
HETATM   25  C22 UNL     1       2.356 -11.847 -12.513  1.00  0.00    -0.021 A 
HETATM   26  C19 UNL     1       3.674 -12.680 -14.798  1.00  0.00     0.001 A 
HETATM   27  C20 UNL     1       2.307 -12.524 -14.834  1.00  0.00     0.001 A 
HETATM   28  C21 UNL     1       1.669 -12.106 -13.679  1.00  0.00     0.009 A 
HETATM   29  C23 UNL     1       1.479 -11.413 -11.381  1.00  0.00     0.312 C 
ENDBRANCH  17  18
ENDBRANCH   1  17
TORSDOF 6
ENDMDL
