MODEL 1
REMARK VINA RESULT: -8.998675191      0.000      0.000
REMARK  6 active torsions:
REMARK  status: ('A' for Active; 'I' for Inactive)
REMARK    1  A    between atoms: N1_2  and  C3_4 
REMARK       I    between atoms: N2_7  and  C6_8 
REMARK    2  A    between atoms: C6_8  and  C7_10 
REMARK    3  A    between atoms: C12_15  and  C13_16 
REMARK    4  A    between atoms: C13_16  and  O2_17 
REMARK    5  A    between atoms: C13_16  and  N3_19 
REMARK    6  A    between atoms: N3_19  and  C14_21 
ROOT
HETATM    1  C7  UNL     1       3.022 -11.736  -4.857  1.00  0.00     0.042 A 
HETATM    2  C8  UNL     1       2.796 -12.902  -4.104  1.00  0.00     0.018 A 
HETATM    3  C9  UNL     1       1.927 -13.880  -4.502  1.00  0.00     0.001 A 
HETATM    4  C10 UNL     1       1.249 -13.709  -5.689  1.00  0.00     0.001 A 
HETATM    5  C11 UNL     1       1.453 -12.579  -6.442  1.00  0.00     0.012 A 
HETATM    6  C12 UNL     1       2.333 -11.599  -6.029  1.00  0.00     0.005 A 
ENDROOT
BRANCH   1   7
HETATM    7  C6  UNL     1       3.941 -10.723  -4.400  1.00  0.00     0.254 C 
HETATM    8  N2  UNL     1       3.569  -9.873  -3.338  1.00  0.00    -0.348 N 
HETATM    9  C5  UNL     1       2.290  -9.954  -2.664  1.00  0.00     0.128 C 
HETATM   10  C20 UNL     1       4.492  -8.836  -2.853  1.00  0.00     0.128 C 
HETATM   11  C4  UNL     1       2.432  -9.522  -1.222  1.00  0.00     0.055 C 
HETATM   12  C3  UNL     1       2.838  -8.072  -1.141  1.00  0.00     0.225 C 
HETATM   13  C21 UNL     1       3.692  -7.667  -2.325  1.00  0.00     0.055 C 
HETATM   14  O1  UNL     1       5.060 -10.569  -4.913  1.00  0.00    -0.267 OA
BRANCH  12  15
HETATM   15  N1  UNL     1       1.680  -7.199  -1.130  1.00  0.00     0.084 N 
HETATM   16  C1  UNL     1       2.076  -5.960  -0.460  1.00  0.00     0.309 C 
HETATM   17  C2  UNL     1       0.572  -7.793  -0.400  1.00  0.00     0.309 C 
ENDBRANCH  12  15
ENDBRANCH   1   7
BRANCH   6  18
HETATM   18  C13 UNL     1       2.516 -10.418  -6.893  1.00  0.00     0.249 C 
BRANCH  18  19
HETATM   19  O2  UNL     1       2.384  -9.202  -6.268  1.00  0.00    -0.373 OA
ATOM     20  H2  UNL     1       3.026  -8.545  -6.511  1.00  0.00     0.212 HD
ENDBRANCH  18  19
BRANCH  18  21
HETATM   21  N3  UNL     1       1.694 -10.551  -8.066  1.00  0.00    -0.389 N 
ATOM     22  H3  UNL     1       0.678 -10.489  -8.013  1.00  0.00     0.156 HD
BRANCH  21  23
HETATM   23  C14 UNL     1       2.358 -10.772  -9.297  1.00  0.00     0.079 C 
HETATM   24  C15 UNL     1       3.847 -10.996  -9.218  1.00  0.00     0.025 C 
HETATM   25  C16 UNL     1       4.359 -10.675 -10.637  1.00  0.00     0.002 C 
HETATM   26  C17 UNL     1       3.844 -11.839 -11.492  1.00  0.00     0.000 C 
HETATM   27  C18 UNL     1       2.355 -11.832 -11.532  1.00  0.00     0.002 C 
HETATM   28  C19 UNL     1       1.686 -11.800 -10.182  1.00  0.00     0.025 C 
ENDBRANCH  21  23
ENDBRANCH  18  21
ENDBRANCH   6  18
TORSDOF 6
ENDMDL
MODEL 2
REMARK VINA RESULT: -8.672046909      0.404      1.011
REMARK  6 active torsions:
REMARK  status: ('A' for Active; 'I' for Inactive)
REMARK    1  A    between atoms: N1_2  and  C3_4 
REMARK       I    between atoms: N2_7  and  C6_8 
REMARK    2  A    between atoms: C6_8  and  C7_10 
REMARK    3  A    between atoms: C12_15  and  C13_16 
REMARK    4  A    between atoms: C13_16  and  O2_17 
REMARK    5  A    between atoms: C13_16  and  N3_19 
REMARK    6  A    between atoms: N3_19  and  C14_21 
ROOT
HETATM    1  C7  UNL     1       3.071 -11.803  -4.671  1.00  0.00     0.042 A 
HETATM    2  C8  UNL     1       2.908 -12.957  -3.884  1.00  0.00     0.018 A 
HETATM    3  C9  UNL     1       2.030 -13.952  -4.209  1.00  0.00     0.001 A 
HETATM    4  C10 UNL     1       1.278 -13.813  -5.356  1.00  0.00     0.001 A 
HETATM    5  C11 UNL     1       1.420 -12.696  -6.141  1.00  0.00     0.012 A 
HETATM    6  C12 UNL     1       2.310 -11.697  -5.801  1.00  0.00     0.005 A 
ENDROOT
BRANCH   1   7
HETATM    7  C6  UNL     1       4.003 -10.770  -4.290  1.00  0.00     0.254 C 
HETATM    8  N2  UNL     1       3.660  -9.866  -3.262  1.00  0.00    -0.348 N 
HETATM    9  C5  UNL     1       2.400  -9.912  -2.550  1.00  0.00     0.128 C 
HETATM   10  C20 UNL     1       4.596  -8.808  -2.855  1.00  0.00     0.128 C 
HETATM   11  C4  UNL     1       2.581  -9.410  -1.136  1.00  0.00     0.055 C 
HETATM   12  C3  UNL     1       2.989  -7.957  -1.139  1.00  0.00     0.225 C 
HETATM   13  C21 UNL     1       3.810  -7.613  -2.364  1.00  0.00     0.055 C 
HETATM   14  O1  UNL     1       5.108 -10.643  -4.841  1.00  0.00    -0.267 OA
BRANCH  12  15
HETATM   15  N1  UNL     1       1.832  -7.083  -1.139  1.00  0.00     0.084 N 
HETATM   16  C1  UNL     1       2.259  -5.796  -0.592  1.00  0.00     0.309 C 
HETATM   17  C2  UNL     1       0.763  -7.614  -0.309  1.00  0.00     0.309 C 
ENDBRANCH  12  15
ENDBRANCH   1   7
BRANCH   6  18
HETATM   18  C13 UNL     1       2.424 -10.530  -6.696  1.00  0.00     0.249 C 
BRANCH  18  19
HETATM   19  O2  UNL     1       2.158  -9.313  -6.119  1.00  0.00    -0.373 OA
ATOM     20  H2  UNL     1       2.759  -9.045  -5.433  1.00  0.00     0.212 HD
ENDBRANCH  18  19
BRANCH  18  21
HETATM   21  N3  UNL     1       1.667 -10.772  -7.896  1.00  0.00    -0.389 N 
ATOM     22  H3  UNL     1       0.666 -10.584  -7.940  1.00  0.00     0.156 HD
BRANCH  21  23
HETATM   23  C14 UNL     1       2.374 -11.283  -9.012  1.00  0.00     0.079 C 
HETATM   24  C15 UNL     1       1.844 -10.894 -10.368  1.00  0.00     0.025 C 
HETATM   25  C16 UNL     1       2.416 -11.961 -11.324  1.00  0.00     0.002 C 
HETATM   26  C17 UNL     1       3.914 -11.637 -11.393  1.00  0.00     0.000 C 
HETATM   27  C18 UNL     1       4.547 -11.833 -10.058  1.00  0.00     0.002 C 
HETATM   28  C19 UNL     1       3.874 -11.101  -8.925  1.00  0.00     0.025 C 
ENDBRANCH  21  23
ENDBRANCH  18  21
ENDBRANCH   6  18
TORSDOF 6
ENDMDL
MODEL 3
REMARK VINA RESULT: -8.560125706      2.286      3.579
REMARK  6 active torsions:
REMARK  status: ('A' for Active; 'I' for Inactive)
REMARK    1  A    between atoms: N1_2  and  C3_4 
REMARK       I    between atoms: N2_7  and  C6_8 
REMARK    2  A    between atoms: C6_8  and  C7_10 
REMARK    3  A    between atoms: C12_15  and  C13_16 
REMARK    4  A    between atoms: C13_16  and  O2_17 
REMARK    5  A    between atoms: C13_16  and  N3_19 
REMARK    6  A    between atoms: N3_19  and  C14_21 
ROOT
HETATM    1  C7  UNL     1       2.580 -11.613  -4.411  1.00  0.00     0.042 A 
HETATM    2  C8  UNL     1       2.286 -12.832  -3.773  1.00  0.00     0.018 A 
HETATM    3  C9  UNL     1       1.742 -13.897  -4.433  1.00  0.00     0.001 A 
HETATM    4  C10 UNL     1       1.472 -13.766  -5.777  1.00  0.00     0.001 A 
HETATM    5  C11 UNL     1       1.751 -12.587  -6.423  1.00  0.00     0.012 A 
HETATM    6  C12 UNL     1       2.300 -11.518  -5.746  1.00  0.00     0.005 A 
ENDROOT
BRANCH   1   7
HETATM    7  C6  UNL     1       3.147 -10.508  -3.679  1.00  0.00     0.254 C 
HETATM    8  N2  UNL     1       4.529 -10.498  -3.392  1.00  0.00    -0.348 N 
HETATM    9  C5  UNL     1       5.433 -11.555  -3.795  1.00  0.00     0.128 C 
HETATM   10  C20 UNL     1       5.129  -9.379  -2.651  1.00  0.00     0.128 C 
HETATM   11  C4  UNL     1       6.815 -10.993  -4.039  1.00  0.00     0.055 C 
HETATM   12  C3  UNL     1       7.393 -10.436  -2.762  1.00  0.00     0.225 C 
HETATM   13  C21 UNL     1       6.310  -9.889  -1.855  1.00  0.00     0.055 C 
HETATM   14  O1  UNL     1       2.457  -9.555  -3.285  1.00  0.00    -0.267 OA
BRANCH  12  15
HETATM   15  N1  UNL     1       8.103 -11.454  -2.014  1.00  0.00     0.084 N 
HETATM   16  C1  UNL     1       7.691 -11.334  -0.615  1.00  0.00     0.309 C 
HETATM   17  C2  UNL     1       9.543 -11.269  -2.096  1.00  0.00     0.309 C 
ENDBRANCH  12  15
ENDBRANCH   1   7
BRANCH   6  18
HETATM   18  C13 UNL     1       2.587 -10.285  -6.503  1.00  0.00     0.249 C 
BRANCH  18  19
HETATM   19  O2  UNL     1       1.491  -9.633  -7.011  1.00  0.00    -0.373 OA
ATOM     20  H2  UNL     1       0.897  -9.267  -6.365  1.00  0.00     0.212 HD
ENDBRANCH  18  19
BRANCH  18  21
HETATM   21  N3  UNL     1       3.600 -10.553  -7.488  1.00  0.00    -0.389 N 
ATOM     22  H3  UNL     1       4.577 -10.684  -7.225  1.00  0.00     0.156 HD
BRANCH  21  23
HETATM   23  C14 UNL     1       3.183 -10.628  -8.839  1.00  0.00     0.079 C 
HETATM   24  C15 UNL     1       3.736  -9.574  -9.764  1.00  0.00     0.025 C 
HETATM   25  C16 UNL     1       2.755  -9.555 -10.954  1.00  0.00     0.002 C 
HETATM   26  C17 UNL     1       3.022 -10.878 -11.681  1.00  0.00     0.000 C 
HETATM   27  C18 UNL     1       2.658 -12.030 -10.808  1.00  0.00     0.002 C 
HETATM   28  C19 UNL     1       3.292 -12.012  -9.441  1.00  0.00     0.025 C 
ENDBRANCH  21  23
ENDBRANCH  18  21
ENDBRANCH   6  18
TORSDOF 6
ENDMDL
MODEL 4
REMARK VINA RESULT: -8.061005964      2.334      3.858
REMARK  6 active torsions:
REMARK  status: ('A' for Active; 'I' for Inactive)
REMARK    1  A    between atoms: N1_2  and  C3_4 
REMARK       I    between atoms: N2_7  and  C6_8 
REMARK    2  A    between atoms: C6_8  and  C7_10 
REMARK    3  A    between atoms: C12_15  and  C13_16 
REMARK    4  A    between atoms: C13_16  and  O2_17 
REMARK    5  A    between atoms: C13_16  and  N3_19 
REMARK    6  A    between atoms: N3_19  and  C14_21 
ROOT
HETATM    1  C7  UNL     1       2.592 -11.692  -4.095  1.00  0.00     0.042 A 
HETATM    2  C8  UNL     1       2.369 -12.995  -3.615  1.00  0.00     0.018 A 
HETATM    3  C9  UNL     1       1.796 -13.974  -4.378  1.00  0.00     0.001 A 
HETATM    4  C10 UNL     1       1.424 -13.664  -5.668  1.00  0.00     0.001 A 
HETATM    5  C11 UNL     1       1.631 -12.399  -6.159  1.00  0.00     0.012 A 
HETATM    6  C12 UNL     1       2.210 -11.420  -5.379  1.00  0.00     0.005 A 
ENDROOT
BRANCH   1   7
HETATM    7  C6  UNL     1       3.192 -10.684  -3.257  1.00  0.00     0.254 C 
HETATM    8  N2  UNL     1       4.598 -10.601  -3.166  1.00  0.00    -0.348 N 
HETATM    9  C5  UNL     1       5.496 -11.488  -3.875  1.00  0.00     0.128 C 
HETATM   10  C20 UNL     1       5.232  -9.578  -2.320  1.00  0.00     0.128 C 
HETATM   11  C4  UNL     1       6.788 -10.773  -4.199  1.00  0.00     0.055 C 
HETATM   12  C3  UNL     1       7.515 -10.395  -2.932  1.00  0.00     0.225 C 
HETATM   13  C21 UNL     1       6.548 -10.111  -1.801  1.00  0.00     0.055 C 
HETATM   14  O1  UNL     1       2.511  -9.878  -2.605  1.00  0.00    -0.267 OA
BRANCH  12  15
HETATM   15  N1  UNL     1       8.392 -11.460  -2.488  1.00  0.00     0.084 N 
HETATM   16  C1  UNL     1       9.329 -10.880  -1.526  1.00  0.00     0.309 C 
HETATM   17  C2  UNL     1       9.146 -12.025  -3.595  1.00  0.00     0.309 C 
ENDBRANCH  12  15
ENDBRANCH   1   7
BRANCH   6  18
HETATM   18  C13 UNL     1       2.417 -10.085  -5.974  1.00  0.00     0.249 C 
BRANCH  18  19
HETATM   19  O2  UNL     1       2.147  -9.021  -5.149  1.00  0.00    -0.373 OA
ATOM     20  H2  UNL     1       2.036  -8.184  -5.583  1.00  0.00     0.212 HD
ENDBRANCH  18  19
BRANCH  18  21
HETATM   21  N3  UNL     1       1.737 -10.015  -7.239  1.00  0.00    -0.389 N 
ATOM     22  H3  UNL     1       0.916  -9.424  -7.370  1.00  0.00     0.156 HD
BRANCH  21  23
HETATM   23  C14 UNL     1       2.255 -10.803  -8.295  1.00  0.00     0.079 C 
HETATM   24  C15 UNL     1       1.379 -10.942  -9.513  1.00  0.00     0.025 C 
HETATM   25  C16 UNL     1       1.901 -12.211 -10.219  1.00  0.00     0.002 C 
HETATM   26  C17 UNL     1       3.266 -11.792 -10.779  1.00  0.00     0.000 C 
HETATM   27  C18 UNL     1       4.204 -11.470  -9.666  1.00  0.00     0.002 C 
HETATM   28  C19 UNL     1       3.683 -10.466  -8.670  1.00  0.00     0.025 C 
ENDBRANCH  21  23
ENDBRANCH  18  21
ENDBRANCH   6  18
TORSDOF 6
ENDMDL
MODEL 5
REMARK VINA RESULT: -7.819455140      1.862      2.812
REMARK  6 active torsions:
REMARK  status: ('A' for Active; 'I' for Inactive)
REMARK    1  A    between atoms: N1_2  and  C3_4 
REMARK       I    between atoms: N2_7  and  C6_8 
REMARK    2  A    between atoms: C6_8  and  C7_10 
REMARK    3  A    between atoms: C12_15  and  C13_16 
REMARK    4  A    between atoms: C13_16  and  O2_17 
REMARK    5  A    between atoms: C13_16  and  N3_19 
REMARK    6  A    between atoms: N3_19  and  C14_21 
ROOT
HETATM    1  C7  UNL     1       2.369 -11.884  -7.349  1.00  0.00     0.042 A 
HETATM    2  C8  UNL     1       2.485 -13.275  -7.175  1.00  0.00     0.018 A 
HETATM    3  C9  UNL     1       1.757 -14.172  -7.904  1.00  0.00     0.001 A 
HETATM    4  C10 UNL     1       0.876 -13.688  -8.846  1.00  0.00     0.001 A 
HETATM    5  C11 UNL     1       0.745 -12.335  -9.035  1.00  0.00     0.012 A 
HETATM    6  C12 UNL     1       1.486 -11.438  -8.292  1.00  0.00     0.005 A 
ENDROOT
BRANCH   1   7
HETATM    7  C6  UNL     1       3.149 -10.968  -6.554  1.00  0.00     0.254 C 
HETATM    8  N2  UNL     1       3.090 -11.042  -5.146  1.00  0.00    -0.348 N 
HETATM    9  C5  UNL     1       2.273 -12.001  -4.433  1.00  0.00     0.128 C 
HETATM   10  C20 UNL     1       3.880 -10.120  -4.316  1.00  0.00     0.128 C 
HETATM   11  C4  UNL     1       2.919 -12.357  -3.114  1.00  0.00     0.055 C 
HETATM   12  C3  UNL     1       2.993 -11.147  -2.216  1.00  0.00     0.225 C 
HETATM   13  C21 UNL     1       3.148  -9.870  -3.017  1.00  0.00     0.055 C 
HETATM   14  O1  UNL     1       3.879 -10.106  -7.068  1.00  0.00    -0.267 OA
BRANCH  12  15
HETATM   15  N1  UNL     1       1.791 -11.007  -1.418  1.00  0.00     0.084 N 
HETATM   16  C1  UNL     1       1.347  -9.618  -1.538  1.00  0.00     0.309 C 
HETATM   17  C2  UNL     1       2.045 -11.298  -0.016  1.00  0.00     0.309 C 
ENDBRANCH  12  15
ENDBRANCH   1   7
BRANCH   6  18
HETATM   18  C13 UNL     1       1.307  -9.998  -8.555  1.00  0.00     0.249 C 
BRANCH  18  19
HETATM   19  O2  UNL     1       0.012  -9.591  -8.765  1.00  0.00    -0.373 OA
ATOM     20  H2  UNL     1      -0.092  -8.834  -9.330  1.00  0.00     0.212 HD
ENDBRANCH  18  19
BRANCH  18  21
HETATM   21  N3  UNL     1       2.213  -9.585  -9.593  1.00  0.00    -0.389 N 
ATOM     22  H3  UNL     1       2.459  -8.604  -9.725  1.00  0.00     0.156 HD
BRANCH  21  23
HETATM   23  C14 UNL     1       2.747 -10.600 -10.423  1.00  0.00     0.079 C 
HETATM   24  C15 UNL     1       2.196 -10.670 -11.824  1.00  0.00     0.025 C 
HETATM   25  C16 UNL     1       2.519 -12.105 -12.292  1.00  0.00     0.002 C 
HETATM   26  C17 UNL     1       4.041 -12.103 -12.481  1.00  0.00     0.000 C 
HETATM   27  C18 UNL     1       4.724 -11.884 -11.175  1.00  0.00     0.002 C 
HETATM   28  C19 UNL     1       4.260 -10.669 -10.414  1.00  0.00     0.025 C 
ENDBRANCH  21  23
ENDBRANCH  18  21
ENDBRANCH   6  18
TORSDOF 6
ENDMDL
