MODEL 1
REMARK VINA RESULT: -7.010188257      0.000      0.000
REMARK  9 active torsions:
REMARK  status: ('A' for Active; 'I' for Inactive)
REMARK    1  A    between atoms: C6_6  and  C7_7 
REMARK    2  A    between atoms: C19_20  and  N1_21 
REMARK    3  A    between atoms: N1_21  and  O1_22 
REMARK    4  A    between atoms: O1_22  and  C20_23 
REMARK    5  A    between atoms: C20_23  and  C21_24 
REMARK    6  A    between atoms: C21_24  and  N2_25 
REMARK    7  A    between atoms: N2_25  and  C22_28 
REMARK    8  A    between atoms: C22_28  and  C23_29 
REMARK    9  A    between atoms: C29_37  and  O4_38 
ROOT
HETATM    1  C1  UNL     1      33.773  -8.651  37.592  1.00  0.00     0.011 C 
HETATM    2  C2  UNL     1      34.831  -7.910  36.748  1.00  0.00    -0.009 C 
HETATM    3  C3  UNL     1      35.922  -7.488  37.657  1.00  0.00     0.005 C 
HETATM    4  C4  UNL     1      36.520  -6.141  37.371  1.00  0.00     0.002 C 
HETATM    5  C5  UNL     1      36.246  -5.723  35.954  1.00  0.00     0.020 C 
HETATM    6  C6  UNL     1      34.764  -5.576  35.750  1.00  0.00     0.046 C 
HETATM    7  C8  UNL     1      34.285  -7.032  35.707  1.00  0.00    -0.024 C 
HETATM    8  C9  UNL     1      34.522  -7.727  34.384  1.00  0.00     0.017 C 
HETATM    9  C10 UNL     1      32.754  -6.939  35.719  1.00  0.00     0.015 C 
HETATM   10  C11 UNL     1      32.199  -6.005  34.730  1.00  0.00     0.038 C 
HETATM   11  C12 UNL     1      33.132  -5.077  34.062  1.00  0.00    -0.048 C 
HETATM   12  C13 UNL     1      32.739  -4.456  32.960  1.00  0.00    -0.021 C 
HETATM   13  C14 UNL     1      33.577  -3.502  32.190  1.00  0.00     0.033 C 
HETATM   14  C15 UNL     1      34.937  -3.298  32.758  1.00  0.00     0.001 C 
HETATM   15  C16 UNL     1      35.623  -2.032  32.328  1.00  0.00     0.000 C 
HETATM   16  C17 UNL     1      35.173  -1.709  30.953  1.00  0.00     0.007 C 
HETATM   17  C18 UNL     1      35.390  -0.180  30.908  1.00  0.00     0.025 C 
HETATM   18  C19 UNL     1      34.994   0.140  32.299  1.00  0.00     0.115 C 
HETATM   19  C24 UNL     1      35.410  -0.872  33.238  1.00  0.00    -0.020 C 
HETATM   20  C25 UNL     1      36.671  -0.396  33.995  1.00  0.00     0.017 C 
HETATM   21  C26 UNL     1      34.256  -1.058  34.200  1.00  0.00     0.012 C 
HETATM   22  C27 UNL     1      34.112  -2.392  34.829  1.00  0.00     0.009 C 
HETATM   23  C28 UNL     1      34.940  -3.486  34.289  1.00  0.00     0.030 C 
HETATM   24  C29 UNL     1      34.540  -4.869  34.464  1.00  0.00     0.099 C 
ENDROOT
BRANCH  18  25
HETATM   25  N1  UNL     1      34.207   1.317  32.528  1.00  0.00    -0.095 NA
BRANCH  25  26
HETATM   26  O1  UNL     1      34.928   2.166  31.787  1.00  0.00    -0.284 OA
BRANCH  26  27
HETATM   27  C20 UNL     1      34.917   3.462  31.341  1.00  0.00     0.223 C 
BRANCH  27  28
HETATM   28  C21 UNL     1      34.518   3.349  29.851  1.00  0.00     0.261 C 
BRANCH  28  29
HETATM   29  N2  UNL     1      33.202   2.777  29.780  1.00  0.00    -0.064 N 
ATOM     30  H22 UNL     1      33.093   2.082  29.042  1.00  0.00     0.277 HD
ATOM     31  H21 UNL     1      32.979   2.156  30.559  1.00  0.00     0.277 HD
BRANCH  29  32
HETATM   32  C22 UNL     1      32.288   3.938  29.655  1.00  0.00     0.344 C 
BRANCH  32  33
HETATM   33  C23 UNL     1      31.170   3.934  30.550  1.00  0.00     0.199 C 
HETATM   34  O2  UNL     1      30.009   4.066  30.125  1.00  0.00    -0.647 OA
HETATM   35  O3  UNL     1      31.382   3.780  31.912  1.00  0.00    -0.647 OA
ENDBRANCH  32  33
ENDBRANCH  29  32
ENDBRANCH  28  29
ENDBRANCH  27  28
ENDBRANCH  26  27
ENDBRANCH  25  26
ENDBRANCH  18  25
BRANCH  24  36
HETATM   36  O4  UNL     1      35.417  -5.563  33.554  1.00  0.00    -0.384 OA
ATOM     37  H4  UNL     1      35.754  -4.864  33.006  1.00  0.00     0.211 HD
ENDBRANCH  24  36
BRANCH   6  38
HETATM   38  C7  UNL     1      34.067  -4.835  36.818  1.00  0.00     0.175 C 
HETATM   39  F1  UNL     1      34.595  -3.872  37.565  1.00  0.00    -0.223 F 
ENDBRANCH   6  38
TORSDOF 9
ENDMDL
MODEL 2
REMARK VINA RESULT: -6.861760534      3.745      8.184
REMARK  9 active torsions:
REMARK  status: ('A' for Active; 'I' for Inactive)
REMARK    1  A    between atoms: C6_6  and  C7_7 
REMARK    2  A    between atoms: C19_20  and  N1_21 
REMARK    3  A    between atoms: N1_21  and  O1_22 
REMARK    4  A    between atoms: O1_22  and  C20_23 
REMARK    5  A    between atoms: C20_23  and  C21_24 
REMARK    6  A    between atoms: C21_24  and  N2_25 
REMARK    7  A    between atoms: N2_25  and  C22_28 
REMARK    8  A    between atoms: C22_28  and  C23_29 
REMARK    9  A    between atoms: C29_37  and  O4_38 
ROOT
HETATM    1  C1  UNL     1      35.910   4.666  31.929  1.00  0.00     0.011 C 
HETATM    2  C2  UNL     1      36.768   3.383  31.930  1.00  0.00    -0.009 C 
HETATM    3  C3  UNL     1      37.237   3.149  30.545  1.00  0.00     0.005 C 
HETATM    4  C4  UNL     1      37.275   1.715  30.106  1.00  0.00     0.002 C 
HETATM    5  C5  UNL     1      37.312   0.792  31.291  1.00  0.00     0.020 C 
HETATM    6  C6  UNL     1      36.049   0.953  32.092  1.00  0.00     0.046 C 
HETATM    7  C8  UNL     1      36.263   2.304  32.786  1.00  0.00    -0.024 C 
HETATM    8  C9  UNL     1      37.169   2.247  33.996  1.00  0.00     0.017 C 
HETATM    9  C10 UNL     1      34.914   2.620  33.445  1.00  0.00     0.015 C 
HETATM   10  C11 UNL     1      34.362   1.518  34.245  1.00  0.00     0.038 C 
HETATM   11  C12 UNL     1      34.979   0.186  34.099  1.00  0.00    -0.048 C 
HETATM   12  C13 UNL     1      34.730  -0.740  35.014  1.00  0.00    -0.021 C 
HETATM   13  C14 UNL     1      35.289  -2.116  34.989  1.00  0.00     0.033 C 
HETATM   14  C15 UNL     1      36.186  -2.383  33.832  1.00  0.00     0.001 C 
HETATM   15  C16 UNL     1      36.377  -3.835  33.499  1.00  0.00     0.000 C 
HETATM   16  C17 UNL     1      36.290  -4.613  34.757  1.00  0.00     0.007 C 
HETATM   17  C18 UNL     1      35.852  -5.999  34.235  1.00  0.00     0.025 C 
HETATM   18  C19 UNL     1      34.943  -5.551  33.154  1.00  0.00     0.115 C 
HETATM   19  C24 UNL     1      35.426  -4.369  32.483  1.00  0.00    -0.020 C 
HETATM   20  C25 UNL     1      36.065  -4.759  31.131  1.00  0.00     0.017 C 
HETATM   21  C26 UNL     1      34.217  -3.485  32.259  1.00  0.00     0.012 C 
HETATM   22  C27 UNL     1      34.455  -2.023  32.201  1.00  0.00     0.009 C 
HETATM   23  C28 UNL     1      35.787  -1.538  32.606  1.00  0.00     0.030 C 
HETATM   24  C29 UNL     1      35.967  -0.172  33.058  1.00  0.00     0.099 C 
ENDROOT
BRANCH  18  25
HETATM   25  N1  UNL     1      33.709  -6.256  32.965  1.00  0.00    -0.095 NA
BRANCH  25  26
HETATM   26  O1  UNL     1      33.342  -6.329  34.251  1.00  0.00    -0.284 OA
BRANCH  26  27
HETATM   27  C20 UNL     1      32.249  -6.147  35.056  1.00  0.00     0.223 C 
BRANCH  27  28
HETATM   28  C21 UNL     1      32.838  -6.059  36.484  1.00  0.00     0.261 C 
BRANCH  28  29
HETATM   29  N2  UNL     1      32.116  -5.050  37.206  1.00  0.00    -0.064 N 
ATOM     30  H22 UNL     1      31.124  -5.005  36.974  1.00  0.00     0.277 HD
ATOM     31  H21 UNL     1      31.994  -5.259  38.197  1.00  0.00     0.277 HD
BRANCH  29  32
HETATM   32  C22 UNL     1      32.854  -3.791  36.943  1.00  0.00     0.344 C 
BRANCH  32  33
HETATM   33  C23 UNL     1      32.050  -2.696  36.490  1.00  0.00     0.199 C 
HETATM   34  O2  UNL     1      31.469  -2.739  35.391  1.00  0.00    -0.647 OA
HETATM   35  O3  UNL     1      31.915  -1.567  37.286  1.00  0.00    -0.647 OA
ENDBRANCH  32  33
ENDBRANCH  29  32
ENDBRANCH  28  29
ENDBRANCH  27  28
ENDBRANCH  26  27
ENDBRANCH  25  26
ENDBRANCH  18  25
BRANCH  24  36
HETATM   36  O4  UNL     1      37.290  -0.207  33.630  1.00  0.00    -0.384 OA
ATOM     37  H4  UNL     1      37.198  -0.826  34.345  1.00  0.00     0.211 HD
ENDBRANCH  24  36
BRANCH   6  38
HETATM   38  C7  UNL     1      34.811   0.973  31.293  1.00  0.00     0.175 C 
HETATM   39  F1  UNL     1      34.639   0.380  30.115  1.00  0.00    -0.223 F 
ENDBRANCH   6  38
TORSDOF 9
ENDMDL
MODEL 3
REMARK VINA RESULT: -6.735259213      2.920      4.825
REMARK  9 active torsions:
REMARK  status: ('A' for Active; 'I' for Inactive)
REMARK    1  A    between atoms: C6_6  and  C7_7 
REMARK    2  A    between atoms: C19_20  and  N1_21 
REMARK    3  A    between atoms: N1_21  and  O1_22 
REMARK    4  A    between atoms: O1_22  and  C20_23 
REMARK    5  A    between atoms: C20_23  and  C21_24 
REMARK    6  A    between atoms: C21_24  and  N2_25 
REMARK    7  A    between atoms: N2_25  and  C22_28 
REMARK    8  A    between atoms: C22_28  and  C23_29 
REMARK    9  A    between atoms: C29_37  and  O4_38 
ROOT
HETATM    1  C1  UNL     1      33.902  -7.164  36.572  1.00  0.00     0.011 C 
HETATM    2  C2  UNL     1      33.217  -6.034  35.774  1.00  0.00    -0.009 C 
HETATM    3  C3  UNL     1      32.898  -6.560  34.427  1.00  0.00     0.005 C 
HETATM    4  C4  UNL     1      33.080  -5.593  33.293  1.00  0.00     0.002 C 
HETATM    5  C5  UNL     1      33.064  -4.176  33.790  1.00  0.00     0.020 C 
HETATM    6  C6  UNL     1      34.224  -3.955  34.720  1.00  0.00     0.046 C 
HETATM    7  C8  UNL     1      33.784  -4.698  35.987  1.00  0.00    -0.024 C 
HETATM    8  C9  UNL     1      32.795  -3.937  36.844  1.00  0.00     0.017 C 
HETATM    9  C10 UNL     1      35.022  -4.690  36.893  1.00  0.00     0.015 C 
HETATM   10  C11 UNL     1      35.642  -3.368  37.054  1.00  0.00     0.038 C 
HETATM   11  C12 UNL     1      35.215  -2.292  36.140  1.00  0.00    -0.048 C 
HETATM   12  C13 UNL     1      35.503  -1.036  36.448  1.00  0.00    -0.021 C 
HETATM   13  C14 UNL     1      35.128   0.139  35.620  1.00  0.00     0.033 C 
HETATM   14  C15 UNL     1      34.372  -0.208  34.386  1.00  0.00     0.001 C 
HETATM   15  C16 UNL     1      34.396   0.840  33.310  1.00  0.00     0.000 C 
HETATM   16  C17 UNL     1      34.478   2.169  33.963  1.00  0.00     0.007 C 
HETATM   17  C18 UNL     1      35.131   3.020  32.851  1.00  0.00     0.025 C 
HETATM   18  C19 UNL     1      36.060   2.001  32.311  1.00  0.00     0.115 C 
HETATM   19  C24 UNL     1      35.488   0.677  32.310  1.00  0.00    -0.020 C 
HETATM   20  C25 UNL     1      35.018   0.311  30.884  1.00  0.00     0.017 C 
HETATM   21  C26 UNL     1      36.588  -0.261  32.759  1.00  0.00     0.012 C 
HETATM   22  C27 UNL     1      36.172  -1.503  33.453  1.00  0.00     0.009 C 
HETATM   23  C28 UNL     1      34.760  -1.606  33.865  1.00  0.00     0.030 C 
HETATM   24  C29 UNL     1      34.369  -2.494  34.942  1.00  0.00     0.099 C 
ENDROOT
BRANCH  18  25
HETATM   25  N1  UNL     1      37.386   2.412  31.950  1.00  0.00    -0.095 NA
BRANCH  25  26
HETATM   26  O1  UNL     1      37.680   3.082  33.070  1.00  0.00    -0.284 OA
BRANCH  26  27
HETATM   27  C20 UNL     1      38.683   3.221  33.993  1.00  0.00     0.223 C 
BRANCH  27  28
HETATM   28  C21 UNL     1      38.196   2.400  35.211  1.00  0.00     0.261 C 
BRANCH  28  29
HETATM   29  N2  UNL     1      37.309   3.224  35.983  1.00  0.00    -0.064 N 
ATOM     30  H22 UNL     1      37.697   4.136  36.224  1.00  0.00     0.277 HD
ATOM     31  H21 UNL     1      36.508   3.574  35.458  1.00  0.00     0.277 HD
BRANCH  29  32
HETATM   32  C22 UNL     1      36.944   2.396  37.158  1.00  0.00     0.344 C 
BRANCH  32  33
HETATM   33  C23 UNL     1      35.886   2.919  37.969  1.00  0.00     0.199 C 
HETATM   34  O2  UNL     1      34.741   2.438  37.917  1.00  0.00    -0.647 OA
HETATM   35  O3  UNL     1      36.139   3.979  38.827  1.00  0.00    -0.647 OA
ENDBRANCH  32  33
ENDBRANCH  29  32
ENDBRANCH  28  29
ENDBRANCH  27  28
ENDBRANCH  26  27
ENDBRANCH  25  26
ENDBRANCH  18  25
BRANCH  24  36
HETATM   36  O4  UNL     1      33.019  -2.071  35.219  1.00  0.00    -0.384 OA
ATOM     37  H4  UNL     1      32.495  -2.774  34.853  1.00  0.00     0.211 HD
ENDBRANCH  24  36
BRANCH   6  38
HETATM   38  C7  UNL     1      35.512  -4.483  34.233  1.00  0.00     0.175 C 
HETATM   39  F1  UNL     1      35.797  -4.788  32.972  1.00  0.00    -0.223 F 
ENDBRANCH   6  38
TORSDOF 9
ENDMDL
MODEL 4
REMARK VINA RESULT: -6.722272318      3.195      5.560
REMARK  9 active torsions:
REMARK  status: ('A' for Active; 'I' for Inactive)
REMARK    1  A    between atoms: C6_6  and  C7_7 
REMARK    2  A    between atoms: C19_20  and  N1_21 
REMARK    3  A    between atoms: N1_21  and  O1_22 
REMARK    4  A    between atoms: O1_22  and  C20_23 
REMARK    5  A    between atoms: C20_23  and  C21_24 
REMARK    6  A    between atoms: C21_24  and  N2_25 
REMARK    7  A    between atoms: N2_25  and  C22_28 
REMARK    8  A    between atoms: C22_28  and  C23_29 
REMARK    9  A    between atoms: C29_37  and  O4_38 
ROOT
HETATM    1  C1  UNL     1      33.398  -7.057  36.504  1.00  0.00     0.011 C 
HETATM    2  C2  UNL     1      32.760  -5.783  35.909  1.00  0.00    -0.009 C 
HETATM    3  C3  UNL     1      32.162  -6.144  34.603  1.00  0.00     0.005 C 
HETATM    4  C4  UNL     1      32.295  -5.112  33.521  1.00  0.00     0.002 C 
HETATM    5  C5  UNL     1      32.556  -3.753  34.105  1.00  0.00     0.020 C 
HETATM    6  C6  UNL     1      33.869  -3.765  34.839  1.00  0.00     0.046 C 
HETATM    7  C8  UNL     1      33.535  -4.554  36.111  1.00  0.00    -0.024 C 
HETATM    8  C9  UNL     1      32.809  -3.752  37.170  1.00  0.00     0.017 C 
HETATM    9  C10 UNL     1      34.889  -4.783  36.794  1.00  0.00     0.015 C 
HETATM   10  C11 UNL     1      35.706  -3.569  36.934  1.00  0.00     0.038 C 
HETATM   11  C12 UNL     1      35.293  -2.372  36.178  1.00  0.00    -0.048 C 
HETATM   12  C13 UNL     1      35.799  -1.195  36.516  1.00  0.00    -0.021 C 
HETATM   13  C14 UNL     1      35.466   0.086  35.841  1.00  0.00     0.033 C 
HETATM   14  C15 UNL     1      34.483  -0.052  34.733  1.00  0.00     0.001 C 
HETATM   15  C16 UNL     1      34.483   1.075  33.740  1.00  0.00     0.000 C 
HETATM   16  C17 UNL     1      34.852   2.320  34.455  1.00  0.00     0.007 C 
HETATM   17  C18 UNL     1      35.433   3.175  33.307  1.00  0.00     0.025 C 
HETATM   18  C19 UNL     1      36.114   2.098  32.552  1.00  0.00     0.115 C 
HETATM   19  C24 UNL     1      35.369   0.863  32.561  1.00  0.00    -0.020 C 
HETATM   20  C25 UNL     1      34.634   0.687  31.213  1.00  0.00     0.017 C 
HETATM   21  C26 UNL     1      36.385  -0.243  32.756  1.00  0.00     0.012 C 
HETATM   22  C27 UNL     1      35.914  -1.478  33.426  1.00  0.00     0.009 C 
HETATM   23  C28 UNL     1      34.585  -1.437  34.063  1.00  0.00     0.030 C 
HETATM   24  C29 UNL     1      34.250  -2.360  35.130  1.00  0.00     0.099 C 
ENDROOT
BRANCH  18  25
HETATM   25  N1  UNL     1      37.411   2.368  32.001  1.00  0.00    -0.095 NA
BRANCH  25  26
HETATM   26  O1  UNL     1      38.016   2.744  33.134  1.00  0.00    -0.284 OA
BRANCH  26  27
HETATM   27  C20 UNL     1      39.115   2.456  33.898  1.00  0.00     0.223 C 
BRANCH  27  28
HETATM   28  C21 UNL     1      38.530   2.071  35.278  1.00  0.00     0.261 C 
BRANCH  28  29
HETATM   29  N2  UNL     1      39.602   1.591  36.103  1.00  0.00    -0.064 N 
ATOM     30  H22 UNL     1      40.476   1.441  35.599  1.00  0.00     0.277 HD
ATOM     31  H21 UNL     1      39.962   2.285  36.758  1.00  0.00     0.277 HD
BRANCH  29  32
HETATM   32  C22 UNL     1      39.066   0.370  36.753  1.00  0.00     0.344 C 
BRANCH  32  33
HETATM   33  C23 UNL     1      38.813   0.487  38.157  1.00  0.00     0.199 C 
HETATM   34  O2  UNL     1      39.643   0.091  38.993  1.00  0.00    -0.647 OA
HETATM   35  O3  UNL     1      37.624   1.051  38.596  1.00  0.00    -0.647 OA
ENDBRANCH  32  33
ENDBRANCH  29  32
ENDBRANCH  28  29
ENDBRANCH  27  28
ENDBRANCH  26  27
ENDBRANCH  25  26
ENDBRANCH  18  25
BRANCH  24  36
HETATM   36  O4  UNL     1      33.033  -1.794  35.657  1.00  0.00    -0.384 OA
ATOM     37  H4  UNL     1      33.277  -1.545  36.541  1.00  0.00     0.211 HD
ENDBRANCH  24  36
BRANCH   6  38
HETATM   38  C7  UNL     1      34.977  -4.407  34.109  1.00  0.00     0.175 C 
HETATM   39  F1  UNL     1      35.095  -4.479  32.787  1.00  0.00    -0.223 F 
ENDBRANCH   6  38
TORSDOF 9
ENDMDL
MODEL 5
REMARK VINA RESULT: -6.584457559      1.906      3.122
REMARK  9 active torsions:
REMARK  status: ('A' for Active; 'I' for Inactive)
REMARK    1  A    between atoms: C6_6  and  C7_7 
REMARK    2  A    between atoms: C19_20  and  N1_21 
REMARK    3  A    between atoms: N1_21  and  O1_22 
REMARK    4  A    between atoms: O1_22  and  C20_23 
REMARK    5  A    between atoms: C20_23  and  C21_24 
REMARK    6  A    between atoms: C21_24  and  N2_25 
REMARK    7  A    between atoms: N2_25  and  C22_28 
REMARK    8  A    between atoms: C22_28  and  C23_29 
REMARK    9  A    between atoms: C29_37  and  O4_38 
ROOT
HETATM    1  C1  UNL     1      33.675  -8.783  37.589  1.00  0.00     0.011 C 
HETATM    2  C2  UNL     1      34.747  -8.045  36.759  1.00  0.00    -0.009 C 
HETATM    3  C3  UNL     1      35.845  -7.662  37.675  1.00  0.00     0.005 C 
HETATM    4  C4  UNL     1      36.469  -6.322  37.416  1.00  0.00     0.002 C 
HETATM    5  C5  UNL     1      36.203  -5.870  36.008  1.00  0.00     0.020 C 
HETATM    6  C6  UNL     1      34.723  -5.690  35.809  1.00  0.00     0.046 C 
HETATM    7  C8  UNL     1      34.217  -7.136  35.736  1.00  0.00    -0.024 C 
HETATM    8  C9  UNL     1      34.439  -7.808  34.399  1.00  0.00     0.017 C 
HETATM    9  C10 UNL     1      32.687  -7.014  35.752  1.00  0.00     0.015 C 
HETATM   10  C11 UNL     1      32.151  -6.050  34.782  1.00  0.00     0.038 C 
HETATM   11  C12 UNL     1      33.100  -5.126  34.133  1.00  0.00    -0.048 C 
HETATM   12  C13 UNL     1      32.718  -4.475  33.044  1.00  0.00    -0.021 C 
HETATM   13  C14 UNL     1      33.575  -3.522  32.293  1.00  0.00     0.033 C 
HETATM   14  C15 UNL     1      34.939  -3.355  32.864  1.00  0.00     0.001 C 
HETATM   15  C16 UNL     1      35.648  -2.094  32.458  1.00  0.00     0.000 C 
HETATM   16  C17 UNL     1      35.203  -1.735  31.091  1.00  0.00     0.007 C 
HETATM   17  C18 UNL     1      35.450  -0.210  31.077  1.00  0.00     0.025 C 
HETATM   18  C19 UNL     1      35.061   0.090  32.474  1.00  0.00     0.115 C 
HETATM   19  C24 UNL     1      35.458  -0.949  33.392  1.00  0.00    -0.020 C 
HETATM   20  C25 UNL     1      36.728  -0.513  34.158  1.00  0.00     0.017 C 
HETATM   21  C26 UNL     1      34.301  -1.132  34.351  1.00  0.00     0.012 C 
HETATM   22  C27 UNL     1      34.132  -2.476  34.953  1.00  0.00     0.009 C 
HETATM   23  C28 UNL     1      34.939  -3.575  34.390  1.00  0.00     0.030 C 
HETATM   24  C29 UNL     1      34.512  -4.953  34.538  1.00  0.00     0.099 C 
ENDROOT
BRANCH  18  25
HETATM   25  N1  UNL     1      34.296   1.277  32.728  1.00  0.00    -0.095 NA
BRANCH  25  26
HETATM   26  O1  UNL     1      35.182   2.167  32.265  1.00  0.00    -0.284 OA
BRANCH  26  27
HETATM   27  C20 UNL     1      35.636   3.437  32.503  1.00  0.00     0.223 C 
BRANCH  27  28
HETATM   28  C21 UNL     1      36.617   3.275  33.690  1.00  0.00     0.261 C 
BRANCH  28  29
HETATM   29  N2  UNL     1      35.872   2.818  34.829  1.00  0.00    -0.064 N 
ATOM     30  H22 UNL     1      35.042   3.375  35.031  1.00  0.00     0.277 HD
ATOM     31  H21 UNL     1      35.385   1.934  34.677  1.00  0.00     0.277 HD
BRANCH  29  32
HETATM   32  C22 UNL     1      36.856   2.781  35.938  1.00  0.00     0.344 C 
BRANCH  32  33
HETATM   33  C23 UNL     1      36.326   2.392  37.211  1.00  0.00     0.199 C 
HETATM   34  O2  UNL     1      36.006   3.243  38.059  1.00  0.00    -0.647 OA
HETATM   35  O3  UNL     1      36.166   1.046  37.506  1.00  0.00    -0.647 OA
ENDBRANCH  32  33
ENDBRANCH  29  32
ENDBRANCH  28  29
ENDBRANCH  27  28
ENDBRANCH  26  27
ENDBRANCH  25  26
ENDBRANCH  18  25
BRANCH  24  36
HETATM   36  O4  UNL     1      35.375  -5.645  33.613  1.00  0.00    -0.384 OA
ATOM     37  H4  UNL     1      34.789  -6.267  33.197  1.00  0.00     0.211 HD
ENDBRANCH  24  36
BRANCH   6  38
HETATM   38  C7  UNL     1      34.041  -4.958  36.892  1.00  0.00     0.175 C 
HETATM   39  F1  UNL     1      34.579  -3.999  37.638  1.00  0.00    -0.223 F 
ENDBRANCH   6  38
TORSDOF 9
ENDMDL
