MODEL 1
REMARK VINA RESULT: -6.767992551      0.000      0.000
REMARK  9 active torsions:
REMARK  status: ('A' for Active; 'I' for Inactive)
REMARK    1  A    between atoms: C2_2  and  C3_3 
REMARK    2  A    between atoms: C2_2  and  C9_14 
REMARK    3  A    between atoms: C3_3  and  C4_4 
REMARK    4  A    between atoms: C4_4  and  C5_5 
REMARK    5  A    between atoms: C5_5  and  C6_6 
REMARK    6  A    between atoms: C6_6  and  O1_9 
REMARK    7  A    between atoms: O1_9  and  S1_10 
REMARK    8  A    between atoms: C16_21  and  O4_22 
REMARK    9  A    between atoms: C24_31  and  O5_32 
ROOT
HETATM    1  C9  UNL     1      37.907   1.636  36.916  1.00  0.00     0.019 C 
HETATM    2  C10 UNL     1      36.659   2.415  37.369  1.00  0.00     0.010 C 
HETATM    3  C11 UNL     1      35.765   2.397  36.126  1.00  0.00     0.015 C 
HETATM    4  C12 UNL     1      36.758   2.589  35.047  1.00  0.00    -0.016 C 
HETATM    5  C13 UNL     1      36.983   4.084  34.907  1.00  0.00     0.020 C 
HETATM    6  C14 UNL     1      37.988   1.890  35.492  1.00  0.00    -0.068 C 
HETATM    7  C15 UNL     1      38.992   1.589  34.670  1.00  0.00     0.008 C 
HETATM    8  C16 UNL     1      39.203   1.787  33.215  1.00  0.00     0.141 C 
HETATM    9  C17 UNL     1      38.019   1.365  32.385  1.00  0.00     0.041 C 
HETATM   10  C18 UNL     1      36.936   2.433  32.598  1.00  0.00    -0.002 C 
HETATM   11  C19 UNL     1      36.165   1.998  33.787  1.00  0.00     0.002 C 
HETATM   12  C20 UNL     1      34.699   2.382  33.670  1.00  0.00     0.007 C 
HETATM   13  C21 UNL     1      34.156   1.600  32.492  1.00  0.00     0.012 C 
HETATM   14  C22 UNL     1      34.893   1.861  31.231  1.00  0.00    -0.014 C 
HETATM   15  C23 UNL     1      35.140   0.583  30.431  1.00  0.00     0.018 C 
HETATM   16  C24 UNL     1      33.998   2.730  30.341  1.00  0.00     0.126 C 
HETATM   17  C25 UNL     1      34.341   4.154  30.740  1.00  0.00     0.033 C 
HETATM   18  C26 UNL     1      35.811   4.101  31.090  1.00  0.00     0.008 C 
HETATM   19  C27 UNL     1      36.136   2.654  31.351  1.00  0.00     0.001 C 
ENDROOT
BRANCH   1  20
HETATM   20  C2  UNL     1      37.724   0.247  37.429  1.00  0.00    -0.011 C 
HETATM   21  C1  UNL     1      38.870  -0.069  38.311  1.00  0.00     0.010 C 
BRANCH  20  22
HETATM   22  C3  UNL     1      37.364  -0.799  36.481  1.00  0.00     0.005 C 
BRANCH  22  23
HETATM   23  C4  UNL     1      35.972  -1.307  36.554  1.00  0.00     0.003 C 
BRANCH  23  24
HETATM   24  C5  UNL     1      34.970  -1.041  35.526  1.00  0.00     0.039 C 
BRANCH  24  25
HETATM   25  C6  UNL     1      34.371  -2.168  34.777  1.00  0.00     0.075 C 
HETATM   26  C7  UNL     1      34.799  -3.565  35.011  1.00  0.00     0.047 C 
HETATM   27  C8  UNL     1      34.484  -1.937  33.261  1.00  0.00     0.047 C 
BRANCH  25  28
HETATM   28  O1  UNL     1      32.974  -2.160  35.007  1.00  0.00    -0.240 OA
BRANCH  28  29
HETATM   29  S1  UNL     1      32.055  -3.156  35.587  1.00  0.00     0.440 S 
HETATM   30  O2  UNL     1      31.413  -1.989  36.893  1.00  0.00    -0.164 OA
HETATM   31  O3  UNL     1      31.148  -4.359  36.253  1.00  0.00    -0.164 OA
HETATM   32  F1  UNL     1      33.362  -3.000  38.013  1.00  0.00    -0.082 F 
ENDBRANCH  28  29
ENDBRANCH  25  28
ENDBRANCH  24  25
ENDBRANCH  23  24
ENDBRANCH  22  23
ENDBRANCH  20  22
ENDBRANCH   1  20
BRANCH   8  33
HETATM   33  O4  UNL     1      40.284   1.037  32.763  1.00  0.00    -0.392 OA
ATOM     34  H4  UNL     1      40.393   0.250  33.284  1.00  0.00     0.210 HD
ENDBRANCH   8  33
BRANCH  16  35
HETATM   35  O5  UNL     1      32.660   2.527  30.591  1.00  0.00    -0.395 OA
ATOM     36  H5  UNL     1      32.204   2.162  29.842  1.00  0.00     0.210 HD
ENDBRANCH  16  35
TORSDOF 9
ENDMDL
MODEL 2
REMARK VINA RESULT: -6.536889711     14.265     18.856
REMARK  9 active torsions:
REMARK  status: ('A' for Active; 'I' for Inactive)
REMARK    1  A    between atoms: C2_2  and  C3_3 
REMARK    2  A    between atoms: C2_2  and  C9_14 
REMARK    3  A    between atoms: C3_3  and  C4_4 
REMARK    4  A    between atoms: C4_4  and  C5_5 
REMARK    5  A    between atoms: C5_5  and  C6_6 
REMARK    6  A    between atoms: C6_6  and  O1_9 
REMARK    7  A    between atoms: O1_9  and  S1_10 
REMARK    8  A    between atoms: C16_21  and  O4_22 
REMARK    9  A    between atoms: C24_31  and  O5_32 
ROOT
HETATM    1  C9  UNL     1      35.313 -12.865  44.387  1.00  0.00     0.019 C 
HETATM    2  C10 UNL     1      35.692 -14.355  44.329  1.00  0.00     0.010 C 
HETATM    3  C11 UNL     1      34.365 -15.066  44.609  1.00  0.00     0.015 C 
HETATM    4  C12 UNL     1      33.780 -14.196  45.652  1.00  0.00    -0.016 C 
HETATM    5  C13 UNL     1      34.346 -14.654  46.984  1.00  0.00     0.020 C 
HETATM    6  C14 UNL     1      34.207 -12.815  45.321  1.00  0.00    -0.068 C 
HETATM    7  C15 UNL     1      33.641 -11.731  45.852  1.00  0.00     0.008 C 
HETATM    8  C16 UNL     1      32.521 -11.539  46.804  1.00  0.00     0.141 C 
HETATM    9  C17 UNL     1      31.303 -12.353  46.455  1.00  0.00     0.041 C 
HETATM   10  C18 UNL     1      31.640 -13.811  46.804  1.00  0.00    -0.002 C 
HETATM   11  C19 UNL     1      32.280 -14.381  45.594  1.00  0.00     0.002 C 
HETATM   12  C20 UNL     1      31.940 -15.853  45.428  1.00  0.00     0.007 C 
HETATM   13  C21 UNL     1      30.445 -15.913  45.197  1.00  0.00     0.012 C 
HETATM   14  C22 UNL     1      29.662 -15.290  46.293  1.00  0.00    -0.014 C 
HETATM   15  C23 UNL     1      28.501 -14.448  45.767  1.00  0.00     0.018 C 
HETATM   16  C24 UNL     1      29.011 -16.421  47.098  1.00  0.00     0.126 C 
HETATM   17  C25 UNL     1      30.046 -16.776  48.150  1.00  0.00     0.033 C 
HETATM   18  C26 UNL     1      30.727 -15.462  48.464  1.00  0.00     0.008 C 
HETATM   19  C27 UNL     1      30.435 -14.544  47.308  1.00  0.00     0.001 C 
ENDROOT
BRANCH   1  20
HETATM   20  C2  UNL     1      35.126 -12.441  42.968  1.00  0.00    -0.011 C 
HETATM   21  C1  UNL     1      36.120 -13.160  42.142  1.00  0.00     0.010 C 
BRANCH  20  22
HETATM   22  C3  UNL     1      34.994 -11.019  42.683  1.00  0.00     0.005 C 
BRANCH  22  23
HETATM   23  C4  UNL     1      36.236 -10.302  42.302  1.00  0.00     0.003 C 
BRANCH  23  24
HETATM   24  C5  UNL     1      37.363 -10.120  43.211  1.00  0.00     0.039 C 
BRANCH  24  25
HETATM   25  C6  UNL     1      37.359  -8.990  44.167  1.00  0.00     0.075 C 
HETATM   26  C7  UNL     1      37.402  -7.586  43.702  1.00  0.00     0.047 C 
HETATM   27  C8  UNL     1      38.500  -9.136  45.188  1.00  0.00     0.047 C 
BRANCH  25  28
HETATM   28  O1  UNL     1      36.193  -9.087  44.963  1.00  0.00    -0.240 OA
BRANCH  28  29
HETATM   29  S1  UNL     1      35.983  -9.104  46.422  1.00  0.00     0.440 S 
HETATM   30  O2  UNL     1      34.443  -8.054  46.339  1.00  0.00    -0.164 OA
HETATM   31  O3  UNL     1      35.887  -9.067  48.066  1.00  0.00    -0.164 OA
HETATM   32  F1  UNL     1      36.220  -6.356  46.521  1.00  0.00    -0.082 F 
ENDBRANCH  28  29
ENDBRANCH  25  28
ENDBRANCH  24  25
ENDBRANCH  23  24
ENDBRANCH  22  23
ENDBRANCH  20  22
ENDBRANCH   1  20
BRANCH   8  33
HETATM   33  O4  UNL     1      32.109 -10.210  46.825  1.00  0.00    -0.392 OA
ATOM     34  H4  UNL     1      31.246 -10.129  47.214  1.00  0.00     0.210 HD
ENDBRANCH   8  33
BRANCH  16  35
HETATM   35  O5  UNL     1      28.779 -17.540  46.332  1.00  0.00    -0.395 OA
ATOM     36  H5  UNL     1      28.094 -18.090  46.695  1.00  0.00     0.210 HD
ENDBRANCH  16  35
TORSDOF 9
ENDMDL
MODEL 3
REMARK VINA RESULT: -6.449534430      1.122      1.264
REMARK  9 active torsions:
REMARK  status: ('A' for Active; 'I' for Inactive)
REMARK    1  A    between atoms: C2_2  and  C3_3 
REMARK    2  A    between atoms: C2_2  and  C9_14 
REMARK    3  A    between atoms: C3_3  and  C4_4 
REMARK    4  A    between atoms: C4_4  and  C5_5 
REMARK    5  A    between atoms: C5_5  and  C6_6 
REMARK    6  A    between atoms: C6_6  and  O1_9 
REMARK    7  A    between atoms: O1_9  and  S1_10 
REMARK    8  A    between atoms: C16_21  and  O4_22 
REMARK    9  A    between atoms: C24_31  and  O5_32 
ROOT
HETATM    1  C9  UNL     1      37.981   1.370  37.310  1.00  0.00     0.019 C 
HETATM    2  C10 UNL     1      36.748   2.194  37.719  1.00  0.00     0.010 C 
HETATM    3  C11 UNL     1      35.879   2.173  36.458  1.00  0.00     0.015 C 
HETATM    4  C12 UNL     1      36.899   2.311  35.396  1.00  0.00    -0.016 C 
HETATM    5  C13 UNL     1      37.169   3.796  35.227  1.00  0.00     0.020 C 
HETATM    6  C14 UNL     1      38.098   1.589  35.883  1.00  0.00    -0.068 C 
HETATM    7  C15 UNL     1      39.110   1.240  35.089  1.00  0.00     0.008 C 
HETATM    8  C16 UNL     1      39.356   1.397  33.635  1.00  0.00     0.141 C 
HETATM    9  C17 UNL     1      38.178   0.990  32.790  1.00  0.00     0.041 C 
HETATM   10  C18 UNL     1      37.121   2.093  32.955  1.00  0.00    -0.002 C 
HETATM   11  C19 UNL     1      36.315   1.708  34.138  1.00  0.00     0.002 C 
HETATM   12  C20 UNL     1      34.863   2.130  33.981  1.00  0.00     0.007 C 
HETATM   13  C21 UNL     1      34.322   1.336  32.810  1.00  0.00     0.012 C 
HETATM   14  C22 UNL     1      35.092   1.546  31.559  1.00  0.00    -0.014 C 
HETATM   15  C23 UNL     1      35.319   0.244  30.794  1.00  0.00     0.018 C 
HETATM   16  C24 UNL     1      34.240   2.419  30.631  1.00  0.00     0.126 C 
HETATM   17  C25 UNL     1      34.615   3.842  31.004  1.00  0.00     0.033 C 
HETATM   18  C26 UNL     1      36.076   3.755  31.386  1.00  0.00     0.008 C 
HETATM   19  C27 UNL     1      36.354   2.307  31.687  1.00  0.00     0.001 C 
ENDROOT
BRANCH   1  20
HETATM   20  C2  UNL     1      37.748  -0.001  37.851  1.00  0.00    -0.011 C 
HETATM   21  C1  UNL     1      39.067  -0.639  38.060  1.00  0.00     0.010 C 
BRANCH  20  22
HETATM   22  C3  UNL     1      36.749  -0.839  37.204  1.00  0.00     0.005 C 
BRANCH  22  23
HETATM   23  C4  UNL     1      37.250  -1.824  36.215  1.00  0.00     0.003 C 
BRANCH  23  24
HETATM   24  C5  UNL     1      36.586  -3.097  35.949  1.00  0.00     0.039 C 
BRANCH  24  25
HETATM   25  C6  UNL     1      35.767  -3.255  34.727  1.00  0.00     0.075 C 
HETATM   26  C7  UNL     1      35.973  -4.391  33.801  1.00  0.00     0.047 C 
HETATM   27  C8  UNL     1      35.827  -1.984  33.863  1.00  0.00     0.047 C 
BRANCH  25  28
HETATM   28  O1  UNL     1      34.406  -3.326  35.112  1.00  0.00    -0.240 OA
BRANCH  28  29
HETATM   29  S1  UNL     1      33.723  -3.091  36.397  1.00  0.00     0.440 S 
HETATM   30  O2  UNL     1      32.235  -2.292  35.604  1.00  0.00    -0.164 OA
HETATM   31  O3  UNL     1      33.081  -2.754  37.876  1.00  0.00    -0.164 OA
HETATM   32  F1  UNL     1      33.737  -0.368  35.946  1.00  0.00    -0.082 F 
ENDBRANCH  28  29
ENDBRANCH  25  28
ENDBRANCH  24  25
ENDBRANCH  23  24
ENDBRANCH  22  23
ENDBRANCH  20  22
ENDBRANCH   1  20
BRANCH   8  33
HETATM   33  O4  UNL     1      40.424   0.608  33.223  1.00  0.00    -0.392 OA
ATOM     34  H4  UNL     1      40.117  -0.199  32.826  1.00  0.00     0.210 HD
ENDBRANCH   8  33
BRANCH  16  35
HETATM   35  O5  UNL     1      32.892   2.260  30.857  1.00  0.00    -0.395 OA
ATOM     36  H5  UNL     1      32.484   1.686  30.219  1.00  0.00     0.210 HD
ENDBRANCH  16  35
TORSDOF 9
ENDMDL
MODEL 4
REMARK VINA RESULT: -6.394612711     16.046     20.097
REMARK  9 active torsions:
REMARK  status: ('A' for Active; 'I' for Inactive)
REMARK    1  A    between atoms: C2_2  and  C3_3 
REMARK    2  A    between atoms: C2_2  and  C9_14 
REMARK    3  A    between atoms: C3_3  and  C4_4 
REMARK    4  A    between atoms: C4_4  and  C5_5 
REMARK    5  A    between atoms: C5_5  and  C6_6 
REMARK    6  A    between atoms: C6_6  and  O1_9 
REMARK    7  A    between atoms: O1_9  and  S1_10 
REMARK    8  A    between atoms: C16_21  and  O4_22 
REMARK    9  A    between atoms: C24_31  and  O5_32 
ROOT
HETATM    1  C9  UNL     1      30.106 -15.195  47.940  1.00  0.00     0.019 C 
HETATM    2  C10 UNL     1      29.542 -13.767  48.031  1.00  0.00     0.010 C 
HETATM    3  C11 UNL     1      30.394 -12.989  47.023  1.00  0.00     0.015 C 
HETATM    4  C12 UNL     1      31.730 -13.580  47.249  1.00  0.00    -0.016 C 
HETATM    5  C13 UNL     1      32.359 -12.832  48.411  1.00  0.00     0.020 C 
HETATM    6  C14 UNL     1      31.496 -15.007  47.580  1.00  0.00    -0.068 C 
HETATM    7  C15 UNL     1      32.461 -15.927  47.556  1.00  0.00     0.008 C 
HETATM    8  C16 UNL     1      33.902 -15.873  47.211  1.00  0.00     0.141 C 
HETATM    9  C17 UNL     1      34.174 -15.143  45.922  1.00  0.00     0.041 C 
HETATM   10  C18 UNL     1      33.961 -13.650  46.215  1.00  0.00    -0.002 C 
HETATM   11  C19 UNL     1      32.522 -13.390  45.975  1.00  0.00     0.002 C 
HETATM   12  C20 UNL     1      32.294 -11.993  45.422  1.00  0.00     0.007 C 
HETATM   13  C21 UNL     1      32.971 -11.964  44.068  1.00  0.00     0.012 C 
HETATM   14  C22 UNL     1      34.416 -12.300  44.132  1.00  0.00    -0.014 C 
HETATM   15  C23 UNL     1      34.845 -13.223  42.994  1.00  0.00     0.018 C 
HETATM   16  C24 UNL     1      35.203 -11.002  43.922  1.00  0.00     0.126 C 
HETATM   17  C25 UNL     1      35.359 -10.427  45.318  1.00  0.00     0.033 C 
HETATM   18  C26 UNL     1      35.472 -11.641  46.213  1.00  0.00     0.008 C 
HETATM   19  C27 UNL     1      34.914 -12.800  45.431  1.00  0.00     0.001 C 
ENDROOT
BRANCH   1  20
HETATM   20  C2  UNL     1      29.182 -15.937  47.033  1.00  0.00    -0.011 C 
HETATM   21  C1  UNL     1      29.143 -17.348  47.476  1.00  0.00     0.010 C 
BRANCH  20  22
HETATM   22  C3  UNL     1      29.317 -15.741  45.596  1.00  0.00     0.005 C 
BRANCH  22  23
HETATM   23  C4  UNL     1      29.297 -16.963  44.756  1.00  0.00     0.003 C 
BRANCH  23  24
HETATM   24  C5  UNL     1      30.253 -17.208  43.680  1.00  0.00     0.039 C 
BRANCH  24  25
HETATM   25  C6  UNL     1      30.889 -18.538  43.553  1.00  0.00     0.075 C 
HETATM   26  C7  UNL     1      30.281 -19.610  42.734  1.00  0.00     0.047 C 
HETATM   27  C8  UNL     1      31.145 -19.154  44.939  1.00  0.00     0.047 C 
BRANCH  25  28
HETATM   28  O1  UNL     1      32.192 -18.357  43.029  1.00  0.00    -0.240 OA
BRANCH  28  29
HETATM   29  S1  UNL     1      33.520 -18.298  43.665  1.00  0.00     0.440 S 
HETATM   30  O2  UNL     1      34.423 -18.818  42.118  1.00  0.00    -0.164 OA
HETATM   31  O3  UNL     1      34.952 -18.327  44.478  1.00  0.00    -0.164 OA
HETATM   32  F1  UNL     1      33.912 -20.986  43.174  1.00  0.00    -0.082 F 
ENDBRANCH  28  29
ENDBRANCH  25  28
ENDBRANCH  24  25
ENDBRANCH  23  24
ENDBRANCH  22  23
ENDBRANCH  20  22
ENDBRANCH   1  20
BRANCH   8  33
HETATM   33  O4  UNL     1      34.423 -17.153  47.053  1.00  0.00    -0.392 OA
ATOM     34  H4  UNL     1      34.893 -17.228  46.230  1.00  0.00     0.210 HD
ENDBRANCH   8  33
BRANCH  16  35
HETATM   35  O5  UNL     1      34.512 -10.089  43.159  1.00  0.00    -0.395 OA
ATOM     36  H5  UNL     1      34.769  -9.195  43.345  1.00  0.00     0.210 HD
ENDBRANCH  16  35
TORSDOF 9
ENDMDL
MODEL 5
REMARK VINA RESULT: -6.272895557      2.371      5.171
REMARK  9 active torsions:
REMARK  status: ('A' for Active; 'I' for Inactive)
REMARK    1  A    between atoms: C2_2  and  C3_3 
REMARK    2  A    between atoms: C2_2  and  C9_14 
REMARK    3  A    between atoms: C3_3  and  C4_4 
REMARK    4  A    between atoms: C4_4  and  C5_5 
REMARK    5  A    between atoms: C5_5  and  C6_6 
REMARK    6  A    between atoms: C6_6  and  O1_9 
REMARK    7  A    between atoms: O1_9  and  S1_10 
REMARK    8  A    between atoms: C16_21  and  O4_22 
REMARK    9  A    between atoms: C24_31  and  O5_32 
ROOT
HETATM    1  C9  UNL     1      36.769  -2.954  31.507  1.00  0.00     0.019 C 
HETATM    2  C10 UNL     1      38.091  -3.129  32.274  1.00  0.00     0.010 C 
HETATM    3  C11 UNL     1      37.931  -2.182  33.467  1.00  0.00     0.015 C 
HETATM    4  C12 UNL     1      37.256  -1.027  32.837  1.00  0.00    -0.016 C 
HETATM    5  C13 UNL     1      38.339  -0.148  32.240  1.00  0.00     0.020 C 
HETATM    6  C14 UNL     1      36.370  -1.591  31.791  1.00  0.00    -0.068 C 
HETATM    7  C15 UNL     1      35.388  -0.897  31.216  1.00  0.00     0.008 C 
HETATM    8  C16 UNL     1      34.878   0.482  31.408  1.00  0.00     0.141 C 
HETATM    9  C17 UNL     1      34.668   0.838  32.857  1.00  0.00     0.041 C 
HETATM   10  C18 UNL     1      36.066   1.034  33.464  1.00  0.00    -0.002 C 
HETATM   11  C19 UNL     1      36.497  -0.306  33.929  1.00  0.00     0.002 C 
HETATM   12  C20 UNL     1      37.351  -0.210  35.183  1.00  0.00     0.007 C 
HETATM   13  C21 UNL     1      36.448   0.353  36.261  1.00  0.00     0.012 C 
HETATM   14  C22 UNL     1      35.858   1.666  35.897  1.00  0.00    -0.014 C 
HETATM   15  C23 UNL     1      34.385   1.765  36.288  1.00  0.00     0.018 C 
HETATM   16  C24 UNL     1      36.571   2.740  36.726  1.00  0.00     0.126 C 
HETATM   17  C25 UNL     1      37.767   3.136  35.878  1.00  0.00     0.033 C 
HETATM   18  C26 UNL     1      37.277   3.001  34.454  1.00  0.00     0.008 C 
HETATM   19  C27 UNL     1      36.063   2.113  34.503  1.00  0.00     0.001 C 
ENDROOT
BRANCH   1  20
HETATM   20  C2  UNL     1      35.906  -4.099  31.923  1.00  0.00    -0.011 C 
HETATM   21  C1  UNL     1      36.162  -5.224  30.995  1.00  0.00     0.010 C 
BRANCH  20  22
HETATM   22  C3  UNL     1      34.503  -3.839  32.211  1.00  0.00     0.005 C 
BRANCH  22  23
HETATM   23  C4  UNL     1      33.932  -4.525  33.396  1.00  0.00     0.003 C 
BRANCH  23  24
HETATM   24  C5  UNL     1      34.754  -5.147  34.431  1.00  0.00     0.039 C 
BRANCH  24  25
HETATM   25  C6  UNL     1      34.774  -4.572  35.794  1.00  0.00     0.075 C 
HETATM   26  C7  UNL     1      35.572  -3.368  36.113  1.00  0.00     0.047 C 
HETATM   27  C8  UNL     1      35.180  -5.637  36.828  1.00  0.00     0.047 C 
BRANCH  25  28
HETATM   28  O1  UNL     1      33.445  -4.251  36.159  1.00  0.00    -0.240 OA
BRANCH  28  29
HETATM   29  S1  UNL     1      32.849  -3.066  36.804  1.00  0.00     0.440 S 
HETATM   30  O2  UNL     1      31.621  -2.780  35.430  1.00  0.00    -0.164 OA
HETATM   31  O3  UNL     1      32.322  -1.684  37.528  1.00  0.00    -0.164 OA
HETATM   32  F1  UNL     1      33.575  -1.491  34.657  1.00  0.00    -0.082 F 
ENDBRANCH  28  29
ENDBRANCH  25  28
ENDBRANCH  24  25
ENDBRANCH  23  24
ENDBRANCH  22  23
ENDBRANCH  20  22
ENDBRANCH   1  20
BRANCH   8  33
HETATM   33  O4  UNL     1      33.647   0.649  30.783  1.00  0.00    -0.392 OA
ATOM     34  H4  UNL     1      33.197   1.416  31.118  1.00  0.00     0.210 HD
ENDBRANCH   8  33
BRANCH  16  35
HETATM   35  O5  UNL     1      37.040   2.250  37.924  1.00  0.00    -0.395 OA
ATOM     36  H5  UNL     1      37.300   1.339  37.864  1.00  0.00     0.210 HD
ENDBRANCH  16  35
TORSDOF 9
ENDMDL
