MODEL 1
REMARK VINA RESULT: -6.754395295      0.000      0.000
REMARK  10 active torsions:
REMARK  status: ('A' for Active; 'I' for Inactive)
REMARK    1  A    between atoms: C2_2  and  C4_4 
REMARK    2  A    between atoms: C4_4  and  O1_5 
REMARK    3  A    between atoms: C4_4  and  C5_7 
REMARK    4  A    between atoms: C5_7  and  C7_9 
REMARK    5  A    between atoms: C7_9  and  O2_10 
REMARK    6  A    between atoms: C7_9  and  C8_12 
REMARK    7  A    between atoms: C10_14  and  O3_15 
REMARK    8  A    between atoms: C21_27  and  O4_28 
REMARK    9  A    between atoms: O4_28  and  C22_29 
REMARK   10  A    between atoms: C22_29  and  C23_31 
ROOT
HETATM    1  C8  UNL     1      34.707  -4.529  35.698  1.00  0.00     0.017 C 
HETATM    2  C9  UNL     1      33.680  -3.462  35.894  1.00  0.00     0.039 C 
HETATM    3  C10 UNL     1      33.990  -2.204  35.173  1.00  0.00     0.127 C 
HETATM    4  C11 UNL     1      35.448  -1.822  35.101  1.00  0.00    -0.008 C 
HETATM    5  C12 UNL     1      35.850  -1.968  33.642  1.00  0.00     0.019 C 
HETATM    6  C13 UNL     1      36.357  -2.652  35.973  1.00  0.00    -0.003 C 
HETATM    7  C14 UNL     1      35.961  -4.018  36.313  1.00  0.00     0.012 C 
HETATM    8  C15 UNL     1      36.654  -1.787  37.210  1.00  0.00     0.010 C 
HETATM    9  C16 UNL     1      36.913  -0.512  36.469  1.00  0.00    -0.006 C 
HETATM   10  C17 UNL     1      36.759   0.756  37.186  1.00  0.00     0.016 C 
HETATM   11  C18 UNL     1      36.071   1.653  36.168  1.00  0.00    -0.020 C 
HETATM   12  C19 UNL     1      36.867   2.854  35.807  1.00  0.00     0.017 C 
HETATM   13  C20 UNL     1      34.710   1.992  36.690  1.00  0.00     0.017 C 
HETATM   14  C21 UNL     1      35.832   0.733  34.919  1.00  0.00     0.145 C 
HETATM   15  C29 UNL     1      35.598  -0.487  35.661  1.00  0.00     0.031 C 
ENDROOT
BRANCH   1  16
HETATM   16  C7  UNL     1      34.245  -5.760  36.515  1.00  0.00     0.128 C 
BRANCH  16  17
HETATM   17  C5  UNL     1      34.023  -6.924  35.649  1.00  0.00     0.040 C 
HETATM   18  C6  UNL     1      33.719  -6.598  34.198  1.00  0.00     0.015 C 
BRANCH  17  19
HETATM   19  C4  UNL     1      32.995  -7.900  36.119  1.00  0.00     0.127 C 
BRANCH  19  20
HETATM   20  C2  UNL     1      33.457  -9.284  36.446  1.00  0.00     0.006 C 
HETATM   21  C1  UNL     1      34.995  -9.366  36.249  1.00  0.00     0.012 C 
HETATM   22  C3  UNL     1      33.292  -9.563  37.930  1.00  0.00     0.012 C 
ENDBRANCH  19  20
BRANCH  19  23
HETATM   23  O1  UNL     1      32.592  -7.381  37.431  1.00  0.00    -0.395 OA
ATOM     24  H1  UNL     1      32.001  -6.673  37.201  1.00  0.00     0.210 HD
ENDBRANCH  19  23
ENDBRANCH  17  19
ENDBRANCH  16  17
BRANCH  16  25
HETATM   25  O2  UNL     1      35.271  -5.979  37.440  1.00  0.00    -0.395 OA
ATOM     26  H2  UNL     1      35.752  -5.184  37.635  1.00  0.00     0.210 HD
ENDBRANCH  16  25
ENDBRANCH   1  16
BRANCH   3  27
HETATM   27  O3  UNL     1      33.207  -1.205  35.801  1.00  0.00    -0.395 OA
ATOM     28  H3  UNL     1      33.441  -1.242  36.721  1.00  0.00     0.210 HD
ENDBRANCH   3  27
BRANCH  14  29
HETATM   29  O4  UNL     1      37.031   0.887  34.190  1.00  0.00    -0.311 OA
BRANCH  29  30
HETATM   30  C22 UNL     1      36.968   1.211  32.841  1.00  0.00     0.295 C 
HETATM   31  O5  UNL     1      37.756   0.525  32.095  1.00  0.00    -0.259 OA
BRANCH  30  32
HETATM   32  C23 UNL     1      36.141   2.199  32.217  1.00  0.00     0.061 A 
HETATM   33  C24 UNL     1      36.573   3.525  32.213  1.00  0.00     0.019 A 
HETATM   34  C25 UNL     1      35.844   4.532  31.628  1.00  0.00     0.001 A 
HETATM   35  C26 UNL     1      34.636   4.259  31.013  1.00  0.00     0.002 A 
HETATM   36  C27 UNL     1      34.176   2.954  30.997  1.00  0.00     0.025 A 
HETATM   37  C28 UNL     1      34.946   1.963  31.601  1.00  0.00     0.050 A 
HETATM   38 CL1  UNL     1      34.349   0.320  31.548  1.00  0.00    -0.083 Cl
ENDBRANCH  30  32
ENDBRANCH  29  30
ENDBRANCH  14  29
TORSDOF 10
ENDMDL
MODEL 2
REMARK VINA RESULT: -6.733912396      1.452      1.861
REMARK  10 active torsions:
REMARK  status: ('A' for Active; 'I' for Inactive)
REMARK    1  A    between atoms: C2_2  and  C4_4 
REMARK    2  A    between atoms: C4_4  and  O1_5 
REMARK    3  A    between atoms: C4_4  and  C5_7 
REMARK    4  A    between atoms: C5_7  and  C7_9 
REMARK    5  A    between atoms: C7_9  and  O2_10 
REMARK    6  A    between atoms: C7_9  and  C8_12 
REMARK    7  A    between atoms: C10_14  and  O3_15 
REMARK    8  A    between atoms: C21_27  and  O4_28 
REMARK    9  A    between atoms: O4_28  and  C22_29 
REMARK   10  A    between atoms: C22_29  and  C23_31 
ROOT
HETATM    1  C8  UNL     1      33.994  -4.427  35.702  1.00  0.00     0.017 C 
HETATM    2  C9  UNL     1      33.238  -3.395  36.474  1.00  0.00     0.039 C 
HETATM    3  C10 UNL     1      33.222  -2.063  35.822  1.00  0.00     0.127 C 
HETATM    4  C11 UNL     1      34.482  -1.665  35.095  1.00  0.00    -0.008 C 
HETATM    5  C12 UNL     1      34.128  -1.647  33.617  1.00  0.00     0.019 C 
HETATM    6  C13 UNL     1      35.659  -2.579  35.332  1.00  0.00    -0.003 C 
HETATM    7  C14 UNL     1      35.411  -3.977  35.683  1.00  0.00     0.012 C 
HETATM    8  C15 UNL     1      36.553  -1.853  36.352  1.00  0.00     0.010 C 
HETATM    9  C16 UNL     1      36.484  -0.502  35.710  1.00  0.00    -0.006 C 
HETATM   10  C17 UNL     1      36.751   0.678  36.534  1.00  0.00     0.016 C 
HETATM   11  C18 UNL     1      35.701   1.677  36.069  1.00  0.00    -0.020 C 
HETATM   12  C19 UNL     1      36.282   2.915  35.491  1.00  0.00     0.017 C 
HETATM   13  C20 UNL     1      34.776   1.945  37.214  1.00  0.00     0.017 C 
HETATM   14  C21 UNL     1      34.850   0.897  35.006  1.00  0.00     0.145 C 
HETATM   15  C29 UNL     1      34.944  -0.398  35.643  1.00  0.00     0.031 C 
ENDROOT
BRANCH   1  16
HETATM   16  C7  UNL     1      33.925  -5.744  36.513  1.00  0.00     0.128 C 
BRANCH  16  17
HETATM   17  C5  UNL     1      33.760  -6.906  35.632  1.00  0.00     0.040 C 
HETATM   18  C6  UNL     1      33.270  -6.587  34.231  1.00  0.00     0.015 C 
BRANCH  17  19
HETATM   19  C4  UNL     1      32.912  -8.014  36.167  1.00  0.00     0.127 C 
BRANCH  19  20
HETATM   20  C2  UNL     1      33.586  -9.316  36.462  1.00  0.00     0.006 C 
HETATM   21  C1  UNL     1      35.083  -9.215  36.065  1.00  0.00     0.012 C 
HETATM   22  C3  UNL     1      33.651  -9.552  37.961  1.00  0.00     0.012 C 
ENDBRANCH  19  20
BRANCH  19  23
HETATM   23  O1  UNL     1      32.524  -7.546  37.502  1.00  0.00    -0.395 OA
ATOM     24  H1  UNL     1      31.756  -7.017  37.320  1.00  0.00     0.210 HD
ENDBRANCH  19  23
ENDBRANCH  17  19
ENDBRANCH  16  17
BRANCH  16  25
HETATM   25  O2  UNL     1      35.128  -5.788  37.224  1.00  0.00    -0.395 OA
ATOM     26  H2  UNL     1      35.019  -6.165  38.089  1.00  0.00     0.210 HD
ENDBRANCH  16  25
ENDBRANCH   1  16
BRANCH   3  27
HETATM   27  O3  UNL     1      32.884  -1.146  36.846  1.00  0.00    -0.395 OA
ATOM     28  H3  UNL     1      33.489  -0.421  36.746  1.00  0.00     0.210 HD
ENDBRANCH   3  27
BRANCH  14  29
HETATM   29  O4  UNL     1      35.557   1.140  33.808  1.00  0.00    -0.311 OA
BRANCH  29  30
HETATM   30  C22 UNL     1      34.859   1.532  32.675  1.00  0.00     0.295 C 
HETATM   31  O5  UNL     1      33.872   2.319  32.907  1.00  0.00    -0.259 OA
BRANCH  30  32
HETATM   32  C23 UNL     1      35.118   1.160  31.316  1.00  0.00     0.061 A 
HETATM   33  C24 UNL     1      34.376   1.770  30.305  1.00  0.00     0.019 A 
HETATM   34  C25 UNL     1      34.568   1.478  28.976  1.00  0.00     0.001 A 
HETATM   35  C26 UNL     1      35.519   0.552  28.591  1.00  0.00     0.002 A 
HETATM   36  C27 UNL     1      36.274  -0.074  29.567  1.00  0.00     0.025 A 
HETATM   37  C28 UNL     1      36.049   0.252  30.902  1.00  0.00     0.050 A 
HETATM   38 CL1  UNL     1      37.031  -0.540  32.113  1.00  0.00    -0.083 Cl
ENDBRANCH  30  32
ENDBRANCH  29  30
ENDBRANCH  14  29
TORSDOF 10
ENDMDL
MODEL 3
REMARK VINA RESULT: -6.657690934     15.428     20.735
REMARK  10 active torsions:
REMARK  status: ('A' for Active; 'I' for Inactive)
REMARK    1  A    between atoms: C2_2  and  C4_4 
REMARK    2  A    between atoms: C4_4  and  O1_5 
REMARK    3  A    between atoms: C4_4  and  C5_7 
REMARK    4  A    between atoms: C5_7  and  C7_9 
REMARK    5  A    between atoms: C7_9  and  O2_10 
REMARK    6  A    between atoms: C7_9  and  C8_12 
REMARK    7  A    between atoms: C10_14  and  O3_15 
REMARK    8  A    between atoms: C21_27  and  O4_28 
REMARK    9  A    between atoms: O4_28  and  C22_29 
REMARK   10  A    between atoms: C22_29  and  C23_31 
ROOT
HETATM    1  C8  UNL     1      31.205 -13.724  46.992  1.00  0.00     0.017 C 
HETATM    2  C9  UNL     1      32.364 -14.580  47.386  1.00  0.00     0.039 C 
HETATM    3  C10 UNL     1      32.486 -15.818  46.578  1.00  0.00     0.127 C 
HETATM    4  C11 UNL     1      31.191 -16.472  46.166  1.00  0.00    -0.008 C 
HETATM    5  C12 UNL     1      31.093 -16.301  44.658  1.00  0.00     0.019 C 
HETATM    6  C13 UNL     1      29.962 -15.904  46.831  1.00  0.00    -0.003 C 
HETATM    7  C14 UNL     1      29.982 -14.516  47.290  1.00  0.00     0.012 C 
HETATM    8  C15 UNL     1      29.590 -16.900  47.944  1.00  0.00     0.010 C 
HETATM    9  C16 UNL     1      29.769 -18.142  47.128  1.00  0.00    -0.006 C 
HETATM   10  C17 UNL     1      30.025 -19.404  47.825  1.00  0.00     0.016 C 
HETATM   11  C18 UNL     1      31.088 -20.072  46.965  1.00  0.00    -0.020 C 
HETATM   12  C19 UNL     1      30.657 -21.375  46.399  1.00  0.00     0.017 C 
HETATM   13  C20 UNL     1      32.344 -20.173  47.773  1.00  0.00     0.017 C 
HETATM   14  C21 UNL     1      31.396 -19.032  45.829  1.00  0.00     0.145 C 
HETATM   15  C29 UNL     1      31.204 -17.849  46.639  1.00  0.00     0.031 C 
ENDROOT
BRANCH   1  16
HETATM   16  C7  UNL     1      31.212 -12.490  47.926  1.00  0.00     0.128 C 
BRANCH  16  17
HETATM   17  C5  UNL     1      31.640 -11.281  47.213  1.00  0.00     0.040 C 
HETATM   18  C6  UNL     1      31.773 -11.435  45.708  1.00  0.00     0.015 C 
BRANCH  17  19
HETATM   19  C4  UNL     1      32.890 -10.636  47.714  1.00  0.00     0.127 C 
BRANCH  19  20
HETATM   20  C2  UNL     1      34.139 -10.841  46.918  1.00  0.00     0.006 C 
HETATM   21  C1  UNL     1      35.011  -9.559  47.002  1.00  0.00     0.012 C 
HETATM   22  C3  UNL     1      35.020 -11.891  47.573  1.00  0.00     0.012 C 
ENDBRANCH  19  20
BRANCH  19  23
HETATM   23  O1  UNL     1      32.636  -9.201  47.546  1.00  0.00    -0.395 OA
ATOM     24  H1  UNL     1      32.484  -8.912  48.438  1.00  0.00     0.210 HD
ENDBRANCH  19  23
ENDBRANCH  17  19
ENDBRANCH  16  17
BRANCH  16  25
HETATM   25  O2  UNL     1      29.898 -12.389  48.393  1.00  0.00    -0.395 OA
ATOM     26  H2  UNL     1      29.861 -12.283  49.336  1.00  0.00     0.210 HD
ENDBRANCH  16  25
ENDBRANCH   1  16
BRANCH   3  27
HETATM   27  O3  UNL     1      33.305 -16.687  47.340  1.00  0.00    -0.395 OA
ATOM     28  H3  UNL     1      34.113 -16.768  46.848  1.00  0.00     0.210 HD
ENDBRANCH   3  27
BRANCH  14  29
HETATM   29  O4  UNL     1      30.442 -19.365  44.843  1.00  0.00    -0.311 OA
BRANCH  29  30
HETATM   30  C22 UNL     1      30.877 -19.773  43.589  1.00  0.00     0.295 C 
HETATM   31  O5  UNL     1      31.969 -19.221  43.202  1.00  0.00    -0.259 OA
BRANCH  30  32
HETATM   32  C23 UNL     1      30.253 -20.718  42.712  1.00  0.00     0.061 A 
HETATM   33  C24 UNL     1      29.148 -20.307  41.967  1.00  0.00     0.019 A 
HETATM   34  C25 UNL     1      28.497 -21.147  41.096  1.00  0.00     0.001 A 
HETATM   35  C26 UNL     1      28.923 -22.451  40.928  1.00  0.00     0.002 A 
HETATM   36  C27 UNL     1      30.016 -22.894  41.651  1.00  0.00     0.025 A 
HETATM   37  C28 UNL     1      30.648 -22.010  42.522  1.00  0.00     0.050 A 
HETATM   38 CL1  UNL     1      32.039 -22.591  43.408  1.00  0.00    -0.083 Cl
ENDBRANCH  30  32
ENDBRANCH  29  30
ENDBRANCH  14  29
TORSDOF 10
ENDMDL
MODEL 4
REMARK VINA RESULT: -6.632290843      1.522      1.862
REMARK  10 active torsions:
REMARK  status: ('A' for Active; 'I' for Inactive)
REMARK    1  A    between atoms: C2_2  and  C4_4 
REMARK    2  A    between atoms: C4_4  and  O1_5 
REMARK    3  A    between atoms: C4_4  and  C5_7 
REMARK    4  A    between atoms: C5_7  and  C7_9 
REMARK    5  A    between atoms: C7_9  and  O2_10 
REMARK    6  A    between atoms: C7_9  and  C8_12 
REMARK    7  A    between atoms: C10_14  and  O3_15 
REMARK    8  A    between atoms: C21_27  and  O4_28 
REMARK    9  A    between atoms: O4_28  and  C22_29 
REMARK   10  A    between atoms: C22_29  and  C23_31 
ROOT
HETATM    1  C8  UNL     1      33.716  -3.163  35.502  1.00  0.00     0.017 C 
HETATM    2  C9  UNL     1      33.414  -1.822  36.086  1.00  0.00     0.039 C 
HETATM    3  C10 UNL     1      34.023  -0.699  35.333  1.00  0.00     0.127 C 
HETATM    4  C11 UNL     1      35.387  -0.957  34.743  1.00  0.00    -0.008 C 
HETATM    5  C12 UNL     1      35.196  -0.980  33.234  1.00  0.00     0.019 C 
HETATM    6  C13 UNL     1      36.035  -2.240  35.200  1.00  0.00    -0.003 C 
HETATM    7  C14 UNL     1      35.186  -3.350  35.627  1.00  0.00     0.012 C 
HETATM    8  C15 UNL     1      37.068  -1.829  36.264  1.00  0.00     0.010 C 
HETATM    9  C16 UNL     1      37.636  -0.666  35.512  1.00  0.00    -0.006 C 
HETATM   10  C17 UNL     1      38.314   0.390  36.267  1.00  0.00     0.016 C 
HETATM   11  C18 UNL     1      37.835   1.667  35.594  1.00  0.00    -0.020 C 
HETATM   12  C19 UNL     1      38.934   2.468  34.996  1.00  0.00     0.017 C 
HETATM   13  C20 UNL     1      37.023   2.440  36.585  1.00  0.00     0.017 C 
HETATM   14  C21 UNL     1      36.821   1.186  34.496  1.00  0.00     0.145 C 
HETATM   15  C29 UNL     1      36.300   0.061  35.241  1.00  0.00     0.031 C 
ENDROOT
BRANCH   1  16
HETATM   16  C7  UNL     1      33.025  -4.217  36.400  1.00  0.00     0.128 C 
BRANCH  16  17
HETATM   17  C5  UNL     1      33.018  -5.540  35.764  1.00  0.00     0.040 C 
HETATM   18  C6  UNL     1      31.833  -5.810  34.853  1.00  0.00     0.015 C 
BRANCH  17  19
HETATM   19  C4  UNL     1      33.155  -6.707  36.686  1.00  0.00     0.127 C 
BRANCH  19  20
HETATM   20  C2  UNL     1      32.898  -8.067  36.119  1.00  0.00     0.006 C 
HETATM   21  C1  UNL     1      34.231  -8.654  35.582  1.00  0.00     0.012 C 
HETATM   22  C3  UNL     1      32.523  -9.040  37.224  1.00  0.00     0.012 C 
ENDBRANCH  19  20
BRANCH  19  23
HETATM   23  O1  UNL     1      34.591  -6.752  36.983  1.00  0.00    -0.395 OA
ATOM     24  H1  UNL     1      34.941  -6.074  36.417  1.00  0.00     0.210 HD
ENDBRANCH  19  23
ENDBRANCH  17  19
ENDBRANCH  16  17
BRANCH  16  25
HETATM   25  O2  UNL     1      33.759  -4.208  37.589  1.00  0.00    -0.395 OA
ATOM     26  H2  UNL     1      34.532  -3.659  37.529  1.00  0.00     0.210 HD
ENDBRANCH  16  25
ENDBRANCH   1  16
BRANCH   3  27
HETATM   27  O3  UNL     1      34.028   0.398  36.228  1.00  0.00    -0.395 OA
ATOM     28  H3  UNL     1      34.939   0.532  36.458  1.00  0.00     0.210 HD
ENDBRANCH   3  27
BRANCH  14  29
HETATM   29  O4  UNL     1      37.660   0.957  33.383  1.00  0.00    -0.311 OA
BRANCH  29  30
HETATM   30  C22 UNL     1      37.465   1.696  32.224  1.00  0.00     0.295 C 
HETATM   31  O5  UNL     1      38.546   2.014  31.610  1.00  0.00    -0.259 OA
BRANCH  30  32
HETATM   32  C23 UNL     1      36.220   2.124  31.659  1.00  0.00     0.061 A 
HETATM   33  C24 UNL     1      35.597   1.304  30.719  1.00  0.00     0.019 A 
HETATM   34  C25 UNL     1      34.398   1.636  30.135  1.00  0.00     0.001 A 
HETATM   35  C26 UNL     1      33.759   2.816  30.468  1.00  0.00     0.002 A 
HETATM   36  C27 UNL     1      34.347   3.655  31.397  1.00  0.00     0.025 A 
HETATM   37  C28 UNL     1      35.563   3.280  31.965  1.00  0.00     0.050 A 
HETATM   38 CL1  UNL     1      36.273   4.350  33.152  1.00  0.00    -0.083 Cl
ENDBRANCH  30  32
ENDBRANCH  29  30
ENDBRANCH  14  29
TORSDOF 10
ENDMDL
MODEL 5
REMARK VINA RESULT: -6.532677281      2.722      9.122
REMARK  10 active torsions:
REMARK  status: ('A' for Active; 'I' for Inactive)
REMARK    1  A    between atoms: C2_2  and  C4_4 
REMARK    2  A    between atoms: C4_4  and  O1_5 
REMARK    3  A    between atoms: C4_4  and  C5_7 
REMARK    4  A    between atoms: C5_7  and  C7_9 
REMARK    5  A    between atoms: C7_9  and  O2_10 
REMARK    6  A    between atoms: C7_9  and  C8_12 
REMARK    7  A    between atoms: C10_14  and  O3_15 
REMARK    8  A    between atoms: C21_27  and  O4_28 
REMARK    9  A    between atoms: O4_28  and  C22_29 
REMARK   10  A    between atoms: C22_29  and  C23_31 
ROOT
HETATM    1  C8  UNL     1      34.468  -0.174  35.652  1.00  0.00     0.017 C 
HETATM    2  C9  UNL     1      34.327  -0.368  34.177  1.00  0.00     0.039 C 
HETATM    3  C10 UNL     1      34.091  -1.779  33.786  1.00  0.00     0.127 C 
HETATM    4  C11 UNL     1      34.811  -2.823  34.602  1.00  0.00    -0.008 C 
HETATM    5  C12 UNL     1      33.735  -3.564  35.381  1.00  0.00     0.019 C 
HETATM    6  C13 UNL     1      35.848  -2.274  35.549  1.00  0.00    -0.003 C 
HETATM    7  C14 UNL     1      35.697  -0.909  36.052  1.00  0.00     0.012 C 
HETATM    8  C15 UNL     1      37.206  -2.516  34.868  1.00  0.00     0.010 C 
HETATM    9  C16 UNL     1      36.932  -3.923  34.434  1.00  0.00    -0.006 C 
HETATM   10  C17 UNL     1      37.697  -4.470  33.313  1.00  0.00     0.016 C 
HETATM   11  C18 UNL     1      36.655  -5.245  32.520  1.00  0.00    -0.020 C 
HETATM   12  C19 UNL     1      36.954  -6.697  32.416  1.00  0.00     0.017 C 
HETATM   13  C20 UNL     1      36.497  -4.585  31.187  1.00  0.00     0.017 C 
HETATM   14  C21 UNL     1      35.306  -4.996  33.282  1.00  0.00     0.145 C 
HETATM   15  C29 UNL     1      35.603  -3.643  33.698  1.00  0.00     0.031 C 
ENDROOT
BRANCH   1  16
HETATM   16  C7  UNL     1      34.717   1.334  35.891  1.00  0.00     0.128 C 
BRANCH  16  17
HETATM   17  C5  UNL     1      36.147   1.622  36.047  1.00  0.00     0.040 C 
HETATM   18  C6  UNL     1      36.508   2.448  37.269  1.00  0.00     0.015 C 
BRANCH  17  19
HETATM   19  C4  UNL     1      36.820   2.243  34.867  1.00  0.00     0.127 C 
BRANCH  19  20
HETATM   20  C2  UNL     1      37.520   3.547  35.079  1.00  0.00     0.006 C 
HETATM   21  C1  UNL     1      39.023   3.380  34.730  1.00  0.00     0.012 C 
HETATM   22  C3  UNL     1      37.051   4.574  34.063  1.00  0.00     0.012 C 
ENDBRANCH  19  20
BRANCH  19  23
HETATM   23  O1  UNL     1      37.929   1.329  34.574  1.00  0.00    -0.395 OA
ATOM     24  H1  UNL     1      37.481   0.512  34.390  1.00  0.00     0.210 HD
ENDBRANCH  19  23
ENDBRANCH  17  19
ENDBRANCH  16  17
BRANCH  16  25
HETATM   25  O2  UNL     1      34.171   1.968  34.771  1.00  0.00    -0.395 OA
ATOM     26  H2  UNL     1      33.645   2.723  35.007  1.00  0.00     0.210 HD
ENDBRANCH  16  25
ENDBRANCH   1  16
BRANCH   3  27
HETATM   27  O3  UNL     1      34.426  -1.851  32.412  1.00  0.00    -0.395 OA
ATOM     28  H3  UNL     1      33.640  -2.159  31.976  1.00  0.00     0.210 HD
ENDBRANCH   3  27
BRANCH  14  29
HETATM   29  O4  UNL     1      35.297  -6.034  34.239  1.00  0.00    -0.311 OA
BRANCH  29  30
HETATM   30  C22 UNL     1      34.218  -6.906  34.285  1.00  0.00     0.295 C 
HETATM   31  O5  UNL     1      33.384  -6.768  33.318  1.00  0.00    -0.259 OA
BRANCH  30  32
HETATM   32  C23 UNL     1      33.947  -7.912  35.267  1.00  0.00     0.061 A 
HETATM   33  C24 UNL     1      32.948  -7.672  36.210  1.00  0.00     0.019 A 
HETATM   34  C25 UNL     1      32.620  -8.587  37.181  1.00  0.00     0.001 A 
HETATM   35  C26 UNL     1      33.282  -9.799  37.256  1.00  0.00     0.002 A 
HETATM   36  C27 UNL     1      34.280 -10.072  36.337  1.00  0.00     0.025 A 
HETATM   37  C28 UNL     1      34.581  -9.117  35.369  1.00  0.00     0.050 A 
HETATM   38 CL1  UNL     1      35.832  -9.497  34.208  1.00  0.00    -0.083 Cl
ENDBRANCH  30  32
ENDBRANCH  29  30
ENDBRANCH  14  29
TORSDOF 10
ENDMDL
