MODEL 1
REMARK VINA RESULT: -7.779774585      0.000      0.000
REMARK  5 active torsions:
REMARK  status: ('A' for Active; 'I' for Inactive)
REMARK    1  A    between atoms: C3_3  and  C4_4 
REMARK    2  A    between atoms: C8_11  and  C9_12 
REMARK    3  A    between atoms: N1_18  and  C15_19 
REMARK    4  A    between atoms: C15_19  and  C16_20 
REMARK    5  A    between atoms: C22_26  and  C23_27 
ROOT
HETATM    1  C1  UNL     1      -1.365   5.464  -0.105  1.00  0.00     0.052 C 
HETATM    2  C2  UNL     1      -2.401   4.402  -0.078  1.00  0.00    -0.013 A 
HETATM    3  C3  UNL     1      -3.601   4.423  -0.821  1.00  0.00     0.031 A 
HETATM    4  C8  UNL     1      -4.282   3.255  -0.532  1.00  0.00     0.030 A 
HETATM    5  N1  UNL     1      -3.541   2.518   0.352  1.00  0.00    -0.339 N 
HETATM    6  C22 UNL     1      -2.390   3.242   0.620  1.00  0.00     0.119 A 
ENDROOT
BRANCH   3   7
HETATM    7  C4  UNL     1      -3.891   5.551  -1.685  1.00  0.00     0.111 A 
HETATM    8  O1  UNL     1      -4.372   6.743  -1.343  1.00  0.00    -0.301 OA
HETATM    9  C5  UNL     1      -4.514   7.509  -2.369  1.00  0.00     0.124 A 
HETATM   10 BR1  UNL     1      -5.166   9.317  -2.421  1.00  0.00    -0.023 Br
HETATM   11  C6  UNL     1      -4.117   6.827  -3.489  1.00  0.00     0.072 A 
HETATM   12  C7  UNL     1      -3.721   5.578  -3.046  1.00  0.00     0.072 A 
HETATM   13 CL1  UNL     1      -3.117   4.329  -4.110  1.00  0.00    -0.081 Cl
ENDBRANCH   3   7
BRANCH   4  14
HETATM   14  C9  UNL     1      -5.569   2.858  -1.121  1.00  0.00     0.037 C 
HETATM   15  C10 UNL     1      -5.466   1.682  -2.027  1.00  0.00     0.011 C 
HETATM   16  C11 UNL     1      -6.765   0.966  -2.361  1.00  0.00     0.001 C 
HETATM   17  C12 UNL     1      -7.710   0.860  -1.205  1.00  0.00     0.000 C 
HETATM   18  C13 UNL     1      -8.010   2.313  -0.879  1.00  0.00     0.001 C 
HETATM   19  C14 UNL     1      -6.709   2.779  -0.155  1.00  0.00     0.011 C 
ENDBRANCH   4  14
BRANCH   6  20
HETATM   20  C23 UNL     1      -1.281   2.907   1.511  1.00  0.00     0.227 C 
HETATM   21  O2  UNL     1      -1.396   3.226   2.776  1.00  0.00    -0.643 OA
HETATM   22  O3  UNL     1      -0.099   2.298   1.247  1.00  0.00    -0.643 OA
ENDBRANCH   6  20
BRANCH   5  23
HETATM   23  C15 UNL     1      -3.696   1.235   0.937  1.00  0.00     0.168 C 
BRANCH  23  24
HETATM   24  C16 UNL     1      -3.289   0.102   0.027  1.00  0.00    -0.040 A 
HETATM   25  C17 UNL     1      -2.325   0.221  -0.913  1.00  0.00     0.009 A 
HETATM   26  C18 UNL     1      -1.969  -0.859  -1.685  1.00  0.00     0.001 A 
HETATM   27  C19 UNL     1      -2.611  -2.064  -1.480  1.00  0.00     0.000 A 
HETATM   28  C20 UNL     1      -3.606  -2.213  -0.521  1.00  0.00     0.001 A 
HETATM   29  C21 UNL     1      -3.923  -1.094   0.223  1.00  0.00     0.009 A 
ENDBRANCH  23  24
ENDBRANCH   5  23
TORSDOF 5
ENDMDL
MODEL 2
REMARK VINA RESULT: -7.687408764      2.734      5.508
REMARK  5 active torsions:
REMARK  status: ('A' for Active; 'I' for Inactive)
REMARK    1  A    between atoms: C3_3  and  C4_4 
REMARK    2  A    between atoms: C8_11  and  C9_12 
REMARK    3  A    between atoms: N1_18  and  C15_19 
REMARK    4  A    between atoms: C15_19  and  C16_20 
REMARK    5  A    between atoms: C22_26  and  C23_27 
ROOT
HETATM    1  C1  UNL     1      -2.302   5.564   1.162  1.00  0.00     0.052 C 
HETATM    2  C2  UNL     1      -2.759   4.332   0.470  1.00  0.00    -0.013 A 
HETATM    3  C3  UNL     1      -2.209   3.046   0.662  1.00  0.00     0.031 A 
HETATM    4  C8  UNL     1      -2.914   2.176  -0.149  1.00  0.00     0.030 A 
HETATM    5  N1  UNL     1      -3.877   2.879  -0.821  1.00  0.00    -0.339 N 
HETATM    6  C22 UNL     1      -3.762   4.203  -0.429  1.00  0.00     0.119 A 
ENDROOT
BRANCH   3   7
HETATM    7  C4  UNL     1      -1.110   2.866   1.590  1.00  0.00     0.111 A 
HETATM    8  O1  UNL     1      -1.163   2.764   2.915  1.00  0.00    -0.301 OA
HETATM    9  C5  UNL     1       0.010   2.616   3.426  1.00  0.00     0.124 A 
HETATM   10 BR1  UNL     1       0.481   2.424   5.280  1.00  0.00    -0.023 Br
HETATM   11  C6  UNL     1       0.936   2.614   2.418  1.00  0.00     0.072 A 
HETATM   12  C7  UNL     1       0.215   2.774   1.247  1.00  0.00     0.072 A 
HETATM   13 CL1  UNL     1       0.956   2.828  -0.336  1.00  0.00    -0.081 Cl
ENDBRANCH   3   7
BRANCH   4  14
HETATM   14  C9  UNL     1      -2.689   0.725  -0.230  1.00  0.00     0.037 C 
HETATM   15  C10 UNL     1      -3.771  -0.077   0.402  1.00  0.00     0.011 C 
HETATM   16  C11 UNL     1      -3.830  -1.549   0.029  1.00  0.00     0.001 C 
HETATM   17  C12 UNL     1      -3.529  -1.820  -1.412  1.00  0.00     0.000 C 
HETATM   18  C13 UNL     1      -2.100  -1.325  -1.557  1.00  0.00     0.001 C 
HETATM   19  C14 UNL     1      -2.273   0.225  -1.578  1.00  0.00     0.011 C 
ENDBRANCH   4  14
BRANCH   6  20
HETATM   20  C23 UNL     1      -4.541   5.360  -0.864  1.00  0.00     0.227 C 
HETATM   21  O2  UNL     1      -5.584   5.699  -0.149  1.00  0.00    -0.643 OA
HETATM   22  O3  UNL     1      -4.366   6.183  -1.928  1.00  0.00    -0.643 OA
ENDBRANCH   6  20
BRANCH   5  23
HETATM   23  C15 UNL     1      -4.917   2.516  -1.716  1.00  0.00     0.168 C 
BRANCH  23  24
HETATM   24  C16 UNL     1      -6.119   1.912  -1.032  1.00  0.00    -0.040 A 
HETATM   25  C17 UNL     1      -6.531   2.284   0.201  1.00  0.00     0.009 A 
HETATM   26  C18 UNL     1      -7.659   1.728   0.755  1.00  0.00     0.001 A 
HETATM   27  C19 UNL     1      -8.362   0.787   0.030  1.00  0.00     0.000 A 
HETATM   28  C20 UNL     1      -7.960   0.387  -1.239  1.00  0.00     0.001 A 
HETATM   29  C21 UNL     1      -6.820   0.979  -1.744  1.00  0.00     0.009 A 
ENDBRANCH  23  24
ENDBRANCH   5  23
TORSDOF 5
ENDMDL
MODEL 3
REMARK VINA RESULT: -7.641843946      1.684      1.922
REMARK  5 active torsions:
REMARK  status: ('A' for Active; 'I' for Inactive)
REMARK    1  A    between atoms: C3_3  and  C4_4 
REMARK    2  A    between atoms: C8_11  and  C9_12 
REMARK    3  A    between atoms: N1_18  and  C15_19 
REMARK    4  A    between atoms: C15_19  and  C16_20 
REMARK    5  A    between atoms: C22_26  and  C23_27 
ROOT
HETATM    1  C1  UNL     1      -2.050   5.545   1.327  1.00  0.00     0.052 C 
HETATM    2  C2  UNL     1      -2.943   4.390   1.059  1.00  0.00    -0.013 A 
HETATM    3  C3  UNL     1      -4.159   4.457   0.345  1.00  0.00     0.031 A 
HETATM    4  C8  UNL     1      -4.679   3.177   0.302  1.00  0.00     0.030 A 
HETATM    5  N1  UNL     1      -3.824   2.330   0.955  1.00  0.00    -0.339 N 
HETATM    6  C22 UNL     1      -2.766   3.096   1.416  1.00  0.00     0.119 A 
ENDROOT
BRANCH   3   7
HETATM    7  C4  UNL     1      -4.614   5.729  -0.180  1.00  0.00     0.111 A 
HETATM    8  O1  UNL     1      -4.126   6.413  -1.211  1.00  0.00    -0.301 OA
HETATM    9  C5  UNL     1      -4.771   7.512  -1.399  1.00  0.00     0.124 A 
HETATM   10 BR1  UNL     1      -4.469   8.851  -2.745  1.00  0.00    -0.023 Br
HETATM   11  C6  UNL     1      -5.760   7.612  -0.458  1.00  0.00     0.072 A 
HETATM   12  C7  UNL     1      -5.655   6.471   0.318  1.00  0.00     0.072 A 
HETATM   13 CL1  UNL     1      -6.715   6.125   1.665  1.00  0.00    -0.081 Cl
ENDBRANCH   3   7
BRANCH   4  14
HETATM   14  C9  UNL     1      -5.923   2.791  -0.379  1.00  0.00     0.037 C 
HETATM   15  C10 UNL     1      -5.697   2.126  -1.690  1.00  0.00     0.011 C 
HETATM   16  C11 UNL     1      -6.870   1.352  -2.270  1.00  0.00     0.001 C 
HETATM   17  C12 UNL     1      -7.660   0.598  -1.247  1.00  0.00     0.000 C 
HETATM   18  C13 UNL     1      -8.187   1.701  -0.346  1.00  0.00     0.001 C 
HETATM   19  C14 UNL     1      -6.928   2.097   0.486  1.00  0.00     0.011 C 
ENDBRANCH   4  14
BRANCH   6  20
HETATM   20  C23 UNL     1      -1.597   2.679   2.187  1.00  0.00     0.227 C 
HETATM   21  O2  UNL     1      -0.522   2.329   1.526  1.00  0.00    -0.643 OA
HETATM   22  O3  UNL     1      -1.420   2.585   3.529  1.00  0.00    -0.643 OA
ENDBRANCH   6  20
BRANCH   5  23
HETATM   23  C15 UNL     1      -3.799   0.927   1.169  1.00  0.00     0.168 C 
BRANCH  23  24
HETATM   24  C16 UNL     1      -3.196   0.153   0.023  1.00  0.00    -0.040 A 
HETATM   25  C17 UNL     1      -2.327   0.695  -0.858  1.00  0.00     0.009 A 
HETATM   26  C18 UNL     1      -1.778  -0.073  -1.857  1.00  0.00     0.001 A 
HETATM   27  C19 UNL     1      -2.130  -1.405  -1.941  1.00  0.00     0.000 A 
HETATM   28  C20 UNL     1      -3.022  -1.988  -1.049  1.00  0.00     0.001 A 
HETATM   29  C21 UNL     1      -3.542  -1.168  -0.067  1.00  0.00     0.009 A 
ENDBRANCH  23  24
ENDBRANCH   5  23
TORSDOF 5
ENDMDL
MODEL 4
REMARK VINA RESULT: -7.598415102      2.879      3.563
REMARK  5 active torsions:
REMARK  status: ('A' for Active; 'I' for Inactive)
REMARK    1  A    between atoms: C3_3  and  C4_4 
REMARK    2  A    between atoms: C8_11  and  C9_12 
REMARK    3  A    between atoms: N1_18  and  C15_19 
REMARK    4  A    between atoms: C15_19  and  C16_20 
REMARK    5  A    between atoms: C22_26  and  C23_27 
ROOT
HETATM    1  C1  UNL     1      -1.895   6.141   0.055  1.00  0.00     0.052 C 
HETATM    2  C2  UNL     1      -2.833   5.038  -0.274  1.00  0.00    -0.013 A 
HETATM    3  C3  UNL     1      -4.054   4.791   0.389  1.00  0.00     0.031 A 
HETATM    4  C8  UNL     1      -4.634   3.693  -0.220  1.00  0.00     0.030 A 
HETATM    5  N1  UNL     1      -3.818   3.266  -1.232  1.00  0.00    -0.339 N 
HETATM    6  C22 UNL     1      -2.715   4.104  -1.247  1.00  0.00     0.119 A 
ENDROOT
BRANCH   3   7
HETATM    7  C4  UNL     1      -4.462   5.647   1.485  1.00  0.00     0.111 A 
HETATM    8  O1  UNL     1      -3.801   5.915   2.607  1.00  0.00    -0.301 OA
HETATM    9  C5  UNL     1      -4.463   6.715   3.368  1.00  0.00     0.124 A 
HETATM   10 BR1  UNL     1      -3.957   7.409   5.089  1.00  0.00    -0.023 Br
HETATM   11  C6  UNL     1      -5.648   7.028   2.758  1.00  0.00     0.072 A 
HETATM   12  C7  UNL     1      -5.643   6.343   1.556  1.00  0.00     0.072 A 
HETATM   13 CL1  UNL     1      -6.951   6.424   0.399  1.00  0.00    -0.081 Cl
ENDBRANCH   3   7
BRANCH   4  14
HETATM   14  C9  UNL     1      -5.938   3.117   0.140  1.00  0.00     0.037 C 
HETATM   15  C10 UNL     1      -6.869   2.997  -1.013  1.00  0.00     0.011 C 
HETATM   16  C11 UNL     1      -8.060   2.070  -0.830  1.00  0.00     0.001 C 
HETATM   17  C12 UNL     1      -7.742   0.819  -0.074  1.00  0.00     0.000 C 
HETATM   18  C13 UNL     1      -7.305   1.345   1.282  1.00  0.00     0.001 C 
HETATM   19  C14 UNL     1      -5.872   1.890   0.995  1.00  0.00     0.011 C 
ENDBRANCH   4  14
BRANCH   6  20
HETATM   20  C23 UNL     1      -1.545   4.068  -2.122  1.00  0.00     0.227 C 
HETATM   21  O2  UNL     1      -1.601   4.741  -3.244  1.00  0.00    -0.643 OA
HETATM   22  O3  UNL     1      -0.358   3.431  -1.971  1.00  0.00    -0.643 OA
ENDBRANCH   6  20
BRANCH   5  23
HETATM   23  C15 UNL     1      -3.922   2.252  -2.220  1.00  0.00     0.168 C 
BRANCH  23  24
HETATM   24  C16 UNL     1      -3.471   0.894  -1.742  1.00  0.00    -0.040 A 
HETATM   25  C17 UNL     1      -4.241   0.088  -0.978  1.00  0.00     0.009 A 
HETATM   26  C18 UNL     1      -3.792  -1.157  -0.608  1.00  0.00     0.001 A 
HETATM   27  C19 UNL     1      -2.543  -1.567  -1.033  1.00  0.00     0.000 A 
HETATM   28  C20 UNL     1      -1.731  -0.758  -1.818  1.00  0.00     0.001 A 
HETATM   29  C21 UNL     1      -2.235   0.482  -2.158  1.00  0.00     0.009 A 
ENDBRANCH  23  24
ENDBRANCH   5  23
TORSDOF 5
ENDMDL
MODEL 5
REMARK VINA RESULT: -7.512106782      3.119      5.549
REMARK  5 active torsions:
REMARK  status: ('A' for Active; 'I' for Inactive)
REMARK    1  A    between atoms: C3_3  and  C4_4 
REMARK    2  A    between atoms: C8_11  and  C9_12 
REMARK    3  A    between atoms: N1_18  and  C15_19 
REMARK    4  A    between atoms: C15_19  and  C16_20 
REMARK    5  A    between atoms: C22_26  and  C23_27 
ROOT
HETATM    1  C1  UNL     1      -3.777   6.410   2.731  1.00  0.00     0.052 C 
HETATM    2  C2  UNL     1      -3.972   5.379   1.681  1.00  0.00    -0.013 A 
HETATM    3  C3  UNL     1      -3.113   4.281   1.458  1.00  0.00     0.031 A 
HETATM    4  C8  UNL     1      -3.645   3.554   0.409  1.00  0.00     0.030 A 
HETATM    5  N1  UNL     1      -4.797   4.161  -0.012  1.00  0.00    -0.339 N 
HETATM    6  C22 UNL     1      -4.978   5.283   0.781  1.00  0.00     0.119 A 
ENDROOT
BRANCH   3   7
HETATM    7  C4  UNL     1      -1.937   4.108   2.287  1.00  0.00     0.111 A 
HETATM    8  O1  UNL     1      -1.712   3.176   3.208  1.00  0.00    -0.301 OA
HETATM    9  C5  UNL     1      -0.558   3.324   3.761  1.00  0.00     0.124 A 
HETATM   10 BR1  UNL     1       0.245   2.251   5.140  1.00  0.00    -0.023 Br
HETATM   11  C6  UNL     1       0.062   4.412   3.207  1.00  0.00     0.072 A 
HETATM   12  C7  UNL     1      -0.823   4.909   2.267  1.00  0.00     0.072 A 
HETATM   13 CL1  UNL     1      -0.484   6.308   1.275  1.00  0.00    -0.081 Cl
ENDBRANCH   3   7
BRANCH   4  14
HETATM   14  C9  UNL     1      -3.081   2.306  -0.127  1.00  0.00     0.037 C 
HETATM   15  C10 UNL     1      -3.614   1.085   0.534  1.00  0.00     0.011 C 
HETATM   16  C11 UNL     1      -3.402  -0.230  -0.198  1.00  0.00     0.001 C 
HETATM   17  C12 UNL     1      -3.564  -0.129  -1.682  1.00  0.00     0.000 C 
HETATM   18  C13 UNL     1      -2.467   0.844  -2.077  1.00  0.00     0.001 C 
HETATM   19  C14 UNL     1      -3.046   2.219  -1.621  1.00  0.00     0.011 C 
ENDBRANCH   4  14
BRANCH   6  20
HETATM   20  C23 UNL     1      -6.044   6.281   0.731  1.00  0.00     0.227 C 
HETATM   21  O2  UNL     1      -7.166   6.008   1.349  1.00  0.00    -0.643 OA
HETATM   22  O3  UNL     1      -6.080   7.496   0.128  1.00  0.00    -0.643 OA
ENDBRANCH   6  20
BRANCH   5  23
HETATM   23  C15 UNL     1      -5.782   3.841  -0.982  1.00  0.00     0.168 C 
BRANCH  23  24
HETATM   24  C16 UNL     1      -6.588   2.611  -0.641  1.00  0.00    -0.040 A 
HETATM   25  C17 UNL     1      -7.146   2.407   0.573  1.00  0.00     0.009 A 
HETATM   26  C18 UNL     1      -7.905   1.287   0.810  1.00  0.00     0.001 A 
HETATM   27  C19 UNL     1      -8.087   0.377  -0.212  1.00  0.00     0.000 A 
HETATM   28  C20 UNL     1      -7.523   0.561  -1.469  1.00  0.00     0.001 A 
HETATM   29  C21 UNL     1      -6.770   1.705  -1.649  1.00  0.00     0.009 A 
ENDBRANCH  23  24
ENDBRANCH   5  23
TORSDOF 5
ENDMDL
