MODEL 1
REMARK VINA RESULT: -7.366680283      0.000      0.000
REMARK  5 active torsions:
REMARK  status: ('A' for Active; 'I' for Inactive)
REMARK    1  A    between atoms: C1_2  and  C2_4 
REMARK       I    between atoms: N1_7  and  C5_8 
REMARK    2  A    between atoms: C5_8  and  C6_10 
REMARK    3  A    between atoms: C8_12  and  C9_13 
REMARK    4  A    between atoms: C15_20  and  S1_21 
REMARK    5  A    between atoms: S1_21  and  C16_22 
ROOT
HETATM    1  C6  UNL     1      -3.825   6.230  -2.827  1.00  0.00     0.054 A 
HETATM    2  C7  UNL     1      -4.310   6.298  -1.526  1.00  0.00     0.027 A 
HETATM    3  C8  UNL     1      -4.421   5.148  -0.757  1.00  0.00    -0.034 A 
HETATM    4  C15 UNL     1      -4.033   3.938  -1.334  1.00  0.00     0.014 A 
HETATM    5  C22 UNL     1      -3.551   3.846  -2.623  1.00  0.00     0.044 A 
HETATM    6  C23 UNL     1      -3.456   5.020  -3.356  1.00  0.00     0.051 A 
HETATM    7 CL2  UNL     1      -2.845   4.909  -4.991  1.00  0.00    -0.083 Cl
ENDROOT
BRANCH   1   8
HETATM    8  C5  UNL     1      -3.697   7.417  -3.661  1.00  0.00     0.255 C 
HETATM    9  N1  UNL     1      -2.512   8.178  -3.781  1.00  0.00    -0.348 N 
HETATM   10  C4  UNL     1      -2.486   9.328  -4.625  1.00  0.00     0.127 C 
HETATM   11  C24 UNL     1      -1.327   7.793  -3.049  1.00  0.00     0.127 C 
HETATM   12  C3  UNL     1      -1.178  10.065  -4.599  1.00  0.00     0.035 C 
HETATM   13  C2  UNL     1      -0.526  10.136  -3.262  1.00  0.00     0.090 C 
HETATM   14  C25 UNL     1      -0.819   9.009  -2.332  1.00  0.00     0.035 C 
HETATM   15  O3  UNL     1      -4.746   7.755  -4.307  1.00  0.00    -0.267 OA
BRANCH  13  16
HETATM   16  C1  UNL     1       0.961  10.176  -3.495  1.00  0.00     0.177 C 
HETATM   17  O1  UNL     1       1.754  10.705  -2.669  1.00  0.00    -0.648 OA
HETATM   18  O2  UNL     1       1.501   9.617  -4.650  1.00  0.00    -0.648 OA
ENDBRANCH  13  16
ENDBRANCH   1   8
BRANCH   3  19
HETATM   19  C9  UNL     1      -4.966   5.218   0.627  1.00  0.00     0.038 C 
HETATM   20  C10 UNL     1      -3.899   5.327   1.659  1.00  0.00     0.011 C 
HETATM   21  C11 UNL     1      -3.540   6.684   2.117  1.00  0.00     0.001 C 
HETATM   22  C12 UNL     1      -4.842   7.319   2.641  1.00  0.00     0.002 C 
HETATM   23  C13 UNL     1      -5.651   7.549   1.387  1.00  0.00     0.021 C 
HETATM   24  C14 UNL     1      -6.027   6.276   0.707  1.00  0.00     0.090 C 
HETATM   25 CL1  UNL     1      -7.532   5.694   1.461  1.00  0.00    -0.124 Cl
ENDBRANCH   3  19
BRANCH   4  26
HETATM   26  S1  UNL     1      -4.151   2.464  -0.340  1.00  0.00    -0.090 SA
BRANCH  26  27
HETATM   27  C16 UNL     1      -5.774   1.770  -0.381  1.00  0.00     0.005 A 
HETATM   28  C17 UNL     1      -6.214   1.150  -1.512  1.00  0.00     0.019 A 
HETATM   29  C18 UNL     1      -7.481   0.608  -1.545  1.00  0.00     0.001 A 
HETATM   30  C19 UNL     1      -8.320   0.678  -0.452  1.00  0.00     0.000 A 
HETATM   31  C20 UNL     1      -7.855   1.303   0.668  1.00  0.00     0.001 A 
HETATM   32  C21 UNL     1      -6.592   1.859   0.739  1.00  0.00     0.019 A 
ENDBRANCH  26  27
ENDBRANCH   4  26
TORSDOF 5
ENDMDL
MODEL 2
REMARK VINA RESULT: -7.307925270      1.045      1.071
REMARK  5 active torsions:
REMARK  status: ('A' for Active; 'I' for Inactive)
REMARK    1  A    between atoms: C1_2  and  C2_4 
REMARK       I    between atoms: N1_7  and  C5_8 
REMARK    2  A    between atoms: C5_8  and  C6_10 
REMARK    3  A    between atoms: C8_12  and  C9_13 
REMARK    4  A    between atoms: C15_20  and  S1_21 
REMARK    5  A    between atoms: S1_21  and  C16_22 
ROOT
HETATM    1  C6  UNL     1      -3.349   5.347  -3.048  1.00  0.00     0.054 A 
HETATM    2  C7  UNL     1      -3.867   5.554  -1.775  1.00  0.00     0.027 A 
HETATM    3  C8  UNL     1      -4.140   4.477  -0.943  1.00  0.00    -0.034 A 
HETATM    4  C15 UNL     1      -3.876   3.196  -1.429  1.00  0.00     0.014 A 
HETATM    5  C22 UNL     1      -3.363   2.966  -2.688  1.00  0.00     0.044 A 
HETATM    6  C23 UNL     1      -3.105   4.071  -3.486  1.00  0.00     0.051 A 
HETATM    7 CL2  UNL     1      -2.454   3.785  -5.085  1.00  0.00    -0.083 Cl
ENDROOT
BRANCH   1   8
HETATM    8  C5  UNL     1      -3.053   6.455  -3.945  1.00  0.00     0.255 C 
HETATM    9  N1  UNL     1      -1.785   7.069  -4.056  1.00  0.00    -0.348 N 
HETATM   10  C4  UNL     1      -1.595   8.151  -4.967  1.00  0.00     0.127 C 
HETATM   11  C24 UNL     1      -0.681   6.602  -3.249  1.00  0.00     0.127 C 
HETATM   12  C3  UNL     1      -0.213   8.737  -4.926  1.00  0.00     0.035 C 
HETATM   13  C2  UNL     1       0.392   8.822  -3.568  1.00  0.00     0.090 C 
HETATM   14  C25 UNL     1      -0.065   7.798  -2.586  1.00  0.00     0.035 C 
HETATM   15  O3  UNL     1      -4.030   6.866  -4.658  1.00  0.00    -0.267 OA
BRANCH  13  16
HETATM   16  C1  UNL     1       1.881   8.679  -3.735  1.00  0.00     0.177 C 
HETATM   17  O1  UNL     1       2.698   9.216  -2.937  1.00  0.00    -0.648 OA
HETATM   18  O2  UNL     1       2.396   7.936  -4.793  1.00  0.00    -0.648 OA
ENDBRANCH  13  16
ENDBRANCH   1   8
BRANCH   3  19
HETATM   19  C9  UNL     1      -4.720   4.699   0.409  1.00  0.00     0.038 C 
HETATM   20  C10 UNL     1      -3.682   4.797   1.471  1.00  0.00     0.011 C 
HETATM   21  C11 UNL     1      -3.222   6.150   1.841  1.00  0.00     0.001 C 
HETATM   22  C12 UNL     1      -4.481   6.930   2.266  1.00  0.00     0.002 C 
HETATM   23  C13 UNL     1      -5.226   7.130   0.968  1.00  0.00     0.021 C 
HETATM   24  C14 UNL     1      -5.689   5.845   0.371  1.00  0.00     0.090 C 
HETATM   25 CL1  UNL     1      -7.262   5.450   1.106  1.00  0.00    -0.124 Cl
ENDBRANCH   3  19
BRANCH   4  26
HETATM   26  S1  UNL     1      -4.201   1.812  -0.354  1.00  0.00    -0.090 SA
BRANCH  26  27
HETATM   27  C16 UNL     1      -5.917   1.400  -0.311  1.00  0.00     0.005 A 
HETATM   28  C17 UNL     1      -6.489   0.783  -1.383  1.00  0.00     0.019 A 
HETATM   29  C18 UNL     1      -7.829   0.461  -1.349  1.00  0.00     0.001 A 
HETATM   30  C19 UNL     1      -8.610   0.750  -0.249  1.00  0.00     0.000 A 
HETATM   31  C20 UNL     1      -8.012   1.367   0.810  1.00  0.00     0.001 A 
HETATM   32  C21 UNL     1      -6.673   1.706   0.815  1.00  0.00     0.019 A 
ENDBRANCH  26  27
ENDBRANCH   4  26
TORSDOF 5
ENDMDL
MODEL 3
REMARK VINA RESULT: -7.167547235      4.378      5.763
REMARK  5 active torsions:
REMARK  status: ('A' for Active; 'I' for Inactive)
REMARK    1  A    between atoms: C1_2  and  C2_4 
REMARK       I    between atoms: N1_7  and  C5_8 
REMARK    2  A    between atoms: C5_8  and  C6_10 
REMARK    3  A    between atoms: C8_12  and  C9_13 
REMARK    4  A    between atoms: C15_20  and  S1_21 
REMARK    5  A    between atoms: S1_21  and  C16_22 
ROOT
HETATM    1  C6  UNL     1      -4.861   6.500   2.454  1.00  0.00     0.054 A 
HETATM    2  C7  UNL     1      -3.825   5.695   1.996  1.00  0.00     0.027 A 
HETATM    3  C8  UNL     1      -4.002   4.891   0.879  1.00  0.00    -0.034 A 
HETATM    4  C15 UNL     1      -5.243   4.923   0.242  1.00  0.00     0.014 A 
HETATM    5  C22 UNL     1      -6.286   5.713   0.680  1.00  0.00     0.044 A 
HETATM    6  C23 UNL     1      -6.065   6.501   1.800  1.00  0.00     0.051 A 
HETATM    7 CL2  UNL     1      -7.385   7.505   2.360  1.00  0.00    -0.083 Cl
ENDROOT
BRANCH   1   8
HETATM    8  C5  UNL     1      -4.709   7.354   3.625  1.00  0.00     0.255 C 
HETATM    9  N1  UNL     1      -4.319   8.711   3.570  1.00  0.00    -0.348 N 
HETATM   10  C4  UNL     1      -4.198   9.466   4.775  1.00  0.00     0.127 C 
HETATM   11  C24 UNL     1      -4.045   9.336   2.297  1.00  0.00     0.127 C 
HETATM   12  C3  UNL     1      -3.717  10.872   4.559  1.00  0.00     0.035 C 
HETATM   13  C2  UNL     1      -2.677  11.023   3.504  1.00  0.00     0.090 C 
HETATM   14  C25 UNL     1      -2.715  10.020   2.403  1.00  0.00     0.035 C 
HETATM   15  O3  UNL     1      -4.952   6.800   4.749  1.00  0.00    -0.267 OA
BRANCH  13  16
HETATM   16  C1  UNL     1      -2.854  12.391   2.899  1.00  0.00     0.177 C 
HETATM   17  O1  UNL     1      -1.874  13.077   2.500  1.00  0.00    -0.648 OA
HETATM   18  O2  UNL     1      -4.128  12.935   2.765  1.00  0.00    -0.648 OA
ENDBRANCH  13  16
ENDBRANCH   1   8
BRANCH   3  19
HETATM   19  C9  UNL     1      -2.901   4.009   0.405  1.00  0.00     0.038 C 
HETATM   20  C10 UNL     1      -1.625   4.745   0.192  1.00  0.00     0.011 C 
HETATM   21  C11 UNL     1      -0.656   4.751   1.307  1.00  0.00     0.001 C 
HETATM   22  C12 UNL     1      -0.361   3.273   1.626  1.00  0.00     0.002 C 
HETATM   23  C13 UNL     1      -1.645   2.783   2.250  1.00  0.00     0.021 C 
HETATM   24  C14 UNL     1      -2.789   2.804   1.294  1.00  0.00     0.090 C 
HETATM   25 CL1  UNL     1      -2.754   1.272   0.386  1.00  0.00    -0.124 Cl
ENDBRANCH   3  19
BRANCH   4  26
HETATM   26  S1  UNL     1      -5.465   3.912  -1.208  1.00  0.00    -0.090 SA
BRANCH  26  27
HETATM   27  C16 UNL     1      -6.525   2.534  -0.894  1.00  0.00     0.005 A 
HETATM   28  C17 UNL     1      -6.684   1.575  -1.849  1.00  0.00     0.019 A 
HETATM   29  C18 UNL     1      -7.510   0.500  -1.604  1.00  0.00     0.001 A 
HETATM   30  C19 UNL     1      -8.184   0.370  -0.407  1.00  0.00     0.000 A 
HETATM   31  C20 UNL     1      -8.006   1.343   0.531  1.00  0.00     0.001 A 
HETATM   32  C21 UNL     1      -7.187   2.436   0.324  1.00  0.00     0.019 A 
ENDBRANCH  26  27
ENDBRANCH   4  26
TORSDOF 5
ENDMDL
MODEL 4
REMARK VINA RESULT: -7.133058464      3.826      6.751
REMARK  5 active torsions:
REMARK  status: ('A' for Active; 'I' for Inactive)
REMARK    1  A    between atoms: C1_2  and  C2_4 
REMARK       I    between atoms: N1_7  and  C5_8 
REMARK    2  A    between atoms: C5_8  and  C6_10 
REMARK    3  A    between atoms: C8_12  and  C9_13 
REMARK    4  A    between atoms: C15_20  and  S1_21 
REMARK    5  A    between atoms: S1_21  and  C16_22 
ROOT
HETATM    1  C6  UNL     1      -5.400   5.931   0.180  1.00  0.00     0.054 A 
HETATM    2  C7  UNL     1      -5.765   4.590   0.205  1.00  0.00     0.027 A 
HETATM    3  C8  UNL     1      -5.207   3.693  -0.694  1.00  0.00    -0.034 A 
HETATM    4  C15 UNL     1      -4.276   4.184  -1.611  1.00  0.00     0.014 A 
HETATM    5  C22 UNL     1      -3.899   5.510  -1.655  1.00  0.00     0.044 A 
HETATM    6  C23 UNL     1      -4.482   6.371  -0.738  1.00  0.00     0.051 A 
HETATM    7 CL2  UNL     1      -4.008   8.055  -0.789  1.00  0.00    -0.083 Cl
ENDROOT
BRANCH   1   8
HETATM    8  C5  UNL     1      -5.968   6.898   1.109  1.00  0.00     0.255 C 
HETATM    9  N1  UNL     1      -5.286   7.412   2.235  1.00  0.00    -0.348 N 
HETATM   10  C4  UNL     1      -5.931   8.357   3.087  1.00  0.00     0.127 C 
HETATM   11  C24 UNL     1      -3.938   6.981   2.524  1.00  0.00     0.127 C 
HETATM   12  C3  UNL     1      -5.102   8.762   4.273  1.00  0.00     0.035 C 
HETATM   13  C2  UNL     1      -4.306   7.662   4.886  1.00  0.00     0.090 C 
HETATM   14  C25 UNL     1      -3.891   6.566   3.965  1.00  0.00     0.035 C 
HETATM   15  O3  UNL     1      -7.161   7.277   0.852  1.00  0.00    -0.267 OA
BRANCH  13  16
HETATM   16  C1  UNL     1      -3.064   8.283   5.465  1.00  0.00     0.177 C 
HETATM   17  O1  UNL     1      -2.475   9.248   4.906  1.00  0.00    -0.648 OA
HETATM   18  O2  UNL     1      -2.530   7.795   6.655  1.00  0.00    -0.648 OA
ENDBRANCH  13  16
ENDBRANCH   1   8
BRANCH   3  19
HETATM   19  C9  UNL     1      -5.618   2.262  -0.685  1.00  0.00     0.038 C 
HETATM   20  C10 UNL     1      -5.729   1.705   0.691  1.00  0.00     0.011 C 
HETATM   21  C11 UNL     1      -7.066   1.721   1.318  1.00  0.00     0.001 C 
HETATM   22  C12 UNL     1      -7.997   0.950   0.364  1.00  0.00     0.002 C 
HETATM   23  C13 UNL     1      -8.131   1.874  -0.822  1.00  0.00     0.021 C 
HETATM   24  C14 UNL     1      -6.839   2.074  -1.538  1.00  0.00     0.090 C 
HETATM   25 CL1  UNL     1      -6.668   0.744  -2.711  1.00  0.00    -0.124 Cl
ENDBRANCH   3  19
BRANCH   4  26
HETATM   26  S1  UNL     1      -3.537   3.030  -2.751  1.00  0.00    -0.090 SA
BRANCH  26  27
HETATM   27  C16 UNL     1      -2.784   3.848  -4.122  1.00  0.00     0.005 A 
HETATM   28  C17 UNL     1      -2.920   5.197  -4.259  1.00  0.00     0.019 A 
HETATM   29  C18 UNL     1      -2.331   5.837  -5.329  1.00  0.00     0.001 A 
HETATM   30  C19 UNL     1      -1.602   5.139  -6.270  1.00  0.00     0.000 A 
HETATM   31  C20 UNL     1      -1.481   3.790  -6.108  1.00  0.00     0.001 A 
HETATM   32  C21 UNL     1      -2.056   3.113  -5.050  1.00  0.00     0.019 A 
ENDBRANCH  26  27
ENDBRANCH   4  26
TORSDOF 5
ENDMDL
MODEL 5
REMARK VINA RESULT: -7.096338617      4.507      8.638
REMARK  5 active torsions:
REMARK  status: ('A' for Active; 'I' for Inactive)
REMARK    1  A    between atoms: C1_2  and  C2_4 
REMARK       I    between atoms: N1_7  and  C5_8 
REMARK    2  A    between atoms: C5_8  and  C6_10 
REMARK    3  A    between atoms: C8_12  and  C9_13 
REMARK    4  A    between atoms: C15_20  and  S1_21 
REMARK    5  A    between atoms: S1_21  and  C16_22 
ROOT
HETATM    1  C6  UNL     1      -3.315   3.011  -1.948  1.00  0.00     0.054 A 
HETATM    2  C7  UNL     1      -3.421   4.234  -2.601  1.00  0.00     0.027 A 
HETATM    3  C8  UNL     1      -2.841   4.418  -3.847  1.00  0.00    -0.034 A 
HETATM    4  C15 UNL     1      -2.156   3.341  -4.413  1.00  0.00     0.014 A 
HETATM    5  C22 UNL     1      -2.037   2.119  -3.783  1.00  0.00     0.044 A 
HETATM    6  C23 UNL     1      -2.633   1.979  -2.539  1.00  0.00     0.051 A 
HETATM    7 CL2  UNL     1      -2.484   0.432  -1.737  1.00  0.00    -0.083 Cl
ENDROOT
BRANCH   1   8
HETATM    8  C5  UNL     1      -3.912   2.786  -0.639  1.00  0.00     0.255 C 
HETATM    9  N1  UNL     1      -5.182   2.199  -0.436  1.00  0.00    -0.348 N 
HETATM   10  C4  UNL     1      -5.680   2.021   0.889  1.00  0.00     0.127 C 
HETATM   11  C24 UNL     1      -5.974   1.780  -1.569  1.00  0.00     0.127 C 
HETATM   12  C3  UNL     1      -7.065   1.442   0.938  1.00  0.00     0.035 C 
HETATM   13  C2  UNL     1      -7.989   1.937  -0.121  1.00  0.00     0.090 C 
HETATM   14  C25 UNL     1      -7.349   2.356  -1.400  1.00  0.00     0.035 C 
HETATM   15  O3  UNL     1      -3.209   3.157   0.361  1.00  0.00    -0.267 OA
BRANCH  13  16
HETATM   16  C1  UNL     1      -8.955   0.824  -0.423  1.00  0.00     0.177 C 
HETATM   17  O1  UNL     1      -8.662  -0.388  -0.227  1.00  0.00    -0.648 OA
HETATM   18  O2  UNL     1     -10.217   1.114  -0.933  1.00  0.00    -0.648 OA
ENDBRANCH  13  16
ENDBRANCH   1   8
BRANCH   3  19
HETATM   19  C9  UNL     1      -2.931   5.736  -4.533  1.00  0.00     0.038 C 
HETATM   20  C10 UNL     1      -4.220   6.433  -4.270  1.00  0.00     0.011 C 
HETATM   21  C11 UNL     1      -4.243   7.411  -3.164  1.00  0.00     0.001 C 
HETATM   22  C12 UNL     1      -3.145   8.443  -3.481  1.00  0.00     0.002 C 
HETATM   23  C13 UNL     1      -1.865   7.672  -3.270  1.00  0.00     0.021 C 
HETATM   24  C14 UNL     1      -1.706   6.552  -4.241  1.00  0.00     0.090 C 
HETATM   25 CL1  UNL     1      -0.952   7.222  -5.709  1.00  0.00    -0.124 Cl
ENDBRANCH   3  19
BRANCH   4  26
HETATM   26  S1  UNL     1      -1.431   3.566  -6.025  1.00  0.00    -0.090 SA
BRANCH  26  27
HETATM   27  C16 UNL     1      -0.052   2.494  -6.282  1.00  0.00     0.005 A 
HETATM   28  C17 UNL     1       1.176   3.025  -6.540  1.00  0.00     0.019 A 
HETATM   29  C18 UNL     1       2.253   2.188  -6.740  1.00  0.00     0.001 A 
HETATM   30  C19 UNL     1       2.117   0.816  -6.685  1.00  0.00     0.000 A 
HETATM   31  C20 UNL     1       0.877   0.311  -6.425  1.00  0.00     0.001 A 
HETATM   32  C21 UNL     1      -0.227   1.116  -6.219  1.00  0.00     0.019 A 
ENDBRANCH  26  27
ENDBRANCH   4  26
TORSDOF 5
ENDMDL
