MODEL 1
REMARK VINA RESULT: -8.188023561      0.000      0.000
REMARK  5 active torsions:
REMARK  status: ('A' for Active; 'I' for Inactive)
REMARK    1  A    between atoms: C2_2  and  C3_3 
REMARK    2  A    between atoms: C3_3  and  C4_4 
REMARK       I    between atoms: N1_5  and  C5_7 
REMARK    3  A    between atoms: C5_7  and  C6_9 
REMARK    4  A    between atoms: C8_11  and  C9_12 
REMARK    5  A    between atoms: C17_22  and  C18_23 
ROOT
HETATM    1  C6  UNL     1      -1.911   0.752  -2.266  1.00  0.00     0.034 A 
HETATM    2  C7  UNL     1      -3.179   0.792  -1.741  1.00  0.00     0.032 A 
HETATM    3  C8  UNL     1      -4.033   1.906  -1.874  1.00  0.00     0.006 A 
HETATM    4  C15 UNL     1      -3.542   2.989  -2.569  1.00  0.00     0.100 A 
HETATM    5  O2  UNL     1      -4.259   4.060  -2.738  1.00  0.00    -0.273 OA
HETATM    6  C16 UNL     1      -3.886   5.134  -3.377  1.00  0.00     0.300 A 
HETATM    7  O3  UNL     1      -4.696   6.123  -3.470  1.00  0.00    -0.259 OA
HETATM    8  C17 UNL     1      -2.637   5.159  -3.923  1.00  0.00     0.067 A 
HETATM    9  C26 UNL     1      -1.814   4.067  -3.790  1.00  0.00     0.034 A 
HETATM   10  C27 UNL     1      -2.244   2.958  -3.113  1.00  0.00     0.001 A 
HETATM   11  C28 UNL     1      -1.462   1.845  -2.949  1.00  0.00     0.031 A 
ENDROOT
BRANCH   8  12
HETATM   12  C18 UNL     1      -2.135   6.314  -4.654  1.00  0.00     0.050 A 
HETATM   13  C19 UNL     1      -1.221   6.394  -5.674  1.00  0.00     0.044 A 
HETATM   14  C20 UNL     1      -1.045   7.726  -6.074  1.00  0.00    -0.005 A 
HETATM   15  C21 UNL     1      -0.255   8.321  -7.035  1.00  0.00     0.040 A 
HETATM   16  C25 UNL     1      -1.883   8.447  -5.260  1.00  0.00     0.046 A 
HETATM   17  C22 UNL     1      -0.269   9.684  -7.228  1.00  0.00     0.073 A 
HETATM   18 CL1  UNL     1       0.713  10.485  -8.432  1.00  0.00    -0.081 Cl
HETATM   19  C23 UNL     1      -1.116  10.402  -6.405  1.00  0.00     0.140 A 
HETATM   20  F1  UNL     1      -1.143  11.751  -6.582  1.00  0.00    -0.204 F 
HETATM   21  C24 UNL     1      -1.911   9.827  -5.442  1.00  0.00     0.074 A 
HETATM   22  N2  UNL     1      -2.519   7.607  -4.429  1.00  0.00    -0.355 N 
ATOM     23  H2  UNL     1      -3.198   7.895  -3.724  1.00  0.00     0.166 HD
ENDBRANCH   8  12
BRANCH   3  24
HETATM   24  C9  UNL     1      -5.336   1.870  -1.245  1.00  0.00    -0.049 C 
HETATM   25  C10 UNL     1      -5.578   1.938   0.044  1.00  0.00    -0.019 C 
HETATM   26  C11 UNL     1      -6.970   1.891   0.595  1.00  0.00     0.028 C 
HETATM   27  C12 UNL     1      -7.677   0.708  -0.025  1.00  0.00     0.004 C 
HETATM   28  C13 UNL     1      -7.329   0.518  -1.461  1.00  0.00     0.005 C 
HETATM   29  C14 UNL     1      -6.592   1.707  -2.069  1.00  0.00     0.039 C 
ENDBRANCH   3  24
BRANCH   1  30
HETATM   30  C5  UNL     1      -1.084  -0.444  -2.086  1.00  0.00     0.255 C 
HETATM   31  N1  UNL     1       0.331  -0.348  -2.035  1.00  0.00    -0.337 N 
HETATM   32  C4  UNL     1       1.076  -0.450  -3.084  1.00  0.00     0.064 C 
ATOM     33  H1  UNL     1       0.777  -0.191  -1.132  1.00  0.00     0.168 HD
HETATM   34  O1  UNL     1      -1.600  -1.578  -1.972  1.00  0.00    -0.267 OA
BRANCH  32  35
HETATM   35  C3  UNL     1       0.435  -0.679  -4.402  1.00  0.00     0.044 C 
BRANCH  35  36
HETATM   36  C2  UNL     1       0.979   0.361  -5.382  1.00  0.00     0.001 C 
HETATM   37  C1  UNL     1      -0.190   0.898  -6.176  1.00  0.00     0.005 C 
ENDBRANCH  35  36
ENDBRANCH  32  35
ENDBRANCH   1  30
TORSDOF 5
ENDMDL
MODEL 2
REMARK VINA RESULT: -8.160542224      6.299      8.241
REMARK  5 active torsions:
REMARK  status: ('A' for Active; 'I' for Inactive)
REMARK    1  A    between atoms: C2_2  and  C3_3 
REMARK    2  A    between atoms: C3_3  and  C4_4 
REMARK       I    between atoms: N1_5  and  C5_7 
REMARK    3  A    between atoms: C5_7  and  C6_9 
REMARK    4  A    between atoms: C8_11  and  C9_12 
REMARK    5  A    between atoms: C17_22  and  C18_23 
ROOT
HETATM    1  C6  UNL     1      -4.737   2.647  -0.787  1.00  0.00     0.034 A 
HETATM    2  C7  UNL     1      -4.340   3.287  -1.935  1.00  0.00     0.032 A 
HETATM    3  C8  UNL     1      -3.812   4.593  -1.947  1.00  0.00     0.006 A 
HETATM    4  C15 UNL     1      -3.701   5.231  -0.731  1.00  0.00     0.100 A 
HETATM    5  O2  UNL     1      -3.227   6.439  -0.647  1.00  0.00    -0.273 OA
HETATM    6  C16 UNL     1      -3.084   7.126   0.452  1.00  0.00     0.300 A 
HETATM    7  O3  UNL     1      -2.601   8.313   0.392  1.00  0.00    -0.259 OA
HETATM    8  C17 UNL     1      -3.459   6.549   1.629  1.00  0.00     0.067 A 
HETATM    9  C26 UNL     1      -3.971   5.274   1.628  1.00  0.00     0.034 A 
HETATM   10  C27 UNL     1      -4.104   4.585   0.453  1.00  0.00     0.001 A 
HETATM   11  C28 UNL     1      -4.611   3.313   0.397  1.00  0.00     0.031 A 
ENDROOT
BRANCH   8  12
HETATM   12  C18 UNL     1      -3.336   7.241   2.904  1.00  0.00     0.050 A 
HETATM   13  C19 UNL     1      -3.335   6.752   4.185  1.00  0.00     0.044 A 
HETATM   14  C20 UNL     1      -3.189   7.795   5.110  1.00  0.00    -0.005 A 
HETATM   15  C21 UNL     1      -3.131   7.827   6.488  1.00  0.00     0.040 A 
HETATM   16  C25 UNL     1      -3.102   8.930   4.343  1.00  0.00     0.046 A 
HETATM   17  C22 UNL     1      -2.981   9.013   7.169  1.00  0.00     0.073 A 
HETATM   18 CL1  UNL     1      -2.902   9.107   8.913  1.00  0.00    -0.081 Cl
HETATM   19  C23 UNL     1      -2.894  10.151   6.390  1.00  0.00     0.140 A 
HETATM   20  F1  UNL     1      -2.744  11.334   7.047  1.00  0.00    -0.204 F 
HETATM   21  C24 UNL     1      -2.949  10.140   5.016  1.00  0.00     0.074 A 
HETATM   22  N2  UNL     1      -3.190   8.593   3.048  1.00  0.00    -0.355 N 
ATOM     23  H2  UNL     1      -3.153   9.256   2.274  1.00  0.00     0.166 HD
ENDBRANCH   8  12
BRANCH   3  24
HETATM   24  C9  UNL     1      -3.464   5.199  -3.214  1.00  0.00    -0.049 C 
HETATM   25  C10 UNL     1      -2.376   4.969  -3.912  1.00  0.00    -0.019 C 
HETATM   26  C11 UNL     1      -2.110   5.653  -5.218  1.00  0.00     0.028 C 
HETATM   27  C12 UNL     1      -2.321   7.137  -5.019  1.00  0.00     0.004 C 
HETATM   28  C13 UNL     1      -3.474   7.439  -4.126  1.00  0.00     0.005 C 
HETATM   29  C14 UNL     1      -4.365   6.230  -3.855  1.00  0.00     0.039 C 
ENDBRANCH   3  24
BRANCH   1  30
HETATM   30  C5  UNL     1      -5.277   1.286  -0.858  1.00  0.00     0.255 C 
HETATM   31  N1  UNL     1      -4.980   0.334   0.150  1.00  0.00    -0.337 N 
HETATM   32  C4  UNL     1      -3.971  -0.467   0.080  1.00  0.00     0.064 C 
ATOM     33  H1  UNL     1      -5.590   0.280   0.966  1.00  0.00     0.168 HD
HETATM   34  O1  UNL     1      -6.012   0.929  -1.806  1.00  0.00    -0.267 OA
BRANCH  32  35
HETATM   35  C3  UNL     1      -3.078  -0.396  -1.103  1.00  0.00     0.044 C 
BRANCH  35  36
HETATM   36  C2  UNL     1      -2.471  -1.781  -1.324  1.00  0.00     0.001 C 
HETATM   37  C1  UNL     1      -3.490  -2.804  -0.873  1.00  0.00     0.005 C 
ENDBRANCH  35  36
ENDBRANCH  32  35
ENDBRANCH   1  30
TORSDOF 5
ENDMDL
MODEL 3
REMARK VINA RESULT: -8.130128217      3.723      6.024
REMARK  5 active torsions:
REMARK  status: ('A' for Active; 'I' for Inactive)
REMARK    1  A    between atoms: C2_2  and  C3_3 
REMARK    2  A    between atoms: C3_3  and  C4_4 
REMARK       I    between atoms: N1_5  and  C5_7 
REMARK    3  A    between atoms: C5_7  and  C6_9 
REMARK    4  A    between atoms: C8_11  and  C9_12 
REMARK    5  A    between atoms: C17_22  and  C18_23 
ROOT
HETATM    1  C6  UNL     1      -6.013   6.551   1.230  1.00  0.00     0.034 A 
HETATM    2  C7  UNL     1      -6.262   5.221   0.998  1.00  0.00     0.032 A 
HETATM    3  C8  UNL     1      -5.806   4.540  -0.149  1.00  0.00     0.006 A 
HETATM    4  C15 UNL     1      -5.078   5.273  -1.061  1.00  0.00     0.100 A 
HETATM    5  O2  UNL     1      -4.620   4.727  -2.148  1.00  0.00    -0.273 OA
HETATM    6  C16 UNL     1      -3.924   5.332  -3.070  1.00  0.00     0.300 A 
HETATM    7  O3  UNL     1      -3.533   4.672  -4.097  1.00  0.00    -0.259 OA
HETATM    8  C17 UNL     1      -3.641   6.655  -2.901  1.00  0.00     0.067 A 
HETATM    9  C26 UNL     1      -4.089   7.309  -1.778  1.00  0.00     0.034 A 
HETATM   10  C27 UNL     1      -4.815   6.637  -0.832  1.00  0.00     0.001 A 
HETATM   11  C28 UNL     1      -5.287   7.241   0.302  1.00  0.00     0.031 A 
ENDROOT
BRANCH   8  12
HETATM   12  C18 UNL     1      -2.871   7.413  -3.877  1.00  0.00     0.050 A 
HETATM   13  C19 UNL     1      -2.940   8.736  -4.232  1.00  0.00     0.044 A 
HETATM   14  C20 UNL     1      -1.995   9.029  -5.226  1.00  0.00    -0.005 A 
HETATM   15  C21 UNL     1      -1.673  10.186  -5.903  1.00  0.00     0.040 A 
HETATM   16  C25 UNL     1      -1.355   7.836  -5.459  1.00  0.00     0.046 A 
HETATM   17  C22 UNL     1      -0.681  10.203  -6.857  1.00  0.00     0.073 A 
HETATM   18 CL1  UNL     1      -0.235  11.643  -7.742  1.00  0.00    -0.081 Cl
HETATM   19  C23 UNL     1      -0.041   8.999  -7.085  1.00  0.00     0.140 A 
HETATM   20  F1  UNL     1       0.944   8.997  -8.024  1.00  0.00    -0.204 F 
HETATM   21  C24 UNL     1      -0.348   7.835  -6.421  1.00  0.00     0.074 A 
HETATM   22  N2  UNL     1      -1.878   6.894  -4.661  1.00  0.00    -0.355 N 
ATOM     23  H2  UNL     1      -1.575   5.920  -4.641  1.00  0.00     0.166 HD
ENDBRANCH   8  12
BRANCH   3  24
HETATM   24  C9  UNL     1      -6.159   3.148  -0.325  1.00  0.00    -0.049 C 
HETATM   25  C10 UNL     1      -6.861   2.645  -1.315  1.00  0.00    -0.019 C 
HETATM   26  C11 UNL     1      -7.174   1.183  -1.404  1.00  0.00     0.028 C 
HETATM   27  C12 UNL     1      -7.731   0.743  -0.069  1.00  0.00     0.004 C 
HETATM   28  C13 UNL     1      -7.044   1.392   1.082  1.00  0.00     0.005 C 
HETATM   29  C14 UNL     1      -5.754   2.108   0.694  1.00  0.00     0.039 C 
ENDBRANCH   3  24
BRANCH   1  30
HETATM   30  C5  UNL     1      -6.521   7.188   2.448  1.00  0.00     0.255 C 
HETATM   31  N1  UNL     1      -5.907   8.357   2.967  1.00  0.00    -0.337 N 
HETATM   32  C4  UNL     1      -4.954   8.319   3.836  1.00  0.00     0.064 C 
ATOM     33  H1  UNL     1      -6.232   9.266   2.638  1.00  0.00     0.168 HD
HETATM   34  O1  UNL     1      -7.506   6.721   3.061  1.00  0.00    -0.267 OA
BRANCH  32  35
HETATM   35  C3  UNL     1      -4.474   7.000   4.319  1.00  0.00     0.044 C 
BRANCH  35  36
HETATM   36  C2  UNL     1      -2.973   6.911   4.043  1.00  0.00     0.001 C 
HETATM   37  C1  UNL     1      -2.784   6.043   2.819  1.00  0.00     0.005 C 
ENDBRANCH  35  36
ENDBRANCH  32  35
ENDBRANCH   1  30
TORSDOF 5
ENDMDL
MODEL 4
REMARK VINA RESULT: -8.108363105      3.539      5.411
REMARK  5 active torsions:
REMARK  status: ('A' for Active; 'I' for Inactive)
REMARK    1  A    between atoms: C2_2  and  C3_3 
REMARK    2  A    between atoms: C3_3  and  C4_4 
REMARK       I    between atoms: N1_5  and  C5_7 
REMARK    3  A    between atoms: C5_7  and  C6_9 
REMARK    4  A    between atoms: C8_11  and  C9_12 
REMARK    5  A    between atoms: C17_22  and  C18_23 
ROOT
HETATM    1  C6  UNL     1      -5.059   3.519  -0.416  1.00  0.00     0.034 A 
HETATM    2  C7  UNL     1      -5.523   4.259   0.644  1.00  0.00     0.032 A 
HETATM    3  C8  UNL     1      -5.400   5.660   0.719  1.00  0.00     0.006 A 
HETATM    4  C15 UNL     1      -4.780   6.289  -0.339  1.00  0.00     0.100 A 
HETATM    5  O2  UNL     1      -4.620   7.579  -0.353  1.00  0.00    -0.273 OA
HETATM    6  C16 UNL     1      -4.048   8.266  -1.302  1.00  0.00     0.300 A 
HETATM    7  O3  UNL     1      -3.956   9.540  -1.189  1.00  0.00    -0.259 OA
HETATM    8  C17 UNL     1      -3.565   7.592  -2.385  1.00  0.00     0.067 A 
HETATM    9  C26 UNL     1      -3.693   6.226  -2.449  1.00  0.00     0.034 A 
HETATM   10  C27 UNL     1      -4.302   5.542  -1.431  1.00  0.00     0.001 A 
HETATM   11  C28 UNL     1      -4.452   4.180  -1.445  1.00  0.00     0.031 A 
ENDROOT
BRANCH   8  12
HETATM   12  C18 UNL     1      -2.912   8.275  -3.493  1.00  0.00     0.050 A 
HETATM   13  C19 UNL     1      -1.946   7.837  -4.363  1.00  0.00     0.044 A 
HETATM   14  C20 UNL     1      -1.614   8.847  -5.278  1.00  0.00    -0.005 A 
HETATM   15  C21 UNL     1      -0.720   8.905  -6.327  1.00  0.00     0.040 A 
HETATM   16  C25 UNL     1      -2.412   9.908  -4.929  1.00  0.00     0.046 A 
HETATM   17  C22 UNL     1      -0.584  10.046  -7.086  1.00  0.00     0.073 A 
HETATM   18 CL1  UNL     1       0.533  10.170  -8.425  1.00  0.00    -0.081 Cl
HETATM   19  C23 UNL     1      -1.392  11.109  -6.729  1.00  0.00     0.140 A 
HETATM   20  F1  UNL     1      -1.271  12.245  -7.469  1.00  0.00    -0.204 F 
HETATM   21  C24 UNL     1      -2.288  11.070  -5.687  1.00  0.00     0.074 A 
HETATM   22  N2  UNL     1      -3.171   9.561  -3.879  1.00  0.00    -0.355 N 
ATOM     23  H2  UNL     1      -3.850  10.175  -3.429  1.00  0.00     0.166 HD
ENDBRANCH   8  12
BRANCH   3  24
HETATM   24  C9  UNL     1      -5.879   6.345   1.900  1.00  0.00    -0.049 C 
HETATM   25  C10 UNL     1      -7.111   6.745   2.119  1.00  0.00    -0.019 C 
HETATM   26  C11 UNL     1      -7.504   7.449   3.382  1.00  0.00     0.028 C 
HETATM   27  C12 UNL     1      -6.522   8.575   3.614  1.00  0.00     0.004 C 
HETATM   28  C13 UNL     1      -5.125   8.201   3.254  1.00  0.00     0.005 C 
HETATM   29  C14 UNL     1      -4.937   6.705   3.026  1.00  0.00     0.039 C 
ENDBRANCH   3  24
BRANCH   1  30
HETATM   30  C5  UNL     1      -5.226   2.063  -0.421  1.00  0.00     0.255 C 
HETATM   31  N1  UNL     1      -5.687   1.389  -1.581  1.00  0.00    -0.337 N 
HETATM   32  C4  UNL     1      -6.936   1.155  -1.803  1.00  0.00     0.064 C 
ATOM     33  H1  UNL     1      -5.002   1.076  -2.268  1.00  0.00     0.168 HD
HETATM   34  O1  UNL     1      -4.968   1.378   0.594  1.00  0.00    -0.267 OA
BRANCH  32  35
HETATM   35  C3  UNL     1      -7.941   1.607  -0.808  1.00  0.00     0.044 C 
BRANCH  35  36
HETATM   36  C2  UNL     1      -8.926   0.462  -0.575  1.00  0.00     0.001 C 
HETATM   37  C1  UNL     1     -10.320   1.006  -0.795  1.00  0.00     0.005 C 
ENDBRANCH  35  36
ENDBRANCH  32  35
ENDBRANCH   1  30
TORSDOF 5
ENDMDL
MODEL 5
REMARK VINA RESULT: -7.938269196      4.431      5.188
REMARK  5 active torsions:
REMARK  status: ('A' for Active; 'I' for Inactive)
REMARK    1  A    between atoms: C2_2  and  C3_3 
REMARK    2  A    between atoms: C3_3  and  C4_4 
REMARK       I    between atoms: N1_5  and  C5_7 
REMARK    3  A    between atoms: C5_7  and  C6_9 
REMARK    4  A    between atoms: C8_11  and  C9_12 
REMARK    5  A    between atoms: C17_22  and  C18_23 
ROOT
HETATM    1  C6  UNL     1      -2.323   2.535  -2.346  1.00  0.00     0.034 A 
HETATM    2  C7  UNL     1      -3.468   1.841  -2.041  1.00  0.00     0.032 A 
HETATM    3  C8  UNL     1      -4.565   2.421  -1.373  1.00  0.00     0.006 A 
HETATM    4  C15 UNL     1      -4.452   3.749  -1.025  1.00  0.00     0.100 A 
HETATM    5  O2  UNL     1      -5.414   4.364  -0.404  1.00  0.00    -0.273 OA
HETATM    6  C16 UNL     1      -5.404   5.614  -0.031  1.00  0.00     0.300 A 
HETATM    7  O3  UNL     1      -6.425   6.097   0.576  1.00  0.00    -0.259 OA
HETATM    8  C17 UNL     1      -4.296   6.360  -0.305  1.00  0.00     0.067 A 
HETATM    9  C26 UNL     1      -3.233   5.785  -0.959  1.00  0.00     0.034 A 
HETATM   10  C27 UNL     1      -3.284   4.470  -1.334  1.00  0.00     0.001 A 
HETATM   11  C28 UNL     1      -2.251   3.849  -1.985  1.00  0.00     0.031 A 
ENDROOT
BRANCH   8  12
HETATM   12  C18 UNL     1      -4.196   7.762   0.072  1.00  0.00     0.050 A 
HETATM   13  C19 UNL     1      -4.139   8.892  -0.704  1.00  0.00     0.044 A 
HETATM   14  C20 UNL     1      -4.045  10.038   0.099  1.00  0.00    -0.005 A 
HETATM   15  C21 UNL     1      -3.962  11.383  -0.192  1.00  0.00     0.040 A 
HETATM   16  C25 UNL     1      -4.047   9.561   1.386  1.00  0.00     0.046 A 
HETATM   17  C22 UNL     1      -3.877  12.326   0.808  1.00  0.00     0.073 A 
HETATM   18 CL1  UNL     1      -3.770  14.042   0.492  1.00  0.00    -0.081 Cl
HETATM   19  C23 UNL     1      -3.880  11.837   2.100  1.00  0.00     0.140 A 
HETATM   20  F1  UNL     1      -3.797  12.756   3.102  1.00  0.00    -0.204 F 
HETATM   21  C24 UNL     1      -3.962  10.501   2.410  1.00  0.00     0.074 A 
HETATM   22  N2  UNL     1      -4.136   8.222   1.359  1.00  0.00    -0.355 N 
ATOM     23  H2  UNL     1      -4.155   7.628   2.188  1.00  0.00     0.166 HD
ENDBRANCH   8  12
BRANCH   3  24
HETATM   24  C9  UNL     1      -5.709   1.594  -1.054  1.00  0.00    -0.049 C 
HETATM   25  C10 UNL     1      -6.664   1.238  -1.882  1.00  0.00    -0.019 C 
HETATM   26  C11 UNL     1      -7.811   0.376  -1.449  1.00  0.00     0.028 C 
HETATM   27  C12 UNL     1      -8.386   0.967  -0.182  1.00  0.00     0.004 C 
HETATM   28  C13 UNL     1      -7.338   1.501   0.731  1.00  0.00     0.005 C 
HETATM   29  C14 UNL     1      -5.924   1.073   0.349  1.00  0.00     0.039 C 
ENDBRANCH   3  24
BRANCH   1  30
HETATM   30  C5  UNL     1      -1.224   1.861  -3.044  1.00  0.00     0.255 C 
HETATM   31  N1  UNL     1      -0.158   2.606  -3.609  1.00  0.00    -0.337 N 
HETATM   32  C4  UNL     1      -0.170   3.030  -4.828  1.00  0.00     0.064 C 
ATOM     33  H1  UNL     1       0.654   2.815  -3.028  1.00  0.00     0.168 HD
HETATM   34  O1  UNL     1      -1.197   0.615  -3.159  1.00  0.00    -0.267 OA
BRANCH  32  35
HETATM   35  C3  UNL     1      -1.346   2.730  -5.681  1.00  0.00     0.044 C 
BRANCH  35  36
HETATM   36  C2  UNL     1      -1.712   4.000  -6.448  1.00  0.00     0.001 C 
HETATM   37  C1  UNL     1      -2.087   5.056  -5.432  1.00  0.00     0.005 C 
ENDBRANCH  35  36
ENDBRANCH  32  35
ENDBRANCH   1  30
TORSDOF 5
ENDMDL
