MODEL 1
REMARK VINA RESULT: -7.423371495      0.000      0.000
REMARK  8 active torsions:
REMARK  status: ('A' for Active; 'I' for Inactive)
REMARK    1  A    between atoms: C2_2  and  N1_4 
REMARK    2  A    between atoms: C4_6  and  C5_7 
REMARK    3  A    between atoms: C4_6  and  O4_39 
REMARK    4  A    between atoms: C5_7  and  N2_8 
REMARK       I    between atoms: N2_8  and  C7_10 
REMARK    5  A    between atoms: C7_10  and  C8_12 
REMARK    6  A    between atoms: C10_14  and  C11_15 
REMARK       I    between atoms: C11_15  and  N3_17 
REMARK    7  A    between atoms: N3_17  and  C12_19 
REMARK       I    between atoms: N4_30  and  C23_31 
REMARK       I    between atoms: C23_31  and  N5_33 
REMARK    8  A    between atoms: O4_39  and  C27_40 
ROOT
HETATM    1  C8  UNL     1     -11.340  -8.288   1.866  1.00  0.00     0.182 C 
HETATM    2  C9  UNL     1     -11.996  -7.042   2.483  1.00  0.00     0.051 C 
HETATM    3  C10 UNL     1     -13.439  -7.145   2.178  1.00  0.00     0.098 C 
HETATM    4  C22 UNL     1     -13.643  -8.576   1.826  1.00  0.00     0.142 C 
HETATM    5  N4  UNL     1     -12.444  -8.939   1.136  1.00  0.00    -0.320 N 
HETATM    6  C23 UNL     1     -12.317  -9.770   0.012  1.00  0.00     0.321 C 
HETATM    7  O3  UNL     1     -11.128  -9.991  -0.423  1.00  0.00    -0.247 OA
HETATM    8  N5  UNL     1     -13.371 -10.397  -0.703  1.00  0.00    -0.323 N 
HETATM    9  C24 UNL     1     -14.802 -10.497  -0.649  1.00  0.00     0.208 C 
HETATM   10  C25 UNL     1     -14.850 -11.609  -1.648  1.00  0.00     0.275 C 
HETATM   11  F1  UNL     1     -15.609 -11.338  -2.777  1.00  0.00    -0.203 F 
HETATM   12  F2  UNL     1     -15.113 -12.857  -1.171  1.00  0.00    -0.203 F 
HETATM   13  C26 UNL     1     -13.419 -11.272  -1.896  1.00  0.00     0.208 C 
ENDROOT
BRANCH   1  14
HETATM   14  C7  UNL     1     -10.271  -7.849   0.952  1.00  0.00     0.242 C 
HETATM   15  N2  UNL     1      -8.988  -8.391   0.971  1.00  0.00    -0.347 N 
HETATM   16  C6  UNL     1      -8.029  -7.876  -0.016  1.00  0.00     0.153 C 
HETATM   17  O1  UNL     1     -10.564  -6.948   0.126  1.00  0.00    -0.271 OA
BRANCH  15  18
HETATM   18  C5  UNL     1      -8.575  -9.410   1.883  1.00  0.00     0.209 C 
BRANCH  18  19
HETATM   19  C4  UNL     1      -8.688 -10.815   1.373  1.00  0.00     0.132 C 
HETATM   20  N1  UNL     1      -9.649 -11.488   1.762  1.00  0.00    -0.369 N 
ATOM     21  H1  UNL     1     -10.200 -10.901   2.389  1.00  0.00     0.161 HD
BRANCH  20  22
HETATM   22  C2  UNL     1     -10.274 -12.713   1.687  1.00  0.00     0.075 C 
HETATM   23  C1  UNL     1     -10.312 -13.190   0.201  1.00  0.00     0.032 C 
HETATM   24  C3  UNL     1     -11.737 -12.719   2.115  1.00  0.00     0.032 C 
ENDBRANCH  20  22
BRANCH  19  25
HETATM   25  O4  UNL     1      -7.768 -11.350   0.511  1.00  0.00    -0.333 OA
BRANCH  25  26
HETATM   26  C27 UNL     1      -6.512 -11.884   0.806  1.00  0.00     0.122 C 
HETATM   27  C28 UNL     1      -6.572 -13.397   0.639  1.00  0.00     0.040 C 
HETATM   28  C29 UNL     1      -5.478 -11.330  -0.193  1.00  0.00     0.040 C 
ENDBRANCH  25  26
ENDBRANCH  19  25
ENDBRANCH  18  19
ENDBRANCH  15  18
ENDBRANCH   1  14
BRANCH   3  29
HETATM   29  C11 UNL     1     -14.307  -6.692   3.310  1.00  0.00     0.224 C 
HETATM   30  O2  UNL     1     -14.235  -5.479   3.609  1.00  0.00    -0.273 OA
HETATM   31  N3  UNL     1     -15.153  -7.606   3.988  1.00  0.00    -0.351 N 
ATOM     32  H3  UNL     1     -15.141  -8.576   3.676  1.00  0.00     0.163 HD
BRANCH  31  33
HETATM   33  C12 UNL     1     -16.018  -7.277   5.070  1.00  0.00     0.034 C 
HETATM   34  C13 UNL     1     -15.237  -6.919   6.340  1.00  0.00     0.035 C 
HETATM   35  C14 UNL     1     -16.204  -6.644   7.462  1.00  0.00    -0.012 C 
HETATM   36  C15 UNL     1     -16.973  -7.888   7.787  1.00  0.00     0.009 C 
HETATM   37  C19 UNL     1     -17.167  -5.523   7.131  1.00  0.00     0.009 C 
HETATM   38  C16 UNL     1     -17.786  -8.270   6.567  1.00  0.00    -0.012 C 
HETATM   39  C17 UNL     1     -18.747  -7.183   6.164  1.00  0.00     0.009 C 
HETATM   40  C21 UNL     1     -16.841  -8.510   5.441  1.00  0.00     0.035 C 
HETATM   41  C18 UNL     1     -17.936  -5.942   5.885  1.00  0.00    -0.012 C 
HETATM   42  C20 UNL     1     -16.941  -6.122   4.779  1.00  0.00     0.035 C 
ENDBRANCH  31  33
ENDBRANCH   3  29
TORSDOF 8
ENDMDL
MODEL 2
REMARK VINA RESULT: -7.285028147      0.098      1.175
REMARK  8 active torsions:
REMARK  status: ('A' for Active; 'I' for Inactive)
REMARK    1  A    between atoms: C2_2  and  N1_4 
REMARK    2  A    between atoms: C4_6  and  C5_7 
REMARK    3  A    between atoms: C4_6  and  O4_39 
REMARK    4  A    between atoms: C5_7  and  N2_8 
REMARK       I    between atoms: N2_8  and  C7_10 
REMARK    5  A    between atoms: C7_10  and  C8_12 
REMARK    6  A    between atoms: C10_14  and  C11_15 
REMARK       I    between atoms: C11_15  and  N3_17 
REMARK    7  A    between atoms: N3_17  and  C12_19 
REMARK       I    between atoms: N4_30  and  C23_31 
REMARK       I    between atoms: C23_31  and  N5_33 
REMARK    8  A    between atoms: O4_39  and  C27_40 
ROOT
HETATM    1  C8  UNL     1     -11.359  -8.303   1.886  1.00  0.00     0.182 C 
HETATM    2  C9  UNL     1     -12.022  -7.083   2.544  1.00  0.00     0.051 C 
HETATM    3  C10 UNL     1     -13.469  -7.198   2.259  1.00  0.00     0.098 C 
HETATM    4  C22 UNL     1     -13.659  -8.622   1.874  1.00  0.00     0.142 C 
HETATM    5  N4  UNL     1     -12.466  -8.951   1.156  1.00  0.00    -0.320 N 
HETATM    6  C23 UNL     1     -12.346  -9.751   0.009  1.00  0.00     0.321 C 
HETATM    7  O3  UNL     1     -11.161  -9.945  -0.449  1.00  0.00    -0.247 OA
HETATM    8  N5  UNL     1     -13.402 -10.374  -0.705  1.00  0.00    -0.323 N 
HETATM    9  C24 UNL     1     -14.831 -10.495  -0.631  1.00  0.00     0.208 C 
HETATM   10  C25 UNL     1     -14.880 -11.581  -1.658  1.00  0.00     0.275 C 
HETATM   11  F1  UNL     1     -15.661 -11.293  -2.768  1.00  0.00    -0.203 F 
HETATM   12  F2  UNL     1     -15.119 -12.845  -1.209  1.00  0.00    -0.203 F 
HETATM   13  C26 UNL     1     -13.457 -11.219  -1.919  1.00  0.00     0.208 C 
ENDROOT
BRANCH   1  14
HETATM   14  C7  UNL     1     -10.311  -7.827   0.966  1.00  0.00     0.242 C 
HETATM   15  N2  UNL     1      -9.013  -8.333   0.971  1.00  0.00    -0.347 N 
HETATM   16  C6  UNL     1      -8.077  -7.782  -0.019  1.00  0.00     0.153 C 
HETATM   17  O1  UNL     1     -10.636  -6.928   0.151  1.00  0.00    -0.271 OA
BRANCH  15  18
HETATM   18  C5  UNL     1      -8.564  -9.347   1.871  1.00  0.00     0.209 C 
BRANCH  18  19
HETATM   19  C4  UNL     1      -8.679 -10.754   1.366  1.00  0.00     0.132 C 
HETATM   20  N1  UNL     1      -9.632 -11.429   1.769  1.00  0.00    -0.369 N 
ATOM     21  H1  UNL     1     -10.176 -10.843   2.402  1.00  0.00     0.161 HD
BRANCH  20  22
HETATM   22  C2  UNL     1     -10.253 -12.656   1.704  1.00  0.00     0.075 C 
HETATM   23  C1  UNL     1     -10.320 -13.131   0.219  1.00  0.00     0.032 C 
HETATM   24  C3  UNL     1     -11.706 -12.669   2.163  1.00  0.00     0.032 C 
ENDBRANCH  20  22
BRANCH  19  25
HETATM   25  O4  UNL     1      -7.769 -11.287   0.492  1.00  0.00    -0.333 OA
BRANCH  25  26
HETATM   26  C27 UNL     1      -6.516 -11.835   0.774  1.00  0.00     0.122 C 
HETATM   27  C28 UNL     1      -6.606 -13.350   0.651  1.00  0.00     0.040 C 
HETATM   28  C29 UNL     1      -5.496 -11.329  -0.266  1.00  0.00     0.040 C 
ENDBRANCH  25  26
ENDBRANCH  19  25
ENDBRANCH  18  19
ENDBRANCH  15  18
ENDBRANCH   1  14
BRANCH   3  29
HETATM   29  C11 UNL     1     -14.324  -6.785   3.415  1.00  0.00     0.224 C 
HETATM   30  O2  UNL     1     -14.252  -5.583   3.754  1.00  0.00    -0.273 OA
HETATM   31  N3  UNL     1     -15.160  -7.724   4.072  1.00  0.00    -0.351 N 
ATOM     32  H3  UNL     1     -15.149  -8.683   3.727  1.00  0.00     0.163 HD
BRANCH  31  33
HETATM   33  C12 UNL     1     -16.013  -7.434   5.174  1.00  0.00     0.034 C 
HETATM   34  C13 UNL     1     -16.940  -8.609   5.506  1.00  0.00     0.035 C 
HETATM   35  C14 UNL     1     -17.859  -8.218   6.635  1.00  0.00    -0.012 C 
HETATM   36  C15 UNL     1     -18.754  -7.098   6.198  1.00  0.00     0.009 C 
HETATM   37  C19 UNL     1     -17.100  -7.809   7.880  1.00  0.00     0.009 C 
HETATM   38  C16 UNL     1     -17.883  -5.899   5.883  1.00  0.00    -0.012 C 
HETATM   39  C17 UNL     1     -17.076  -5.456   7.074  1.00  0.00     0.009 C 
HETATM   40  C21 UNL     1     -16.946  -6.284   4.792  1.00  0.00     0.035 C 
HETATM   41  C18 UNL     1     -16.222  -6.624   7.503  1.00  0.00    -0.012 C 
HETATM   42  C20 UNL     1     -15.273  -7.084   6.439  1.00  0.00     0.035 C 
ENDBRANCH  31  33
ENDBRANCH   3  29
TORSDOF 8
ENDMDL
MODEL 3
REMARK VINA RESULT: -7.245400230      0.786      2.062
REMARK  8 active torsions:
REMARK  status: ('A' for Active; 'I' for Inactive)
REMARK    1  A    between atoms: C2_2  and  N1_4 
REMARK    2  A    between atoms: C4_6  and  C5_7 
REMARK    3  A    between atoms: C4_6  and  O4_39 
REMARK    4  A    between atoms: C5_7  and  N2_8 
REMARK       I    between atoms: N2_8  and  C7_10 
REMARK    5  A    between atoms: C7_10  and  C8_12 
REMARK    6  A    between atoms: C10_14  and  C11_15 
REMARK       I    between atoms: C11_15  and  N3_17 
REMARK    7  A    between atoms: N3_17  and  C12_19 
REMARK       I    between atoms: N4_30  and  C23_31 
REMARK       I    between atoms: C23_31  and  N5_33 
REMARK    8  A    between atoms: O4_39  and  C27_40 
ROOT
HETATM    1  C8  UNL     1     -11.277  -8.486   1.819  1.00  0.00     0.182 C 
HETATM    2  C9  UNL     1     -11.905  -7.226   2.436  1.00  0.00     0.051 C 
HETATM    3  C10 UNL     1     -13.351  -7.300   2.138  1.00  0.00     0.098 C 
HETATM    4  C22 UNL     1     -13.586  -8.727   1.792  1.00  0.00     0.142 C 
HETATM    5  N4  UNL     1     -12.398  -9.117   1.097  1.00  0.00    -0.320 N 
HETATM    6  C23 UNL     1     -12.294  -9.953  -0.026  1.00  0.00     0.321 C 
HETATM    7  O3  UNL     1     -11.111 -10.199  -0.466  1.00  0.00    -0.247 OA
HETATM    8  N5  UNL     1     -13.363 -10.560  -0.734  1.00  0.00    -0.323 N 
HETATM    9  C24 UNL     1     -14.796 -10.631  -0.671  1.00  0.00     0.208 C 
HETATM   10  C25 UNL     1     -14.871 -11.744  -1.667  1.00  0.00     0.275 C 
HETATM   11  F1  UNL     1     -15.631 -11.462  -2.794  1.00  0.00    -0.203 F 
HETATM   12  F2  UNL     1     -15.158 -12.986  -1.186  1.00  0.00    -0.203 F 
HETATM   13  C26 UNL     1     -13.435 -11.438  -1.923  1.00  0.00     0.208 C 
ENDROOT
BRANCH   1  14
HETATM   14  C7  UNL     1     -10.204  -8.072   0.898  1.00  0.00     0.242 C 
HETATM   15  N2  UNL     1      -8.941  -8.659   0.894  1.00  0.00    -0.347 N 
HETATM   16  C6  UNL     1      -7.976  -8.163  -0.097  1.00  0.00     0.153 C 
HETATM   17  O1  UNL     1     -10.475  -7.149   0.089  1.00  0.00    -0.271 OA
BRANCH  15  18
HETATM   18  C5  UNL     1      -8.554  -9.705   1.786  1.00  0.00     0.209 C 
BRANCH  18  19
HETATM   19  C4  UNL     1      -7.787 -10.833   1.163  1.00  0.00     0.132 C 
HETATM   20  N1  UNL     1      -6.558 -10.825   1.290  1.00  0.00    -0.369 N 
ATOM     21  H1  UNL     1      -6.311  -9.997   1.830  1.00  0.00     0.161 HD
BRANCH  20  22
HETATM   22  C2  UNL     1      -5.389 -11.490   0.993  1.00  0.00     0.075 C 
HETATM   23  C1  UNL     1      -4.168 -10.630   1.448  1.00  0.00     0.032 C 
HETATM   24  C3  UNL     1      -5.141 -11.727  -0.493  1.00  0.00     0.032 C 
ENDBRANCH  20  22
BRANCH  19  25
HETATM   25  O4  UNL     1      -8.409 -11.839   0.473  1.00  0.00    -0.333 OA
BRANCH  25  26
HETATM   26  C27 UNL     1      -8.866 -13.067   0.957  1.00  0.00     0.122 C 
HETATM   27  C28 UNL     1     -10.176 -13.411   0.261  1.00  0.00     0.040 C 
HETATM   28  C29 UNL     1      -7.837 -14.162   0.612  1.00  0.00     0.040 C 
ENDBRANCH  25  26
ENDBRANCH  19  25
ENDBRANCH  18  19
ENDBRANCH  15  18
ENDBRANCH   1  14
BRANCH   3  29
HETATM   29  C11 UNL     1     -14.204  -6.826   3.273  1.00  0.00     0.224 C 
HETATM   30  O2  UNL     1     -14.091  -5.619   3.581  1.00  0.00    -0.273 OA
HETATM   31  N3  UNL     1     -15.080  -7.715   3.944  1.00  0.00    -0.351 N 
ATOM     32  H3  UNL     1     -15.101  -8.683   3.625  1.00  0.00     0.163 HD
BRANCH  31  33
HETATM   33  C12 UNL     1     -15.935  -7.365   5.028  1.00  0.00     0.034 C 
HETATM   34  C13 UNL     1     -15.141  -7.015   6.293  1.00  0.00     0.035 C 
HETATM   35  C14 UNL     1     -16.099  -6.717   7.418  1.00  0.00    -0.012 C 
HETATM   36  C15 UNL     1     -16.888  -7.946   7.753  1.00  0.00     0.009 C 
HETATM   37  C19 UNL     1     -17.042  -5.580   7.085  1.00  0.00     0.009 C 
HETATM   38  C16 UNL     1     -17.713  -8.318   6.538  1.00  0.00    -0.012 C 
HETATM   39  C17 UNL     1     -18.656  -7.216   6.134  1.00  0.00     0.009 C 
HETATM   40  C21 UNL     1     -16.778  -8.581   5.409  1.00  0.00     0.035 C 
HETATM   41  C18 UNL     1     -17.824  -5.992   5.845  1.00  0.00    -0.012 C 
HETATM   42  C20 UNL     1     -16.838  -6.195   4.736  1.00  0.00     0.035 C 
ENDBRANCH  31  33
ENDBRANCH   3  29
TORSDOF 8
ENDMDL
MODEL 4
REMARK VINA RESULT: -7.211787516      2.901      4.679
REMARK  8 active torsions:
REMARK  status: ('A' for Active; 'I' for Inactive)
REMARK    1  A    between atoms: C2_2  and  N1_4 
REMARK    2  A    between atoms: C4_6  and  C5_7 
REMARK    3  A    between atoms: C4_6  and  O4_39 
REMARK    4  A    between atoms: C5_7  and  N2_8 
REMARK       I    between atoms: N2_8  and  C7_10 
REMARK    5  A    between atoms: C7_10  and  C8_12 
REMARK    6  A    between atoms: C10_14  and  C11_15 
REMARK       I    between atoms: C11_15  and  N3_17 
REMARK    7  A    between atoms: N3_17  and  C12_19 
REMARK       I    between atoms: N4_30  and  C23_31 
REMARK       I    between atoms: C23_31  and  N5_33 
REMARK    8  A    between atoms: O4_39  and  C27_40 
ROOT
HETATM    1  C8  UNL     1     -13.504  -9.800   3.919  1.00  0.00     0.182 C 
HETATM    2  C9  UNL     1     -14.256  -9.510   5.228  1.00  0.00     0.051 C 
HETATM    3  C10 UNL     1     -14.505  -8.053   5.245  1.00  0.00     0.098 C 
HETATM    4  C22 UNL     1     -14.323  -7.629   3.831  1.00  0.00     0.142 C 
HETATM    5  N4  UNL     1     -13.262  -8.460   3.352  1.00  0.00    -0.320 N 
HETATM    6  C23 UNL     1     -12.212  -8.101   2.493  1.00  0.00     0.321 C 
HETATM    7  O3  UNL     1     -11.384  -9.027   2.161  1.00  0.00    -0.247 OA
HETATM    8  N5  UNL     1     -11.963  -6.816   1.946  1.00  0.00    -0.323 N 
HETATM    9  C24 UNL     1     -12.543  -5.502   1.971  1.00  0.00     0.208 C 
HETATM   10  C25 UNL     1     -11.686  -5.008   0.849  1.00  0.00     0.275 C 
HETATM   11  F1  UNL     1     -10.901  -3.907   1.162  1.00  0.00    -0.203 F 
HETATM   12  F2  UNL     1     -12.288  -4.848  -0.363  1.00  0.00    -0.203 F 
HETATM   13  C26 UNL     1     -10.916  -6.267   1.055  1.00  0.00     0.208 C 
ENDROOT
BRANCH   1  14
HETATM   14  C7  UNL     1     -12.242 -10.485   4.246  1.00  0.00     0.242 C 
HETATM   15  N2  UNL     1     -11.859 -11.688   3.658  1.00  0.00    -0.347 N 
HETATM   16  C6  UNL     1     -10.560 -12.247   4.060  1.00  0.00     0.153 C 
HETATM   17  O1  UNL     1     -11.497  -9.931   5.093  1.00  0.00    -0.271 OA
BRANCH  15  18
HETATM   18  C5  UNL     1     -12.652 -12.384   2.695  1.00  0.00     0.209 C 
BRANCH  18  19
HETATM   19  C4  UNL     1     -12.371 -12.044   1.262  1.00  0.00     0.132 C 
HETATM   20  N1  UNL     1     -13.193 -11.333   0.673  1.00  0.00    -0.369 N 
ATOM     21  H1  UNL     1     -13.937 -11.113   1.334  1.00  0.00     0.161 HD
BRANCH  20  22
HETATM   22  C2  UNL     1     -13.504 -10.720  -0.521  1.00  0.00     0.075 C 
HETATM   23  C1  UNL     1     -14.913 -10.058  -0.417  1.00  0.00     0.032 C 
HETATM   24  C3  UNL     1     -13.623 -11.658  -1.716  1.00  0.00     0.032 C 
ENDBRANCH  20  22
BRANCH  19  25
HETATM   25  O4  UNL     1     -11.253 -12.498   0.615  1.00  0.00    -0.333 OA
BRANCH  25  26
HETATM   26  C27 UNL     1     -10.602 -13.724   0.766  1.00  0.00     0.122 C 
HETATM   27  C28 UNL     1     -11.086 -14.673  -0.322  1.00  0.00     0.040 C 
HETATM   28  C29 UNL     1      -9.085 -13.518   0.584  1.00  0.00     0.040 C 
ENDBRANCH  25  26
ENDBRANCH  19  25
ENDBRANCH  18  19
ENDBRANCH  15  18
ENDBRANCH   1  14
BRANCH   3  29
HETATM   29  C11 UNL     1     -15.852  -7.699   5.794  1.00  0.00     0.224 C 
HETATM   30  O2  UNL     1     -16.350  -8.514   6.601  1.00  0.00    -0.273 OA
HETATM   31  N3  UNL     1     -16.504  -6.503   5.402  1.00  0.00    -0.351 N 
ATOM     32  H3  UNL     1     -16.021  -5.902   4.735  1.00  0.00     0.163 HD
BRANCH  31  33
HETATM   33  C12 UNL     1     -17.779  -6.073   5.867  1.00  0.00     0.034 C 
HETATM   34  C13 UNL     1     -18.330  -4.909   5.035  1.00  0.00     0.035 C 
HETATM   35  C14 UNL     1     -19.647  -4.458   5.614  1.00  0.00    -0.012 C 
HETATM   36  C15 UNL     1     -19.436  -3.915   6.995  1.00  0.00     0.009 C 
HETATM   37  C19 UNL     1     -20.669  -5.575   5.656  1.00  0.00     0.009 C 
HETATM   38  C16 UNL     1     -18.915  -5.040   7.866  1.00  0.00    -0.012 C 
HETATM   39  C17 UNL     1     -19.874  -6.199   7.929  1.00  0.00     0.009 C 
HETATM   40  C21 UNL     1     -17.631  -5.516   7.283  1.00  0.00     0.035 C 
HETATM   41  C18 UNL     1     -20.086  -6.687   6.517  1.00  0.00    -0.012 C 
HETATM   42  C20 UNL     1     -18.826  -7.157   5.857  1.00  0.00     0.035 C 
ENDBRANCH  31  33
ENDBRANCH   3  29
TORSDOF 8
ENDMDL
MODEL 5
REMARK VINA RESULT: -7.137826705      4.018     10.443
REMARK  8 active torsions:
REMARK  status: ('A' for Active; 'I' for Inactive)
REMARK    1  A    between atoms: C2_2  and  N1_4 
REMARK    2  A    between atoms: C4_6  and  C5_7 
REMARK    3  A    between atoms: C4_6  and  O4_39 
REMARK    4  A    between atoms: C5_7  and  N2_8 
REMARK       I    between atoms: N2_8  and  C7_10 
REMARK    5  A    between atoms: C7_10  and  C8_12 
REMARK    6  A    between atoms: C10_14  and  C11_15 
REMARK       I    between atoms: C11_15  and  N3_17 
REMARK    7  A    between atoms: N3_17  and  C12_19 
REMARK       I    between atoms: N4_30  and  C23_31 
REMARK       I    between atoms: C23_31  and  N5_33 
REMARK    8  A    between atoms: O4_39  and  C27_40 
ROOT
HETATM    1  C8  UNL     1     -15.935  -6.366   4.490  1.00  0.00     0.182 C 
HETATM    2  C9  UNL     1     -14.643  -6.684   3.720  1.00  0.00     0.051 C 
HETATM    3  C10 UNL     1     -14.218  -8.027   4.167  1.00  0.00     0.098 C 
HETATM    4  C22 UNL     1     -15.436  -8.614   4.788  1.00  0.00     0.142 C 
HETATM    5  N4  UNL     1     -16.074  -7.501   5.422  1.00  0.00    -0.320 N 
HETATM    6  C23 UNL     1     -16.731  -7.480   6.661  1.00  0.00     0.321 C 
HETATM    7  O3  UNL     1     -17.269  -6.369   7.020  1.00  0.00    -0.247 OA
HETATM    8  N5  UNL     1     -16.867  -8.562   7.569  1.00  0.00    -0.323 N 
HETATM    9  C24 UNL     1     -16.494  -9.946   7.662  1.00  0.00     0.208 C 
HETATM   10  C25 UNL     1     -17.374 -10.193   8.846  1.00  0.00     0.275 C 
HETATM   11  F1  UNL     1     -16.710 -10.661   9.972  1.00  0.00    -0.203 F 
HETATM   12  F2  UNL     1     -18.519 -10.898   8.628  1.00  0.00    -0.203 F 
HETATM   13  C26 UNL     1     -17.499  -8.709   8.900  1.00  0.00     0.208 C 
ENDROOT
BRANCH   1  14
HETATM   14  C7  UNL     1     -15.750  -5.095   5.211  1.00  0.00     0.242 C 
HETATM   15  N2  UNL     1     -16.677  -4.056   5.165  1.00  0.00    -0.347 N 
HETATM   16  C6  UNL     1     -16.375  -2.854   5.954  1.00  0.00     0.153 C 
HETATM   17  O1  UNL     1     -14.700  -4.975   5.892  1.00  0.00    -0.271 OA
BRANCH  15  18
HETATM   18  C5  UNL     1     -17.887  -4.112   4.409  1.00  0.00     0.209 C 
BRANCH  18  19
HETATM   19  C4  UNL     1     -19.149  -3.917   5.196  1.00  0.00     0.132 C 
HETATM   20  N1  UNL     1     -19.712  -4.927   5.630  1.00  0.00    -0.369 N 
ATOM     21  H1  UNL     1     -19.159  -5.734   5.341  1.00  0.00     0.161 HD
BRANCH  20  22
HETATM   22  C2  UNL     1     -20.789  -5.398   6.348  1.00  0.00     0.075 C 
HETATM   23  C1  UNL     1     -20.724  -6.956   6.428  1.00  0.00     0.032 C 
HETATM   24  C3  UNL     1     -22.152  -5.117   5.725  1.00  0.00     0.032 C 
ENDBRANCH  20  22
BRANCH  19  25
HETATM   25  O4  UNL     1     -19.672  -2.673   5.431  1.00  0.00    -0.333 OA
BRANCH  25  26
HETATM   26  C27 UNL     1     -20.123  -1.733   4.502  1.00  0.00     0.122 C 
HETATM   27  C28 UNL     1     -21.609  -1.491   4.734  1.00  0.00     0.040 C 
HETATM   28  C29 UNL     1     -19.379  -0.402   4.726  1.00  0.00     0.040 C 
ENDBRANCH  25  26
ENDBRANCH  19  25
ENDBRANCH  18  19
ENDBRANCH  15  18
ENDBRANCH   1  14
BRANCH   3  29
HETATM   29  C11 UNL     1     -13.668  -8.864   3.054  1.00  0.00     0.224 C 
HETATM   30  O2  UNL     1     -12.479  -9.231   3.176  1.00  0.00    -0.273 OA
HETATM   31  N3  UNL     1     -14.472  -9.205   1.937  1.00  0.00    -0.351 N 
ATOM     32  H3  UNL     1     -15.430  -8.856   1.924  1.00  0.00     0.163 HD
BRANCH  31  33
HETATM   33  C12 UNL     1     -14.048  -9.997   0.832  1.00  0.00     0.034 C 
HETATM   34  C13 UNL     1     -15.160 -10.170  -0.209  1.00  0.00     0.035 C 
HETATM   35  C14 UNL     1     -14.673 -11.067  -1.318  1.00  0.00    -0.012 C 
HETATM   36  C15 UNL     1     -14.395 -12.437  -0.779  1.00  0.00     0.009 C 
HETATM   37  C19 UNL     1     -13.431 -10.524  -1.994  1.00  0.00     0.009 C 
HETATM   38  C16 UNL     1     -13.280 -12.323   0.240  1.00  0.00    -0.012 C 
HETATM   39  C17 UNL     1     -12.019 -11.761  -0.362  1.00  0.00     0.009 C 
HETATM   40  C21 UNL     1     -13.737 -11.411   1.324  1.00  0.00     0.035 C 
HETATM   41  C18 UNL     1     -12.354 -10.402  -0.925  1.00  0.00    -0.012 C 
HETATM   42  C20 UNL     1     -12.850  -9.438   0.109  1.00  0.00     0.035 C 
ENDBRANCH  31  33
ENDBRANCH   3  29
TORSDOF 8
ENDMDL
