MODEL 1
REMARK VINA RESULT: -8.112141861      0.000      0.000
REMARK  6 active torsions:
REMARK  status: ('A' for Active; 'I' for Inactive)
REMARK    1  A    between atoms: C5_5  and  C6_6 
REMARK    2  A    between atoms: C6_6  and  N1_7 
REMARK    3  A    between atoms: C9_10  and  N2_11 
REMARK       I    between atoms: N2_11  and  C10_13 
REMARK    4  A    between atoms: C10_13  and  C11_15 
REMARK    5  A    between atoms: N4_27  and  C21_28 
REMARK    6  A    between atoms: C21_28  and  C22_29 
ROOT
HETATM    1  C11 UNL     1     -10.869 -12.219   3.065  1.00  0.00     0.186 C 
HETATM    2  C12 UNL     1     -10.169 -10.887   2.727  1.00  0.00     0.061 C 
HETATM    3  C13 UNL     1     -11.177 -10.035   2.044  1.00  0.00     0.012 C 
HETATM    4  C14 UNL     1     -10.650  -9.124   0.984  1.00  0.00     0.036 C 
HETATM    5  C15 UNL     1      -9.145  -9.107   1.075  1.00  0.00     0.224 C 
HETATM    6  C16 UNL     1      -8.520  -8.368  -0.101  1.00  0.00     0.037 C 
HETATM    7  C17 UNL     1      -7.187  -9.077  -0.225  1.00  0.00     0.032 C 
HETATM    8  C18 UNL     1      -7.273 -10.289   0.681  1.00  0.00     0.274 C 
HETATM    9  N3  UNL     1      -8.697 -10.459   0.808  1.00  0.00     0.107 N 
HETATM   10  C19 UNL     1      -9.077 -11.396   1.824  1.00  0.00     0.321 C 
HETATM   11  C20 UNL     1      -9.767 -12.523   1.129  1.00  0.00     0.255 C 
HETATM   12  O2  UNL     1      -9.304 -13.175   0.147  1.00  0.00    -0.271 OA
HETATM   13  N4  UNL     1     -11.056 -12.756   1.760  1.00  0.00    -0.332 N 
ENDROOT
BRANCH   1  14
HETATM   14  C10 UNL     1     -12.021 -12.043   3.916  1.00  0.00     0.241 C 
HETATM   15  N2  UNL     1     -12.639 -10.771   4.010  1.00  0.00    -0.355 N 
ATOM     16  H2  UNL     1     -12.261  -9.992   3.471  1.00  0.00     0.162 HD
HETATM   17  O1  UNL     1     -12.499 -12.976   4.581  1.00  0.00    -0.271 OA
BRANCH  15  18
HETATM   18  C9  UNL     1     -13.789 -10.554   4.849  1.00  0.00     0.087 C 
HETATM   19  C8  UNL     1     -14.750  -9.586   4.182  1.00  0.00     0.055 C 
HETATM   20  C7  UNL     1     -16.024  -9.458   4.990  1.00  0.00     0.274 C 
HETATM   21  N1  UNL     1     -15.745  -9.320   6.408  1.00  0.00     0.088 N 
HETATM   22  C29 UNL     1     -14.411  -8.844   6.587  1.00  0.00     0.274 C 
HETATM   23  C28 UNL     1     -13.465  -9.991   6.195  1.00  0.00     0.055 C 
BRANCH  21  24
HETATM   24  C6  UNL     1     -16.774  -8.575   7.055  1.00  0.00     0.277 C 
BRANCH  24  25
HETATM   25  C5  UNL     1     -17.344  -7.463   6.245  1.00  0.00     0.025 C 
HETATM   26  C4  UNL     1     -18.823  -7.656   6.091  1.00  0.00     0.008 C 
HETATM   27  C3  UNL     1     -19.642  -6.455   6.540  1.00  0.00     0.017 C 
HETATM   28  C2  UNL     1     -19.447  -5.373   5.509  1.00  0.00     0.075 C 
HETATM   29  C1  UNL     1     -20.252  -4.131   5.769  1.00  0.00     0.024 C 
HETATM   30  S1  UNL     1     -17.711  -4.906   5.591  1.00  0.00     0.019 S 
HETATM   31  C30 UNL     1     -16.987  -6.085   6.743  1.00  0.00     0.115 C 
HETATM   32  O3  UNL     1     -16.998  -5.093   4.080  1.00  0.00    -0.258 OA
ENDBRANCH  24  25
ENDBRANCH  21  24
ENDBRANCH  15  18
ENDBRANCH   1  14
BRANCH  13  33
HETATM   33  C21 UNL     1     -12.111 -13.388   1.043  1.00  0.00     0.165 C 
BRANCH  33  34
HETATM   34  C22 UNL     1     -12.884 -12.371   0.246  1.00  0.00    -0.034 A 
HETATM   35  C23 UNL     1     -12.433 -12.130  -1.049  1.00  0.00     0.051 A 
HETATM   36  C24 UNL     1     -13.083 -11.210  -1.867  1.00  0.00     0.119 A 
HETATM   37  F1  UNL     1     -12.633 -10.983  -3.123  1.00  0.00    -0.206 F 
HETATM   38  C25 UNL     1     -14.195 -10.518  -1.400  1.00  0.00     0.084 A 
HETATM   39  C26 UNL     1     -14.607 -10.784  -0.119  1.00  0.00     0.119 A 
HETATM   40  F2  UNL     1     -15.700 -10.102   0.336  1.00  0.00    -0.206 F 
HETATM   41  C27 UNL     1     -13.970 -11.698   0.710  1.00  0.00     0.051 A 
ENDBRANCH  33  34
ENDBRANCH  13  33
TORSDOF 6
ENDMDL
MODEL 2
REMARK VINA RESULT: -8.042650241      0.101      1.294
REMARK  6 active torsions:
REMARK  status: ('A' for Active; 'I' for Inactive)
REMARK    1  A    between atoms: C5_5  and  C6_6 
REMARK    2  A    between atoms: C6_6  and  N1_7 
REMARK    3  A    between atoms: C9_10  and  N2_11 
REMARK       I    between atoms: N2_11  and  C10_13 
REMARK    4  A    between atoms: C10_13  and  C11_15 
REMARK    5  A    between atoms: N4_27  and  C21_28 
REMARK    6  A    between atoms: C21_28  and  C22_29 
ROOT
HETATM    1  C11 UNL     1     -10.785 -12.177   3.076  1.00  0.00     0.186 C 
HETATM    2  C12 UNL     1     -10.101 -10.843   2.716  1.00  0.00     0.061 C 
HETATM    3  C13 UNL     1     -11.119 -10.015   2.016  1.00  0.00     0.012 C 
HETATM    4  C14 UNL     1     -10.602  -9.116   0.942  1.00  0.00     0.036 C 
HETATM    5  C15 UNL     1      -9.097  -9.078   1.036  1.00  0.00     0.224 C 
HETATM    6  C16 UNL     1      -8.479  -8.351  -0.151  1.00  0.00     0.037 C 
HETATM    7  C17 UNL     1      -7.136  -9.045  -0.260  1.00  0.00     0.032 C 
HETATM    8  C18 UNL     1      -7.209 -10.242   0.667  1.00  0.00     0.274 C 
HETATM    9  N3  UNL     1      -8.631 -10.429   0.793  1.00  0.00     0.107 N 
HETATM   10  C19 UNL     1      -9.001 -11.352   1.824  1.00  0.00     0.321 C 
HETATM   11  C20 UNL     1      -9.675 -12.500   1.148  1.00  0.00     0.255 C 
HETATM   12  O2  UNL     1      -9.201 -13.164   0.178  1.00  0.00    -0.271 OA
HETATM   13  N4  UNL     1     -10.962 -12.739   1.780  1.00  0.00    -0.332 N 
ENDROOT
BRANCH   1  14
HETATM   14  C10 UNL     1     -11.942 -12.001   3.921  1.00  0.00     0.241 C 
HETATM   15  N2  UNL     1     -12.577 -10.736   3.990  1.00  0.00    -0.355 N 
ATOM     16  H2  UNL     1     -12.208  -9.962   3.438  1.00  0.00     0.162 HD
HETATM   17  O1  UNL     1     -12.409 -12.928   4.601  1.00  0.00    -0.271 OA
BRANCH  15  18
HETATM   18  C9  UNL     1     -13.732 -10.520   4.824  1.00  0.00     0.087 C 
HETATM   19  C8  UNL     1     -14.688  -9.550   4.152  1.00  0.00     0.055 C 
HETATM   20  C7  UNL     1     -15.966  -9.422   4.953  1.00  0.00     0.274 C 
HETATM   21  N1  UNL     1     -15.696  -9.287   6.372  1.00  0.00     0.088 N 
HETATM   22  C29 UNL     1     -14.363  -8.812   6.560  1.00  0.00     0.274 C 
HETATM   23  C28 UNL     1     -13.415  -9.959   6.172  1.00  0.00     0.055 C 
BRANCH  21  24
HETATM   24  C6  UNL     1     -16.728  -8.542   7.015  1.00  0.00     0.277 C 
BRANCH  24  25
HETATM   25  C5  UNL     1     -17.301  -7.435   6.198  1.00  0.00     0.025 C 
HETATM   26  C4  UNL     1     -18.788  -7.597   6.099  1.00  0.00     0.008 C 
HETATM   27  C3  UNL     1     -19.564  -6.367   6.547  1.00  0.00     0.017 C 
HETATM   28  C2  UNL     1     -19.380  -5.314   5.485  1.00  0.00     0.075 C 
HETATM   29  C1  UNL     1     -20.147  -4.048   5.743  1.00  0.00     0.024 C 
HETATM   30  S1  UNL     1     -17.632  -4.886   5.498  1.00  0.00     0.019 S 
HETATM   31  C30 UNL     1     -16.896  -6.055   6.652  1.00  0.00     0.115 C 
HETATM   32  O3  UNL     1     -16.975  -5.123   3.969  1.00  0.00    -0.258 OA
ENDBRANCH  24  25
ENDBRANCH  21  24
ENDBRANCH  15  18
ENDBRANCH   1  14
BRANCH  13  33
HETATM   33  C21 UNL     1     -12.007 -13.397   1.071  1.00  0.00     0.165 C 
BRANCH  33  34
HETATM   34  C22 UNL     1     -12.715 -12.426   0.164  1.00  0.00    -0.034 A 
HETATM   35  C23 UNL     1     -13.820 -11.772   0.703  1.00  0.00     0.051 A 
HETATM   36  C24 UNL     1     -14.539 -10.852  -0.055  1.00  0.00     0.119 A 
HETATM   37  F1  UNL     1     -15.613 -10.225   0.480  1.00  0.00    -0.206 F 
HETATM   38  C25 UNL     1     -14.163 -10.573  -1.364  1.00  0.00     0.084 A 
HETATM   39  C26 UNL     1     -13.070 -11.239  -1.858  1.00  0.00     0.119 A 
HETATM   40  F2  UNL     1     -12.703 -10.963  -3.144  1.00  0.00    -0.206 F 
HETATM   41  C27 UNL     1     -12.341 -12.160  -1.115  1.00  0.00     0.051 A 
ENDBRANCH  33  34
ENDBRANCH  13  33
TORSDOF 6
ENDMDL
MODEL 3
REMARK VINA RESULT: -7.921144278      2.998      3.827
REMARK  6 active torsions:
REMARK  status: ('A' for Active; 'I' for Inactive)
REMARK    1  A    between atoms: C5_5  and  C6_6 
REMARK    2  A    between atoms: C6_6  and  N1_7 
REMARK    3  A    between atoms: C9_10  and  N2_11 
REMARK       I    between atoms: N2_11  and  C10_13 
REMARK    4  A    between atoms: C10_13  and  C11_15 
REMARK    5  A    between atoms: N4_27  and  C21_28 
REMARK    6  A    between atoms: C21_28  and  C22_29 
ROOT
HETATM    1  C11 UNL     1     -11.077 -11.533   3.210  1.00  0.00     0.186 C 
HETATM    2  C12 UNL     1     -10.753 -10.047   2.956  1.00  0.00     0.061 C 
HETATM    3  C13 UNL     1     -11.933  -9.464   2.265  1.00  0.00     0.012 C 
HETATM    4  C14 UNL     1     -11.641  -8.393   1.267  1.00  0.00     0.036 C 
HETATM    5  C15 UNL     1     -10.200  -7.976   1.423  1.00  0.00     0.224 C 
HETATM    6  C16 UNL     1      -9.763  -7.038   0.305  1.00  0.00     0.037 C 
HETATM    7  C17 UNL     1      -8.284  -7.355   0.210  1.00  0.00     0.032 C 
HETATM    8  C18 UNL     1      -8.067  -8.590   1.062  1.00  0.00     0.274 C 
HETATM    9  N3  UNL     1      -9.395  -9.143   1.120  1.00  0.00     0.107 N 
HETATM   10  C19 UNL     1      -9.537 -10.197   2.081  1.00  0.00     0.321 C 
HETATM   11  C20 UNL     1      -9.875 -11.432   1.312  1.00  0.00     0.255 C 
HETATM   12  O2  UNL     1      -9.224 -11.886   0.325  1.00  0.00    -0.271 OA
HETATM   13  N4  UNL     1     -11.072 -12.035   1.877  1.00  0.00    -0.332 N 
ENDROOT
BRANCH   1  14
HETATM   14  C10 UNL     1     -12.259 -11.717   4.017  1.00  0.00     0.241 C 
HETATM   15  N2  UNL     1     -12.963 -10.586   4.500  1.00  0.00    -0.355 N 
ATOM     16  H2  UNL     1     -12.625  -9.652   4.269  1.00  0.00     0.162 HD
HETATM   17  O1  UNL     1     -12.690 -12.843   4.310  1.00  0.00    -0.271 OA
BRANCH  15  18
HETATM   18  C9  UNL     1     -14.146 -10.727   5.311  1.00  0.00     0.087 C 
HETATM   19  C8  UNL     1     -15.126  -9.608   5.006  1.00  0.00     0.055 C 
HETATM   20  C7  UNL     1     -16.427  -9.823   5.749  1.00  0.00     0.274 C 
HETATM   21  N1  UNL     1     -16.196 -10.212   7.129  1.00  0.00     0.088 N 
HETATM   22  C29 UNL     1     -14.890  -9.799   7.527  1.00  0.00     0.274 C 
HETATM   23  C28 UNL     1     -13.886 -10.693   6.781  1.00  0.00     0.055 C 
BRANCH  21  24
HETATM   24  C6  UNL     1     -17.274  -9.787   7.960  1.00  0.00     0.277 C 
BRANCH  24  25
HETATM   25  C5  UNL     1     -17.916 -10.873   8.753  1.00  0.00     0.025 C 
HETATM   26  C4  UNL     1     -17.050 -12.096   8.732  1.00  0.00     0.008 C 
HETATM   27  C3  UNL     1     -16.699 -12.616  10.118  1.00  0.00     0.017 C 
HETATM   28  C2  UNL     1     -17.949 -13.235  10.691  1.00  0.00     0.075 C 
HETATM   29  C1  UNL     1     -17.754 -13.865  12.041  1.00  0.00     0.024 C 
HETATM   30  S1  UNL     1     -19.127 -11.890  10.899  1.00  0.00     0.019 S 
HETATM   31  C30 UNL     1     -18.315 -10.467  10.151  1.00  0.00     0.115 C 
HETATM   32  O3  UNL     1     -20.539 -12.233  10.054  1.00  0.00    -0.258 OA
ENDBRANCH  24  25
ENDBRANCH  21  24
ENDBRANCH  15  18
ENDBRANCH   1  14
BRANCH  13  33
HETATM   33  C21 UNL     1     -11.894 -12.891   1.091  1.00  0.00     0.165 C 
BRANCH  33  34
HETATM   34  C22 UNL     1     -12.805 -12.076   0.210  1.00  0.00    -0.034 A 
HETATM   35  C23 UNL     1     -12.350 -11.824  -1.081  1.00  0.00     0.051 A 
HETATM   36  C24 UNL     1     -13.121 -11.084  -1.973  1.00  0.00     0.119 A 
HETATM   37  F1  UNL     1     -12.667 -10.843  -3.226  1.00  0.00    -0.206 F 
HETATM   38  C25 UNL     1     -14.359 -10.584  -1.584  1.00  0.00     0.084 A 
HETATM   39  C26 UNL     1     -14.770 -10.854  -0.304  1.00  0.00     0.119 A 
HETATM   40  F2  UNL     1     -15.987 -10.362   0.075  1.00  0.00    -0.206 F 
HETATM   41  C27 UNL     1     -14.013 -11.591   0.599  1.00  0.00     0.051 A 
ENDBRANCH  33  34
ENDBRANCH  13  33
TORSDOF 6
ENDMDL
MODEL 4
REMARK VINA RESULT: -7.886645614      2.287      3.043
REMARK  6 active torsions:
REMARK  status: ('A' for Active; 'I' for Inactive)
REMARK    1  A    between atoms: C5_5  and  C6_6 
REMARK    2  A    between atoms: C6_6  and  N1_7 
REMARK    3  A    between atoms: C9_10  and  N2_11 
REMARK       I    between atoms: N2_11  and  C10_13 
REMARK    4  A    between atoms: C10_13  and  C11_15 
REMARK    5  A    between atoms: N4_27  and  C21_28 
REMARK    6  A    between atoms: C21_28  and  C22_29 
ROOT
HETATM    1  C11 UNL     1     -10.730 -12.310   2.974  1.00  0.00     0.186 C 
HETATM    2  C12 UNL     1     -10.011 -10.991   2.627  1.00  0.00     0.061 C 
HETATM    3  C13 UNL     1     -11.008 -10.127   1.942  1.00  0.00     0.012 C 
HETATM    4  C14 UNL     1     -10.471  -9.230   0.875  1.00  0.00     0.036 C 
HETATM    5  C15 UNL     1      -8.965  -9.236   0.961  1.00  0.00     0.224 C 
HETATM    6  C16 UNL     1      -8.333  -8.513  -0.221  1.00  0.00     0.037 C 
HETATM    7  C17 UNL     1      -7.012  -9.243  -0.346  1.00  0.00     0.032 C 
HETATM    8  C18 UNL     1      -7.114 -10.449   0.568  1.00  0.00     0.274 C 
HETATM    9  N3  UNL     1      -8.539 -10.596   0.700  1.00  0.00     0.107 N 
HETATM   10  C19 UNL     1      -8.930 -11.521   1.722  1.00  0.00     0.321 C 
HETATM   11  C20 UNL     1      -9.640 -12.642   1.036  1.00  0.00     0.255 C 
HETATM   12  O2  UNL     1      -9.190 -13.307   0.056  1.00  0.00    -0.271 OA
HETATM   13  N4  UNL     1     -10.930 -12.851   1.673  1.00  0.00    -0.332 N 
ENDROOT
BRANCH   1  14
HETATM   14  C10 UNL     1     -11.877 -12.111   3.828  1.00  0.00     0.241 C 
HETATM   15  N2  UNL     1     -12.495 -10.838   3.891  1.00  0.00    -0.355 N 
ATOM     16  H2  UNL     1     -12.121 -10.074   3.328  1.00  0.00     0.162 HD
HETATM   17  O1  UNL     1     -12.351 -13.026   4.521  1.00  0.00    -0.271 OA
BRANCH  15  18
HETATM   18  C9  UNL     1     -13.640 -10.599   4.732  1.00  0.00     0.087 C 
HETATM   19  C8  UNL     1     -14.519  -9.519   4.126  1.00  0.00     0.055 C 
HETATM   20  C7  UNL     1     -15.792  -9.356   4.929  1.00  0.00     0.274 C 
HETATM   21  N1  UNL     1     -15.526  -9.341   6.356  1.00  0.00     0.088 N 
HETATM   22  C29 UNL     1     -14.165  -8.977   6.582  1.00  0.00     0.274 C 
HETATM   23  C28 UNL     1     -13.297 -10.158   6.118  1.00  0.00     0.055 C 
BRANCH  21  24
HETATM   24  C6  UNL     1     -16.509  -8.571   7.045  1.00  0.00     0.277 C 
BRANCH  24  25
HETATM   25  C5  UNL     1     -17.185  -9.281   8.167  1.00  0.00     0.025 C 
HETATM   26  C4  UNL     1     -17.571 -10.662   7.733  1.00  0.00     0.008 C 
HETATM   27  C3  UNL     1     -17.037 -11.757   8.645  1.00  0.00     0.017 C 
HETATM   28  C2  UNL     1     -17.827 -11.693   9.927  1.00  0.00     0.075 C 
HETATM   29  C1  UNL     1     -17.468 -12.764  10.917  1.00  0.00     0.024 C 
HETATM   30  S1  UNL     1     -17.427 -10.112  10.687  1.00  0.00     0.019 S 
HETATM   31  C30 UNL     1     -16.410  -9.273   9.461  1.00  0.00     0.115 C 
HETATM   32  O3  UNL     1     -18.835  -9.229  10.941  1.00  0.00    -0.258 OA
ENDBRANCH  24  25
ENDBRANCH  21  24
ENDBRANCH  15  18
ENDBRANCH   1  14
BRANCH  13  33
HETATM   33  C21 UNL     1     -11.997 -13.471   0.963  1.00  0.00     0.165 C 
BRANCH  33  34
HETATM   34  C22 UNL     1     -12.793 -12.438   0.209  1.00  0.00    -0.034 A 
HETATM   35  C23 UNL     1     -12.377 -12.169  -1.092  1.00  0.00     0.051 A 
HETATM   36  C24 UNL     1     -13.051 -11.233  -1.873  1.00  0.00     0.119 A 
HETATM   37  F1  UNL     1     -12.635 -10.978  -3.136  1.00  0.00    -0.206 F 
HETATM   38  C25 UNL     1     -14.150 -10.553  -1.361  1.00  0.00     0.084 A 
HETATM   39  C26 UNL     1     -14.527 -10.847  -0.075  1.00  0.00     0.119 A 
HETATM   40  F2  UNL     1     -15.608 -10.177   0.423  1.00  0.00    -0.206 F 
HETATM   41  C27 UNL     1     -13.867 -11.778   0.717  1.00  0.00     0.051 A 
ENDBRANCH  33  34
ENDBRANCH  13  33
TORSDOF 6
ENDMDL
MODEL 5
REMARK VINA RESULT: -7.873356389      1.237      1.362
REMARK  6 active torsions:
REMARK  status: ('A' for Active; 'I' for Inactive)
REMARK    1  A    between atoms: C5_5  and  C6_6 
REMARK    2  A    between atoms: C6_6  and  N1_7 
REMARK    3  A    between atoms: C9_10  and  N2_11 
REMARK       I    between atoms: N2_11  and  C10_13 
REMARK    4  A    between atoms: C10_13  and  C11_15 
REMARK    5  A    between atoms: N4_27  and  C21_28 
REMARK    6  A    between atoms: C21_28  and  C22_29 
ROOT
HETATM    1  C11 UNL     1     -11.363 -11.079   3.491  1.00  0.00     0.186 C 
HETATM    2  C12 UNL     1     -10.973  -9.637   3.111  1.00  0.00     0.061 C 
HETATM    3  C13 UNL     1     -12.084  -9.097   2.284  1.00  0.00     0.012 C 
HETATM    4  C14 UNL     1     -11.689  -8.143   1.205  1.00  0.00     0.036 C 
HETATM    5  C15 UNL     1     -10.248  -7.752   1.418  1.00  0.00     0.224 C 
HETATM    6  C16 UNL     1      -9.706  -6.947   0.245  1.00  0.00     0.037 C 
HETATM    7  C17 UNL     1      -8.236  -7.312   0.286  1.00  0.00     0.032 C 
HETATM    8  C18 UNL     1      -8.118  -8.457   1.272  1.00  0.00     0.274 C 
HETATM    9  N3  UNL     1      -9.465  -8.965   1.293  1.00  0.00     0.107 N 
HETATM   10  C19 UNL     1      -9.707  -9.910   2.343  1.00  0.00     0.321 C 
HETATM   11  C20 UNL     1     -10.034 -11.208   1.682  1.00  0.00     0.255 C 
HETATM   12  O2  UNL     1      -9.334 -11.779   0.795  1.00  0.00    -0.271 OA
HETATM   13  N4  UNL     1     -11.286 -11.716   2.220  1.00  0.00    -0.332 N 
ENDROOT
BRANCH   1  14
HETATM   14  C10 UNL     1     -12.602 -11.146   4.228  1.00  0.00     0.241 C 
HETATM   15  N2  UNL     1     -13.094  -9.990   4.885  1.00  0.00    -0.355 N 
ATOM     16  H2  UNL     1     -12.563  -9.121   4.827  1.00  0.00     0.162 HD
HETATM   17  O1  UNL     1     -13.265 -12.193   4.312  1.00  0.00    -0.271 OA
BRANCH  15  18
HETATM   18  C9  UNL     1     -14.325 -10.017   5.632  1.00  0.00     0.087 C 
HETATM   19  C8  UNL     1     -15.453  -9.429   4.803  1.00  0.00     0.055 C 
HETATM   20  C7  UNL     1     -16.777  -9.577   5.523  1.00  0.00     0.274 C 
HETATM   21  N1  UNL     1     -16.663  -9.221   6.926  1.00  0.00     0.088 N 
HETATM   22  C29 UNL     1     -15.528  -8.377   7.113  1.00  0.00     0.274 C 
HETATM   23  C28 UNL     1     -14.278  -9.250   6.913  1.00  0.00     0.055 C 
BRANCH  21  24
HETATM   24  C6  UNL     1     -17.905  -8.729   7.424  1.00  0.00     0.277 C 
BRANCH  24  25
HETATM   25  C5  UNL     1     -18.209  -7.317   7.060  1.00  0.00     0.025 C 
HETATM   26  C4  UNL     1     -19.255  -7.285   5.986  1.00  0.00     0.008 C 
HETATM   27  C3  UNL     1     -20.465  -6.434   6.341  1.00  0.00     0.017 C 
HETATM   28  C2  UNL     1     -20.030  -4.992   6.277  1.00  0.00     0.075 C 
HETATM   29  C1  UNL     1     -21.138  -4.010   6.536  1.00  0.00     0.024 C 
HETATM   30  S1  UNL     1     -18.813  -4.775   7.585  1.00  0.00     0.019 S 
HETATM   31  C30 UNL     1     -18.555  -6.435   8.234  1.00  0.00     0.115 C 
HETATM   32  O3  UNL     1     -17.373  -4.201   6.933  1.00  0.00    -0.258 OA
ENDBRANCH  24  25
ENDBRANCH  21  24
ENDBRANCH  15  18
ENDBRANCH   1  14
BRANCH  13  33
HETATM   33  C21 UNL     1     -12.082 -12.627   1.469  1.00  0.00     0.165 C 
BRANCH  33  34
HETATM   34  C22 UNL     1     -12.921 -11.881   0.465  1.00  0.00    -0.034 A 
HETATM   35  C23 UNL     1     -12.390 -11.765  -0.817  1.00  0.00     0.051 A 
HETATM   36  C24 UNL     1     -13.091 -11.098  -1.818  1.00  0.00     0.119 A 
HETATM   37  F1  UNL     1     -12.562 -10.989  -3.060  1.00  0.00    -0.206 F 
HETATM   38  C25 UNL     1     -14.334 -10.536  -1.550  1.00  0.00     0.084 A 
HETATM   39  C26 UNL     1     -14.822 -10.672  -0.275  1.00  0.00     0.119 A 
HETATM   40  F2  UNL     1     -16.043 -10.120  -0.015  1.00  0.00    -0.206 F 
HETATM   41  C27 UNL     1     -14.136 -11.335   0.735  1.00  0.00     0.051 A 
ENDBRANCH  33  34
ENDBRANCH  13  33
TORSDOF 6
ENDMDL
