MODEL 1
REMARK VINA RESULT: -8.101946458      0.000      0.000
REMARK  4 active torsions:
REMARK  status: ('A' for Active; 'I' for Inactive)
REMARK       I    between atoms: C2_2  and  N1_4 
REMARK    1  A    between atoms: N1_4  and  C3_6 
REMARK    2  A    between atoms: C4_9  and  C5_10 
REMARK    3  A    between atoms: C9_15  and  C10_16 
REMARK    4  A    between atoms: C11_17  and  C12_18 
ROOT
HETATM    1  C12 UNL     1      -1.214 -28.266  34.321  1.00  0.00     0.041 A 
HETATM    2  C13 UNL     1      -1.884 -27.097  34.598  1.00  0.00     0.024 A 
HETATM    3  C14 UNL     1      -1.714 -25.978  33.821  1.00  0.00     0.033 A 
HETATM    4  C15 UNL     1      -0.858 -26.007  32.736  1.00  0.00     0.061 A 
HETATM    5  N3  UNL     1      -0.509 -25.068  31.820  1.00  0.00    -0.350 N 
ATOM      6  H3  UNL     1      -0.843 -24.106  31.771  1.00  0.00     0.166 HD
HETATM    7  C16 UNL     1       0.367 -25.661  30.992  1.00  0.00     0.181 A 
HETATM    8  N4  UNL     1       0.555 -26.932  31.384  1.00  0.00    -0.349 N 
ATOM      9  H4  UNL     1       1.172 -27.604  30.928  1.00  0.00     0.166 HD
HETATM   10  C17 UNL     1      -0.200 -27.182  32.477  1.00  0.00     0.082 A 
HETATM   11  C18 UNL     1      -0.364 -28.309  33.250  1.00  0.00     0.092 A 
HETATM   12  C19 UNL     1       0.327 -29.533  32.975  1.00  0.00     0.103 C 
HETATM   13  N5  UNL     1       0.878 -30.527  32.747  1.00  0.00    -0.191 NA
ENDROOT
BRANCH   1  14
HETATM   14  C11 UNL     1      -1.411 -29.437  35.158  1.00  0.00    -0.059 C 
HETATM   15  C10 UNL     1      -1.581 -30.395  35.868  1.00  0.00    -0.051 C 
BRANCH  15  16
HETATM   16  C9  UNL     1      -1.779 -31.574  36.705  1.00  0.00     0.090 A 
HETATM   17  C4  UNL     1      -2.182 -32.839  36.359  1.00  0.00     0.077 A 
HETATM   18  N2  UNL     1      -2.280 -33.723  37.311  1.00  0.00    -0.334 N 
HETATM   19  C3  UNL     1      -1.992 -33.367  38.551  1.00  0.00     0.153 A 
ATOM     20  H2  UNL     1      -2.576 -34.676  37.102  1.00  0.00     0.168 HD
HETATM   21  S2  UNL     1      -1.562 -31.728  38.404  1.00  0.00    -0.042 SA
BRANCH  17  22
HETATM   22  C5  UNL     1      -2.484 -33.134  34.922  1.00  0.00     0.033 A 
HETATM   23  C6  UNL     1      -3.717 -33.241  34.334  1.00  0.00     0.021 A 
HETATM   24  C7  UNL     1      -3.756 -33.513  33.023  1.00  0.00     0.008 A 
HETATM   25  C8  UNL     1      -2.550 -33.663  32.381  1.00  0.00     0.050 A 
HETATM   26  S1  UNL     1      -1.420 -33.417  33.635  1.00  0.00    -0.100 SA
ENDBRANCH  17  22
BRANCH  19  27
HETATM   27  N1  UNL     1      -2.031 -34.108  39.634  1.00  0.00    -0.307 N 
HETATM   28  C2  UNL     1      -2.985 -33.836  40.650  1.00  0.00     0.219 C 
HETATM   29  C1  UNL     1      -4.449 -33.860  40.432  1.00  0.00     0.117 C 
HETATM   30  O1  UNL     1      -2.522 -33.557  41.802  1.00  0.00    -0.274 OA
ATOM     31  H1  UNL     1      -1.375 -34.881  39.746  1.00  0.00     0.171 HD
ENDBRANCH  19  27
ENDBRANCH  15  16
ENDBRANCH   1  14
TORSDOF 4
ENDMDL
MODEL 2
REMARK VINA RESULT: -8.044888315      0.990      1.185
REMARK  4 active torsions:
REMARK  status: ('A' for Active; 'I' for Inactive)
REMARK       I    between atoms: C2_2  and  N1_4 
REMARK    1  A    between atoms: N1_4  and  C3_6 
REMARK    2  A    between atoms: C4_9  and  C5_10 
REMARK    3  A    between atoms: C9_15  and  C10_16 
REMARK    4  A    between atoms: C11_17  and  C12_18 
ROOT
HETATM    1  C12 UNL     1      -1.240 -28.208  34.289  1.00  0.00     0.041 A 
HETATM    2  C13 UNL     1      -1.920 -27.044  34.564  1.00  0.00     0.024 A 
HETATM    3  C14 UNL     1      -1.742 -25.917  33.799  1.00  0.00     0.033 A 
HETATM    4  C15 UNL     1      -0.867 -25.933  32.729  1.00  0.00     0.061 A 
HETATM    5  N3  UNL     1      -0.508 -24.985  31.827  1.00  0.00    -0.350 N 
ATOM      6  H3  UNL     1      -0.846 -24.024  31.779  1.00  0.00     0.166 HD
HETATM    7  C16 UNL     1       0.385 -25.567  31.008  1.00  0.00     0.181 A 
HETATM    8  N4  UNL     1       0.573 -26.840  31.393  1.00  0.00    -0.349 N 
ATOM      9  H4  UNL     1       1.200 -27.505  30.942  1.00  0.00     0.166 HD
HETATM   10  C17 UNL     1      -0.200 -27.103  32.471  1.00  0.00     0.082 A 
HETATM   11  C18 UNL     1      -0.371 -28.237  33.232  1.00  0.00     0.092 A 
HETATM   12  C19 UNL     1       0.330 -29.455  32.958  1.00  0.00     0.103 C 
HETATM   13  N5  UNL     1       0.889 -30.445  32.732  1.00  0.00    -0.191 NA
ENDROOT
BRANCH   1  14
HETATM   14  C11 UNL     1      -1.446 -29.385  35.112  1.00  0.00    -0.059 C 
HETATM   15  C10 UNL     1      -1.618 -30.350  35.813  1.00  0.00    -0.051 C 
BRANCH  15  16
HETATM   16  C9  UNL     1      -1.826 -31.537  36.637  1.00  0.00     0.090 A 
HETATM   17  C4  UNL     1      -2.044 -32.839  36.263  1.00  0.00     0.077 A 
HETATM   18  N2  UNL     1      -2.200 -33.721  37.209  1.00  0.00    -0.334 N 
HETATM   19  C3  UNL     1      -2.142 -33.329  38.469  1.00  0.00     0.153 A 
ATOM     20  H2  UNL     1      -2.366 -34.701  36.979  1.00  0.00     0.168 HD
HETATM   21  S2  UNL     1      -1.858 -31.656  38.352  1.00  0.00    -0.042 SA
BRANCH  17  22
HETATM   22  C5  UNL     1      -2.091 -33.173  34.803  1.00  0.00     0.033 A 
HETATM   23  C6  UNL     1      -3.201 -33.268  34.005  1.00  0.00     0.021 A 
HETATM   24  C7  UNL     1      -3.012 -33.582  32.717  1.00  0.00     0.008 A 
HETATM   25  C8  UNL     1      -1.715 -33.785  32.308  1.00  0.00     0.050 A 
HETATM   26  S1  UNL     1      -0.822 -33.526  33.739  1.00  0.00    -0.100 SA
ENDBRANCH  17  22
BRANCH  19  27
HETATM   27  N1  UNL     1      -2.275 -34.062  39.551  1.00  0.00    -0.307 N 
HETATM   28  C2  UNL     1      -1.150 -34.735  40.098  1.00  0.00     0.219 C 
HETATM   29  C1  UNL     1       0.073 -34.045  40.567  1.00  0.00     0.117 C 
HETATM   30  O1  UNL     1      -1.230 -36.002  40.175  1.00  0.00    -0.274 OA
ATOM     31  H1  UNL     1      -3.187 -34.149  39.998  1.00  0.00     0.171 HD
ENDBRANCH  19  27
ENDBRANCH  15  16
ENDBRANCH   1  14
TORSDOF 4
ENDMDL
MODEL 3
REMARK VINA RESULT: -7.884439690      4.853      7.784
REMARK  4 active torsions:
REMARK  status: ('A' for Active; 'I' for Inactive)
REMARK       I    between atoms: C2_2  and  N1_4 
REMARK    1  A    between atoms: N1_4  and  C3_6 
REMARK    2  A    between atoms: C4_9  and  C5_10 
REMARK    3  A    between atoms: C9_15  and  C10_16 
REMARK    4  A    between atoms: C11_17  and  C12_18 
ROOT
HETATM    1  C12 UNL     1       1.579 -34.148  34.911  1.00  0.00     0.041 A 
HETATM    2  C13 UNL     1       0.834 -35.302  34.975  1.00  0.00     0.024 A 
HETATM    3  C14 UNL     1       1.435 -36.536  35.032  1.00  0.00     0.033 A 
HETATM    4  C15 UNL     1       2.814 -36.639  35.025  1.00  0.00     0.061 A 
HETATM    5  N3  UNL     1       3.652 -37.706  35.071  1.00  0.00    -0.350 N 
ATOM      6  H3  UNL     1       3.389 -38.690  35.122  1.00  0.00     0.166 HD
HETATM    7  C16 UNL     1       4.898 -37.205  35.034  1.00  0.00     0.181 A 
HETATM    8  N4  UNL     1       4.833 -35.865  34.968  1.00  0.00    -0.349 N 
ATOM      9  H4  UNL     1       5.636 -35.237  34.929  1.00  0.00     0.166 HD
HETATM   10  C17 UNL     1       3.538 -35.476  34.960  1.00  0.00     0.082 A 
HETATM   11  C18 UNL     1       2.944 -34.236  34.903  1.00  0.00     0.092 A 
HETATM   12  C19 UNL     1       3.707 -33.025  34.835  1.00  0.00     0.103 C 
HETATM   13  N5  UNL     1       4.322 -32.044  34.790  1.00  0.00    -0.191 NA
ENDROOT
BRANCH   1  14
HETATM   14  C11 UNL     1       0.919 -32.856  34.852  1.00  0.00    -0.059 C 
HETATM   15  C10 UNL     1       0.391 -31.774  34.808  1.00  0.00    -0.051 C 
BRANCH  15  16
HETATM   16  C9  UNL     1      -0.276 -30.477  34.746  1.00  0.00     0.090 A 
HETATM   17  C4  UNL     1      -1.609 -30.180  34.609  1.00  0.00     0.077 A 
HETATM   18  N2  UNL     1      -1.948 -28.923  34.581  1.00  0.00    -0.334 N 
HETATM   19  C3  UNL     1      -1.007 -28.001  34.685  1.00  0.00     0.153 A 
ATOM     20  H2  UNL     1      -2.927 -28.654  34.480  1.00  0.00     0.168 HD
HETATM   21  S2  UNL     1       0.424 -28.909  34.829  1.00  0.00    -0.042 SA
BRANCH  17  22
HETATM   22  C5  UNL     1      -2.592 -31.305  34.499  1.00  0.00     0.033 A 
HETATM   23  C6  UNL     1      -3.168 -31.802  33.358  1.00  0.00     0.021 A 
HETATM   24  C7  UNL     1      -4.028 -32.819  33.491  1.00  0.00     0.008 A 
HETATM   25  C8  UNL     1      -4.260 -33.277  34.766  1.00  0.00     0.050 A 
HETATM   26  S1  UNL     1      -3.267 -32.268  35.718  1.00  0.00    -0.100 SA
ENDBRANCH  17  22
BRANCH  19  27
HETATM   27  N1  UNL     1      -1.150 -26.696  34.678  1.00  0.00    -0.307 N 
HETATM   28  C2  UNL     1      -1.960 -26.073  33.692  1.00  0.00     0.219 C 
HETATM   29  C1  UNL     1      -3.402 -26.355  33.514  1.00  0.00     0.117 C 
HETATM   30  O1  UNL     1      -1.382 -25.230  32.934  1.00  0.00    -0.274 OA
ATOM     31  H1  UNL     1      -0.678 -26.128  35.382  1.00  0.00     0.171 HD
ENDBRANCH  19  27
ENDBRANCH  15  16
ENDBRANCH   1  14
TORSDOF 4
ENDMDL
MODEL 4
REMARK VINA RESULT: -7.797628809      3.209      8.157
REMARK  4 active torsions:
REMARK  status: ('A' for Active; 'I' for Inactive)
REMARK       I    between atoms: C2_2  and  N1_4 
REMARK    1  A    between atoms: N1_4  and  C3_6 
REMARK    2  A    between atoms: C4_9  and  C5_10 
REMARK    3  A    between atoms: C9_15  and  C10_16 
REMARK    4  A    between atoms: C11_17  and  C12_18 
ROOT
HETATM    1  C12 UNL     1      -1.933 -32.008  38.018  1.00  0.00     0.041 A 
HETATM    2  C13 UNL     1      -1.488 -31.709  39.285  1.00  0.00     0.024 A 
HETATM    3  C14 UNL     1      -1.957 -32.387  40.383  1.00  0.00     0.033 A 
HETATM    4  C15 UNL     1      -2.895 -33.392  40.233  1.00  0.00     0.061 A 
HETATM    5  N3  UNL     1      -3.517 -34.204  41.124  1.00  0.00    -0.350 N 
ATOM      6  H3  UNL     1      -3.389 -34.215  42.136  1.00  0.00     0.166 HD
HETATM    7  C16 UNL     1      -4.334 -34.992  40.406  1.00  0.00     0.181 A 
HETATM    8  N4  UNL     1      -4.222 -34.676  39.105  1.00  0.00    -0.349 N 
ATOM      9  H4  UNL     1      -4.734 -35.122  38.345  1.00  0.00     0.166 HD
HETATM   10  C17 UNL     1      -3.326 -33.674  38.962  1.00  0.00     0.082 A 
HETATM   11  C18 UNL     1      -2.861 -33.000  37.855  1.00  0.00     0.092 A 
HETATM   12  C19 UNL     1      -3.316 -33.299  36.530  1.00  0.00     0.103 C 
HETATM   13  N5  UNL     1      -3.675 -33.547  35.456  1.00  0.00    -0.191 NA
ENDROOT
BRANCH   1  14
HETATM   14  C11 UNL     1      -1.421 -31.277  36.873  1.00  0.00    -0.059 C 
HETATM   15  C10 UNL     1      -0.984 -30.687  35.918  1.00  0.00    -0.051 C 
BRANCH  15  16
HETATM   16  C9  UNL     1      -0.473 -29.948  34.767  1.00  0.00     0.090 A 
HETATM   17  C4  UNL     1      -0.406 -30.316  33.447  1.00  0.00     0.077 A 
HETATM   18  N2  UNL     1       0.102 -29.460  32.607  1.00  0.00    -0.334 N 
HETATM   19  C3  UNL     1       0.525 -28.291  33.056  1.00  0.00     0.153 A 
ATOM     20  H2  UNL     1       0.173 -29.689  31.615  1.00  0.00     0.168 HD
HETATM   21  S2  UNL     1       0.208 -28.370  34.726  1.00  0.00    -0.042 SA
BRANCH  17  22
HETATM   22  C5  UNL     1      -0.914 -31.667  33.046  1.00  0.00     0.033 A 
HETATM   23  C6  UNL     1      -1.892 -31.953  32.129  1.00  0.00     0.021 A 
HETATM   24  C7  UNL     1      -2.191 -33.241  31.925  1.00  0.00     0.008 A 
HETATM   25  C8  UNL     1      -1.488 -34.169  32.656  1.00  0.00     0.050 A 
HETATM   26  S1  UNL     1      -0.443 -33.199  33.593  1.00  0.00    -0.100 SA
ENDBRANCH  17  22
BRANCH  19  27
HETATM   27  N1  UNL     1       1.061 -27.307  32.372  1.00  0.00    -0.307 N 
HETATM   28  C2  UNL     1       0.231 -26.360  31.715  1.00  0.00     0.219 C 
HETATM   29  C1  UNL     1      -0.750 -25.501  32.415  1.00  0.00     0.117 C 
HETATM   30  O1  UNL     1       0.363 -26.271  30.452  1.00  0.00    -0.274 OA
ATOM     31  H1  UNL     1       2.076 -27.224  32.311  1.00  0.00     0.171 HD
ENDBRANCH  19  27
ENDBRANCH  15  16
ENDBRANCH   1  14
TORSDOF 4
ENDMDL
MODEL 5
REMARK VINA RESULT: -7.747286508      3.379      8.140
REMARK  4 active torsions:
REMARK  status: ('A' for Active; 'I' for Inactive)
REMARK       I    between atoms: C2_2  and  N1_4 
REMARK    1  A    between atoms: N1_4  and  C3_6 
REMARK    2  A    between atoms: C4_9  and  C5_10 
REMARK    3  A    between atoms: C9_15  and  C10_16 
REMARK    4  A    between atoms: C11_17  and  C12_18 
ROOT
HETATM    1  C12 UNL     1      -1.157 -32.077  38.002  1.00  0.00     0.041 A 
HETATM    2  C13 UNL     1      -2.207 -31.673  38.793  1.00  0.00     0.024 A 
HETATM    3  C14 UNL     1      -2.511 -32.328  39.962  1.00  0.00     0.033 A 
HETATM    4  C15 UNL     1      -1.760 -33.415  40.366  1.00  0.00     0.061 A 
HETATM    5  N3  UNL     1      -1.837 -34.229  41.450  1.00  0.00    -0.350 N 
ATOM      6  H3  UNL     1      -2.515 -34.174  42.210  1.00  0.00     0.166 HD
HETATM    7  C16 UNL     1      -0.842 -35.122  41.319  1.00  0.00     0.181 A 
HETATM    8  N4  UNL     1      -0.167 -34.868  40.185  1.00  0.00    -0.349 N 
ATOM      9  H4  UNL     1       0.636 -35.398  39.847  1.00  0.00     0.166 HD
HETATM   10  C17 UNL     1      -0.718 -33.802  39.563  1.00  0.00     0.082 A 
HETATM   11  C18 UNL     1      -0.406 -33.152  38.390  1.00  0.00     0.092 A 
HETATM   12  C19 UNL     1       0.684 -33.561  37.556  1.00  0.00     0.103 C 
HETATM   13  N5  UNL     1       1.571 -33.885  36.884  1.00  0.00    -0.191 NA
ENDROOT
BRANCH   1  14
HETATM   14  C11 UNL     1      -0.856 -31.368  36.771  1.00  0.00    -0.059 C 
HETATM   15  C10 UNL     1      -0.612 -30.761  35.759  1.00  0.00    -0.051 C 
BRANCH  15  16
HETATM   16  C9  UNL     1      -0.307 -30.052  34.520  1.00  0.00     0.090 A 
HETATM   17  C4  UNL     1      -0.718 -30.310  33.237  1.00  0.00     0.077 A 
HETATM   18  N2  UNL     1      -0.296 -29.514  32.296  1.00  0.00    -0.334 N 
HETATM   19  C3  UNL     1       0.497 -28.506  32.615  1.00  0.00     0.153 A 
ATOM     20  H2  UNL     1      -0.575 -29.666  31.327  1.00  0.00     0.168 HD
HETATM   21  S2  UNL     1       0.676 -28.660  34.299  1.00  0.00    -0.042 SA
BRANCH  17  22
HETATM   22  C5  UNL     1      -1.618 -31.482  32.987  1.00  0.00     0.033 A 
HETATM   23  C6  UNL     1      -2.942 -31.603  33.321  1.00  0.00     0.021 A 
HETATM   24  C7  UNL     1      -3.558 -32.747  33.002  1.00  0.00     0.008 A 
HETATM   25  C8  UNL     1      -2.806 -33.705  32.364  1.00  0.00     0.050 A 
HETATM   26  S1  UNL     1      -1.274 -32.963  32.241  1.00  0.00    -0.100 SA
ENDBRANCH  17  22
BRANCH  19  27
HETATM   27  N1  UNL     1       1.020 -27.605  31.816  1.00  0.00    -0.307 N 
HETATM   28  C2  UNL     1       0.247 -26.489  31.397  1.00  0.00     0.219 C 
HETATM   29  C1  UNL     1      -0.342 -25.500  32.328  1.00  0.00     0.117 C 
HETATM   30  O1  UNL     1       0.069 -26.362  30.143  1.00  0.00    -0.274 OA
ATOM     31  H1  UNL     1       1.983 -27.706  31.495  1.00  0.00     0.171 HD
ENDBRANCH  19  27
ENDBRANCH  15  16
ENDBRANCH   1  14
TORSDOF 4
ENDMDL
