MODEL 1
REMARK VINA RESULT: -8.376552480      0.000      0.000
REMARK  6 active torsions:
REMARK  status: ('A' for Active; 'I' for Inactive)
REMARK    1  A    between atoms: C2_2  and  N1_5 
REMARK    2  A    between atoms: C6_10  and  C7_11 
REMARK    3  A    between atoms: C7_11  and  C8_12 
REMARK    4  A    between atoms: C8_12  and  C9_13 
REMARK    5  A    between atoms: C17_23  and  C18_24 
REMARK    6  A    between atoms: C22_32  and  N6_33 
ROOT
HETATM    1  N1  UNL     1      -0.845 -33.216  37.686  1.00  0.00    -0.366 N 
ATOM      2  H1  UNL     1      -0.614 -34.141  38.050  1.00  0.00     0.162 HD
HETATM    3  C5  UNL     1      -0.189 -32.921  36.675  1.00  0.00     0.133 A 
HETATM    4  N2  UNL     1      -0.326 -31.761  36.027  1.00  0.00    -0.320 N 
ATOM      5  H2  UNL     1      -1.000 -31.079  36.376  1.00  0.00     0.169 HD
HETATM    6  C6  UNL     1       0.399 -31.456  34.924  1.00  0.00     0.164 A 
HETATM    7  N3  UNL     1       1.279 -32.333  34.459  1.00  0.00    -0.333 N 
ATOM      8  H3  UNL     1       1.820 -32.093  33.628  1.00  0.00     0.168 HD
HETATM    9  C15 UNL     1       1.486 -33.544  35.055  1.00  0.00     0.066 A 
HETATM   10  C16 UNL     1       2.408 -34.428  34.541  1.00  0.00     0.048 A 
HETATM   11  C17 UNL     1       2.611 -35.665  35.161  1.00  0.00     0.023 A 
HETATM   12  C22 UNL     1       1.843 -35.916  36.280  1.00  0.00     0.110 A 
HETATM   13  N7  UNL     1       0.936 -35.013  36.760  1.00  0.00    -0.337 N 
ATOM     14  H7  UNL     1       0.396 -35.253  37.592  1.00  0.00     0.167 HD
HETATM   15  C23 UNL     1       0.732 -33.823  36.176  1.00  0.00     0.105 A 
ENDROOT
BRANCH   6  16
HETATM   16  C7  UNL     1       0.211 -30.180  34.260  1.00  0.00    -0.025 C 
BRANCH  16  17
HETATM   17  C8  UNL     1       0.074 -29.112  33.713  1.00  0.00    -0.059 C 
BRANCH  17  18
HETATM   18  C9  UNL     1      -0.082 -27.833  33.075  1.00  0.00     0.018 A 
HETATM   19  C10 UNL     1       0.576 -27.491  31.911  1.00  0.00     0.020 A 
HETATM   20  C11 UNL     1       0.429 -26.267  31.298  1.00  0.00     0.001 A 
HETATM   21  C12 UNL     1      -0.412 -25.347  31.870  1.00  0.00     0.000 A 
HETATM   22  C13 UNL     1      -1.080 -25.673  33.037  1.00  0.00     0.001 A 
HETATM   23  C14 UNL     1      -0.916 -26.912  33.638  1.00  0.00     0.020 A 
ENDBRANCH  17  18
ENDBRANCH  16  17
ENDBRANCH   6  16
BRANCH   1  24
HETATM   24  C2  UNL     1      -1.836 -32.565  38.448  1.00  0.00     0.021 C 
HETATM   25  C1  UNL     1      -2.226 -31.196  38.006  1.00  0.00     0.037 C 
HETATM   26  C3  UNL     1      -3.092 -33.447  38.436  1.00  0.00     0.037 C 
HETATM   27  C4  UNL     1      -1.442 -32.482  39.939  1.00  0.00     0.037 C 
ENDBRANCH   1  24
BRANCH  11  28
HETATM   28  C18 UNL     1       3.586 -36.616  34.624  1.00  0.00     0.009 A 
HETATM   29  C19 UNL     1       3.175 -37.748  33.955  1.00  0.00     0.102 A 
HETATM   30  N4  UNL     1       4.098 -38.622  33.464  1.00  0.00    -0.361 N 
HETATM   31  C20 UNL     1       5.419 -38.411  33.616  1.00  0.00     0.180 A 
ATOM     32  H4  UNL     1       3.781 -39.456  32.969  1.00  0.00     0.166 HD
HETATM   33  N5  UNL     1       5.785 -37.291  34.277  1.00  0.00    -0.361 N 
HETATM   34  C21 UNL     1       4.931 -36.405  34.776  1.00  0.00     0.102 A 
ATOM     35  H5  UNL     1       6.783 -37.115  34.401  1.00  0.00     0.166 HD
ENDBRANCH  11  28
BRANCH  12  36
HETATM   36  N6  UNL     1       1.984 -37.043  36.903  1.00  0.00    -0.385 N 
ATOM     37  H62 UNL     1       2.859 -37.555  36.792  1.00  0.00     0.157 HD
ATOM     38  H61 UNL     1       1.221 -37.388  37.485  1.00  0.00     0.157 HD
ENDBRANCH  12  36
TORSDOF 6
ENDMDL
MODEL 2
REMARK VINA RESULT: -7.604966682      2.208      6.146
REMARK  6 active torsions:
REMARK  status: ('A' for Active; 'I' for Inactive)
REMARK    1  A    between atoms: C2_2  and  N1_5 
REMARK    2  A    between atoms: C6_10  and  C7_11 
REMARK    3  A    between atoms: C7_11  and  C8_12 
REMARK    4  A    between atoms: C8_12  and  C9_13 
REMARK    5  A    between atoms: C17_23  and  C18_24 
REMARK    6  A    between atoms: C22_32  and  N6_33 
ROOT
HETATM    1  N1  UNL     1       2.122 -33.379  35.517  1.00  0.00    -0.366 N 
ATOM      2  H1  UNL     1       2.041 -34.180  36.143  1.00  0.00     0.162 HD
HETATM    3  C5  UNL     1       1.157 -32.604  35.603  1.00  0.00     0.133 A 
HETATM    4  N2  UNL     1       1.049 -31.487  34.879  1.00  0.00    -0.320 N 
ATOM      5  H2  UNL     1       1.792 -31.254  34.221  1.00  0.00     0.169 HD
HETATM    6  C6  UNL     1      -0.012 -30.652  34.986  1.00  0.00     0.164 A 
HETATM    7  N3  UNL     1      -0.987 -30.942  35.838  1.00  0.00    -0.333 N 
ATOM      8  H3  UNL     1      -1.782 -30.308  35.912  1.00  0.00     0.168 HD
HETATM    9  C15 UNL     1      -0.962 -32.061  36.620  1.00  0.00     0.066 A 
HETATM   10  C16 UNL     1      -1.992 -32.328  37.494  1.00  0.00     0.048 A 
HETATM   11  C17 UNL     1      -1.954 -33.479  38.289  1.00  0.00     0.023 A 
HETATM   12  C22 UNL     1      -0.848 -34.287  38.132  1.00  0.00     0.110 A 
HETATM   13  N7  UNL     1       0.156 -33.990  37.255  1.00  0.00    -0.337 N 
ATOM     14  H7  UNL     1       0.951 -34.626  37.181  1.00  0.00     0.167 HD
HETATM   15  C23 UNL     1       0.132 -32.890  36.486  1.00  0.00     0.105 A 
ENDROOT
BRANCH   6  16
HETATM   16  C7  UNL     1      -0.079 -29.452  34.175  1.00  0.00    -0.025 C 
BRANCH  16  17
HETATM   17  C8  UNL     1      -0.117 -28.446  33.507  1.00  0.00    -0.059 C 
BRANCH  17  18
HETATM   18  C9  UNL     1      -0.146 -27.246  32.716  1.00  0.00     0.018 A 
HETATM   19  C10 UNL     1      -0.807 -26.101  33.114  1.00  0.00     0.020 A 
HETATM   20  C11 UNL     1      -0.837 -24.951  32.357  1.00  0.00     0.001 A 
HETATM   21  C12 UNL     1      -0.177 -24.943  31.154  1.00  0.00     0.000 A 
HETATM   22  C13 UNL     1       0.490 -26.082  30.740  1.00  0.00     0.001 A 
HETATM   23  C14 UNL     1       0.507 -27.230  31.517  1.00  0.00     0.020 A 
ENDBRANCH  17  18
ENDBRANCH  16  17
ENDBRANCH   6  16
BRANCH   1  24
HETATM   24  C2  UNL     1       3.305 -33.405  34.750  1.00  0.00     0.021 C 
HETATM   25  C1  UNL     1       3.958 -34.734  34.576  1.00  0.00     0.037 C 
HETATM   26  C3  UNL     1       2.976 -32.846  33.359  1.00  0.00     0.037 C 
HETATM   27  C4  UNL     1       4.366 -32.432  35.311  1.00  0.00     0.037 C 
ENDBRANCH   1  24
BRANCH  11  28
HETATM   28  C18 UNL     1      -3.042 -33.772  39.224  1.00  0.00     0.009 A 
HETATM   29  C19 UNL     1      -4.126 -34.527  38.831  1.00  0.00     0.102 A 
HETATM   30  N4  UNL     1      -5.130 -34.788  39.716  1.00  0.00    -0.361 N 
HETATM   31  C20 UNL     1      -5.095 -34.324  40.979  1.00  0.00     0.180 A 
ATOM     32  H4  UNL     1      -5.927 -35.349  39.413  1.00  0.00     0.166 HD
HETATM   33  N5  UNL     1      -4.017 -33.589  41.328  1.00  0.00    -0.361 N 
HETATM   34  C21 UNL     1      -3.010 -33.303  40.510  1.00  0.00     0.102 A 
ATOM     35  H5  UNL     1      -3.973 -33.229  42.282  1.00  0.00     0.166 HD
ENDBRANCH  11  28
BRANCH  12  36
HETATM   36  N6  UNL     1      -0.754 -35.371  38.837  1.00  0.00    -0.385 N 
ATOM     37  H62 UNL     1      -0.503 -35.291  39.822  1.00  0.00     0.157 HD
ATOM     38  H61 UNL     1      -0.928 -36.271  38.390  1.00  0.00     0.157 HD
ENDBRANCH  12  36
TORSDOF 6
ENDMDL
MODEL 3
REMARK VINA RESULT: -7.560163488      2.297      8.561
REMARK  6 active torsions:
REMARK  status: ('A' for Active; 'I' for Inactive)
REMARK    1  A    between atoms: C2_2  and  N1_5 
REMARK    2  A    between atoms: C6_10  and  C7_11 
REMARK    3  A    between atoms: C7_11  and  C8_12 
REMARK    4  A    between atoms: C8_12  and  C9_13 
REMARK    5  A    between atoms: C17_23  and  C18_24 
REMARK    6  A    between atoms: C22_32  and  N6_33 
ROOT
HETATM    1  N1  UNL     1      -1.601 -31.820  37.242  1.00  0.00    -0.366 N 
ATOM      2  H1  UNL     1      -2.140 -30.953  37.243  1.00  0.00     0.162 HD
HETATM    3  C5  UNL     1      -0.748 -31.853  36.341  1.00  0.00     0.133 A 
HETATM    4  N2  UNL     1       0.074 -32.888  36.150  1.00  0.00    -0.320 N 
ATOM      5  H2  UNL     1       0.002 -33.694  36.771  1.00  0.00     0.169 HD
HETATM    6  C6  UNL     1       1.000 -32.907  35.161  1.00  0.00     0.164 A 
HETATM    7  N3  UNL     1       1.105 -31.865  34.347  1.00  0.00    -0.333 N 
ATOM      8  H3  UNL     1       1.805 -31.889  33.606  1.00  0.00     0.168 HD
HETATM    9  C15 UNL     1       0.308 -30.763  34.467  1.00  0.00     0.066 A 
HETATM   10  C16 UNL     1       0.448 -29.701  33.602  1.00  0.00     0.048 A 
HETATM   11  C17 UNL     1      -0.375 -28.577  33.736  1.00  0.00     0.023 A 
HETATM   12  C22 UNL     1      -1.297 -28.620  34.761  1.00  0.00     0.110 A 
HETATM   13  N7  UNL     1      -1.407 -29.692  35.601  1.00  0.00    -0.337 N 
ATOM     14  H7  UNL     1      -2.108 -29.668  36.342  1.00  0.00     0.167 HD
HETATM   15  C23 UNL     1      -0.624 -30.776  35.483  1.00  0.00     0.105 A 
ENDROOT
BRANCH   6  16
HETATM   16  C7  UNL     1       1.867 -34.058  34.998  1.00  0.00    -0.025 C 
BRANCH  16  17
HETATM   17  C8  UNL     1       2.573 -35.027  34.853  1.00  0.00    -0.059 C 
BRANCH  17  18
HETATM   18  C9  UNL     1       3.401 -36.189  34.678  1.00  0.00     0.018 A 
HETATM   19  C10 UNL     1       4.780 -36.143  34.732  1.00  0.00     0.020 A 
HETATM   20  C11 UNL     1       5.575 -37.254  34.565  1.00  0.00     0.001 A 
HETATM   21  C12 UNL     1       4.967 -38.463  34.334  1.00  0.00     0.000 A 
HETATM   22  C13 UNL     1       3.586 -38.528  34.276  1.00  0.00     0.001 A 
HETATM   23  C14 UNL     1       2.805 -37.395  34.448  1.00  0.00     0.020 A 
ENDBRANCH  17  18
ENDBRANCH  16  17
ENDBRANCH   6  16
BRANCH   1  24
HETATM   24  C2  UNL     1      -1.996 -32.707  38.264  1.00  0.00     0.021 C 
HETATM   25  C1  UNL     1      -0.920 -33.522  38.894  1.00  0.00     0.037 C 
HETATM   26  C3  UNL     1      -2.678 -31.880  39.364  1.00  0.00     0.037 C 
HETATM   27  C4  UNL     1      -3.096 -33.677  37.779  1.00  0.00     0.037 C 
ENDBRANCH   1  24
BRANCH  11  28
HETATM   28  C18 UNL     1      -0.235 -27.439  32.825  1.00  0.00     0.009 A 
HETATM   29  C19 UNL     1      -0.827 -26.229  33.110  1.00  0.00     0.102 A 
HETATM   30  N4  UNL     1      -0.686 -25.182  32.249  1.00  0.00    -0.361 N 
HETATM   31  C20 UNL     1       0.023 -25.296  31.109  1.00  0.00     0.180 A 
ATOM     32  H4  UNL     1      -1.129 -24.290  32.471  1.00  0.00     0.166 HD
HETATM   33  N5  UNL     1       0.589 -26.498  30.863  1.00  0.00    -0.361 N 
HETATM   34  C21 UNL     1       0.487 -27.551  31.665  1.00  0.00     0.102 A 
ATOM     35  H5  UNL     1       1.130 -26.603  30.004  1.00  0.00     0.166 HD
ENDBRANCH  11  28
BRANCH  12  36
HETATM   36  N6  UNL     1      -2.092 -27.612  34.937  1.00  0.00    -0.385 N 
ATOM     37  H62 UNL     1      -1.713 -26.756  35.339  1.00  0.00     0.157 HD
ATOM     38  H61 UNL     1      -3.073 -27.702  34.672  1.00  0.00     0.157 HD
ENDBRANCH  12  36
TORSDOF 6
ENDMDL
MODEL 4
REMARK VINA RESULT: -7.523130369      1.075      1.536
REMARK  6 active torsions:
REMARK  status: ('A' for Active; 'I' for Inactive)
REMARK    1  A    between atoms: C2_2  and  N1_5 
REMARK    2  A    between atoms: C6_10  and  C7_11 
REMARK    3  A    between atoms: C7_11  and  C8_12 
REMARK    4  A    between atoms: C8_12  and  C9_13 
REMARK    5  A    between atoms: C17_23  and  C18_24 
REMARK    6  A    between atoms: C22_32  and  N6_33 
ROOT
HETATM    1  N1  UNL     1      -0.048 -34.326  38.320  1.00  0.00    -0.366 N 
ATOM      2  H1  UNL     1       0.240 -35.258  38.620  1.00  0.00     0.162 HD
HETATM    3  C5  UNL     1       0.464 -33.992  37.240  1.00  0.00     0.133 A 
HETATM    4  N2  UNL     1       0.230 -32.814  36.654  1.00  0.00    -0.320 N 
ATOM      5  H2  UNL     1      -0.398 -32.154  37.110  1.00  0.00     0.169 HD
HETATM    6  C6  UNL     1       0.798 -32.466  35.474  1.00  0.00     0.164 A 
HETATM    7  N3  UNL     1       1.617 -33.316  34.868  1.00  0.00    -0.333 N 
ATOM      8  H3  UNL     1       2.039 -33.044  33.981  1.00  0.00     0.168 HD
HETATM    9  C15 UNL     1       1.914 -34.541  35.392  1.00  0.00     0.066 A 
HETATM   10  C16 UNL     1       2.769 -35.396  34.733  1.00  0.00     0.048 A 
HETATM   11  C17 UNL     1       3.065 -36.648  35.281  1.00  0.00     0.023 A 
HETATM   12  C22 UNL     1       2.456 -36.943  36.483  1.00  0.00     0.110 A 
HETATM   13  N7  UNL     1       1.613 -36.069  37.109  1.00  0.00    -0.337 N 
ATOM     14  H7  UNL     1       1.191 -36.341  37.998  1.00  0.00     0.167 HD
HETATM   15  C23 UNL     1       1.320 -34.864  36.594  1.00  0.00     0.105 A 
ENDROOT
BRANCH   6  16
HETATM   16  C7  UNL     1       0.509 -31.174  34.882  1.00  0.00    -0.025 C 
BRANCH  16  17
HETATM   17  C8  UNL     1       0.285 -30.101  34.375  1.00  0.00    -0.059 C 
BRANCH  17  18
HETATM   18  C9  UNL     1       0.003 -28.823  33.780  1.00  0.00     0.018 A 
HETATM   19  C10 UNL     1      -0.823 -27.887  34.369  1.00  0.00     0.020 A 
HETATM   20  C11 UNL     1      -1.094 -26.662  33.801  1.00  0.00     0.001 A 
HETATM   21  C12 UNL     1      -0.515 -26.359  32.594  1.00  0.00     0.000 A 
HETATM   22  C13 UNL     1       0.316 -27.286  31.990  1.00  0.00     0.001 A 
HETATM   23  C14 UNL     1       0.575 -28.514  32.580  1.00  0.00     0.020 A 
ENDBRANCH  17  18
ENDBRANCH  16  17
ENDBRANCH   6  16
BRANCH   1  24
HETATM   24  C2  UNL     1      -0.935 -33.712  39.228  1.00  0.00     0.021 C 
HETATM   25  C1  UNL     1      -1.206 -32.262  39.019  1.00  0.00     0.037 C 
HETATM   26  C3  UNL     1      -2.271 -34.465  39.158  1.00  0.00     0.037 C 
HETATM   27  C4  UNL     1      -0.469 -33.896  40.689  1.00  0.00     0.037 C 
ENDBRANCH   1  24
BRANCH  11  28
HETATM   28  C18 UNL     1       3.970 -37.568  34.589  1.00  0.00     0.009 A 
HETATM   29  C19 UNL     1       3.484 -38.683  33.942  1.00  0.00     0.102 A 
HETATM   30  N4  UNL     1       4.343 -39.529  33.305  1.00  0.00    -0.361 N 
HETATM   31  C20 UNL     1       5.671 -39.305  33.289  1.00  0.00     0.180 A 
ATOM     32  H4  UNL     1       3.971 -40.351  32.828  1.00  0.00     0.166 HD
HETATM   33  N5  UNL     1       6.110 -38.202  33.933  1.00  0.00    -0.361 N 
HETATM   34  C21 UNL     1       5.321 -37.344  34.570  1.00  0.00     0.102 A 
ATOM     35  H5  UNL     1       7.114 -38.017  33.932  1.00  0.00     0.166 HD
ENDBRANCH  11  28
BRANCH  12  36
HETATM   36  N6  UNL     1       2.692 -38.086  37.047  1.00  0.00    -0.385 N 
ATOM     37  H62 UNL     1       3.097 -38.833  36.483  1.00  0.00     0.157 HD
ATOM     38  H61 UNL     1       2.465 -38.210  38.033  1.00  0.00     0.157 HD
ENDBRANCH  12  36
TORSDOF 6
ENDMDL
MODEL 5
REMARK VINA RESULT: -7.314956940      1.127      1.566
REMARK  6 active torsions:
REMARK  status: ('A' for Active; 'I' for Inactive)
REMARK    1  A    between atoms: C2_2  and  N1_5 
REMARK    2  A    between atoms: C6_10  and  C7_11 
REMARK    3  A    between atoms: C7_11  and  C8_12 
REMARK    4  A    between atoms: C8_12  and  C9_13 
REMARK    5  A    between atoms: C17_23  and  C18_24 
REMARK    6  A    between atoms: C22_32  and  N6_33 
ROOT
HETATM    1  N1  UNL     1      -1.088 -33.572  38.080  1.00  0.00    -0.366 N 
ATOM      2  H1  UNL     1      -0.961 -34.544  38.364  1.00  0.00     0.162 HD
HETATM    3  C5  UNL     1      -0.612 -33.334  36.959  1.00  0.00     0.133 A 
HETATM    4  N2  UNL     1      -0.663 -32.130  36.383  1.00  0.00    -0.320 N 
ATOM      5  H2  UNL     1      -1.113 -31.364  36.884  1.00  0.00     0.169 HD
HETATM    6  C6  UNL     1      -0.137 -31.889  35.158  1.00  0.00     0.164 A 
HETATM    7  N3  UNL     1       0.452 -32.875  34.496  1.00  0.00    -0.333 N 
ATOM      8  H3  UNL     1       0.845 -32.683  33.574  1.00  0.00     0.168 HD
HETATM    9  C15 UNL     1       0.551 -34.138  35.005  1.00  0.00     0.066 A 
HETATM   10  C16 UNL     1       1.169 -35.136  34.285  1.00  0.00     0.048 A 
HETATM   11  C17 UNL     1       1.263 -36.427  34.819  1.00  0.00     0.023 A 
HETATM   12  C22 UNL     1       0.709 -36.607  36.069  1.00  0.00     0.110 A 
HETATM   13  N7  UNL     1       0.103 -35.592  36.753  1.00  0.00    -0.337 N 
ATOM     14  H7  UNL     1      -0.289 -35.785  37.676  1.00  0.00     0.167 HD
HETATM   15  C23 UNL     1       0.006 -34.350  36.254  1.00  0.00     0.105 A 
ENDROOT
BRANCH   6  16
HETATM   16  C7  UNL     1      -0.220 -30.561  34.580  1.00  0.00    -0.025 C 
BRANCH  16  17
HETATM   17  C8  UNL     1      -0.282 -29.463  34.081  1.00  0.00    -0.059 C 
BRANCH  17  18
HETATM   18  C9  UNL     1      -0.372 -28.155  33.491  1.00  0.00     0.018 A 
HETATM   19  C10 UNL     1       0.415 -27.756  32.428  1.00  0.00     0.020 A 
HETATM   20  C11 UNL     1       0.330 -26.504  31.863  1.00  0.00     0.001 A 
HETATM   21  C12 UNL     1      -0.577 -25.613  32.378  1.00  0.00     0.000 A 
HETATM   22  C13 UNL     1      -1.373 -25.996  33.443  1.00  0.00     0.001 A 
HETATM   23  C14 UNL     1      -1.271 -27.263  33.998  1.00  0.00     0.020 A 
ENDBRANCH  17  18
ENDBRANCH  16  17
ENDBRANCH   6  16
BRANCH   1  24
HETATM   24  C2  UNL     1      -1.764 -32.806  39.051  1.00  0.00     0.021 C 
HETATM   25  C1  UNL     1      -1.808 -31.333  38.828  1.00  0.00     0.037 C 
HETATM   26  C3  UNL     1      -3.208 -33.322  39.134  1.00  0.00     0.037 C 
HETATM   27  C4  UNL     1      -1.191 -33.049  40.465  1.00  0.00     0.037 C 
ENDBRANCH   1  24
BRANCH  11  28
HETATM   28  C18 UNL     1       1.915 -37.498  34.063  1.00  0.00     0.009 A 
HETATM   29  C19 UNL     1       3.269 -37.723  34.184  1.00  0.00     0.102 A 
HETATM   30  N4  UNL     1       3.859 -38.724  33.470  1.00  0.00    -0.361 N 
HETATM   31  C20 UNL     1       3.149 -39.510  32.639  1.00  0.00     0.180 A 
ATOM     32  H4  UNL     1       4.862 -38.882  33.568  1.00  0.00     0.166 HD
HETATM   33  N5  UNL     1       1.825 -39.260  32.547  1.00  0.00    -0.361 N 
HETATM   34  C21 UNL     1       1.197 -38.301  33.217  1.00  0.00     0.102 A 
ATOM     35  H5  UNL     1       1.271 -39.847  31.922  1.00  0.00     0.166 HD
ENDBRANCH  11  28
BRANCH  12  36
HETATM   36  N6  UNL     1       0.767 -37.778  36.621  1.00  0.00    -0.385 N 
ATOM     37  H62 UNL     1       1.176 -38.548  36.091  1.00  0.00     0.157 HD
ATOM     38  H61 UNL     1       0.401 -37.901  37.565  1.00  0.00     0.157 HD
ENDBRANCH  12  36
TORSDOF 6
ENDMDL
