MODEL 1
REMARK VINA RESULT: -8.900730671      0.000      0.000
REMARK  2 active torsions:
REMARK  status: ('A' for Active; 'I' for Inactive)
REMARK       I    between atoms: C1_2  and  N1_3 
REMARK       I    between atoms: C1_2  and  N4_15 
REMARK    1  A    between atoms: N1_3  and  C2_5 
REMARK    2  A    between atoms: C8_20  and  C9_21 
ROOT
HETATM    1  O1  UNL     1      -1.104 -33.401  33.386  1.00  0.00    -0.246 OA
HETATM    2  C1  UNL     1      -1.778 -32.427  33.822  1.00  0.00     0.340 C 
HETATM    3  N1  UNL     1      -2.382 -31.469  32.967  1.00  0.00    -0.141 N 
ATOM      4  H1  UNL     1      -3.214 -31.706  32.427  1.00  0.00     0.189 HD
HETATM    5  N4  UNL     1      -1.914 -32.322  35.232  1.00  0.00    -0.293 N 
ATOM      6  H4  UNL     1      -2.735 -31.855  35.618  1.00  0.00     0.172 HD
HETATM    7  C7  UNL     1      -1.023 -32.803  36.044  1.00  0.00     0.123 A 
HETATM    8  N5  UNL     1       0.084 -33.432  35.623  1.00  0.00    -0.327 N 
ATOM      9  H5  UNL     1       0.225 -33.533  34.619  1.00  0.00     0.169 HD
HETATM   10  C8  UNL     1       1.026 -33.942  36.451  1.00  0.00     0.119 A 
HETATM   11  N7  UNL     1       0.818 -33.797  37.765  1.00  0.00    -0.341 N 
ATOM     12  H7  UNL     1       1.513 -34.173  38.409  1.00  0.00     0.167 HD
HETATM   13  C14 UNL     1      -0.278 -33.174  38.285  1.00  0.00     0.047 A 
HETATM   14  C15 UNL     1      -0.439 -33.055  39.653  1.00  0.00     0.030 A 
HETATM   15  C16 UNL     1      -1.570 -32.413  40.104  1.00  0.00     0.002 A 
HETATM   16  C17 UNL     1      -2.500 -31.911  39.211  1.00  0.00     0.001 A 
HETATM   17  C18 UNL     1      -2.327 -32.037  37.858  1.00  0.00     0.017 A 
HETATM   18  C19 UNL     1      -1.196 -32.678  37.401  1.00  0.00     0.035 A 
ENDROOT
BRANCH  10  19
HETATM   19  C9  UNL     1       2.208 -34.614  35.899  1.00  0.00     0.023 A 
HETATM   20  C10 UNL     1       2.966 -33.958  34.969  1.00  0.00     0.018 A 
HETATM   21  C11 UNL     1       4.084 -34.641  34.473  1.00  0.00     0.018 A 
HETATM   22  C12 UNL     1       4.412 -35.894  34.883  1.00  0.00     0.087 A 
HETATM   23  N6  UNL     1       3.628 -36.490  35.801  1.00  0.00    -0.374 N 
HETATM   24  C13 UNL     1       2.545 -35.890  36.314  1.00  0.00     0.102 A 
ATOM     25  H6  UNL     1       3.866 -37.430  36.117  1.00  0.00     0.164 HD
ENDBRANCH  10  19
BRANCH   3  26
HETATM   26  C2  UNL     1      -1.849 -30.271  32.885  1.00  0.00     0.687 A 
HETATM   27  N2  UNL     1      -0.781 -29.934  32.136  1.00  0.00    -0.189 N 
HETATM   28  C3  UNL     1      -0.506 -28.599  32.298  1.00  0.00     0.084 A 
ATOM     29  H2  UNL     1      -0.256 -30.573  31.539  1.00  0.00     0.184 HD
HETATM   30  C4  UNL     1       0.386 -27.696  31.848  1.00  0.00     0.040 A 
HETATM   31  C6  UNL     1      -1.457 -28.164  33.174  1.00  0.00     0.117 A 
HETATM   32  C5  UNL     1       0.265 -26.410  32.308  1.00  0.00     0.054 A 
HETATM   33  S1  UNL     1      -1.083 -26.511  33.348  1.00  0.00    -0.081 SA
HETATM   34  N3  UNL     1      -2.291 -29.185  33.544  1.00  0.00    -0.183 N 
ATOM     35  H3  UNL     1      -3.083 -29.132  34.185  1.00  0.00     0.185 HD
ENDBRANCH   3  26
TORSDOF 2
ENDMDL
MODEL 2
REMARK VINA RESULT: -8.756195291      2.463      4.126
REMARK  2 active torsions:
REMARK  status: ('A' for Active; 'I' for Inactive)
REMARK       I    between atoms: C1_2  and  N1_3 
REMARK       I    between atoms: C1_2  and  N4_15 
REMARK    1  A    between atoms: N1_3  and  C2_5 
REMARK    2  A    between atoms: C8_20  and  C9_21 
ROOT
HETATM    1  O1  UNL     1       1.803 -31.991  34.476  1.00  0.00    -0.246 OA
HETATM    2  C1  UNL     1       1.064 -31.603  33.530  1.00  0.00     0.340 C 
HETATM    3  N1  UNL     1       1.377 -30.478  32.724  1.00  0.00    -0.141 N 
ATOM      4  H1  UNL     1       2.117 -30.529  32.025  1.00  0.00     0.189 HD
HETATM    5  N4  UNL     1      -0.122 -32.352  33.294  1.00  0.00    -0.293 N 
ATOM      6  H4  UNL     1      -0.518 -32.368  32.355  1.00  0.00     0.172 HD
HETATM    7  C7  UNL     1      -0.713 -33.014  34.240  1.00  0.00     0.123 A 
HETATM    8  N5  UNL     1      -0.259 -33.048  35.502  1.00  0.00    -0.327 N 
ATOM      9  H5  UNL     1       0.590 -32.527  35.719  1.00  0.00     0.169 HD
HETATM   10  C8  UNL     1      -0.859 -33.732  36.504  1.00  0.00     0.119 A 
HETATM   11  N7  UNL     1      -1.971 -34.408  36.192  1.00  0.00    -0.341 N 
ATOM     12  H7  UNL     1      -2.442 -34.932  36.930  1.00  0.00     0.167 HD
HETATM   13  C14 UNL     1      -2.506 -34.433  34.938  1.00  0.00     0.047 A 
HETATM   14  C15 UNL     1      -3.657 -35.152  34.676  1.00  0.00     0.030 A 
HETATM   15  C16 UNL     1      -4.138 -35.130  33.386  1.00  0.00     0.002 A 
HETATM   16  C17 UNL     1      -3.483 -34.412  32.401  1.00  0.00     0.001 A 
HETATM   17  C18 UNL     1      -2.342 -33.706  32.676  1.00  0.00     0.017 A 
HETATM   18  C19 UNL     1      -1.857 -33.724  33.965  1.00  0.00     0.035 A 
ENDROOT
BRANCH  10  19
HETATM   19  C9  UNL     1      -0.290 -33.710  37.856  1.00  0.00     0.023 A 
HETATM   20  C10 UNL     1       1.066 -33.803  38.003  1.00  0.00     0.018 A 
HETATM   21  C11 UNL     1       1.561 -33.776  39.313  1.00  0.00     0.018 A 
HETATM   22  C12 UNL     1       0.748 -33.665  40.396  1.00  0.00     0.087 A 
HETATM   23  N6  UNL     1      -0.580 -33.576  40.189  1.00  0.00    -0.374 N 
HETATM   24  C13 UNL     1      -1.115 -33.596  38.961  1.00  0.00     0.102 A 
ATOM     25  H6  UNL     1      -1.199 -33.490  40.995  1.00  0.00     0.164 HD
ENDBRANCH  10  19
BRANCH   3  26
HETATM   26  C2  UNL     1       0.694 -29.369  32.897  1.00  0.00     0.687 A 
HETATM   27  N2  UNL     1       0.778 -28.265  32.128  1.00  0.00    -0.189 N 
HETATM   28  C3  UNL     1      -0.079 -27.304  32.605  1.00  0.00     0.084 A 
ATOM     29  H2  UNL     1       1.385 -28.159  31.315  1.00  0.00     0.184 HD
HETATM   30  C4  UNL     1      -0.446 -26.046  32.298  1.00  0.00     0.040 A 
HETATM   31  C6  UNL     1      -0.669 -27.888  33.687  1.00  0.00     0.117 A 
HETATM   32  C5  UNL     1      -1.387 -25.452  33.101  1.00  0.00     0.054 A 
HETATM   33  S1  UNL     1      -1.720 -26.669  34.248  1.00  0.00    -0.081 SA
HETATM   34  N3  UNL     1      -0.202 -29.161  33.878  1.00  0.00    -0.183 N 
ATOM     35  H3  UNL     1      -0.476 -29.814  34.611  1.00  0.00     0.185 HD
ENDBRANCH   3  26
TORSDOF 2
ENDMDL
MODEL 3
REMARK VINA RESULT: -8.304527439      3.842      6.842
REMARK  2 active torsions:
REMARK  status: ('A' for Active; 'I' for Inactive)
REMARK       I    between atoms: C1_2  and  N1_3 
REMARK       I    between atoms: C1_2  and  N4_15 
REMARK    1  A    between atoms: N1_3  and  C2_5 
REMARK    2  A    between atoms: C8_20  and  C9_21 
ROOT
HETATM    1  O1  UNL     1      -0.948 -30.900  37.765  1.00  0.00    -0.246 OA
HETATM    2  C1  UNL     1      -2.071 -31.389  38.066  1.00  0.00     0.340 C 
HETATM    3  N1  UNL     1      -2.605 -31.331  39.380  1.00  0.00    -0.141 N 
ATOM      4  H1  UNL     1      -2.970 -30.456  39.754  1.00  0.00     0.189 HD
HETATM    5  N4  UNL     1      -2.800 -32.014  37.018  1.00  0.00    -0.293 N 
ATOM      6  H4  UNL     1      -3.818 -32.045  37.073  1.00  0.00     0.172 HD
HETATM    7  C7  UNL     1      -2.208 -32.545  35.993  1.00  0.00     0.123 A 
HETATM    8  N5  UNL     1      -0.875 -32.547  35.841  1.00  0.00    -0.327 N 
ATOM      9  H5  UNL     1      -0.309 -32.109  36.567  1.00  0.00     0.169 HD
HETATM   10  C8  UNL     1      -0.235 -33.095  34.781  1.00  0.00     0.119 A 
HETATM   11  N7  UNL     1      -1.000 -33.662  33.841  1.00  0.00    -0.341 N 
ATOM     12  H7  UNL     1      -0.542 -34.082  33.033  1.00  0.00     0.167 HD
HETATM   13  C14 UNL     1      -2.361 -33.708  33.910  1.00  0.00     0.047 A 
HETATM   14  C15 UNL     1      -3.099 -34.308  32.907  1.00  0.00     0.030 A 
HETATM   15  C16 UNL     1      -4.469 -34.315  33.045  1.00  0.00     0.002 A 
HETATM   16  C17 UNL     1      -5.069 -33.740  34.152  1.00  0.00     0.001 A 
HETATM   17  C18 UNL     1      -4.324 -33.148  35.137  1.00  0.00     0.017 A 
HETATM   18  C19 UNL     1      -2.953 -33.138  35.004  1.00  0.00     0.035 A 
ENDROOT
BRANCH  10  19
HETATM   19  C9  UNL     1       1.230 -33.050  34.700  1.00  0.00     0.023 A 
HETATM   20  C10 UNL     1       1.828 -31.934  34.183  1.00  0.00     0.018 A 
HETATM   21  C11 UNL     1       3.228 -31.940  34.128  1.00  0.00     0.018 A 
HETATM   22  C12 UNL     1       3.969 -32.993  34.561  1.00  0.00     0.087 A 
HETATM   23  N6  UNL     1       3.323 -34.064  35.060  1.00  0.00    -0.374 N 
HETATM   24  C13 UNL     1       1.987 -34.121  35.140  1.00  0.00     0.102 A 
ATOM     25  H6  UNL     1       3.871 -34.860  35.389  1.00  0.00     0.164 HD
ENDBRANCH  10  19
BRANCH   3  26
HETATM   26  C2  UNL     1      -2.621 -32.428  40.103  1.00  0.00     0.687 A 
HETATM   27  N2  UNL     1      -1.571 -32.946  40.771  1.00  0.00    -0.189 N 
HETATM   28  C3  UNL     1      -1.956 -34.095  41.416  1.00  0.00     0.084 A 
ATOM     29  H2  UNL     1      -0.633 -32.544  40.795  1.00  0.00     0.184 HD
HETATM   30  C4  UNL     1      -1.404 -35.033  42.209  1.00  0.00     0.040 A 
HETATM   31  C6  UNL     1      -3.275 -34.232  41.098  1.00  0.00     0.117 A 
HETATM   32  C5  UNL     1      -2.217 -36.052  42.635  1.00  0.00     0.054 A 
HETATM   33  S1  UNL     1      -3.712 -35.664  41.913  1.00  0.00    -0.081 SA
HETATM   34  N3  UNL     1      -3.698 -33.212  40.290  1.00  0.00    -0.183 N 
ATOM     35  H3  UNL     1      -4.634 -33.075  39.909  1.00  0.00     0.185 HD
ENDBRANCH   3  26
TORSDOF 2
ENDMDL
MODEL 4
REMARK VINA RESULT: -8.221365609      0.846      1.068
REMARK  2 active torsions:
REMARK  status: ('A' for Active; 'I' for Inactive)
REMARK       I    between atoms: C1_2  and  N1_3 
REMARK       I    between atoms: C1_2  and  N4_15 
REMARK    1  A    between atoms: N1_3  and  C2_5 
REMARK    2  A    between atoms: C8_20  and  C9_21 
ROOT
HETATM    1  O1  UNL     1      -1.957 -33.254  33.450  1.00  0.00    -0.246 OA
HETATM    2  C1  UNL     1      -2.406 -32.192  33.962  1.00  0.00     0.340 C 
HETATM    3  N1  UNL     1      -2.930 -31.127  33.183  1.00  0.00    -0.141 N 
ATOM      4  H1  UNL     1      -3.843 -31.209  32.738  1.00  0.00     0.189 HD
HETATM    5  N4  UNL     1      -2.369 -32.098  35.380  1.00  0.00    -0.293 N 
ATOM      6  H4  UNL     1      -3.052 -31.509  35.855  1.00  0.00     0.172 HD
HETATM    7  C7  UNL     1      -1.489 -32.739  36.086  1.00  0.00     0.123 A 
HETATM    8  N5  UNL     1      -0.556 -33.535  35.542  1.00  0.00    -0.327 N 
ATOM      9  H5  UNL     1      -0.544 -33.635  34.528  1.00  0.00     0.169 HD
HETATM   10  C8  UNL     1       0.371 -34.213  36.259  1.00  0.00     0.119 A 
HETATM   11  N7  UNL     1       0.333 -34.066  37.588  1.00  0.00    -0.341 N 
ATOM     12  H7  UNL     1       1.021 -34.567  38.150  1.00  0.00     0.167 HD
HETATM   13  C14 UNL     1      -0.578 -33.280  38.229  1.00  0.00     0.047 A 
HETATM   14  C15 UNL     1      -0.568 -33.168  39.606  1.00  0.00     0.030 A 
HETATM   15  C16 UNL     1      -1.520 -32.357  40.183  1.00  0.00     0.002 A 
HETATM   16  C17 UNL     1      -2.443 -31.686  39.400  1.00  0.00     0.001 A 
HETATM   17  C18 UNL     1      -2.441 -31.808  38.036  1.00  0.00     0.017 A 
HETATM   18  C19 UNL     1      -1.491 -32.618  37.454  1.00  0.00     0.035 A 
ENDROOT
BRANCH  10  19
HETATM   19  C9  UNL     1       1.356 -35.061  35.576  1.00  0.00     0.023 A 
HETATM   20  C10 UNL     1       0.945 -36.251  35.042  1.00  0.00     0.018 A 
HETATM   21  C11 UNL     1       1.922 -37.023  34.401  1.00  0.00     0.018 A 
HETATM   22  C12 UNL     1       3.217 -36.625  34.304  1.00  0.00     0.087 A 
HETATM   23  N6  UNL     1       3.562 -35.443  34.849  1.00  0.00    -0.374 N 
HETATM   24  C13 UNL     1       2.675 -34.658  35.476  1.00  0.00     0.102 A 
ATOM     25  H6  UNL     1       4.532 -35.134  34.781  1.00  0.00     0.164 HD
ENDBRANCH  10  19
BRANCH   3  26
HETATM   26  C2  UNL     1      -2.214 -30.033  33.048  1.00  0.00     0.687 A 
HETATM   27  N2  UNL     1      -1.106 -29.905  32.292  1.00  0.00    -0.189 N 
HETATM   28  C3  UNL     1      -0.624 -28.624  32.392  1.00  0.00     0.084 A 
ATOM     29  H2  UNL     1      -0.688 -30.648  31.732  1.00  0.00     0.184 HD
HETATM   30  C4  UNL     1       0.399 -27.896  31.907  1.00  0.00     0.040 A 
HETATM   31  C6  UNL     1      -1.496 -28.003  33.238  1.00  0.00     0.117 A 
HETATM   32  C5  UNL     1       0.482 -26.586  32.304  1.00  0.00     0.054 A 
HETATM   33  S1  UNL     1      -0.866 -26.422  33.336  1.00  0.00    -0.081 SA
HETATM   34  N3  UNL     1      -2.480 -28.860  33.650  1.00  0.00    -0.183 N 
ATOM     35  H3  UNL     1      -3.253 -28.652  34.282  1.00  0.00     0.185 HD
ENDBRANCH   3  26
TORSDOF 2
ENDMDL
MODEL 5
REMARK VINA RESULT: -8.177056902      2.974      7.172
REMARK  2 active torsions:
REMARK  status: ('A' for Active; 'I' for Inactive)
REMARK       I    between atoms: C1_2  and  N1_3 
REMARK       I    between atoms: C1_2  and  N4_15 
REMARK    1  A    between atoms: N1_3  and  C2_5 
REMARK    2  A    between atoms: C8_20  and  C9_21 
ROOT
HETATM    1  O1  UNL     1      -2.940 -32.340  34.693  1.00  0.00    -0.246 OA
HETATM    2  C1  UNL     1      -2.459 -33.274  35.390  1.00  0.00     0.340 C 
HETATM    3  N1  UNL     1      -3.245 -34.049  36.283  1.00  0.00    -0.141 N 
ATOM      4  H1  UNL     1      -3.895 -34.749  35.929  1.00  0.00     0.189 HD
HETATM    5  N4  UNL     1      -1.068 -33.531  35.246  1.00  0.00    -0.293 N 
ATOM      6  H4  UNL     1      -0.716 -34.470  35.429  1.00  0.00     0.172 HD
HETATM    7  C7  UNL     1      -0.234 -32.604  34.887  1.00  0.00     0.123 A 
HETATM    8  N5  UNL     1      -0.612 -31.344  34.626  1.00  0.00    -0.327 N 
ATOM      9  H5  UNL     1      -1.601 -31.112  34.714  1.00  0.00     0.169 HD
HETATM   10  C8  UNL     1       0.240 -30.361  34.250  1.00  0.00     0.119 A 
HETATM   11  N7  UNL     1       1.531 -30.690  34.140  1.00  0.00    -0.341 N 
ATOM     12  H7  UNL     1       2.193 -29.967  33.859  1.00  0.00     0.167 HD
HETATM   13  C14 UNL     1       2.008 -31.944  34.385  1.00  0.00     0.047 A 
HETATM   14  C15 UNL     1       3.355 -32.226  34.253  1.00  0.00     0.030 A 
HETATM   15  C16 UNL     1       3.762 -33.515  34.516  1.00  0.00     0.002 A 
HETATM   16  C17 UNL     1       2.846 -34.479  34.898  1.00  0.00     0.001 A 
HETATM   17  C18 UNL     1       1.514 -34.185  35.023  1.00  0.00     0.017 A 
HETATM   18  C19 UNL     1       1.102 -32.897  34.760  1.00  0.00     0.035 A 
ENDROOT
BRANCH  10  19
HETATM   19  C9  UNL     1      -0.265 -29.008  33.986  1.00  0.00     0.023 A 
HETATM   20  C10 UNL     1       0.389 -28.227  33.074  1.00  0.00     0.018 A 
HETATM   21  C11 UNL     1      -0.133 -26.944  32.856  1.00  0.00     0.018 A 
HETATM   22  C12 UNL     1      -1.231 -26.485  33.510  1.00  0.00     0.087 A 
HETATM   23  N6  UNL     1      -1.833 -27.300  34.396  1.00  0.00    -0.374 N 
HETATM   24  C13 UNL     1      -1.384 -28.537  34.649  1.00  0.00     0.102 A 
ATOM     25  H6  UNL     1      -2.659 -26.965  34.891  1.00  0.00     0.164 HD
ENDBRANCH  10  19
BRANCH   3  26
HETATM   26  C2  UNL     1      -3.117 -33.845  37.575  1.00  0.00     0.687 A 
HETATM   27  N2  UNL     1      -2.247 -32.996  38.156  1.00  0.00    -0.189 N 
HETATM   28  C3  UNL     1      -2.395 -33.044  39.520  1.00  0.00     0.084 A 
ATOM     29  H2  UNL     1      -1.579 -32.406  37.658  1.00  0.00     0.184 HD
HETATM   30  C4  UNL     1      -1.854 -32.468  40.609  1.00  0.00     0.040 A 
HETATM   31  C6  UNL     1      -3.389 -33.957  39.717  1.00  0.00     0.117 A 
HETATM   32  C5  UNL     1      -2.347 -32.846  41.831  1.00  0.00     0.054 A 
HETATM   33  S1  UNL     1      -3.543 -33.989  41.414  1.00  0.00    -0.081 SA
HETATM   34  N3  UNL     1      -3.843 -34.458  38.526  1.00  0.00    -0.183 N 
ATOM     35  H3  UNL     1      -4.578 -35.152  38.390  1.00  0.00     0.185 HD
ENDBRANCH   3  26
TORSDOF 2
ENDMDL
