MODEL 1
REMARK VINA RESULT: -6.302702612      0.000      0.000
REMARK  3 active torsions:
REMARK  status: ('A' for Active; 'I' for Inactive)
REMARK    1  A    between atoms: C4_5  and  C5_6 
REMARK       I    between atoms: C5_6  and  N2_8 
REMARK    2  A    between atoms: N2_8  and  C6_9 
REMARK    3  A    between atoms: C14_17  and  O2_18 
ROOT
HETATM    1  C1  UNL     1      -4.359   7.168  12.756  1.00  0.00     0.060 C 
HETATM    2  C2  UNL     1      -3.517   6.809  11.564  1.00  0.00     0.025 C 
HETATM    3  C3  UNL     1      -2.810   5.561  11.634  1.00  0.00     0.095 C 
HETATM    4  N1  UNL     1      -2.242   4.535  11.714  1.00  0.00    -0.192 NA
HETATM    5  C4  UNL     1      -3.484   7.648  10.562  1.00  0.00     0.107 C 
ENDROOT
BRANCH   5   6
HETATM    6  C5  UNL     1      -2.660   7.373   9.309  1.00  0.00     0.312 C 
HETATM    7  O1  UNL     1      -1.910   8.310   9.000  1.00  0.00    -0.252 OA
HETATM    8  N2  UNL     1      -2.858   6.185   8.731  1.00  0.00    -0.406 NA
BRANCH   8   9
HETATM    9  C6  UNL     1      -3.061   4.943   8.121  1.00  0.00     0.171 C 
HETATM   10  C7  UNL     1      -4.489   4.524   8.325  1.00  0.00     0.044 C 
HETATM   11  C8  UNL     1      -5.051   3.559   7.356  1.00  0.00    -0.008 C 
HETATM   12  C9  UNL     1      -4.128   2.515   6.844  1.00  0.00     0.009 C 
HETATM   13  C16 UNL     1      -5.751   4.332   6.247  1.00  0.00     0.042 C 
HETATM   14  C10 UNL     1      -3.288   2.887   5.670  1.00  0.00    -0.011 C 
HETATM   15  C11 UNL     1      -2.172   3.843   6.026  1.00  0.00     0.012 C 
HETATM   16  C15 UNL     1      -4.135   3.532   4.617  1.00  0.00     0.042 C 
HETATM   17  C12 UNL     1      -2.703   5.101   6.651  1.00  0.00     0.025 C 
HETATM   18  C13 UNL     1      -3.787   5.708   5.839  1.00  0.00     0.045 C 
HETATM   19  C14 UNL     1      -4.753   4.772   5.201  1.00  0.00     0.059 C 
BRANCH  19  20
HETATM   20  O2  UNL     1      -5.478   5.477   4.243  1.00  0.00    -0.390 OA
ATOM     21  H2  UNL     1      -6.306   5.031   4.107  1.00  0.00     0.210 HD
ENDBRANCH  19  20
ENDBRANCH   8   9
ENDBRANCH   5   6
TORSDOF 3
ENDMDL
MODEL 2
REMARK VINA RESULT: -6.220717802      6.215      7.577
REMARK  3 active torsions:
REMARK  status: ('A' for Active; 'I' for Inactive)
REMARK    1  A    between atoms: C4_5  and  C5_6 
REMARK       I    between atoms: C5_6  and  N2_8 
REMARK    2  A    between atoms: N2_8  and  C6_9 
REMARK    3  A    between atoms: C14_17  and  O2_18 
ROOT
HETATM    1  C1  UNL     1      -0.531  -4.383  13.180  1.00  0.00     0.060 C 
HETATM    2  C2  UNL     1      -0.692  -2.894  13.046  1.00  0.00     0.025 C 
HETATM    3  C3  UNL     1      -0.005  -2.274  11.947  1.00  0.00     0.095 C 
HETATM    4  N1  UNL     1       0.566  -1.790  11.041  1.00  0.00    -0.192 NA
HETATM    5  C4  UNL     1      -1.433  -2.276  13.928  1.00  0.00     0.107 C 
ENDROOT
BRANCH   5   6
HETATM    6  C5  UNL     1      -1.657  -0.768  13.876  1.00  0.00     0.312 C 
HETATM    7  O1  UNL     1      -0.879  -0.133  14.601  1.00  0.00    -0.252 OA
HETATM    8  N2  UNL     1      -2.641  -0.353  13.073  1.00  0.00    -0.406 NA
BRANCH   8   9
HETATM    9  C6  UNL     1      -3.669   0.088  12.234  1.00  0.00     0.171 C 
HETATM   10  C7  UNL     1      -3.459   1.543  11.923  1.00  0.00     0.044 C 
HETATM   11  C8  UNL     1      -4.076   2.061  10.684  1.00  0.00    -0.008 C 
HETATM   12  C9  UNL     1      -5.396   1.495  10.310  1.00  0.00     0.009 C 
HETATM   13  C16 UNL     1      -3.053   1.982   9.559  1.00  0.00     0.042 C 
HETATM   14  C10 UNL     1      -5.378   0.228   9.523  1.00  0.00    -0.011 C 
HETATM   15  C11 UNL     1      -4.985  -0.974  10.354  1.00  0.00     0.012 C 
HETATM   16  C15 UNL     1      -4.411   0.344   8.386  1.00  0.00     0.042 C 
HETATM   17  C12 UNL     1      -3.637  -0.786  10.989  1.00  0.00     0.025 C 
HETATM   18  C13 UNL     1      -2.612  -0.369   9.999  1.00  0.00     0.045 C 
HETATM   19  C14 UNL     1      -3.042   0.598   8.953  1.00  0.00     0.059 C 
BRANCH  19  20
HETATM   20  O2  UNL     1      -2.074   0.619   7.951  1.00  0.00    -0.390 OA
ATOM     21  H2  UNL     1      -1.865   1.525   7.757  1.00  0.00     0.210 HD
ENDBRANCH  19  20
ENDBRANCH   8   9
ENDBRANCH   5   6
TORSDOF 3
ENDMDL
MODEL 3
REMARK VINA RESULT: -6.166881434      4.030      7.582
REMARK  3 active torsions:
REMARK  status: ('A' for Active; 'I' for Inactive)
REMARK    1  A    between atoms: C4_5  and  C5_6 
REMARK       I    between atoms: C5_6  and  N2_8 
REMARK    2  A    between atoms: N2_8  and  C6_9 
REMARK    3  A    between atoms: C14_17  and  O2_18 
ROOT
HETATM    1  C1  UNL     1      -5.848  -0.361   0.498  1.00  0.00     0.060 C 
HETATM    2  C2  UNL     1      -5.090   0.887   0.853  1.00  0.00     0.025 C 
HETATM    3  C3  UNL     1      -5.301   2.027   0.003  1.00  0.00     0.095 C 
HETATM    4  N1  UNL     1      -5.491   2.945  -0.705  1.00  0.00    -0.192 NA
HETATM    5  C4  UNL     1      -4.299   0.848   1.893  1.00  0.00     0.107 C 
ENDROOT
BRANCH   5   6
HETATM    6  C5  UNL     1      -3.488   2.062   2.333  1.00  0.00     0.312 C 
HETATM    7  O1  UNL     1      -2.514   2.291   1.603  1.00  0.00    -0.252 OA
HETATM    8  N2  UNL     1      -3.931   2.695   3.422  1.00  0.00    -0.406 NA
BRANCH   8   9
HETATM    9  C6  UNL     1      -4.392   3.363   4.562  1.00  0.00     0.171 C 
HETATM   10  C7  UNL     1      -5.023   2.366   5.492  1.00  0.00     0.044 C 
HETATM   11  C8  UNL     1      -5.086   2.731   6.924  1.00  0.00    -0.008 C 
HETATM   12  C9  UNL     1      -5.323   4.162   7.237  1.00  0.00     0.009 C 
HETATM   13  C16 UNL     1      -3.862   2.161   7.627  1.00  0.00     0.042 C 
HETATM   14  C10 UNL     1      -4.119   5.041   7.281  1.00  0.00    -0.011 C 
HETATM   15  C11 UNL     1      -3.553   5.331   5.909  1.00  0.00     0.012 C 
HETATM   16  C15 UNL     1      -3.044   4.399   8.102  1.00  0.00     0.042 C 
HETATM   17  C12 UNL     1      -3.194   4.066   5.183  1.00  0.00     0.025 C 
HETATM   18  C13 UNL     1      -2.348   3.172   6.014  1.00  0.00     0.045 C 
HETATM   19  C14 UNL     1      -2.680   3.088   7.462  1.00  0.00     0.059 C 
BRANCH  19  20
HETATM   20  O2  UNL     1      -1.614   2.481   8.122  1.00  0.00    -0.390 OA
ATOM     21  H2  UNL     1      -0.854   3.046   8.044  1.00  0.00     0.210 HD
ENDBRANCH  19  20
ENDBRANCH   8   9
ENDBRANCH   5   6
TORSDOF 3
ENDMDL
MODEL 4
REMARK VINA RESULT: -6.164258413      6.119      7.336
REMARK  3 active torsions:
REMARK  status: ('A' for Active; 'I' for Inactive)
REMARK    1  A    between atoms: C4_5  and  C5_6 
REMARK       I    between atoms: C5_6  and  N2_8 
REMARK    2  A    between atoms: N2_8  and  C6_9 
REMARK    3  A    between atoms: C14_17  and  O2_18 
ROOT
HETATM    1  C1  UNL     1      -0.531  -3.489  15.253  1.00  0.00     0.060 C 
HETATM    2  C2  UNL     1      -0.514  -2.455  14.162  1.00  0.00     0.025 C 
HETATM    3  C3  UNL     1      -0.467  -1.082  14.584  1.00  0.00     0.095 C 
HETATM    4  N1  UNL     1      -0.428   0.033  14.953  1.00  0.00    -0.192 NA
HETATM    5  C4  UNL     1      -0.547  -2.872  12.924  1.00  0.00     0.107 C 
ENDROOT
BRANCH   5   6
HETATM    6  C5  UNL     1      -0.534  -1.900  11.748  1.00  0.00     0.312 C 
HETATM    7  O1  UNL     1       0.596  -1.719  11.275  1.00  0.00    -0.252 OA
HETATM    8  N2  UNL     1      -1.719  -1.388  11.402  1.00  0.00    -0.406 NA
BRANCH   8   9
HETATM    9  C6  UNL     1      -2.956  -0.850  11.035  1.00  0.00     0.171 C 
HETATM   10  C7  UNL     1      -3.044   0.564  11.534  1.00  0.00     0.044 C 
HETATM   11  C8  UNL     1      -3.981   1.467  10.832  1.00  0.00    -0.008 C 
HETATM   12  C9  UNL     1      -5.246   0.865  10.343  1.00  0.00     0.009 C 
HETATM   13  C16 UNL     1      -3.219   2.215   9.748  1.00  0.00     0.042 C 
HETATM   14  C10 UNL     1      -5.199   0.213   9.003  1.00  0.00    -0.011 C 
HETATM   15  C11 UNL     1      -4.458  -1.106   9.017  1.00  0.00     0.012 C 
HETATM   16  C15 UNL     1      -4.524   1.115   8.017  1.00  0.00     0.042 C 
HETATM   17  C12 UNL     1      -3.052  -0.942   9.519  1.00  0.00     0.025 C 
HETATM   18  C13 UNL     1      -2.336   0.150   8.813  1.00  0.00     0.045 C 
HETATM   19  C14 UNL     1      -3.122   1.374   8.496  1.00  0.00     0.059 C 
BRANCH  19  20
HETATM   20  O2  UNL     1      -2.402   2.129   7.573  1.00  0.00    -0.390 OA
ATOM     21  H2  UNL     1      -1.577   2.381   7.972  1.00  0.00     0.210 HD
ENDBRANCH  19  20
ENDBRANCH   8   9
ENDBRANCH   5   6
TORSDOF 3
ENDMDL
MODEL 5
REMARK VINA RESULT: -6.148540245      1.495      2.120
REMARK  3 active torsions:
REMARK  status: ('A' for Active; 'I' for Inactive)
REMARK    1  A    between atoms: C4_5  and  C5_6 
REMARK       I    between atoms: C5_6  and  N2_8 
REMARK    2  A    between atoms: N2_8  and  C6_9 
REMARK    3  A    between atoms: C14_17  and  O2_18 
ROOT
HETATM    1  C1  UNL     1      -4.077   6.813  12.381  1.00  0.00     0.060 C 
HETATM    2  C2  UNL     1      -3.492   6.634  11.008  1.00  0.00     0.025 C 
HETATM    3  C3  UNL     1      -3.135   7.834  10.303  1.00  0.00     0.095 C 
HETATM    4  N1  UNL     1      -2.850   8.829   9.747  1.00  0.00    -0.192 NA
HETATM    5  C4  UNL     1      -3.354   5.415  10.556  1.00  0.00     0.107 C 
ENDROOT
BRANCH   5   6
HETATM    6  C5  UNL     1      -2.770   5.130   9.176  1.00  0.00     0.312 C 
HETATM    7  O1  UNL     1      -1.683   5.690   8.979  1.00  0.00    -0.252 OA
HETATM    8  N2  UNL     1      -3.499   4.335   8.388  1.00  0.00    -0.406 NA
BRANCH   8   9
HETATM    9  C6  UNL     1      -4.257   3.502   7.559  1.00  0.00     0.171 C 
HETATM   10  C7  UNL     1      -5.714   3.692   7.873  1.00  0.00     0.044 C 
HETATM   11  C8  UNL     1      -6.681   3.345   6.809  1.00  0.00    -0.008 C 
HETATM   12  C9  UNL     1      -6.341   2.180   5.954  1.00  0.00     0.009 C 
HETATM   13  C16 UNL     1      -6.998   4.600   6.009  1.00  0.00     0.042 C 
HETATM   14  C10 UNL     1      -5.464   2.451   4.779  1.00  0.00    -0.011 C 
HETATM   15  C11 UNL     1      -4.026   2.714   5.168  1.00  0.00     0.012 C 
HETATM   16  C15 UNL     1      -5.968   3.644   4.026  1.00  0.00     0.042 C 
HETATM   17  C12 UNL     1      -3.916   3.868   6.123  1.00  0.00     0.025 C 
HETATM   18  C13 UNL     1      -4.641   5.066   5.628  1.00  0.00     0.045 C 
HETATM   19  C14 UNL     1      -5.944   4.830   4.950  1.00  0.00     0.059 C 
BRANCH  19  20
HETATM   20  O2  UNL     1      -6.309   5.998   4.285  1.00  0.00    -0.390 OA
ATOM     21  H2  UNL     1      -6.721   5.757   3.463  1.00  0.00     0.210 HD
ENDBRANCH  19  20
ENDBRANCH   8   9
ENDBRANCH   5   6
TORSDOF 3
ENDMDL
