MODEL 1
REMARK VINA RESULT: -6.680610017      0.000      0.000
REMARK  4 active torsions:
REMARK  status: ('A' for Active; 'I' for Inactive)
REMARK    1  A    between atoms: C1_2  and  C2_4 
REMARK    2  A    between atoms: N1_8  and  C6_9 
REMARK    3  A    between atoms: C6_9  and  C7_14 
REMARK    4  A    between atoms: N2_10  and  O3_12 
ROOT
HETATM    1  C6  UNL     1      -2.698   4.181   8.567  1.00  0.00     0.114 C 
HETATM    2  N2  UNL     1      -1.958   3.186   8.233  1.00  0.00    -0.256 N 
ATOM      3  H2  UNL     1      -1.024   3.165   8.640  1.00  0.00     0.195 HD
ENDROOT
BRANCH   1   4
HETATM    4  N1  UNL     1      -4.001   4.315   8.068  1.00  0.00    -0.367 N 
HETATM    5  C5  UNL     1      -5.114   4.008   8.932  1.00  0.00     0.124 C 
HETATM    6  C4  UNL     1      -5.946   2.975   8.190  1.00  0.00     0.021 C 
HETATM    7  C3  UNL     1      -6.501   3.648   6.985  1.00  0.00     0.019 C 
HETATM    8  C2  UNL     1      -5.532   4.362   6.117  1.00  0.00     0.105 C 
HETATM    9  C14 UNL     1      -4.234   4.750   6.726  1.00  0.00     0.139 C 
BRANCH   8  10
HETATM   10  C1  UNL     1      -5.303   3.540   4.880  1.00  0.00     0.178 C 
HETATM   11  O1  UNL     1      -6.163   3.522   3.967  1.00  0.00    -0.648 OA
HETATM   12  O2  UNL     1      -4.121   2.827   4.816  1.00  0.00    -0.648 OA
ENDBRANCH   8  10
ENDBRANCH   1   4
BRANCH   1  13
HETATM   13  C7  UNL     1      -2.099   5.187   9.535  1.00  0.00     0.124 C 
HETATM   14  C8  UNL     1      -2.670   4.916  10.965  1.00  0.00     0.050 C 
HETATM   15  C9  UNL     1      -3.682   5.984  11.373  1.00  0.00    -0.029 C 
HETATM   16  C10 UNL     1      -3.363   7.377  11.450  1.00  0.00    -0.030 C 
HETATM   17  C11 UNL     1      -3.536   8.340  10.276  1.00  0.00     0.038 C 
HETATM   18  C12 UNL     1      -2.691   7.887   9.034  1.00  0.00     0.084 C 
HETATM   19  C13 UNL     1      -2.371   6.538   9.254  1.00  0.00    -0.170 C 
ENDBRANCH   1  13
BRANCH   2  20
HETATM   20  O3  UNL     1      -2.267   2.170   7.412  1.00  0.00    -0.288 OA
ATOM     21  H3  UNL     1      -2.049   2.079   6.491  1.00  0.00     0.244 HD
ENDBRANCH   2  20
TORSDOF 4
ENDMDL
MODEL 2
REMARK VINA RESULT: -6.518868324      2.472      5.440
REMARK  4 active torsions:
REMARK  status: ('A' for Active; 'I' for Inactive)
REMARK    1  A    between atoms: C1_2  and  C2_4 
REMARK    2  A    between atoms: N1_8  and  C6_9 
REMARK    3  A    between atoms: C6_9  and  C7_14 
REMARK    4  A    between atoms: N2_10  and  O3_12 
ROOT
HETATM    1  C6  UNL     1      -2.894   3.871   7.531  1.00  0.00     0.114 C 
HETATM    2  N2  UNL     1      -2.177   2.869   7.170  1.00  0.00    -0.256 N 
ATOM      3  H2  UNL     1      -2.313   2.540   6.215  1.00  0.00     0.195 HD
ENDROOT
BRANCH   1   4
HETATM    4  N1  UNL     1      -2.795   4.408   8.821  1.00  0.00    -0.367 N 
HETATM    5  C5  UNL     1      -3.360   3.675   9.928  1.00  0.00     0.124 C 
HETATM    6  C4  UNL     1      -4.313   4.636  10.620  1.00  0.00     0.021 C 
HETATM    7  C3  UNL     1      -3.485   5.729  11.198  1.00  0.00     0.019 C 
HETATM    8  C2  UNL     1      -2.536   6.399  10.277  1.00  0.00     0.105 C 
HETATM    9  C14 UNL     1      -2.144   5.661   9.048  1.00  0.00     0.139 C 
BRANCH   8  10
HETATM   10  C1  UNL     1      -3.090   7.750   9.919  1.00  0.00     0.178 C 
HETATM   11  O1  UNL     1      -3.950   8.293  10.653  1.00  0.00    -0.648 OA
HETATM   12  O2  UNL     1      -2.606   8.335   8.765  1.00  0.00    -0.648 OA
ENDBRANCH   8  10
ENDBRANCH   1   4
BRANCH   1  13
HETATM   13  C7  UNL     1      -3.837   4.449   6.488  1.00  0.00     0.124 C 
HETATM   14  C8  UNL     1      -5.312   4.187   6.939  1.00  0.00     0.050 C 
HETATM   15  C9  UNL     1      -5.966   3.094   6.097  1.00  0.00    -0.029 C 
HETATM   16  C10 UNL     1      -6.110   3.181   4.675  1.00  0.00    -0.030 C 
HETATM   17  C11 UNL     1      -5.066   2.649   3.695  1.00  0.00     0.038 C 
HETATM   18  C12 UNL     1      -3.671   3.332   3.917  1.00  0.00     0.084 C 
HETATM   19  C13 UNL     1      -3.720   3.908   5.195  1.00  0.00    -0.170 C 
ENDBRANCH   1  13
BRANCH   2  20
HETATM   20  O3  UNL     1      -1.270   2.201   7.901  1.00  0.00    -0.288 OA
ATOM     21  H3  UNL     1      -0.325   2.200   7.796  1.00  0.00     0.244 HD
ENDBRANCH   2  20
TORSDOF 4
ENDMDL
MODEL 3
REMARK VINA RESULT: -6.487265862      2.218      5.879
REMARK  4 active torsions:
REMARK  status: ('A' for Active; 'I' for Inactive)
REMARK    1  A    between atoms: C1_2  and  C2_4 
REMARK    2  A    between atoms: N1_8  and  C6_9 
REMARK    3  A    between atoms: C6_9  and  C7_14 
REMARK    4  A    between atoms: N2_10  and  O3_12 
ROOT
HETATM    1  C6  UNL     1      -3.080   3.879   6.600  1.00  0.00     0.114 C 
HETATM    2  N2  UNL     1      -2.130   3.015   6.580  1.00  0.00    -0.256 N 
ATOM      3  H2  UNL     1      -1.935   2.583   5.678  1.00  0.00     0.195 HD
ENDROOT
BRANCH   1   4
HETATM    4  N1  UNL     1      -3.438   4.536   7.784  1.00  0.00    -0.367 N 
HETATM    5  C5  UNL     1      -2.815   5.799   8.098  1.00  0.00     0.124 C 
HETATM    6  C4  UNL     1      -2.210   5.633   9.482  1.00  0.00     0.021 C 
HETATM    7  C3  UNL     1      -3.341   5.457  10.433  1.00  0.00     0.019 C 
HETATM    8  C2  UNL     1      -4.336   4.411  10.093  1.00  0.00     0.105 C 
HETATM    9  C14 UNL     1      -4.405   3.973   8.675  1.00  0.00     0.139 C 
BRANCH   8  10
HETATM   10  C1  UNL     1      -4.112   3.228  10.993  1.00  0.00     0.178 C 
HETATM   11  O1  UNL     1      -2.945   2.862  11.275  1.00  0.00    -0.648 OA
HETATM   12  O2  UNL     1      -5.239   2.590  11.475  1.00  0.00    -0.648 OA
ENDBRANCH   8  10
ENDBRANCH   1   4
BRANCH   1  13
HETATM   13  C7  UNL     1      -3.778   4.161   5.280  1.00  0.00     0.124 C 
HETATM   14  C8  UNL     1      -5.251   3.642   5.366  1.00  0.00     0.050 C 
HETATM   15  C9  UNL     1      -5.442   2.370   4.543  1.00  0.00    -0.029 C 
HETATM   16  C10 UNL     1      -5.195   2.304   3.134  1.00  0.00    -0.030 C 
HETATM   17  C11 UNL     1      -3.842   1.915   2.541  1.00  0.00     0.038 C 
HETATM   18  C12 UNL     1      -2.706   2.885   3.019  1.00  0.00     0.084 C 
HETATM   19  C13 UNL     1      -3.211   3.547   4.149  1.00  0.00    -0.170 C 
ENDBRANCH   1  13
BRANCH   2  20
HETATM   20  O3  UNL     1      -1.363   2.612   7.605  1.00  0.00    -0.288 OA
ATOM     21  H3  UNL     1      -1.394   2.909   8.508  1.00  0.00     0.244 HD
ENDBRANCH   2  20
TORSDOF 4
ENDMDL
MODEL 4
REMARK VINA RESULT: -6.410614018      2.383      3.060
REMARK  4 active torsions:
REMARK  status: ('A' for Active; 'I' for Inactive)
REMARK    1  A    between atoms: C1_2  and  C2_4 
REMARK    2  A    between atoms: N1_8  and  C6_9 
REMARK    3  A    between atoms: C6_9  and  C7_14 
REMARK    4  A    between atoms: N2_10  and  O3_12 
ROOT
HETATM    1  C6  UNL     1      -4.571   4.545  11.201  1.00  0.00     0.114 C 
HETATM    2  N2  UNL     1      -5.542   4.773  12.009  1.00  0.00    -0.256 N 
ATOM      3  H2  UNL     1      -5.412   5.547  12.660  1.00  0.00     0.195 HD
ENDROOT
BRANCH   1   4
HETATM    4  N1  UNL     1      -4.637   3.506  10.263  1.00  0.00    -0.367 N 
HETATM    5  C5  UNL     1      -4.132   2.205  10.626  1.00  0.00     0.124 C 
HETATM    6  C4  UNL     1      -3.114   1.839   9.559  1.00  0.00     0.021 C 
HETATM    7  C3  UNL     1      -3.862   1.677   8.282  1.00  0.00     0.019 C 
HETATM    8  C2  UNL     1      -4.755   2.794   7.890  1.00  0.00     0.105 C 
HETATM    9  C14 UNL     1      -5.194   3.722   8.963  1.00  0.00     0.139 C 
BRANCH   8  10
HETATM   10  C1  UNL     1      -4.102   3.559   6.774  1.00  0.00     0.178 C 
HETATM   11  O1  UNL     1      -4.587   4.650   6.388  1.00  0.00    -0.648 OA
HETATM   12  O2  UNL     1      -2.967   3.001   6.217  1.00  0.00    -0.648 OA
ENDBRANCH   8  10
ENDBRANCH   1   4
BRANCH   1  13
HETATM   13  C7  UNL     1      -3.365   5.463  11.302  1.00  0.00     0.124 C 
HETATM   14  C8  UNL     1      -3.783   6.768  12.056  1.00  0.00     0.050 C 
HETATM   15  C9  UNL     1      -3.891   7.954  11.101  1.00  0.00    -0.029 C 
HETATM   16  C10 UNL     1      -2.796   8.421  10.305  1.00  0.00    -0.030 C 
HETATM   17  C11 UNL     1      -2.518   7.916   8.890  1.00  0.00     0.038 C 
HETATM   18  C12 UNL     1      -2.290   6.364   8.868  1.00  0.00     0.084 C 
HETATM   19  C13 UNL     1      -2.812   5.879  10.077  1.00  0.00    -0.170 C 
ENDBRANCH   1  13
BRANCH   2  20
HETATM   20  O3  UNL     1      -6.708   4.114  12.102  1.00  0.00    -0.288 OA
ATOM     21  H3  UNL     1      -6.845   3.174  12.126  1.00  0.00     0.244 HD
ENDBRANCH   2  20
TORSDOF 4
ENDMDL
MODEL 5
REMARK VINA RESULT: -6.370126359      1.885      3.240
REMARK  4 active torsions:
REMARK  status: ('A' for Active; 'I' for Inactive)
REMARK    1  A    between atoms: C1_2  and  C2_4 
REMARK    2  A    between atoms: N1_8  and  C6_9 
REMARK    3  A    between atoms: C6_9  and  C7_14 
REMARK    4  A    between atoms: N2_10  and  O3_12 
ROOT
HETATM    1  C6  UNL     1      -3.097   4.908   7.737  1.00  0.00     0.114 C 
HETATM    2  N2  UNL     1      -3.044   5.529   6.615  1.00  0.00    -0.256 N 
ATOM      3  H2  UNL     1      -2.506   6.396   6.607  1.00  0.00     0.195 HD
ENDROOT
BRANCH   1   4
HETATM    4  N1  UNL     1      -3.808   3.708   7.869  1.00  0.00    -0.367 N 
HETATM    5  C5  UNL     1      -5.248   3.752   7.932  1.00  0.00     0.124 C 
HETATM    6  C4  UNL     1      -5.632   3.025   9.210  1.00  0.00     0.021 C 
HETATM    7  C3  UNL     1      -5.248   1.598   9.030  1.00  0.00     0.019 C 
HETATM    8  C2  UNL     1      -3.853   1.337   8.597  1.00  0.00     0.105 C 
HETATM    9  C14 UNL     1      -3.126   2.452   7.939  1.00  0.00     0.139 C 
BRANCH   8  10
HETATM   10  C1  UNL     1      -3.073   0.830   9.777  1.00  0.00     0.178 C 
HETATM   11  O1  UNL     1      -3.116   1.443  10.871  1.00  0.00    -0.648 OA
HETATM   12  O2  UNL     1      -2.329  -0.318   9.586  1.00  0.00    -0.648 OA
ENDBRANCH   8  10
ENDBRANCH   1   4
BRANCH   1  13
HETATM   13  C7  UNL     1      -2.343   5.528   8.902  1.00  0.00     0.124 C 
HETATM   14  C8  UNL     1      -2.918   4.958  10.239  1.00  0.00     0.050 C 
HETATM   15  C9  UNL     1      -3.762   5.998  10.972  1.00  0.00    -0.029 C 
HETATM   16  C10 UNL     1      -3.248   7.265  11.397  1.00  0.00    -0.030 C 
HETATM   17  C11 UNL     1      -3.307   8.523  10.531  1.00  0.00     0.038 C 
HETATM   18  C12 UNL     1      -2.559   8.316   9.168  1.00  0.00     0.084 C 
HETATM   19  C13 UNL     1      -2.427   6.929   9.004  1.00  0.00    -0.170 C 
ENDBRANCH   1  13
BRANCH   2  20
HETATM   20  O3  UNL     1      -3.610   5.176   5.451  1.00  0.00    -0.288 OA
ATOM     21  H3  UNL     1      -3.591   5.648   4.626  1.00  0.00     0.244 HD
ENDBRANCH   2  20
TORSDOF 4
ENDMDL
