MODEL 1
REMARK VINA RESULT: -5.227932512      0.000      0.000
REMARK  4 active torsions:
REMARK  status: ('A' for Active; 'I' for Inactive)
REMARK    1  A    between atoms: C2_2  and  C4_4 
REMARK    2  A    between atoms: C5_6  and  C7_8 
REMARK    3  A    between atoms: C11_12  and  O2_13 
REMARK    4  A    between atoms: C16_19  and  O3_20 
ROOT
HETATM    1  C4  UNL     1      -5.177   2.760   8.077  1.00  0.00     0.097 C 
HETATM    2  O1  UNL     1      -4.657   3.996   7.873  1.00  0.00    -0.366 OA
HETATM    3  C5  UNL     1      -3.326   4.188   7.782  1.00  0.00     0.065 C 
HETATM    4  C6  UNL     1      -2.833   4.375   6.341  1.00  0.00     0.046 C 
HETATM    5  C10 UNL     1      -2.431   3.186   8.428  1.00  0.00     0.078 C 
HETATM    6  C11 UNL     1      -2.927   1.785   8.377  1.00  0.00     0.089 C 
HETATM    7  C12 UNL     1      -3.256   1.398   9.830  1.00  0.00     0.041 C 
HETATM    8  C13 UNL     1      -4.255   2.376  10.393  1.00  0.00     0.010 C 
HETATM    9  C14 UNL     1      -5.477   2.356   9.482  1.00  0.00     0.019 C 
HETATM   10  C15 UNL     1      -6.614   3.014  10.172  1.00  0.00     0.013 C 
HETATM   11  C16 UNL     1      -4.179   1.666   7.591  1.00  0.00     0.188 C 
ENDROOT
BRANCH   3  12
HETATM   12  C7  UNL     1      -3.013   5.541   8.454  1.00  0.00     0.020 A 
HETATM   13  C8  UNL     1      -3.560   5.631   9.881  1.00  0.00     0.008 A 
HETATM   14  C9  UNL     1      -2.100   5.604   9.589  1.00  0.00     0.008 A 
ENDBRANCH   3  12
BRANCH   1  15
HETATM   15  C2  UNL     1      -6.427   2.631   7.232  1.00  0.00     0.015 C 
HETATM   16  C1  UNL     1      -7.235   3.875   7.081  1.00  0.00     0.012 C 
HETATM   17  C3  UNL     1      -6.169   2.075   5.850  1.00  0.00     0.012 C 
ENDBRANCH   1  15
BRANCH   6  18
HETATM   18  O2  UNL     1      -1.934   0.921   7.967  1.00  0.00    -0.387 OA
ATOM     19  H2  UNL     1      -2.140   0.025   8.205  1.00  0.00     0.210 HD
ENDBRANCH   6  18
BRANCH  11  20
HETATM   20  O3  UNL     1      -4.751   0.431   7.883  1.00  0.00    -0.389 OA
ATOM     21  H3  UNL     1      -4.169  -0.235   7.538  1.00  0.00     0.210 HD
ENDBRANCH  11  20
TORSDOF 4
ENDMDL
MODEL 2
REMARK VINA RESULT: -5.002697216      1.417      4.036
REMARK  4 active torsions:
REMARK  status: ('A' for Active; 'I' for Inactive)
REMARK    1  A    between atoms: C2_2  and  C4_4 
REMARK    2  A    between atoms: C5_6  and  C7_8 
REMARK    3  A    between atoms: C11_12  and  O2_13 
REMARK    4  A    between atoms: C16_19  and  O3_20 
ROOT
HETATM    1  C4  UNL     1      -3.640   3.173   8.748  1.00  0.00     0.097 C 
HETATM    2  O1  UNL     1      -4.976   3.075   8.535  1.00  0.00    -0.366 OA
HETATM    3  C5  UNL     1      -5.483   3.023   7.287  1.00  0.00     0.065 C 
HETATM    4  C6  UNL     1      -5.894   1.610   6.853  1.00  0.00     0.046 C 
HETATM    5  C10 UNL     1      -4.672   3.607   6.181  1.00  0.00     0.078 C 
HETATM    6  C11 UNL     1      -3.202   3.440   6.331  1.00  0.00     0.089 C 
HETATM    7  C12 UNL     1      -2.635   4.852   6.559  1.00  0.00     0.041 C 
HETATM    8  C13 UNL     1      -3.303   5.470   7.761  1.00  0.00     0.010 C 
HETATM    9  C14 UNL     1      -3.067   4.538   8.944  1.00  0.00     0.019 C 
HETATM   10  C15 UNL     1      -3.383   5.255  10.204  1.00  0.00     0.013 C 
HETATM   11  C16 UNL     1      -2.854   2.623   7.520  1.00  0.00     0.188 C 
ENDROOT
BRANCH   3  12
HETATM   12  C7  UNL     1      -6.815   3.803   7.302  1.00  0.00     0.020 A 
HETATM   13  C8  UNL     1      -7.106   4.498   5.970  1.00  0.00     0.008 A 
HETATM   14  C9  UNL     1      -7.932   3.366   6.475  1.00  0.00     0.008 A 
ENDBRANCH   3  12
BRANCH   1  15
HETATM   15  C2  UNL     1      -3.288   2.298   9.933  1.00  0.00     0.015 C 
HETATM   16  C1  UNL     1      -4.238   2.353  11.082  1.00  0.00     0.012 C 
HETATM   17  C3  UNL     1      -3.081   0.844   9.572  1.00  0.00     0.012 C 
ENDBRANCH   1  15
BRANCH   6  18
HETATM   18  O2  UNL     1      -2.632   2.982   5.163  1.00  0.00    -0.387 OA
ATOM     19  H2  UNL     1      -1.770   3.359   5.032  1.00  0.00     0.210 HD
ENDBRANCH   6  18
BRANCH  11  20
HETATM   20  O3  UNL     1      -1.501   2.808   7.784  1.00  0.00    -0.389 OA
ATOM     21  H3  UNL     1      -1.234   2.113   8.374  1.00  0.00     0.210 HD
ENDBRANCH  11  20
TORSDOF 4
ENDMDL
MODEL 3
REMARK VINA RESULT: -4.927139344      1.476      3.924
REMARK  4 active torsions:
REMARK  status: ('A' for Active; 'I' for Inactive)
REMARK    1  A    between atoms: C2_2  and  C4_4 
REMARK    2  A    between atoms: C5_6  and  C7_8 
REMARK    3  A    between atoms: C11_12  and  O2_13 
REMARK    4  A    between atoms: C16_19  and  O3_20 
ROOT
HETATM    1  C4  UNL     1      -3.615   2.595   8.837  1.00  0.00     0.097 C 
HETATM    2  O1  UNL     1      -4.954   2.502   8.643  1.00  0.00    -0.366 OA
HETATM    3  C5  UNL     1      -5.509   2.786   7.448  1.00  0.00     0.065 C 
HETATM    4  C6  UNL     1      -5.888   1.539   6.638  1.00  0.00     0.046 C 
HETATM    5  C10 UNL     1      -4.764   3.698   6.533  1.00  0.00     0.078 C 
HETATM    6  C11 UNL     1      -3.285   3.560   6.587  1.00  0.00     0.089 C 
HETATM    7  C12 UNL     1      -2.759   4.872   7.195  1.00  0.00     0.041 C 
HETATM    8  C13 UNL     1      -3.398   5.091   8.542  1.00  0.00     0.010 C 
HETATM    9  C14 UNL     1      -3.083   3.871   9.400  1.00  0.00     0.019 C 
HETATM   10  C15 UNL     1      -3.372   4.184  10.821  1.00  0.00     0.013 C 
HETATM   11  C16 UNL     1      -2.861   2.455   7.481  1.00  0.00     0.188 C 
ENDROOT
BRANCH   3  12
HETATM   12  C7  UNL     1      -6.865   3.469   7.725  1.00  0.00     0.020 A 
HETATM   13  C8  UNL     1      -8.028   2.474   7.771  1.00  0.00     0.008 A 
HETATM   14  C9  UNL     1      -7.571   3.220   8.976  1.00  0.00     0.008 A 
ENDBRANCH   3  12
BRANCH   1  15
HETATM   15  C2  UNL     1      -3.185   1.435   9.710  1.00  0.00     0.015 C 
HETATM   16  C1  UNL     1      -4.113   1.086  10.825  1.00  0.00     0.012 C 
HETATM   17  C3  UNL     1      -2.895   0.169   8.935  1.00  0.00     0.012 C 
ENDBRANCH   1  15
BRANCH   6  18
HETATM   18  O2  UNL     1      -2.746   3.482   5.321  1.00  0.00    -0.387 OA
ATOM     19  H2  UNL     1      -2.607   2.578   5.063  1.00  0.00     0.210 HD
ENDBRANCH   6  18
BRANCH  11  20
HETATM   20  O3  UNL     1      -1.505   2.617   7.748  1.00  0.00    -0.389 OA
ATOM     21  H3  UNL     1      -1.410   2.659   8.692  1.00  0.00     0.210 HD
ENDBRANCH  11  20
TORSDOF 4
ENDMDL
MODEL 4
REMARK VINA RESULT: -4.668819319      1.378      2.713
REMARK  4 active torsions:
REMARK  status: ('A' for Active; 'I' for Inactive)
REMARK    1  A    between atoms: C2_2  and  C4_4 
REMARK    2  A    between atoms: C5_6  and  C7_8 
REMARK    3  A    between atoms: C11_12  and  O2_13 
REMARK    4  A    between atoms: C16_19  and  O3_20 
ROOT
HETATM    1  C4  UNL     1      -3.997   3.865   7.912  1.00  0.00     0.097 C 
HETATM    2  O1  UNL     1      -3.780   5.037   8.559  1.00  0.00    -0.366 OA
HETATM    3  C5  UNL     1      -3.390   5.061   9.849  1.00  0.00     0.065 C 
HETATM    4  C6  UNL     1      -1.894   5.351  10.029  1.00  0.00     0.046 C 
HETATM    5  C10 UNL     1      -3.717   3.880  10.698  1.00  0.00     0.078 C 
HETATM    6  C11 UNL     1      -3.667   2.573   9.992  1.00  0.00     0.089 C 
HETATM    7  C12 UNL     1      -5.119   2.064   9.940  1.00  0.00     0.041 C 
HETATM    8  C13 UNL     1      -5.985   3.091   9.257  1.00  0.00     0.010 C 
HETATM    9  C14 UNL     1      -5.394   3.341   7.874  1.00  0.00     0.019 C 
HETATM   10  C15 UNL     1      -6.388   4.057   7.038  1.00  0.00     0.013 C 
HETATM   11  C16 UNL     1      -3.196   2.714   8.592  1.00  0.00     0.188 C 
ENDROOT
BRANCH   3  12
HETATM   12  C7  UNL     1      -4.079   6.272  10.512  1.00  0.00     0.020 A 
HETATM   13  C8  UNL     1      -3.648   6.472  11.967  1.00  0.00     0.008 A 
HETATM   14  C9  UNL     1      -3.300   7.443  10.893  1.00  0.00     0.008 A 
ENDBRANCH   3  12
BRANCH   1  15
HETATM   15  C2  UNL     1      -3.468   4.003   6.499  1.00  0.00     0.015 C 
HETATM   16  C1  UNL     1      -3.567   5.367   5.903  1.00  0.00     0.012 C 
HETATM   17  C3  UNL     1      -2.040   3.530   6.339  1.00  0.00     0.012 C 
ENDBRANCH   1  15
BRANCH   6  18
HETATM   18  O2  UNL     1      -2.960   1.641  10.720  1.00  0.00    -0.387 OA
ATOM     19  H2  UNL     1      -3.115   0.762  10.394  1.00  0.00     0.210 HD
ENDBRANCH   6  18
BRANCH  11  20
HETATM   20  O3  UNL     1      -3.511   1.540   7.915  1.00  0.00    -0.389 OA
ATOM     21  H3  UNL     1      -3.282   0.818   8.487  1.00  0.00     0.210 HD
ENDBRANCH  11  20
TORSDOF 4
ENDMDL
MODEL 5
REMARK VINA RESULT: -4.574819311      1.424      3.674
REMARK  4 active torsions:
REMARK  status: ('A' for Active; 'I' for Inactive)
REMARK    1  A    between atoms: C2_2  and  C4_4 
REMARK    2  A    between atoms: C5_6  and  C7_8 
REMARK    3  A    between atoms: C11_12  and  O2_13 
REMARK    4  A    between atoms: C16_19  and  O3_20 
ROOT
HETATM    1  C4  UNL     1      -3.942   2.131   8.368  1.00  0.00     0.097 C 
HETATM    2  O1  UNL     1      -5.157   2.256   7.781  1.00  0.00    -0.366 OA
HETATM    3  C5  UNL     1      -5.374   3.161   6.806  1.00  0.00     0.065 C 
HETATM    4  C6  UNL     1      -5.398   2.551   5.399  1.00  0.00     0.046 C 
HETATM    5  C10 UNL     1      -4.483   4.355   6.755  1.00  0.00     0.078 C 
HETATM    6  C11 UNL     1      -3.073   4.097   7.151  1.00  0.00     0.089 C 
HETATM    7  C12 UNL     1      -2.857   4.857   8.471  1.00  0.00     0.041 C 
HETATM    8  C13 UNL     1      -3.868   4.390   9.487  1.00  0.00     0.010 C 
HETATM    9  C14 UNL     1      -3.704   2.882   9.636  1.00  0.00     0.019 C 
HETATM   10  C15 UNL     1      -4.409   2.431  10.861  1.00  0.00     0.013 C 
HETATM   11  C16 UNL     1      -2.825   2.660   7.419  1.00  0.00     0.188 C 
ENDROOT
BRANCH   3  12
HETATM   12  C7  UNL     1      -6.807   3.702   6.995  1.00  0.00     0.020 A 
HETATM   13  C8  UNL     1      -7.852   2.586   7.079  1.00  0.00     0.008 A 
HETATM   14  C9  UNL     1      -7.525   3.459   8.240  1.00  0.00     0.008 A 
ENDBRANCH   3  12
BRANCH   1  15
HETATM   15  C2  UNL     1      -3.677   0.657   8.594  1.00  0.00     0.015 C 
HETATM   16  C1  UNL     1      -3.004   0.311   9.879  1.00  0.00     0.012 C 
HETATM   17  C3  UNL     1      -4.913  -0.206   8.470  1.00  0.00     0.012 C 
ENDBRANCH   1  15
BRANCH   6  18
HETATM   18  O2  UNL     1      -2.193   4.648   6.244  1.00  0.00    -0.387 OA
ATOM     19  H2  UNL     1      -1.293   4.481   6.495  1.00  0.00     0.210 HD
ENDBRANCH   6  18
BRANCH  11  20
HETATM   20  O3  UNL     1      -1.620   2.555   8.107  1.00  0.00    -0.389 OA
ATOM     21  H3  UNL     1      -1.509   3.358   8.601  1.00  0.00     0.210 HD
ENDBRANCH  11  20
TORSDOF 4
ENDMDL
