MODEL 1
REMARK VINA RESULT: -8.399461096      0.000      0.000
REMARK  10 active torsions:
REMARK  status: ('A' for Active; 'I' for Inactive)
REMARK    1  A    between atoms: O1_2  and  C2_3 
REMARK    2  A    between atoms: C2_3  and  O2_4 
REMARK    3  A    between atoms: C3_6  and  N2_9 
REMARK    4  A    between atoms: N2_9  and  O3_10 
REMARK    5  A    between atoms: O3_10  and  C5_11 
REMARK    6  A    between atoms: C5_11  and  C6_12 
REMARK    7  A    between atoms: C6_12  and  O4_13 
REMARK    8  A    between atoms: C6_12  and  C7_15 
REMARK    9  A    between atoms: C7_15  and  N3_16 
REMARK   10  A    between atoms: N3_16  and  N4_18 
ROOT
HETATM    1  C2  UNL     1       2.091  13.813  17.591  1.00  0.00     0.234 C 
HETATM    2  C3  UNL     1       1.734  12.546  18.188  1.00  0.00     0.276 C 
HETATM    3  C4  UNL     1       0.275  12.366  18.475  1.00  0.00     0.141 C 
HETATM    4  N1  UNL     1      -0.825  12.207  18.718  1.00  0.00    -0.188 NA
ENDROOT
BRANCH   2   5
HETATM    5  N2  UNL     1       2.430  11.630  18.406  1.00  0.00    -0.265 NA
BRANCH   5   6
HETATM    6  O3  UNL     1       3.247  10.615  18.315  1.00  0.00    -0.205 OA
BRANCH   6   7
HETATM    7  C5  UNL     1       3.964  10.313  19.629  1.00  0.00     0.254 C 
BRANCH   7   8
HETATM    8  C6  UNL     1       5.293  11.016  19.405  1.00  0.00     0.184 C 
BRANCH   8   9
HETATM    9  O4  UNL     1       6.233  10.129  20.134  1.00  0.00    -0.388 OA
ATOM     10  H4  UNL     1       6.856   9.902  19.452  1.00  0.00     0.210 HD
ENDBRANCH   8   9
BRANCH   8  11
HETATM   11  C7  UNL     1       5.756  10.798  18.000  1.00  0.00     0.108 C 
BRANCH  11  12
HETATM   12  N3  UNL     1       6.568   9.670  17.870  1.00  0.00    -0.330 N 
ATOM     13  H3  UNL     1       7.512   9.640  18.254  1.00  0.00     0.179 HD
BRANCH  12  14
HETATM   14  N4  UNL     1       6.009   8.573  17.178  1.00  0.00    -0.213 NA
HETATM   15  C8  UNL     1       5.773   8.987  15.819  1.00  0.00     0.173 C 
HETATM   16  C9  UNL     1       6.263   7.935  14.965  1.00  0.00     0.055 A 
HETATM   17  N5  UNL     1       6.137   7.708  13.643  1.00  0.00    -0.194 N 
HETATM   18  C12 UNL     1       6.902   7.008  15.726  1.00  0.00     0.059 A 
HETATM   19  C10 UNL     1       6.631   6.588  13.003  1.00  0.00     0.679 A 
ATOM     20  H5  UNL     1       5.647   8.405  13.081  1.00  0.00     0.184 HD
HETATM   21  N6  UNL     1       6.498   6.406  11.725  1.00  0.00    -0.234 N 
HETATM   22  N7  UNL     1       7.240   5.734  13.809  1.00  0.00    -0.156 N 
ATOM     23  H62 UNL     1       6.029   7.066  11.104  1.00  0.00     0.174 HD
ATOM     24  H61 UNL     1       6.863   5.579  11.253  1.00  0.00     0.174 HD
HETATM   25  C11 UNL     1       7.416   5.862  15.147  1.00  0.00     0.270 A 
ATOM     26  H7  UNL     1       7.617   4.889  13.378  1.00  0.00     0.187 HD
HETATM   27  O5  UNL     1       8.007   4.992  15.813  1.00  0.00    -0.267 OA
HETATM   28  C13 UNL     1       6.957   7.495  17.116  1.00  0.00     0.060 C 
HETATM   29  C14 UNL     1       8.370   8.031  17.387  1.00  0.00     0.039 C 
HETATM   30  C15 UNL     1       6.725   6.412  18.120  1.00  0.00     0.039 C 
ENDBRANCH  12  14
ENDBRANCH  11  12
ENDBRANCH   8  11
ENDBRANCH   7   8
ENDBRANCH   6   7
ENDBRANCH   5   6
ENDBRANCH   2   5
BRANCH   1  31
HETATM   31  O1  UNL     1       3.324  14.131  17.172  1.00  0.00    -0.333 OA
HETATM   32  C1  UNL     1       3.815  15.441  17.128  1.00  0.00     0.212 C 
ENDBRANCH   1  31
BRANCH   1  33
HETATM   33  O2  UNL     1       1.116  14.677  17.468  1.00  0.00    -0.338 OA
ATOM     34  H2  UNL     1       0.272  14.396  17.136  1.00  0.00     0.220 HD
ENDBRANCH   1  33
TORSDOF 10
ENDMDL
MODEL 2
REMARK VINA RESULT: -8.162679595      2.645      4.697
REMARK  10 active torsions:
REMARK  status: ('A' for Active; 'I' for Inactive)
REMARK    1  A    between atoms: O1_2  and  C2_3 
REMARK    2  A    between atoms: C2_3  and  O2_4 
REMARK    3  A    between atoms: C3_6  and  N2_9 
REMARK    4  A    between atoms: N2_9  and  O3_10 
REMARK    5  A    between atoms: O3_10  and  C5_11 
REMARK    6  A    between atoms: C5_11  and  C6_12 
REMARK    7  A    between atoms: C6_12  and  O4_13 
REMARK    8  A    between atoms: C6_12  and  C7_15 
REMARK    9  A    between atoms: C7_15  and  N3_16 
REMARK   10  A    between atoms: N3_16  and  N4_18 
ROOT
HETATM    1  C2  UNL     1       9.330  12.702  16.176  1.00  0.00     0.234 C 
HETATM    2  C3  UNL     1       9.187  11.670  17.178  1.00  0.00     0.276 C 
HETATM    3  C4  UNL     1      10.279  10.647  17.198  1.00  0.00     0.141 C 
HETATM    4  N1  UNL     1      11.088   9.847  17.227  1.00  0.00    -0.188 NA
ENDROOT
BRANCH   2   5
HETATM    5  N2  UNL     1       8.367  11.580  18.009  1.00  0.00    -0.265 NA
BRANCH   5   6
HETATM    6  O3  UNL     1       7.303  11.722  18.753  1.00  0.00    -0.205 OA
BRANCH   6   7
HETATM    7  C5  UNL     1       6.024  11.882  17.935  1.00  0.00     0.254 C 
BRANCH   7   8
HETATM    8  C6  UNL     1       5.005  11.229  18.855  1.00  0.00     0.184 C 
BRANCH   8   9
HETATM    9  O4  UNL     1       3.780  11.250  18.017  1.00  0.00    -0.388 OA
ATOM     10  H4  UNL     1       3.097  11.132  18.667  1.00  0.00     0.210 HD
ENDBRANCH   8   9
BRANCH   8  11
HETATM   11  C7  UNL     1       5.252   9.756  18.930  1.00  0.00     0.108 C 
BRANCH  11  12
HETATM   12  N3  UNL     1       6.153   9.312  17.961  1.00  0.00    -0.330 N 
ATOM     13  H3  UNL     1       7.067   9.746  17.838  1.00  0.00     0.179 HD
BRANCH  12  14
HETATM   14  N4  UNL     1       5.729   8.228  17.161  1.00  0.00    -0.213 NA
HETATM   15  C8  UNL     1       5.555   8.718  15.817  1.00  0.00     0.173 C 
HETATM   16  C9  UNL     1       6.182   7.766  14.936  1.00  0.00     0.055 A 
HETATM   17  N5  UNL     1       6.164   7.624  13.596  1.00  0.00    -0.194 N 
HETATM   18  C12 UNL     1       6.836   6.837  15.681  1.00  0.00     0.059 A 
HETATM   19  C10 UNL     1       6.785   6.590  12.924  1.00  0.00     0.679 A 
ATOM     20  H5  UNL     1       5.662   8.321  13.045  1.00  0.00     0.184 HD
HETATM   21  N6  UNL     1       6.755   6.488  11.630  1.00  0.00    -0.234 N 
HETATM   22  N7  UNL     1       7.401   5.727  13.715  1.00  0.00    -0.156 N 
ATOM     23  H62 UNL     1       6.280   7.154  11.020  1.00  0.00     0.174 HD
ATOM     24  H61 UNL     1       7.213   5.724  11.134  1.00  0.00     0.174 HD
HETATM   25  C11 UNL     1       7.475   5.774  15.068  1.00  0.00     0.270 A 
ATOM     26  H7  UNL     1       7.870   4.944  13.259  1.00  0.00     0.187 HD
HETATM   27  O5  UNL     1       8.085   4.904  15.718  1.00  0.00    -0.267 OA
HETATM   28  C13 UNL     1       6.759   7.229  17.099  1.00  0.00     0.060 C 
HETATM   29  C14 UNL     1       8.104   7.845  17.507  1.00  0.00     0.039 C 
HETATM   30  C15 UNL     1       6.542   6.064  18.011  1.00  0.00     0.039 C 
ENDBRANCH  12  14
ENDBRANCH  11  12
ENDBRANCH   8  11
ENDBRANCH   7   8
ENDBRANCH   6   7
ENDBRANCH   5   6
ENDBRANCH   2   5
BRANCH   1  31
HETATM   31  O1  UNL     1       8.513  13.759  16.056  1.00  0.00    -0.333 OA
HETATM   32  C1  UNL     1       8.530  14.633  14.963  1.00  0.00     0.212 C 
ENDBRANCH   1  31
BRANCH   1  33
HETATM   33  O2  UNL     1      10.336  12.558  15.353  1.00  0.00    -0.338 OA
ATOM     34  H2  UNL     1      10.176  12.360  14.438  1.00  0.00     0.220 HD
ENDBRANCH   1  33
TORSDOF 10
ENDMDL
MODEL 3
REMARK VINA RESULT: -8.124138814      2.642      5.117
REMARK  10 active torsions:
REMARK  status: ('A' for Active; 'I' for Inactive)
REMARK    1  A    between atoms: O1_2  and  C2_3 
REMARK    2  A    between atoms: C2_3  and  O2_4 
REMARK    3  A    between atoms: C3_6  and  N2_9 
REMARK    4  A    between atoms: N2_9  and  O3_10 
REMARK    5  A    between atoms: O3_10  and  C5_11 
REMARK    6  A    between atoms: C5_11  and  C6_12 
REMARK    7  A    between atoms: C6_12  and  O4_13 
REMARK    8  A    between atoms: C6_12  and  C7_15 
REMARK    9  A    between atoms: C7_15  and  N3_16 
REMARK   10  A    between atoms: N3_16  and  N4_18 
ROOT
HETATM    1  C2  UNL     1      10.240  10.501  18.061  1.00  0.00     0.234 C 
HETATM    2  C3  UNL     1       9.187  11.417  17.684  1.00  0.00     0.276 C 
HETATM    3  C4  UNL     1       9.291  11.969  16.296  1.00  0.00     0.141 C 
HETATM    4  N1  UNL     1       9.352  12.416  15.251  1.00  0.00    -0.188 NA
ENDROOT
BRANCH   2   5
HETATM    5  N2  UNL     1       8.240  11.720  18.301  1.00  0.00    -0.265 NA
BRANCH   5   6
HETATM    6  O3  UNL     1       7.132  11.724  18.993  1.00  0.00    -0.205 OA
BRANCH   6   7
HETATM    7  C5  UNL     1       5.895  11.961  18.129  1.00  0.00     0.254 C 
BRANCH   7   8
HETATM    8  C6  UNL     1       4.863  11.118  18.860  1.00  0.00     0.184 C 
BRANCH   8   9
HETATM    9  O4  UNL     1       3.804  10.972  17.829  1.00  0.00    -0.388 OA
ATOM     10  H4  UNL     1       3.058  10.703  18.353  1.00  0.00     0.210 HD
ENDBRANCH   8   9
BRANCH   8  11
HETATM   11  C7  UNL     1       5.335   9.703  18.959  1.00  0.00     0.108 C 
BRANCH  11  12
HETATM   12  N3  UNL     1       6.161   9.336  17.896  1.00  0.00    -0.330 N 
ATOM     13  H3  UNL     1       7.036   9.823  17.702  1.00  0.00     0.179 HD
BRANCH  12  14
HETATM   14  N4  UNL     1       5.721   8.252  17.104  1.00  0.00    -0.213 NA
HETATM   15  C8  UNL     1       5.560   8.734  15.755  1.00  0.00     0.173 C 
HETATM   16  C9  UNL     1       6.172   7.762  14.885  1.00  0.00     0.055 A 
HETATM   17  N5  UNL     1       6.156   7.609  13.546  1.00  0.00    -0.194 N 
HETATM   18  C12 UNL     1       6.808   6.829  15.640  1.00  0.00     0.059 A 
HETATM   19  C10 UNL     1       6.761   6.558  12.885  1.00  0.00     0.679 A 
ATOM     20  H5  UNL     1       5.668   8.310  12.988  1.00  0.00     0.184 HD
HETATM   21  N6  UNL     1       6.733   6.445  11.592  1.00  0.00    -0.234 N 
HETATM   22  N7  UNL     1       7.359   5.692  13.685  1.00  0.00    -0.156 N 
ATOM     23  H62 UNL     1       6.271   7.114  10.975  1.00  0.00     0.174 HD
ATOM     24  H61 UNL     1       7.179   5.669  11.104  1.00  0.00     0.174 HD
HETATM   25  C11 UNL     1       7.430   5.749  15.038  1.00  0.00     0.270 A 
ATOM     26  H7  UNL     1       7.816   4.896  13.238  1.00  0.00     0.187 HD
HETATM   27  O5  UNL     1       8.022   4.875  15.698  1.00  0.00    -0.267 OA
HETATM   28  C13 UNL     1       6.733   7.235  17.054  1.00  0.00     0.060 C 
HETATM   29  C14 UNL     1       8.088   7.830  17.461  1.00  0.00     0.039 C 
HETATM   30  C15 UNL     1       6.493   6.082  17.976  1.00  0.00     0.039 C 
ENDBRANCH  12  14
ENDBRANCH  11  12
ENDBRANCH   8  11
ENDBRANCH   7   8
ENDBRANCH   6   7
ENDBRANCH   5   6
ENDBRANCH   2   5
BRANCH   1  31
HETATM   31  O1  UNL     1      10.278   9.828  19.220  1.00  0.00    -0.333 OA
HETATM   32  C1  UNL     1      11.087   8.706  19.440  1.00  0.00     0.212 C 
ENDBRANCH   1  31
BRANCH   1  33
HETATM   33  O2  UNL     1      11.199  10.347  17.185  1.00  0.00    -0.338 OA
ATOM     34  H2  UNL     1      11.424  11.059  16.597  1.00  0.00     0.220 HD
ENDBRANCH   1  33
TORSDOF 10
ENDMDL
MODEL 4
REMARK VINA RESULT: -8.090671390      3.833      6.172
REMARK  10 active torsions:
REMARK  status: ('A' for Active; 'I' for Inactive)
REMARK    1  A    between atoms: O1_2  and  C2_3 
REMARK    2  A    between atoms: C2_3  and  O2_4 
REMARK    3  A    between atoms: C3_6  and  N2_9 
REMARK    4  A    between atoms: N2_9  and  O3_10 
REMARK    5  A    between atoms: O3_10  and  C5_11 
REMARK    6  A    between atoms: C5_11  and  C6_12 
REMARK    7  A    between atoms: C6_12  and  O4_13 
REMARK    8  A    between atoms: C6_12  and  C7_15 
REMARK    9  A    between atoms: C7_15  and  N3_16 
REMARK   10  A    between atoms: N3_16  and  N4_18 
ROOT
HETATM    1  C2  UNL     1       9.268  13.104  15.138  1.00  0.00     0.234 C 
HETATM    2  C3  UNL     1       8.980  12.237  16.258  1.00  0.00     0.276 C 
HETATM    3  C4  UNL     1       7.926  12.738  17.196  1.00  0.00     0.141 C 
HETATM    4  N1  UNL     1       7.140  13.100  17.934  1.00  0.00    -0.188 NA
ENDROOT
BRANCH   2   5
HETATM    5  N2  UNL     1       9.416  11.173  16.476  1.00  0.00    -0.265 NA
BRANCH   5   6
HETATM    6  O3  UNL     1      10.074  10.152  16.958  1.00  0.00    -0.205 OA
BRANCH   6   7
HETATM    7  C5  UNL     1      10.802  10.478  18.260  1.00  0.00     0.254 C 
BRANCH   7   8
HETATM    8  C6  UNL     1      11.029   9.085  18.824  1.00  0.00     0.184 C 
BRANCH   8   9
HETATM    9  O4  UNL     1      12.074   9.337  19.847  1.00  0.00    -0.388 OA
ATOM     10  H4  UNL     1      11.936   8.615  20.450  1.00  0.00     0.210 HD
ENDBRANCH   8   9
BRANCH   8  11
HETATM   11  C7  UNL     1       9.884   8.695  19.703  1.00  0.00     0.108 C 
BRANCH  11  12
HETATM   12  N3  UNL     1       8.921   7.942  19.030  1.00  0.00    -0.330 N 
ATOM     13  H3  UNL     1       9.168   7.309  18.270  1.00  0.00     0.179 HD
BRANCH  12  14
HETATM   14  N4  UNL     1       7.585   8.105  19.460  1.00  0.00    -0.213 NA
HETATM   15  C8  UNL     1       7.378   9.506  19.724  1.00  0.00     0.173 C 
HETATM   16  C9  UNL     1       6.123   9.869  19.115  1.00  0.00     0.055 A 
HETATM   17  N5  UNL     1       5.362  10.977  19.201  1.00  0.00    -0.194 N 
HETATM   18  C12 UNL     1       5.662   8.817  18.389  1.00  0.00     0.059 A 
HETATM   19  C10 UNL     1       4.135  11.118  18.582  1.00  0.00     0.679 A 
ATOM     20  H5  UNL     1       5.712  11.759  19.755  1.00  0.00     0.184 HD
HETATM   21  N6  UNL     1       3.431  12.204  18.680  1.00  0.00    -0.234 N 
HETATM   22  N7  UNL     1       3.754  10.054  17.895  1.00  0.00    -0.156 N 
ATOM     23  H62 UNL     1       3.726  13.024  19.210  1.00  0.00     0.174 HD
ATOM     24  H61 UNL     1       2.525  12.308  18.224  1.00  0.00     0.174 HD
HETATM   25  C11 UNL     1       4.438   8.893  17.749  1.00  0.00     0.270 A 
ATOM     26  H7  UNL     1       2.851  10.113  17.425  1.00  0.00     0.187 HD
HETATM   27  O5  UNL     1       3.984   7.949  17.075  1.00  0.00    -0.267 OA
HETATM   28  C13 UNL     1       6.680   7.752  18.402  1.00  0.00     0.060 C 
HETATM   29  C14 UNL     1       7.422   7.772  17.058  1.00  0.00     0.039 C 
HETATM   30  C15 UNL     1       6.088   6.385  18.528  1.00  0.00     0.039 C 
ENDBRANCH  12  14
ENDBRANCH  11  12
ENDBRANCH   8  11
ENDBRANCH   7   8
ENDBRANCH   6   7
ENDBRANCH   5   6
ENDBRANCH   2   5
BRANCH   1  31
HETATM   31  O1  UNL     1      10.106  12.796  14.138  1.00  0.00    -0.333 OA
HETATM   32  C1  UNL     1       9.890  13.160  12.804  1.00  0.00     0.212 C 
ENDBRANCH   1  31
BRANCH   1  33
HETATM   33  O2  UNL     1       8.648  14.256  15.139  1.00  0.00    -0.338 OA
ATOM     34  H2  UNL     1       7.907  14.396  15.716  1.00  0.00     0.220 HD
ENDBRANCH   1  33
TORSDOF 10
ENDMDL
MODEL 5
REMARK VINA RESULT: -8.076737152      3.435      4.861
REMARK  10 active torsions:
REMARK  status: ('A' for Active; 'I' for Inactive)
REMARK    1  A    between atoms: O1_2  and  C2_3 
REMARK    2  A    between atoms: C2_3  and  O2_4 
REMARK    3  A    between atoms: C3_6  and  N2_9 
REMARK    4  A    between atoms: N2_9  and  O3_10 
REMARK    5  A    between atoms: O3_10  and  C5_11 
REMARK    6  A    between atoms: C5_11  and  C6_12 
REMARK    7  A    between atoms: C6_12  and  O4_13 
REMARK    8  A    between atoms: C6_12  and  C7_15 
REMARK    9  A    between atoms: C7_15  and  N3_16 
REMARK   10  A    between atoms: N3_16  and  N4_18 
ROOT
HETATM    1  C2  UNL     1      -1.608  13.513  16.485  1.00  0.00     0.234 C 
HETATM    2  C3  UNL     1      -0.579  13.848  15.526  1.00  0.00     0.276 C 
HETATM    3  C4  UNL     1      -1.077  14.239  14.169  1.00  0.00     0.141 C 
HETATM    4  N1  UNL     1      -1.426  14.527  13.125  1.00  0.00    -0.188 NA
ENDROOT
BRANCH   2   5
HETATM    5  N2  UNL     1       0.576  13.914  15.702  1.00  0.00    -0.265 NA
BRANCH   5   6
HETATM    6  O3  UNL     1       1.780  13.880  16.206  1.00  0.00    -0.205 OA
BRANCH   6   7
HETATM    7  C5  UNL     1       1.809  14.219  17.695  1.00  0.00     0.254 C 
BRANCH   7   8
HETATM    8  C6  UNL     1       2.343  12.922  18.280  1.00  0.00     0.184 C 
BRANCH   8   9
HETATM    9  O4  UNL     1       1.375  11.928  17.753  1.00  0.00    -0.388 OA
ATOM     10  H4  UNL     1       0.550  12.267  18.082  1.00  0.00     0.210 HD
ENDBRANCH   8   9
BRANCH   8  11
HETATM   11  C7  UNL     1       3.579  12.502  17.551  1.00  0.00     0.108 C 
BRANCH  11  12
HETATM   12  N3  UNL     1       4.551  11.973  18.401  1.00  0.00    -0.330 N 
ATOM     13  H3  UNL     1       4.690  12.328  19.347  1.00  0.00     0.179 HD
BRANCH  12  14
HETATM   14  N4  UNL     1       5.333  10.918  17.880  1.00  0.00    -0.213 NA
HETATM   15  C8  UNL     1       6.719  11.265  18.070  1.00  0.00     0.173 C 
HETATM   16  C9  UNL     1       7.378  10.097  18.597  1.00  0.00     0.055 A 
HETATM   17  N5  UNL     1       8.679   9.799  18.785  1.00  0.00    -0.194 N 
HETATM   18  C12 UNL     1       6.446   9.147  18.868  1.00  0.00     0.059 A 
HETATM   19  C10 UNL     1       9.129   8.579  19.250  1.00  0.00     0.679 A 
ATOM     20  H5  UNL     1       9.372  10.516  18.570  1.00  0.00     0.184 HD
HETATM   21  N6  UNL     1      10.389   8.328  19.427  1.00  0.00    -0.234 N 
HETATM   22  N7  UNL     1       8.164   7.707  19.492  1.00  0.00    -0.156 N 
ATOM     23  H62 UNL     1      11.133   9.001  19.241  1.00  0.00     0.174 HD
ATOM     24  H61 UNL     1      10.722   7.427  19.771  1.00  0.00     0.174 HD
HETATM   25  C11 UNL     1       6.832   7.902  19.334  1.00  0.00     0.270 A 
ATOM     26  H7  UNL     1       8.453   6.790  19.834  1.00  0.00     0.187 HD
HETATM   27  O5  UNL     1       6.006   7.007  19.592  1.00  0.00    -0.267 OA
HETATM   28  C13 UNL     1       5.108   9.718  18.636  1.00  0.00     0.060 C 
HETATM   29  C14 UNL     1       4.487  10.069  19.995  1.00  0.00     0.039 C 
HETATM   30  C15 UNL     1       4.169   8.750  17.989  1.00  0.00     0.039 C 
ENDBRANCH  12  14
ENDBRANCH  11  12
ENDBRANCH   8  11
ENDBRANCH   7   8
ENDBRANCH   6   7
ENDBRANCH   5   6
ENDBRANCH   2   5
BRANCH   1  31
HETATM   31  O1  UNL     1      -1.377  13.230  17.775  1.00  0.00    -0.333 OA
HETATM   32  C1  UNL     1      -1.984  13.907  18.839  1.00  0.00     0.212 C 
ENDBRANCH   1  31
BRANCH   1  33
HETATM   33  O2  UNL     1      -2.832  13.498  16.022  1.00  0.00    -0.338 OA
ATOM     34  H2  UNL     1      -3.021  13.073  15.194  1.00  0.00     0.220 HD
ENDBRANCH   1  33
TORSDOF 10
ENDMDL
