MODEL 1
REMARK VINA RESULT: -7.693526881      0.000      0.000
REMARK  14 active torsions:
REMARK  status: ('A' for Active; 'I' for Inactive)
REMARK    1  A    between atoms: C2_2  and  O1_3 
REMARK    2  A    between atoms: O1_3  and  C3_4 
REMARK    3  A    between atoms: C3_4  and  C4_6 
REMARK    4  A    between atoms: C4_6  and  O3_7 
REMARK    5  A    between atoms: C4_6  and  C5_9 
REMARK    6  A    between atoms: C6_10  and  C7_11 
REMARK    7  A    between atoms: C7_11  and  O4_12 
REMARK    8  A    between atoms: C7_11  and  O5_14 
REMARK    9  A    between atoms: C9_18  and  N2_19 
REMARK   10  A    between atoms: N3_22  and  C10_23 
REMARK   11  A    between atoms: C10_23  and  O6_24 
REMARK   12  A    between atoms: C10_23  and  C11_26 
REMARK   13  A    between atoms: C11_26  and  C12_27 
REMARK       I    between atoms: C12_27  and  N4_29 
REMARK   14  A    between atoms: N4_29  and  N5_30 
REMARK       I    between atoms: N5_30  and  C13_32 
ROOT
HETATM    1  C5  UNL     1       8.063  10.487  18.096  1.00  0.00     0.106 A 
HETATM    2  C6  UNL     1       8.442  11.794  17.841  1.00  0.00     0.134 A 
HETATM    3  N1  UNL     1       7.309  12.559  17.850  1.00  0.00    -0.185 N 
ATOM      4  H1  UNL     1       7.261  13.564  17.681  1.00  0.00     0.184 HD
HETATM    5  C9  UNL     1       6.299  11.772  18.113  1.00  0.00     0.685 A 
HETATM    6  N3  UNL     1       6.761  10.442  18.285  1.00  0.00    -0.128 N 
ENDROOT
BRANCH   6   7
HETATM    7  C10 UNL     1       5.827   9.574  18.919  1.00  0.00     0.149 C 
BRANCH   7   8
HETATM    8  O6  UNL     1       5.561   9.951  20.152  1.00  0.00    -0.348 OA
ATOM      9  H6  UNL     1       4.859  10.589  20.186  1.00  0.00     0.219 HD
ENDBRANCH   7   8
BRANCH   7  10
HETATM   10  C11 UNL     1       5.168   8.366  18.452  1.00  0.00     0.206 C 
BRANCH  10  11
HETATM   11  C12 UNL     1       6.132   7.178  18.749  1.00  0.00     0.320 C 
HETATM   12  O7  UNL     1       6.503   7.229  19.957  1.00  0.00    -0.255 OA
HETATM   13  N4  UNL     1       6.412   6.362  17.819  1.00  0.00    -0.284 NA
BRANCH  13  14
HETATM   14  N5  UNL     1       6.714   5.478  16.810  1.00  0.00    -0.200 N 
HETATM   15  C13 UNL     1       7.639   5.853  15.773  1.00  0.00     0.242 C 
HETATM   16  C14 UNL     1       8.000   4.980  14.662  1.00  0.00     0.119 C 
HETATM   17  O8  UNL     1       8.182   7.017  15.821  1.00  0.00    -0.271 OA
ATOM     18  H5  UNL     1       6.281   4.555  16.797  1.00  0.00     0.205 HD
ENDBRANCH  13  14
ENDBRANCH  10  11
ENDBRANCH   7  10
ENDBRANCH   6   7
BRANCH   1  19
HETATM   19  C4  UNL     1       8.891   9.244  17.855  1.00  0.00     0.270 C 
BRANCH  19  20
HETATM   20  C3  UNL     1       9.927   9.055  18.899  1.00  0.00     0.293 C 
HETATM   21  O2  UNL     1       9.771   8.690  20.040  1.00  0.00    -0.262 OA
BRANCH  20  22
HETATM   22  O1  UNL     1      11.268   9.346  18.528  1.00  0.00    -0.320 OA
BRANCH  22  23
HETATM   23  C2  UNL     1      12.272   9.507  19.507  1.00  0.00     0.174 C 
HETATM   24  C1  UNL     1      12.668  10.967  19.465  1.00  0.00     0.034 C 
ENDBRANCH  22  23
ENDBRANCH  20  22
ENDBRANCH  19  20
BRANCH  19  25
HETATM   25  O3  UNL     1       9.620   9.541  16.656  1.00  0.00    -0.379 OA
ATOM     26  H3  UNL     1      10.292   8.872  16.603  1.00  0.00     0.211 HD
ENDBRANCH  19  25
ENDBRANCH   1  19
BRANCH   5  27
HETATM   27  N2  UNL     1       5.068  12.153  18.200  1.00  0.00    -0.234 N 
ATOM     28  H22 UNL     1       4.750  13.123  18.225  1.00  0.00     0.174 HD
ATOM     29  H21 UNL     1       4.266  11.527  18.258  1.00  0.00     0.174 HD
ENDBRANCH   5  27
BRANCH   2  30
HETATM   30  C7  UNL     1       9.773  12.360  17.698  1.00  0.00     0.208 C 
BRANCH  30  31
HETATM   31  O4  UNL     1      10.126  13.215  18.613  1.00  0.00    -0.339 OA
ATOM     32  H4  UNL     1      11.017  13.134  18.934  1.00  0.00     0.220 HD
ENDBRANCH  30  31
BRANCH  30  33
HETATM   33  O5  UNL     1      10.726  12.144  16.774  1.00  0.00    -0.334 OA
HETATM   34  C8  UNL     1      11.756  13.032  16.401  1.00  0.00     0.212 C 
ENDBRANCH  30  33
ENDBRANCH   2  30
TORSDOF 14
ENDMDL
MODEL 2
REMARK VINA RESULT: -7.684961874      1.676      2.063
REMARK  14 active torsions:
REMARK  status: ('A' for Active; 'I' for Inactive)
REMARK    1  A    between atoms: C2_2  and  O1_3 
REMARK    2  A    between atoms: O1_3  and  C3_4 
REMARK    3  A    between atoms: C3_4  and  C4_6 
REMARK    4  A    between atoms: C4_6  and  O3_7 
REMARK    5  A    between atoms: C4_6  and  C5_9 
REMARK    6  A    between atoms: C6_10  and  C7_11 
REMARK    7  A    between atoms: C7_11  and  O4_12 
REMARK    8  A    between atoms: C7_11  and  O5_14 
REMARK    9  A    between atoms: C9_18  and  N2_19 
REMARK   10  A    between atoms: N3_22  and  C10_23 
REMARK   11  A    between atoms: C10_23  and  O6_24 
REMARK   12  A    between atoms: C10_23  and  C11_26 
REMARK   13  A    between atoms: C11_26  and  C12_27 
REMARK       I    between atoms: C12_27  and  N4_29 
REMARK   14  A    between atoms: N4_29  and  N5_30 
REMARK       I    between atoms: N5_30  and  C13_32 
ROOT
HETATM    1  C5  UNL     1       6.708  10.762  17.587  1.00  0.00     0.106 A 
HETATM    2  C6  UNL     1       6.554  11.974  18.239  1.00  0.00     0.134 A 
HETATM    3  N1  UNL     1       5.220  12.139  18.488  1.00  0.00    -0.185 N 
ATOM      4  H1  UNL     1       4.788  12.942  18.946  1.00  0.00     0.184 HD
HETATM    5  C9  UNL     1       4.596  11.084  18.034  1.00  0.00     0.685 A 
HETATM    6  N3  UNL     1       5.532  10.184  17.462  1.00  0.00    -0.128 N 
ENDROOT
BRANCH   6   7
HETATM    7  C10 UNL     1       5.031   8.866  17.263  1.00  0.00     0.149 C 
BRANCH   7   8
HETATM    8  O6  UNL     1       4.713   8.644  16.005  1.00  0.00    -0.348 OA
ATOM      9  H6  UNL     1       3.791   8.439  15.902  1.00  0.00     0.219 HD
ENDBRANCH   7   8
BRANCH   7  10
HETATM   10  C11 UNL     1       4.794   7.778  18.196  1.00  0.00     0.206 C 
BRANCH  10  11
HETATM   11  C12 UNL     1       6.186   7.181  18.563  1.00  0.00     0.320 C 
HETATM   12  O7  UNL     1       6.310   7.144  19.821  1.00  0.00    -0.255 OA
HETATM   13  N4  UNL     1       6.972   6.830  17.631  1.00  0.00    -0.284 NA
BRANCH  13  14
HETATM   14  N5  UNL     1       7.824   6.450  16.621  1.00  0.00    -0.200 N 
HETATM   15  C13 UNL     1       7.299   6.081  15.332  1.00  0.00     0.242 C 
HETATM   16  C14 UNL     1       8.132   5.653  14.215  1.00  0.00     0.119 C 
HETATM   17  O8  UNL     1       6.027   6.131  15.146  1.00  0.00    -0.271 OA
ATOM     18  H5  UNL     1       8.830   6.429  16.786  1.00  0.00     0.205 HD
ENDBRANCH  13  14
ENDBRANCH  10  11
ENDBRANCH   7  10
ENDBRANCH   6   7
BRANCH   1  19
HETATM   19  C4  UNL     1       7.924  10.302  16.815  1.00  0.00     0.270 C 
BRANCH  19  20
HETATM   20  C3  UNL     1       9.018   9.858  17.712  1.00  0.00     0.293 C 
HETATM   21  O2  UNL     1       8.935   9.514  18.867  1.00  0.00    -0.262 OA
BRANCH  20  22
HETATM   22  O1  UNL     1      10.328   9.841  17.161  1.00  0.00    -0.320 OA
BRANCH  22  23
HETATM   23  C2  UNL     1      11.444  10.228  17.935  1.00  0.00     0.174 C 
HETATM   24  C1  UNL     1      11.864  11.587  17.415  1.00  0.00     0.034 C 
ENDBRANCH  22  23
ENDBRANCH  20  22
ENDBRANCH  19  20
BRANCH  19  25
HETATM   25  O3  UNL     1       8.414  11.499  16.194  1.00  0.00    -0.379 OA
ATOM     26  H3  UNL     1       7.777  12.170  16.414  1.00  0.00     0.211 HD
ENDBRANCH  19  25
ENDBRANCH   1  19
BRANCH   5  27
HETATM   27  N2  UNL     1       3.320  10.896  18.096  1.00  0.00    -0.234 N 
ATOM     28  H22 UNL     1       2.617  11.631  18.178  1.00  0.00     0.174 HD
ATOM     29  H21 UNL     1       2.862   9.985  18.074  1.00  0.00     0.174 HD
ENDBRANCH   5  27
BRANCH   2  30
HETATM   30  C7  UNL     1       7.564  12.903  18.717  1.00  0.00     0.208 C 
BRANCH  30  31
HETATM   31  O4  UNL     1       7.245  13.595  19.771  1.00  0.00    -0.339 OA
ATOM     32  H4  UNL     1       7.630  13.305  20.589  1.00  0.00     0.220 HD
ENDBRANCH  30  31
BRANCH  30  33
HETATM   33  O5  UNL     1       8.800  13.169  18.258  1.00  0.00    -0.334 OA
HETATM   34  C8  UNL     1       9.483  14.400  18.343  1.00  0.00     0.212 C 
ENDBRANCH  30  33
ENDBRANCH   2  30
TORSDOF 14
ENDMDL
MODEL 3
REMARK VINA RESULT: -7.467132955      1.504      2.031
REMARK  14 active torsions:
REMARK  status: ('A' for Active; 'I' for Inactive)
REMARK    1  A    between atoms: C2_2  and  O1_3 
REMARK    2  A    between atoms: O1_3  and  C3_4 
REMARK    3  A    between atoms: C3_4  and  C4_6 
REMARK    4  A    between atoms: C4_6  and  O3_7 
REMARK    5  A    between atoms: C4_6  and  C5_9 
REMARK    6  A    between atoms: C6_10  and  C7_11 
REMARK    7  A    between atoms: C7_11  and  O4_12 
REMARK    8  A    between atoms: C7_11  and  O5_14 
REMARK    9  A    between atoms: C9_18  and  N2_19 
REMARK   10  A    between atoms: N3_22  and  C10_23 
REMARK   11  A    between atoms: C10_23  and  O6_24 
REMARK   12  A    between atoms: C10_23  and  C11_26 
REMARK   13  A    between atoms: C11_26  and  C12_27 
REMARK       I    between atoms: C12_27  and  N4_29 
REMARK   14  A    between atoms: N4_29  and  N5_30 
REMARK       I    between atoms: N5_30  and  C13_32 
ROOT
HETATM    1  C5  UNL     1       6.774  11.162  18.543  1.00  0.00     0.106 A 
HETATM    2  C6  UNL     1       6.634  12.509  18.256  1.00  0.00     0.134 A 
HETATM    3  N1  UNL     1       5.329  12.721  17.910  1.00  0.00    -0.185 N 
ATOM      4  H1  UNL     1       4.918  13.613  17.632  1.00  0.00     0.184 HD
HETATM    5  C9  UNL     1       4.702  11.577  17.997  1.00  0.00     0.685 A 
HETATM    6  N3  UNL     1       5.607  10.566  18.411  1.00  0.00    -0.128 N 
ENDROOT
BRANCH   6   7
HETATM    7  C10 UNL     1       4.982   9.377  18.881  1.00  0.00     0.149 C 
BRANCH   7   8
HETATM    8  O6  UNL     1       4.540   9.506  20.114  1.00  0.00    -0.348 OA
ATOM      9  H6  UNL     1       4.944  10.240  20.562  1.00  0.00     0.219 HD
ENDBRANCH   7   8
BRANCH   7  10
HETATM   10  C11 UNL     1       4.789   8.081  18.254  1.00  0.00     0.206 C 
BRANCH  10  11
HETATM   11  C12 UNL     1       5.961   7.168  18.724  1.00  0.00     0.320 C 
HETATM   12  O7  UNL     1       5.938   7.069  19.984  1.00  0.00    -0.255 OA
HETATM   13  N4  UNL     1       6.742   6.670  17.857  1.00  0.00    -0.284 NA
BRANCH  13  14
HETATM   14  N5  UNL     1       7.587   6.131  16.917  1.00  0.00    -0.200 N 
HETATM   15  C13 UNL     1       7.167   6.020  15.544  1.00  0.00     0.242 C 
HETATM   16  C14 UNL     1       7.997   5.448  14.491  1.00  0.00     0.119 C 
HETATM   17  O8  UNL     1       5.999   6.449  15.220  1.00  0.00    -0.271 OA
ATOM     18  H5  UNL     1       8.515   5.808  17.193  1.00  0.00     0.205 HD
ENDBRANCH  13  14
ENDBRANCH  10  11
ENDBRANCH   7  10
ENDBRANCH   6   7
BRANCH   1  19
HETATM   19  C4  UNL     1       8.072  10.390  18.640  1.00  0.00     0.270 C 
BRANCH  19  20
HETATM   20  C3  UNL     1       8.394   9.684  17.377  1.00  0.00     0.293 C 
HETATM   21  O2  UNL     1       7.650   9.427  16.460  1.00  0.00    -0.262 OA
BRANCH  20  22
HETATM   22  O1  UNL     1       9.736   9.243  17.217  1.00  0.00    -0.320 OA
BRANCH  22  23
HETATM   23  C2  UNL     1      10.818  10.051  17.633  1.00  0.00     0.174 C 
HETATM   24  C1  UNL     1      11.325   9.441  18.923  1.00  0.00     0.034 C 
ENDBRANCH  22  23
ENDBRANCH  20  22
ENDBRANCH  19  20
BRANCH  19  25
HETATM   25  O3  UNL     1       7.787   9.351  19.586  1.00  0.00    -0.379 OA
ATOM     26  H3  UNL     1       6.896   9.080  19.395  1.00  0.00     0.211 HD
ENDBRANCH  19  25
ENDBRANCH   1  19
BRANCH   5  27
HETATM   27  N2  UNL     1       3.449  11.400  17.740  1.00  0.00    -0.234 N 
ATOM     28  H22 UNL     1       2.738  12.132  17.732  1.00  0.00     0.174 HD
ATOM     29  H21 UNL     1       3.020  10.502  17.517  1.00  0.00     0.174 HD
ENDBRANCH   5  27
BRANCH   2  30
HETATM   30  C7  UNL     1       7.599  13.588  18.387  1.00  0.00     0.208 C 
BRANCH  30  31
HETATM   31  O4  UNL     1       7.523  14.287  19.482  1.00  0.00    -0.339 OA
ATOM     32  H4  UNL     1       8.060  15.070  19.511  1.00  0.00     0.220 HD
ENDBRANCH  30  31
BRANCH  30  33
HETATM   33  O5  UNL     1       8.583  13.991  17.564  1.00  0.00    -0.334 OA
HETATM   34  C8  UNL     1       8.979  13.375  16.359  1.00  0.00     0.212 C 
ENDBRANCH  30  33
ENDBRANCH   2  30
TORSDOF 14
ENDMDL
MODEL 4
REMARK VINA RESULT: -7.425776469      2.303      5.350
REMARK  14 active torsions:
REMARK  status: ('A' for Active; 'I' for Inactive)
REMARK    1  A    between atoms: C2_2  and  O1_3 
REMARK    2  A    between atoms: O1_3  and  C3_4 
REMARK    3  A    between atoms: C3_4  and  C4_6 
REMARK    4  A    between atoms: C4_6  and  O3_7 
REMARK    5  A    between atoms: C4_6  and  C5_9 
REMARK    6  A    between atoms: C6_10  and  C7_11 
REMARK    7  A    between atoms: C7_11  and  O4_12 
REMARK    8  A    between atoms: C7_11  and  O5_14 
REMARK    9  A    between atoms: C9_18  and  N2_19 
REMARK   10  A    between atoms: N3_22  and  C10_23 
REMARK   11  A    between atoms: C10_23  and  O6_24 
REMARK   12  A    between atoms: C10_23  and  C11_26 
REMARK   13  A    between atoms: C11_26  and  C12_27 
REMARK       I    between atoms: C12_27  and  N4_29 
REMARK   14  A    between atoms: N4_29  and  N5_30 
REMARK       I    between atoms: N5_30  and  C13_32 
ROOT
HETATM    1  C5  UNL     1       7.814   8.686  17.990  1.00  0.00     0.106 A 
HETATM    2  C6  UNL     1       8.904   9.449  18.374  1.00  0.00     0.134 A 
HETATM    3  N1  UNL     1       8.529  10.762  18.307  1.00  0.00    -0.185 N 
ATOM      4  H1  UNL     1       9.120  11.567  18.519  1.00  0.00     0.184 HD
HETATM    5  C9  UNL     1       7.280  10.801  17.924  1.00  0.00     0.685 A 
HETATM    6  N3  UNL     1       6.799   9.482  17.725  1.00  0.00    -0.128 N 
ENDROOT
BRANCH   6   7
HETATM    7  C10 UNL     1       5.380   9.379  17.658  1.00  0.00     0.149 C 
BRANCH   7   8
HETATM    8  O6  UNL     1       4.915   9.732  16.479  1.00  0.00    -0.348 OA
ATOM      9  H6  UNL     1       4.398  10.528  16.524  1.00  0.00     0.219 HD
ENDBRANCH   7   8
BRANCH   7  10
HETATM   10  C11 UNL     1       4.398   8.992  18.656  1.00  0.00     0.206 C 
BRANCH  10  11
HETATM   11  C12 UNL     1       3.851  10.307  19.291  1.00  0.00     0.320 C 
HETATM   12  O7  UNL     1       3.930  10.231  20.550  1.00  0.00    -0.255 OA
HETATM   13  N4  UNL     1       3.424  11.228  18.530  1.00  0.00    -0.284 NA
BRANCH  13  14
HETATM   14  N5  UNL     1       2.962  12.225  17.705  1.00  0.00    -0.200 N 
HETATM   15  C13 UNL     1       1.563  12.568  17.697  1.00  0.00     0.242 C 
HETATM   16  C14 UNL     1       0.992  13.602  16.843  1.00  0.00     0.119 C 
HETATM   17  O8  UNL     1       0.768  11.935  18.485  1.00  0.00    -0.271 OA
ATOM     18  H5  UNL     1       3.611  12.724  17.097  1.00  0.00     0.205 HD
ENDBRANCH  13  14
ENDBRANCH  10  11
ENDBRANCH   7  10
ENDBRANCH   6   7
BRANCH   1  19
HETATM   19  C4  UNL     1       7.832   7.230  17.579  1.00  0.00     0.270 C 
BRANCH  19  20
HETATM   20  C3  UNL     1       7.192   7.018  16.259  1.00  0.00     0.293 C 
HETATM   21  O2  UNL     1       6.017   6.871  16.019  1.00  0.00    -0.262 OA
BRANCH  20  22
HETATM   22  O1  UNL     1       8.056   6.968  15.131  1.00  0.00    -0.320 OA
BRANCH  22  23
HETATM   23  C2  UNL     1       7.908   5.964  14.149  1.00  0.00     0.174 C 
HETATM   24  C1  UNL     1       8.202   4.651  14.842  1.00  0.00     0.034 C 
ENDBRANCH  22  23
ENDBRANCH  20  22
ENDBRANCH  19  20
BRANCH  19  25
HETATM   25  O3  UNL     1       6.961   6.593  18.523  1.00  0.00    -0.379 OA
ATOM     26  H3  UNL     1       6.107   6.587  18.107  1.00  0.00     0.211 HD
ENDBRANCH  19  25
ENDBRANCH   1  19
BRANCH   5  27
HETATM   27  N2  UNL     1       6.594  11.881  17.752  1.00  0.00    -0.234 N 
ATOM     28  H22 UNL     1       6.556  12.668  18.401  1.00  0.00     0.174 HD
ATOM     29  H21 UNL     1       6.003  12.075  16.944  1.00  0.00     0.174 HD
ENDBRANCH   5  27
BRANCH   2  30
HETATM   30  C7  UNL     1      10.197   9.024  18.882  1.00  0.00     0.208 C 
BRANCH  30  31
HETATM   31  O4  UNL     1      10.168   8.177  19.869  1.00  0.00    -0.339 OA
ATOM     32  H4  UNL     1      10.063   7.263  19.628  1.00  0.00     0.220 HD
ENDBRANCH  30  31
BRANCH  30  33
HETATM   33  O5  UNL     1      11.444   9.351  18.497  1.00  0.00    -0.334 OA
HETATM   34  C8  UNL     1      12.261  10.356  19.056  1.00  0.00     0.212 C 
ENDBRANCH  30  33
ENDBRANCH   2  30
TORSDOF 14
ENDMDL
MODEL 5
REMARK VINA RESULT: -7.415823768      2.465      5.412
REMARK  14 active torsions:
REMARK  status: ('A' for Active; 'I' for Inactive)
REMARK    1  A    between atoms: C2_2  and  O1_3 
REMARK    2  A    between atoms: O1_3  and  C3_4 
REMARK    3  A    between atoms: C3_4  and  C4_6 
REMARK    4  A    between atoms: C4_6  and  O3_7 
REMARK    5  A    between atoms: C4_6  and  C5_9 
REMARK    6  A    between atoms: C6_10  and  C7_11 
REMARK    7  A    between atoms: C7_11  and  O4_12 
REMARK    8  A    between atoms: C7_11  and  O5_14 
REMARK    9  A    between atoms: C9_18  and  N2_19 
REMARK   10  A    between atoms: N3_22  and  C10_23 
REMARK   11  A    between atoms: C10_23  and  O6_24 
REMARK   12  A    between atoms: C10_23  and  C11_26 
REMARK   13  A    between atoms: C11_26  and  C12_27 
REMARK       I    between atoms: C12_27  and  N4_29 
REMARK   14  A    between atoms: N4_29  and  N5_30 
REMARK       I    between atoms: N5_30  and  C13_32 
ROOT
HETATM    1  C5  UNL     1       7.985   8.859  18.076  1.00  0.00     0.106 A 
HETATM    2  C6  UNL     1       9.040   9.744  18.216  1.00  0.00     0.134 A 
HETATM    3  N1  UNL     1       8.536  10.908  18.725  1.00  0.00    -0.185 N 
ATOM      4  H1  UNL     1       9.066  11.755  18.929  1.00  0.00     0.184 HD
HETATM    5  C9  UNL     1       7.251  10.741  18.904  1.00  0.00     0.685 A 
HETATM    6  N3  UNL     1       6.879   9.431  18.504  1.00  0.00    -0.128 N 
ENDROOT
BRANCH   6   7
HETATM    7  C10 UNL     1       5.603   9.014  18.977  1.00  0.00     0.149 C 
BRANCH   7   8
HETATM    8  O6  UNL     1       5.691   8.324  20.094  1.00  0.00    -0.348 OA
ATOM      9  H6  UNL     1       6.034   7.450  19.946  1.00  0.00     0.219 HD
ENDBRANCH   7   8
BRANCH   7  10
HETATM   10  C11 UNL     1       4.270   9.194  18.428  1.00  0.00     0.206 C 
BRANCH  10  11
HETATM   11  C12 UNL     1       3.623  10.394  19.185  1.00  0.00     0.320 C 
HETATM   12  O7  UNL     1       3.854  10.283  20.423  1.00  0.00    -0.255 OA
HETATM   13  N4  UNL     1       2.991  11.273  18.524  1.00  0.00    -0.284 NA
BRANCH  13  14
HETATM   14  N5  UNL     1       2.306  12.225  17.807  1.00  0.00    -0.200 N 
HETATM   15  C13 UNL     1       0.898  12.427  18.033  1.00  0.00     0.242 C 
HETATM   16  C14 UNL     1       0.098  13.405  17.305  1.00  0.00     0.119 C 
HETATM   17  O8  UNL     1       0.307  11.714  18.924  1.00  0.00    -0.271 OA
ATOM     18  H5  UNL     1       2.796  12.789  17.113  1.00  0.00     0.205 HD
ENDBRANCH  13  14
ENDBRANCH  10  11
ENDBRANCH   7  10
ENDBRANCH   6   7
BRANCH   1  19
HETATM   19  C4  UNL     1       7.976   7.590  17.252  1.00  0.00     0.270 C 
BRANCH  19  20
HETATM   20  C3  UNL     1       7.119   7.716  16.048  1.00  0.00     0.293 C 
HETATM   21  O2  UNL     1       6.646   8.722  15.576  1.00  0.00    -0.262 OA
BRANCH  20  22
HETATM   22  O1  UNL     1       6.800   6.511  15.364  1.00  0.00    -0.320 OA
BRANCH  22  23
HETATM   23  C2  UNL     1       7.640   6.014  14.343  1.00  0.00     0.174 C 
HETATM   24  C1  UNL     1       8.161   4.682  14.840  1.00  0.00     0.034 C 
ENDBRANCH  22  23
ENDBRANCH  20  22
ENDBRANCH  19  20
BRANCH  19  25
HETATM   25  O3  UNL     1       7.305   6.639  18.090  1.00  0.00    -0.379 OA
ATOM     26  H3  UNL     1       8.000   6.169  18.536  1.00  0.00     0.211 HD
ENDBRANCH  19  25
ENDBRANCH   1  19
BRANCH   5  27
HETATM   27  N2  UNL     1       6.447  11.636  19.371  1.00  0.00    -0.234 N 
ATOM     28  H22 UNL     1       6.578  12.645  19.295  1.00  0.00     0.174 HD
ATOM     29  H21 UNL     1       5.584  11.439  19.876  1.00  0.00     0.174 HD
ENDBRANCH   5  27
BRANCH   2  30
HETATM   30  C7  UNL     1      10.463   9.529  18.006  1.00  0.00     0.208 C 
BRANCH  30  31
HETATM   31  O4  UNL     1      10.879   9.653  16.780  1.00  0.00    -0.339 OA
ATOM     32  H4  UNL     1      10.589   8.982  16.173  1.00  0.00     0.220 HD
ENDBRANCH  30  31
BRANCH  30  33
HETATM   33  O5  UNL     1      11.444   9.228  18.875  1.00  0.00    -0.334 OA
HETATM   34  C8  UNL     1      12.460  10.093  19.331  1.00  0.00     0.212 C 
ENDBRANCH  30  33
ENDBRANCH   2  30
TORSDOF 14
ENDMDL
