MODEL 1
REMARK VINA RESULT: -6.940297311      0.000      0.000
REMARK  11 active torsions:
REMARK  status: ('A' for Active; 'I' for Inactive)
REMARK    1  A    between atoms: C2_2  and  O1_3 
REMARK    2  A    between atoms: O1_3  and  C3_4 
REMARK    3  A    between atoms: C3_4  and  C4_6 
REMARK    4  A    between atoms: C4_6  and  C5_11 
REMARK    5  A    between atoms: N1_7  and  O3_9 
REMARK    6  A    between atoms: C6_15  and  C7_16 
REMARK    7  A    between atoms: C7_16  and  C8_17 
REMARK    8  A    between atoms: C8_17  and  N5_23 
REMARK    9  A    between atoms: N3_18  and  N4_20 
REMARK   10  A    between atoms: N5_23  and  N6_25 
REMARK   11  A    between atoms: N6_25  and  S1_27 
ROOT
HETATM    1  C5  UNL     1       6.977   9.035  18.009  1.00  0.00     0.262 C 
HETATM    2  N2  UNL     1       7.956   9.940  17.406  1.00  0.00    -0.050 N 
ATOM      3  H21 UNL     1       7.983   9.917  16.386  1.00  0.00     0.279 HD
ATOM      4  H22 UNL     1       8.929   9.666  17.542  1.00  0.00     0.279 HD
HETATM    5  C6  UNL     1       7.610  11.218  17.967  1.00  0.00     0.255 C 
HETATM    6  S2  UNL     1       5.778  11.196  17.732  1.00  0.00    -0.124 SA
HETATM    7  C9  UNL     1       5.677   9.368  17.388  1.00  0.00     0.037 C 
HETATM    8  C10 UNL     1       4.495   8.886  18.190  1.00  0.00     0.029 C 
HETATM    9  C11 UNL     1       5.508   9.265  15.931  1.00  0.00     0.029 C 
ENDROOT
BRANCH   5  10
HETATM   10  C7  UNL     1       8.195  12.421  17.341  1.00  0.00     0.123 C 
BRANCH  10  11
HETATM   11  C8  UNL     1       9.411  12.972  17.902  1.00  0.00     0.113 C 
HETATM   12  N3  UNL     1       9.407  14.035  18.666  1.00  0.00    -0.294 N 
ATOM     13  H3  UNL     1      10.273  14.409  19.053  1.00  0.00     0.187 HD
BRANCH  12  14
HETATM   14  N4  UNL     1       8.179  14.639  18.930  1.00  0.00    -0.344 N 
ATOM     15  H42 UNL     1       7.355  14.385  18.386  1.00  0.00     0.176 HD
ATOM     16  H41 UNL     1       8.142  15.331  19.678  1.00  0.00     0.176 HD
ENDBRANCH  12  14
BRANCH  11  17
HETATM   17  N5  UNL     1      10.679  12.397  17.664  1.00  0.00    -0.278 N 
ATOM     18  H5  UNL     1      11.061  12.415  16.719  1.00  0.00     0.189 HD
BRANCH  17  19
HETATM   19  N6  UNL     1      11.424  11.807  18.681  1.00  0.00    -0.212 N 
ATOM     20  H6  UNL     1      11.878  12.289  19.457  1.00  0.00     0.201 HD
BRANCH  19  21
HETATM   21  S1  UNL     1      11.437  10.104  18.383  1.00  0.00     0.373 S 
HETATM   22  O4  UNL     1      11.085   9.778  16.966  1.00  0.00    -0.186 OA
HETATM   23  O5  UNL     1      10.522   9.365  19.303  1.00  0.00    -0.186 OA
ENDBRANCH  19  21
ENDBRANCH  17  19
ENDBRANCH  11  17
ENDBRANCH  10  11
ENDBRANCH   5  10
BRANCH   1  24
HETATM   24  C4  UNL     1       7.392   7.676  18.162  1.00  0.00     0.139 C 
HETATM   25  N1  UNL     1       8.014   7.311  19.272  1.00  0.00    -0.265 N 
ATOM     26  H1  UNL     1       8.308   6.342  19.394  1.00  0.00     0.194 HD
BRANCH  24  27
HETATM   27  C3  UNL     1       7.224   6.555  17.252  1.00  0.00     0.309 C 
HETATM   28  O2  UNL     1       6.280   5.768  17.419  1.00  0.00    -0.258 OA
BRANCH  27  29
HETATM   29  O1  UNL     1       8.064   6.284  16.174  1.00  0.00    -0.317 OA
BRANCH  29  30
HETATM   30  C2  UNL     1       7.782   5.267  15.232  1.00  0.00     0.175 C 
HETATM   31  C1  UNL     1       7.199   5.858  13.949  1.00  0.00     0.034 C 
ENDBRANCH  29  30
ENDBRANCH  27  29
ENDBRANCH  24  27
BRANCH  25  32
HETATM   32  O3  UNL     1       8.264   8.220  20.247  1.00  0.00    -0.290 OA
ATOM     33  H3  UNL     1       8.149   7.987  21.161  1.00  0.00     0.244 HD
ENDBRANCH  25  32
ENDBRANCH   1  24
TORSDOF 11
ENDMDL
MODEL 2
REMARK VINA RESULT: -6.928581068      4.199      5.938
REMARK  11 active torsions:
REMARK  status: ('A' for Active; 'I' for Inactive)
REMARK    1  A    between atoms: C2_2  and  O1_3 
REMARK    2  A    between atoms: O1_3  and  C3_4 
REMARK    3  A    between atoms: C3_4  and  C4_6 
REMARK    4  A    between atoms: C4_6  and  C5_11 
REMARK    5  A    between atoms: N1_7  and  O3_9 
REMARK    6  A    between atoms: C6_15  and  C7_16 
REMARK    7  A    between atoms: C7_16  and  C8_17 
REMARK    8  A    between atoms: C8_17  and  N5_23 
REMARK    9  A    between atoms: N3_18  and  N4_20 
REMARK   10  A    between atoms: N5_23  and  N6_25 
REMARK   11  A    between atoms: N6_25  and  S1_27 
ROOT
HETATM    1  C5  UNL     1       6.498   8.399  17.134  1.00  0.00     0.262 C 
HETATM    2  N2  UNL     1       5.159   8.832  17.534  1.00  0.00    -0.050 N 
ATOM      3  H21 UNL     1       4.699   8.221  18.209  1.00  0.00     0.279 HD
ATOM      4  H22 UNL     1       4.448   8.739  16.809  1.00  0.00     0.279 HD
HETATM    5  C6  UNL     1       5.374  10.177  17.993  1.00  0.00     0.255 C 
HETATM    6  S2  UNL     1       6.861   9.928  19.060  1.00  0.00    -0.124 SA
HETATM    7  C9  UNL     1       7.267   8.239  18.386  1.00  0.00     0.037 C 
HETATM    8  C10 UNL     1       8.760   8.254  18.174  1.00  0.00     0.029 C 
HETATM    9  C11 UNL     1       6.808   7.299  19.419  1.00  0.00     0.029 C 
ENDROOT
BRANCH   5  10
HETATM   10  C7  UNL     1       4.290  10.820  18.763  1.00  0.00     0.123 C 
BRANCH  10  11
HETATM   11  C8  UNL     1       3.538  11.889  18.139  1.00  0.00     0.113 C 
HETATM   12  N3  UNL     1       4.110  12.990  17.721  1.00  0.00    -0.294 N 
ATOM     13  H3  UNL     1       3.566  13.733  17.284  1.00  0.00     0.187 HD
BRANCH  12  14
HETATM   14  N4  UNL     1       5.488  13.112  17.894  1.00  0.00    -0.344 N 
ATOM     15  H42 UNL     1       6.126  12.535  17.346  1.00  0.00     0.176 HD
ATOM     16  H41 UNL     1       5.822  13.790  18.578  1.00  0.00     0.176 HD
ENDBRANCH  12  14
BRANCH  11  17
HETATM   17  N5  UNL     1       2.141  11.814  17.941  1.00  0.00    -0.278 N 
ATOM     18  H5  UNL     1       1.624  11.038  18.352  1.00  0.00     0.189 HD
BRANCH  17  19
HETATM   19  N6  UNL     1       1.449  12.769  17.202  1.00  0.00    -0.212 N 
ATOM     20  H6  UNL     1       1.801  13.278  16.392  1.00  0.00     0.201 HD
BRANCH  19  21
HETATM   21  S1  UNL     1      -0.117  12.930  17.915  1.00  0.00     0.373 S 
HETATM   22  O4  UNL     1      -0.479  11.745  18.753  1.00  0.00    -0.186 OA
HETATM   23  O5  UNL     1      -1.181  13.156  16.892  1.00  0.00    -0.186 OA
ENDBRANCH  19  21
ENDBRANCH  17  19
ENDBRANCH  11  17
ENDBRANCH  10  11
ENDBRANCH   5  10
BRANCH   1  24
HETATM   24  C4  UNL     1       6.554   7.406  16.107  1.00  0.00     0.139 C 
HETATM   25  N1  UNL     1       6.253   7.746  14.863  1.00  0.00    -0.265 N 
ATOM     26  H1  UNL     1       6.297   7.047  14.121  1.00  0.00     0.194 HD
BRANCH  24  27
HETATM   27  C3  UNL     1       6.920   6.002  16.202  1.00  0.00     0.309 C 
HETATM   28  O2  UNL     1       6.119   5.194  16.695  1.00  0.00    -0.258 OA
BRANCH  27  29
HETATM   29  O1  UNL     1       8.135   5.475  15.772  1.00  0.00    -0.317 OA
BRANCH  29  30
HETATM   30  C2  UNL     1       8.258   4.738  14.570  1.00  0.00     0.175 C 
HETATM   31  C1  UNL     1       8.383   5.673  13.367  1.00  0.00     0.034 C 
ENDBRANCH  29  30
ENDBRANCH  27  29
ENDBRANCH  24  27
BRANCH  25  32
HETATM   32  O3  UNL     1       5.885   9.018  14.570  1.00  0.00    -0.290 OA
ATOM     33  H3  UNL     1       6.393   9.534  13.955  1.00  0.00     0.244 HD
ENDBRANCH  25  32
ENDBRANCH   1  24
TORSDOF 11
ENDMDL
MODEL 3
REMARK VINA RESULT: -6.922583800      1.167      1.317
REMARK  11 active torsions:
REMARK  status: ('A' for Active; 'I' for Inactive)
REMARK    1  A    between atoms: C2_2  and  O1_3 
REMARK    2  A    between atoms: O1_3  and  C3_4 
REMARK    3  A    between atoms: C3_4  and  C4_6 
REMARK    4  A    between atoms: C4_6  and  C5_11 
REMARK    5  A    between atoms: N1_7  and  O3_9 
REMARK    6  A    between atoms: C6_15  and  C7_16 
REMARK    7  A    between atoms: C7_16  and  C8_17 
REMARK    8  A    between atoms: C8_17  and  N5_23 
REMARK    9  A    between atoms: N3_18  and  N4_20 
REMARK   10  A    between atoms: N5_23  and  N6_25 
REMARK   11  A    between atoms: N6_25  and  S1_27 
ROOT
HETATM    1  C5  UNL     1       7.034   8.396  17.489  1.00  0.00     0.262 C 
HETATM    2  N2  UNL     1       8.085   9.177  16.836  1.00  0.00    -0.050 N 
ATOM      3  H21 UNL     1       7.991   9.253  15.823  1.00  0.00     0.279 HD
ATOM      4  H22 UNL     1       9.001   8.728  16.822  1.00  0.00     0.279 HD
HETATM    5  C6  UNL     1       8.045  10.432  17.537  1.00  0.00     0.255 C 
HETATM    6  S2  UNL     1       6.224  10.746  17.544  1.00  0.00    -0.124 SA
HETATM    7  C9  UNL     1       5.754   9.006  17.072  1.00  0.00     0.037 C 
HETATM    8  C10 UNL     1       4.604   8.654  17.981  1.00  0.00     0.029 C 
HETATM    9  C11 UNL     1       5.403   9.081  15.647  1.00  0.00     0.029 C 
ENDROOT
BRANCH   5  10
HETATM   10  C7  UNL     1       8.762  11.575  16.937  1.00  0.00     0.123 C 
BRANCH  10  11
HETATM   11  C8  UNL     1      10.063  11.929  17.466  1.00  0.00     0.113 C 
HETATM   12  N3  UNL     1      10.231  12.934  18.289  1.00  0.00    -0.294 N 
ATOM     13  H3  UNL     1      11.154  13.169  18.652  1.00  0.00     0.187 HD
BRANCH  12  14
HETATM   14  N4  UNL     1       9.104  13.669  18.652  1.00  0.00    -0.344 N 
ATOM     15  H42 UNL     1       8.532  13.375  19.443  1.00  0.00     0.176 HD
ATOM     16  H41 UNL     1       8.882  14.499  18.101  1.00  0.00     0.176 HD
ENDBRANCH  12  14
BRANCH  11  17
HETATM   17  N5  UNL     1      11.234  11.215  17.129  1.00  0.00    -0.278 N 
ATOM     18  H5  UNL     1      12.031  11.723  16.747  1.00  0.00     0.189 HD
BRANCH  17  19
HETATM   19  N6  UNL     1      11.334   9.837  17.303  1.00  0.00    -0.212 N 
ATOM     20  H6  UNL     1      11.490   9.145  16.571  1.00  0.00     0.201 HD
BRANCH  19  21
HETATM   21  S1  UNL     1      11.145   9.520  18.992  1.00  0.00     0.373 S 
HETATM   22  O4  UNL     1      12.438   9.137  19.640  1.00  0.00    -0.186 OA
HETATM   23  O5  UNL     1      10.125   8.462  19.256  1.00  0.00    -0.186 OA
ENDBRANCH  19  21
ENDBRANCH  17  19
ENDBRANCH  11  17
ENDBRANCH  10  11
ENDBRANCH   5  10
BRANCH   1  24
HETATM   24  C4  UNL     1       7.210   6.977  17.478  1.00  0.00     0.139 C 
HETATM   25  N1  UNL     1       7.290   6.328  18.629  1.00  0.00    -0.265 N 
ATOM     26  H1  UNL     1       7.407   5.314  18.633  1.00  0.00     0.194 HD
BRANCH  24  27
HETATM   27  C3  UNL     1       7.309   6.071  16.346  1.00  0.00     0.309 C 
HETATM   28  O2  UNL     1       6.657   5.017  16.348  1.00  0.00    -0.258 OA
BRANCH  27  29
HETATM   29  O1  UNL     1       8.103   6.297  15.225  1.00  0.00    -0.317 OA
BRANCH  29  30
HETATM   30  C2  UNL     1       7.838   5.692  13.974  1.00  0.00     0.175 C 
HETATM   31  C1  UNL     1       6.795   6.490  13.192  1.00  0.00     0.034 C 
ENDBRANCH  29  30
ENDBRANCH  27  29
ENDBRANCH  24  27
BRANCH  25  32
HETATM   32  O3  UNL     1       7.217   7.002  19.803  1.00  0.00    -0.290 OA
ATOM     33  H3  UNL     1       7.562   6.616  20.600  1.00  0.00     0.244 HD
ENDBRANCH  25  32
ENDBRANCH   1  24
TORSDOF 11
ENDMDL
MODEL 4
REMARK VINA RESULT: -6.907789357      0.853      1.215
REMARK  11 active torsions:
REMARK  status: ('A' for Active; 'I' for Inactive)
REMARK    1  A    between atoms: C2_2  and  O1_3 
REMARK    2  A    between atoms: O1_3  and  C3_4 
REMARK    3  A    between atoms: C3_4  and  C4_6 
REMARK    4  A    between atoms: C4_6  and  C5_11 
REMARK    5  A    between atoms: N1_7  and  O3_9 
REMARK    6  A    between atoms: C6_15  and  C7_16 
REMARK    7  A    between atoms: C7_16  and  C8_17 
REMARK    8  A    between atoms: C8_17  and  N5_23 
REMARK    9  A    between atoms: N3_18  and  N4_20 
REMARK   10  A    between atoms: N5_23  and  N6_25 
REMARK   11  A    between atoms: N6_25  and  S1_27 
ROOT
HETATM    1  C5  UNL     1       6.904   8.871  17.830  1.00  0.00     0.262 C 
HETATM    2  N2  UNL     1       7.898   9.760  17.227  1.00  0.00    -0.050 N 
ATOM      3  H21 UNL     1       7.951   9.709  16.209  1.00  0.00     0.279 HD
ATOM      4  H22 UNL     1       8.867   9.491  17.395  1.00  0.00     0.279 HD
HETATM    5  C6  UNL     1       7.538  11.053  17.743  1.00  0.00     0.255 C 
HETATM    6  S2  UNL     1       5.711  11.022  17.463  1.00  0.00    -0.124 SA
HETATM    7  C9  UNL     1       5.620   9.185  17.168  1.00  0.00     0.037 C 
HETATM    8  C10 UNL     1       4.418   8.724  17.952  1.00  0.00     0.029 C 
HETATM    9  C11 UNL     1       5.489   9.041  15.710  1.00  0.00     0.029 C 
ENDROOT
BRANCH   5  10
HETATM   10  C7  UNL     1       8.137  12.239  17.098  1.00  0.00     0.123 C 
BRANCH  10  11
HETATM   11  C8  UNL     1       9.577  12.391  17.132  1.00  0.00     0.113 C 
HETATM   12  N3  UNL     1      10.280  12.608  16.049  1.00  0.00    -0.294 N 
ATOM     13  H3  UNL     1      11.293  12.712  16.091  1.00  0.00     0.187 HD
BRANCH  12  14
HETATM   14  N4  UNL     1       9.596  12.690  14.838  1.00  0.00    -0.344 N 
ATOM     15  H42 UNL     1      10.112  12.780  13.962  1.00  0.00     0.176 HD
ATOM     16  H41 UNL     1       8.577  12.657  14.865  1.00  0.00     0.176 HD
ENDBRANCH  12  14
BRANCH  11  17
HETATM   17  N5  UNL     1      10.316  12.316  18.334  1.00  0.00    -0.278 N 
ATOM     18  H5  UNL     1       9.911  12.699  19.188  1.00  0.00     0.189 HD
BRANCH  17  19
HETATM   19  N6  UNL     1      11.579  11.734  18.388  1.00  0.00    -0.212 N 
ATOM     20  H6  UNL     1      12.469  12.226  18.456  1.00  0.00     0.201 HD
BRANCH  19  21
HETATM   21  S1  UNL     1      11.356  10.021  18.320  1.00  0.00     0.373 S 
HETATM   22  O4  UNL     1      11.020   9.552  16.940  1.00  0.00    -0.186 OA
HETATM   23  O5  UNL     1      10.306   9.551  19.272  1.00  0.00    -0.186 OA
ENDBRANCH  19  21
ENDBRANCH  17  19
ENDBRANCH  11  17
ENDBRANCH  10  11
ENDBRANCH   5  10
BRANCH   1  24
HETATM   24  C4  UNL     1       7.316   7.517  18.031  1.00  0.00     0.139 C 
HETATM   25  N1  UNL     1       7.923   7.188  19.161  1.00  0.00    -0.265 N 
ATOM     26  H1  UNL     1       8.213   6.223  19.318  1.00  0.00     0.194 HD
BRANCH  24  27
HETATM   27  C3  UNL     1       7.159   6.368  17.156  1.00  0.00     0.309 C 
HETATM   28  O2  UNL     1       6.169   5.633  17.283  1.00  0.00    -0.258 OA
BRANCH  27  29
HETATM   29  O1  UNL     1       8.060   6.015  16.153  1.00  0.00    -0.317 OA
BRANCH  29  30
HETATM   30  C2  UNL     1       7.707   5.152  15.089  1.00  0.00     0.175 C 
HETATM   31  C1  UNL     1       7.807   5.875  13.745  1.00  0.00     0.034 C 
ENDBRANCH  29  30
ENDBRANCH  27  29
ENDBRANCH  24  27
BRANCH  25  32
HETATM   32  O3  UNL     1       8.160   8.127  20.110  1.00  0.00    -0.290 OA
ATOM     33  H3  UNL     1       8.426   7.868  20.985  1.00  0.00     0.244 HD
ENDBRANCH  25  32
ENDBRANCH   1  24
TORSDOF 11
ENDMDL
MODEL 5
REMARK VINA RESULT: -6.820866140      0.954      1.013
REMARK  11 active torsions:
REMARK  status: ('A' for Active; 'I' for Inactive)
REMARK    1  A    between atoms: C2_2  and  O1_3 
REMARK    2  A    between atoms: O1_3  and  C3_4 
REMARK    3  A    between atoms: C3_4  and  C4_6 
REMARK    4  A    between atoms: C4_6  and  C5_11 
REMARK    5  A    between atoms: N1_7  and  O3_9 
REMARK    6  A    between atoms: C6_15  and  C7_16 
REMARK    7  A    between atoms: C7_16  and  C8_17 
REMARK    8  A    between atoms: C8_17  and  N5_23 
REMARK    9  A    between atoms: N3_18  and  N4_20 
REMARK   10  A    between atoms: N5_23  and  N6_25 
REMARK   11  A    between atoms: N6_25  and  S1_27 
ROOT
HETATM    1  C5  UNL     1       7.353   9.475  18.548  1.00  0.00     0.262 C 
HETATM    2  N2  UNL     1       8.171  10.446  17.820  1.00  0.00    -0.050 N 
ATOM      3  H21 UNL     1       7.999  10.477  16.815  1.00  0.00     0.279 HD
ATOM      4  H22 UNL     1       9.158  10.200  17.748  1.00  0.00     0.279 HD
HETATM    5  C6  UNL     1       7.910  11.679  18.510  1.00  0.00     0.255 C 
HETATM    6  S2  UNL     1       6.068  11.602  18.636  1.00  0.00    -0.124 SA
HETATM    7  C9  UNL     1       5.948   9.792  18.212  1.00  0.00     0.037 C 
HETATM    8  C10 UNL     1       4.959   9.226  19.199  1.00  0.00     0.029 C 
HETATM    9  C11 UNL     1       5.500   9.759  16.813  1.00  0.00     0.029 C 
ENDROOT
BRANCH   5  10
HETATM   10  C7  UNL     1       8.329  12.934  17.854  1.00  0.00     0.123 C 
BRANCH  10  11
HETATM   11  C8  UNL     1       9.552  13.570  18.296  1.00  0.00     0.113 C 
HETATM   12  N3  UNL     1       9.582  14.815  18.703  1.00  0.00    -0.294 N 
ATOM     13  H3  UNL     1      10.452  15.247  19.012  1.00  0.00     0.187 HD
BRANCH  12  14
HETATM   14  N4  UNL     1       8.385  15.527  18.700  1.00  0.00    -0.344 N 
ATOM     15  H42 UNL     1       7.824  15.591  19.549  1.00  0.00     0.176 HD
ATOM     16  H41 UNL     1       8.100  15.973  17.828  1.00  0.00     0.176 HD
ENDBRANCH  12  14
BRANCH  11  17
HETATM   17  N5  UNL     1      10.791  12.891  18.319  1.00  0.00    -0.278 N 
ATOM     18  H5  UNL     1      11.363  12.933  19.162  1.00  0.00     0.189 HD
BRANCH  17  19
HETATM   19  N6  UNL     1      11.255  12.167  17.224  1.00  0.00    -0.212 N 
ATOM     20  H6  UNL     1      11.294  12.490  16.258  1.00  0.00     0.201 HD
BRANCH  19  21
HETATM   21  S1  UNL     1      11.752  10.619  17.810  1.00  0.00     0.373 S 
HETATM   22  O4  UNL     1      10.921   9.511  17.247  1.00  0.00    -0.186 OA
HETATM   23  O5  UNL     1      11.731  10.547  19.301  1.00  0.00    -0.186 OA
ENDBRANCH  19  21
ENDBRANCH  17  19
ENDBRANCH  11  17
ENDBRANCH  10  11
ENDBRANCH   5  10
BRANCH   1  24
HETATM   24  C4  UNL     1       7.824   8.126  18.538  1.00  0.00     0.139 C 
HETATM   25  N1  UNL     1       8.894   7.810  19.251  1.00  0.00    -0.265 N 
ATOM     26  H1  UNL     1       9.234   6.848  19.257  1.00  0.00     0.194 HD
BRANCH  24  27
HETATM   27  C3  UNL     1       7.287   6.969  17.842  1.00  0.00     0.309 C 
HETATM   28  O2  UNL     1       6.486   6.223  18.424  1.00  0.00    -0.258 OA
BRANCH  27  29
HETATM   29  O1  UNL     1       7.609   6.618  16.533  1.00  0.00    -0.317 OA
BRANCH  29  30
HETATM   30  C2  UNL     1       7.098   5.454  15.913  1.00  0.00     0.175 C 
HETATM   31  C1  UNL     1       8.083   4.909  14.878  1.00  0.00     0.034 C 
ENDBRANCH  29  30
ENDBRANCH  27  29
ENDBRANCH  24  27
BRANCH  25  32
HETATM   32  O3  UNL     1       9.540   8.758  19.975  1.00  0.00    -0.290 OA
ATOM     33  H3  UNL     1      10.466   8.667  20.166  1.00  0.00     0.244 HD
ENDBRANCH  25  32
ENDBRANCH   1  24
TORSDOF 11
ENDMDL
