MODEL 1
REMARK VINA RESULT: -7.896870948      0.000      0.000
REMARK  10 active torsions:
REMARK  status: ('A' for Active; 'I' for Inactive)
REMARK    1  A    between atoms: C2_2  and  N1_3 
REMARK    2  A    between atoms: C2_2  and  C14_31 
REMARK    3  A    between atoms: N1_3  and  C3_5 
REMARK    4  A    between atoms: C3_5  and  O1_6 
REMARK    5  A    between atoms: C3_5  and  C4_8 
REMARK    6  A    between atoms: C4_8  and  C5_9 
REMARK    7  A    between atoms: C4_8  and  N7_23 
REMARK    8  A    between atoms: C5_9  and  N2_10 
REMARK       I    between atoms: N2_10  and  C6_12 
REMARK    9  A    between atoms: C6_12  and  C7_14 
REMARK       I    between atoms: N7_23  and  C9_25 
REMARK   10  A    between atoms: C9_25  and  C10_27 
ROOT
HETATM    1  C4  UNL     1       4.190  10.919  18.304  1.00  0.00     0.150 C 
ENDROOT
BRANCH   1   2
HETATM    2  C3  UNL     1       5.066  11.286  19.432  1.00  0.00     0.238 C 
BRANCH   2   3
HETATM    3  N1  UNL     1       6.343  11.817  19.206  1.00  0.00    -0.385 N 
ATOM      4  H1  UNL     1       6.785  12.360  19.948  1.00  0.00     0.156 HD
BRANCH   3   5
HETATM    5  C2  UNL     1       7.040  11.634  18.004  1.00  0.00     0.142 C 
HETATM    6  C1  UNL     1       7.867  12.777  17.511  1.00  0.00     0.040 C 
BRANCH   5   7
HETATM    7  C14 UNL     1       7.991  10.458  18.152  1.00  0.00     0.095 C 
HETATM    8  N8  UNL     1       8.871  10.074  17.307  1.00  0.00    -0.377 N 
HETATM    9  C15 UNL     1       9.616   8.920  17.747  1.00  0.00     0.140 C 
ATOM     10  H8  UNL     1       9.030  10.537  16.413  1.00  0.00     0.160 HD
HETATM   11  C16 UNL     1       9.315   8.860  19.239  1.00  0.00     0.140 C 
HETATM   12  N9  UNL     1       8.053   9.583  19.265  1.00  0.00    -0.377 N 
ATOM     13  H9  UNL     1       7.327   9.477  19.974  1.00  0.00     0.160 HD
ENDBRANCH   5   7
ENDBRANCH   3   5
ENDBRANCH   2   3
BRANCH   2  14
HETATM   14  O1  UNL     1       5.246  10.052  20.163  1.00  0.00    -0.375 OA
ATOM     15  H1  UNL     1       4.448   9.548  20.056  1.00  0.00     0.212 HD
ENDBRANCH   2  14
ENDBRANCH   1   2
BRANCH   1  16
HETATM   16  C5  UNL     1       3.889   9.405  18.311  1.00  0.00     0.152 C 
BRANCH  16  17
HETATM   17  N2  UNL     1       4.663   8.753  17.275  1.00  0.00    -0.352 N 
HETATM   18  C6  UNL     1       5.624   7.775  17.644  1.00  0.00     0.288 C 
HETATM   19  O2  UNL     1       5.823   7.459  18.851  1.00  0.00    -0.264 OA
ATOM     20  H2  UNL     1       4.521   8.994  16.294  1.00  0.00     0.162 HD
BRANCH  18  21
HETATM   21  C7  UNL     1       6.422   7.098  16.631  1.00  0.00     0.206 A 
HETATM   22  N3  UNL     1       7.427   6.213  16.827  1.00  0.00    -0.264 N 
HETATM   23  N4  UNL     1       7.881   5.836  15.656  1.00  0.00    -0.225 N 
ATOM     24  H3  UNL     1       7.772   5.894  17.732  1.00  0.00     0.190 HD
HETATM   25  N5  UNL     1       7.205   6.444  14.675  1.00  0.00    -0.223 N 
ATOM     26  H4  UNL     1       8.641   5.172  15.513  1.00  0.00     0.210 HD
HETATM   27  C8  UNL     1       7.453   6.248  13.263  1.00  0.00     0.202 C 
HETATM   28  N6  UNL     1       6.330   7.201  15.288  1.00  0.00    -0.262 N 
ATOM     29  H6  UNL     1       5.657   7.798  14.807  1.00  0.00     0.190 HD
ENDBRANCH  18  21
ENDBRANCH  16  17
ENDBRANCH   1  16
BRANCH   1  30
HETATM   30  N7  UNL     1       2.900  11.548  18.249  1.00  0.00    -0.350 N 
HETATM   31  C9  UNL     1       2.610  12.837  17.750  1.00  0.00     0.225 C 
HETATM   32  O3  UNL     1       3.521  13.570  17.291  1.00  0.00    -0.273 OA
ATOM     33  H7  UNL     1       2.112  11.008  18.606  1.00  0.00     0.163 HD
BRANCH  31  34
HETATM   34  C10 UNL     1       1.228  13.353  17.757  1.00  0.00     0.030 C 
HETATM   35  C11 UNL     1       0.258  12.430  18.463  1.00  0.00     0.024 C 
HETATM   36  C12 UNL     1       1.125  14.712  18.400  1.00  0.00     0.024 C 
HETATM   37  C13 UNL     1       0.697  13.493  16.328  1.00  0.00     0.024 C 
ENDBRANCH  31  34
ENDBRANCH   1  30
TORSDOF 10
ENDMDL
MODEL 2
REMARK VINA RESULT: -7.876231976      3.119      7.081
REMARK  10 active torsions:
REMARK  status: ('A' for Active; 'I' for Inactive)
REMARK    1  A    between atoms: C2_2  and  N1_3 
REMARK    2  A    between atoms: C2_2  and  C14_31 
REMARK    3  A    between atoms: N1_3  and  C3_5 
REMARK    4  A    between atoms: C3_5  and  O1_6 
REMARK    5  A    between atoms: C3_5  and  C4_8 
REMARK    6  A    between atoms: C4_8  and  C5_9 
REMARK    7  A    between atoms: C4_8  and  N7_23 
REMARK    8  A    between atoms: C5_9  and  N2_10 
REMARK       I    between atoms: N2_10  and  C6_12 
REMARK    9  A    between atoms: C6_12  and  C7_14 
REMARK       I    between atoms: N7_23  and  C9_25 
REMARK   10  A    between atoms: C9_25  and  C10_27 
ROOT
HETATM    1  C4  UNL     1       8.428   8.547  18.192  1.00  0.00     0.150 C 
ENDROOT
BRANCH   1   2
HETATM    2  C3  UNL     1       7.822   8.575  19.536  1.00  0.00     0.238 C 
BRANCH   2   3
HETATM    3  N1  UNL     1       6.994   9.636  19.928  1.00  0.00    -0.385 N 
ATOM      4  H1  UNL     1       6.964   9.894  20.914  1.00  0.00     0.156 HD
BRANCH   3   5
HETATM    5  C2  UNL     1       6.204  10.357  19.023  1.00  0.00     0.142 C 
HETATM    6  C1  UNL     1       4.812  10.697  19.448  1.00  0.00     0.040 C 
BRANCH   5   7
HETATM    7  C14 UNL     1       6.884  11.679  18.709  1.00  0.00     0.095 C 
HETATM    8  N8  UNL     1       6.836  12.750  19.407  1.00  0.00    -0.377 N 
HETATM    9  C15 UNL     1       7.593  13.837  18.835  1.00  0.00     0.140 C 
ATOM     10  H8  UNL     1       6.315  12.827  20.281  1.00  0.00     0.160 HD
HETATM   11  C16 UNL     1       8.480  13.141  17.812  1.00  0.00     0.140 C 
HETATM   12  N9  UNL     1       7.690  11.943  17.573  1.00  0.00    -0.377 N 
ATOM     13  H9  UNL     1       7.711  11.382  16.722  1.00  0.00     0.160 HD
ENDBRANCH   5   7
ENDBRANCH   3   5
ENDBRANCH   2   3
BRANCH   2  14
HETATM   14  O1  UNL     1       8.950   8.565  20.439  1.00  0.00    -0.375 OA
ATOM     15  H1  UNL     1       9.690   8.921  19.962  1.00  0.00     0.212 HD
ENDBRANCH   2  14
ENDBRANCH   1   2
BRANCH   1  16
HETATM   16  C5  UNL     1       9.969   8.539  18.284  1.00  0.00     0.152 C 
BRANCH  16  17
HETATM   17  N2  UNL     1      10.457   9.902  18.338  1.00  0.00    -0.352 N 
HETATM   18  C6  UNL     1      11.687  10.168  18.996  1.00  0.00     0.288 C 
HETATM   19  O2  UNL     1      12.366   9.250  19.537  1.00  0.00    -0.264 OA
ATOM     20  H2  UNL     1       9.925  10.659  17.910  1.00  0.00     0.162 HD
BRANCH  18  21
HETATM   21  C7  UNL     1      12.211  11.525  19.072  1.00  0.00     0.206 A 
HETATM   22  N3  UNL     1      12.720  12.154  20.155  1.00  0.00    -0.264 N 
HETATM   23  N4  UNL     1      13.084  13.363  19.800  1.00  0.00    -0.225 N 
ATOM     24  H3  UNL     1      12.807  11.756  21.091  1.00  0.00     0.190 HD
HETATM   25  N5  UNL     1      12.832  13.564  18.503  1.00  0.00    -0.223 N 
ATOM     26  H4  UNL     1      13.499  14.053  20.426  1.00  0.00     0.210 HD
HETATM   27  C8  UNL     1      13.115  14.791  17.791  1.00  0.00     0.202 C 
HETATM   28  N6  UNL     1      12.305  12.441  18.084  1.00  0.00    -0.262 N 
ATOM     29  H6  UNL     1      12.003  12.276  17.124  1.00  0.00     0.190 HD
ENDBRANCH  18  21
ENDBRANCH  16  17
ENDBRANCH   1  16
BRANCH   1  30
HETATM   30  N7  UNL     1       8.106   7.425  17.354  1.00  0.00    -0.350 N 
HETATM   31  C9  UNL     1       7.176   7.404  16.292  1.00  0.00     0.225 C 
HETATM   32  O3  UNL     1       6.523   8.434  15.987  1.00  0.00    -0.273 OA
ATOM     33  H7  UNL     1       8.600   6.554  17.547  1.00  0.00     0.163 HD
BRANCH  31  34
HETATM   34  C10 UNL     1       6.949   6.171  15.515  1.00  0.00     0.030 C 
HETATM   35  C11 UNL     1       8.192   5.690  14.798  1.00  0.00     0.024 C 
HETATM   36  C12 UNL     1       6.440   5.039  16.368  1.00  0.00     0.024 C 
HETATM   37  C13 UNL     1       5.907   6.409  14.419  1.00  0.00     0.024 C 
ENDBRANCH  31  34
ENDBRANCH   1  30
TORSDOF 10
ENDMDL
MODEL 3
REMARK VINA RESULT: -7.724372727      2.118      6.226
REMARK  10 active torsions:
REMARK  status: ('A' for Active; 'I' for Inactive)
REMARK    1  A    between atoms: C2_2  and  N1_3 
REMARK    2  A    between atoms: C2_2  and  C14_31 
REMARK    3  A    between atoms: N1_3  and  C3_5 
REMARK    4  A    between atoms: C3_5  and  O1_6 
REMARK    5  A    between atoms: C3_5  and  C4_8 
REMARK    6  A    between atoms: C4_8  and  C5_9 
REMARK    7  A    between atoms: C4_8  and  N7_23 
REMARK    8  A    between atoms: C5_9  and  N2_10 
REMARK       I    between atoms: N2_10  and  C6_12 
REMARK    9  A    between atoms: C6_12  and  C7_14 
REMARK       I    between atoms: N7_23  and  C9_25 
REMARK   10  A    between atoms: C9_25  and  C10_27 
ROOT
HETATM    1  C4  UNL     1       7.279   7.321  18.998  1.00  0.00     0.150 C 
ENDROOT
BRANCH   1   2
HETATM    2  C3  UNL     1       8.053   8.565  18.841  1.00  0.00     0.238 C 
BRANCH   2   3
HETATM    3  N1  UNL     1       9.169   8.616  17.994  1.00  0.00    -0.385 N 
ATOM      4  H1  UNL     1       9.747   7.781  17.897  1.00  0.00     0.156 HD
BRANCH   3   5
HETATM    5  C2  UNL     1       9.523   9.764  17.273  1.00  0.00     0.142 C 
HETATM    6  C1  UNL     1       8.490  10.835  17.142  1.00  0.00     0.040 C 
BRANCH   5   7
HETATM    7  C14 UNL     1      10.726  10.416  17.933  1.00  0.00     0.095 C 
HETATM    8  N8  UNL     1      10.960  11.670  18.031  1.00  0.00    -0.377 N 
HETATM    9  C15 UNL     1      12.193  11.967  18.718  1.00  0.00     0.140 C 
ATOM     10  H8  UNL     1      10.337  12.387  17.662  1.00  0.00     0.160 HD
HETATM   11  C16 UNL     1      12.532  10.651  19.406  1.00  0.00     0.140 C 
HETATM   12  N9  UNL     1      11.801   9.730  18.552  1.00  0.00    -0.377 N 
ATOM     13  H9  UNL     1      12.026   8.744  18.418  1.00  0.00     0.160 HD
ENDBRANCH   5   7
ENDBRANCH   3   5
ENDBRANCH   2   3
BRANCH   2  14
HETATM   14  O1  UNL     1       8.524   8.866  20.175  1.00  0.00    -0.375 OA
ATOM     15  H1  UNL     1       8.301   8.122  20.722  1.00  0.00     0.212 HD
ENDBRANCH   2  14
ENDBRANCH   1   2
BRANCH   1  16
HETATM   16  C5  UNL     1       5.814   7.628  19.378  1.00  0.00     0.152 C 
BRANCH  16  17
HETATM   17  N2  UNL     1       5.546   9.036  19.172  1.00  0.00    -0.352 N 
HETATM   18  C6  UNL     1       4.427   9.417  18.385  1.00  0.00     0.288 C 
HETATM   19  O2  UNL     1       3.661   8.562  17.858  1.00  0.00    -0.264 OA
ATOM     20  H2  UNL     1       6.152   9.743  19.587  1.00  0.00     0.162 HD
BRANCH  18  21
HETATM   21  C7  UNL     1       4.125  10.823  18.155  1.00  0.00     0.206 A 
HETATM   22  N3  UNL     1       4.988  11.811  17.827  1.00  0.00    -0.264 N 
HETATM   23  N4  UNL     1       4.313  12.929  17.707  1.00  0.00    -0.225 N 
ATOM     24  H3  UNL     1       5.994  11.704  17.694  1.00  0.00     0.190 HD
HETATM   25  N5  UNL     1       3.015  12.719  17.947  1.00  0.00    -0.223 N 
ATOM     26  H4  UNL     1       4.722  13.832  17.466  1.00  0.00     0.210 HD
HETATM   27  C8  UNL     1       1.994  13.742  17.896  1.00  0.00     0.202 C 
HETATM   28  N6  UNL     1       2.924  11.440  18.215  1.00  0.00    -0.262 N 
ATOM     29  H6  UNL     1       2.051  10.966  18.442  1.00  0.00     0.190 HD
ENDBRANCH  18  21
ENDBRANCH  16  17
ENDBRANCH   1  16
BRANCH   1  30
HETATM   30  N7  UNL     1       7.186   6.461  17.851  1.00  0.00    -0.350 N 
HETATM   31  C9  UNL     1       6.859   6.844  16.532  1.00  0.00     0.225 C 
HETATM   32  O3  UNL     1       6.609   8.044  16.253  1.00  0.00    -0.273 OA
ATOM     33  H7  UNL     1       7.377   5.471  18.006  1.00  0.00     0.163 HD
BRANCH  31  34
HETATM   34  C10 UNL     1       6.802   5.845  15.450  1.00  0.00     0.030 C 
HETATM   35  C11 UNL     1       8.142   5.626  14.780  1.00  0.00     0.024 C 
HETATM   36  C12 UNL     1       6.301   4.507  15.928  1.00  0.00     0.024 C 
HETATM   37  C13 UNL     1       5.856   6.306  14.338  1.00  0.00     0.024 C 
ENDBRANCH  31  34
ENDBRANCH   1  30
TORSDOF 10
ENDMDL
MODEL 4
REMARK VINA RESULT: -7.717986370      1.865      6.262
REMARK  10 active torsions:
REMARK  status: ('A' for Active; 'I' for Inactive)
REMARK    1  A    between atoms: C2_2  and  N1_3 
REMARK    2  A    between atoms: C2_2  and  C14_31 
REMARK    3  A    between atoms: N1_3  and  C3_5 
REMARK    4  A    between atoms: C3_5  and  O1_6 
REMARK    5  A    between atoms: C3_5  and  C4_8 
REMARK    6  A    between atoms: C4_8  and  C5_9 
REMARK    7  A    between atoms: C4_8  and  N7_23 
REMARK    8  A    between atoms: C5_9  and  N2_10 
REMARK       I    between atoms: N2_10  and  C6_12 
REMARK    9  A    between atoms: C6_12  and  C7_14 
REMARK       I    between atoms: N7_23  and  C9_25 
REMARK   10  A    between atoms: C9_25  and  C10_27 
ROOT
HETATM    1  C4  UNL     1       6.439   7.168  18.010  1.00  0.00     0.150 C 
ENDROOT
BRANCH   1   2
HETATM    2  C3  UNL     1       7.523   7.962  18.618  1.00  0.00     0.238 C 
BRANCH   2   3
HETATM    3  N1  UNL     1       8.737   8.154  17.944  1.00  0.00    -0.385 N 
ATOM      4  H1  UNL     1       9.465   7.446  18.037  1.00  0.00     0.156 HD
BRANCH   3   5
HETATM    5  C2  UNL     1       8.994   9.279  17.150  1.00  0.00     0.142 C 
HETATM    6  C1  UNL     1       7.991  10.386  17.186  1.00  0.00     0.040 C 
BRANCH   5   7
HETATM    7  C14 UNL     1      10.318   9.896  17.570  1.00  0.00     0.095 C 
HETATM    8  N8  UNL     1      10.860  10.950  17.088  1.00  0.00    -0.377 N 
HETATM    9  C15 UNL     1      12.123  11.273  17.705  1.00  0.00     0.140 C 
ATOM     10  H8  UNL     1      10.440  11.505  16.343  1.00  0.00     0.160 HD
HETATM   11  C16 UNL     1      12.114  10.432  18.975  1.00  0.00     0.140 C 
HETATM   12  N9  UNL     1      11.181   9.391  18.576  1.00  0.00    -0.377 N 
ATOM     13  H9  UNL     1      11.150   8.447  18.959  1.00  0.00     0.160 HD
ENDBRANCH   5   7
ENDBRANCH   3   5
ENDBRANCH   2   3
BRANCH   2  14
HETATM   14  O1  UNL     1       7.829   7.267  19.848  1.00  0.00    -0.375 OA
ATOM     15  H1  UNL     1       7.496   7.802  20.559  1.00  0.00     0.212 HD
ENDBRANCH   2  14
ENDBRANCH   1   2
BRANCH   1  16
HETATM   16  C5  UNL     1       5.062   7.611  18.550  1.00  0.00     0.152 C 
BRANCH  16  17
HETATM   17  N2  UNL     1       4.714   8.899  17.989  1.00  0.00    -0.352 N 
HETATM   18  C6  UNL     1       4.337   9.954  18.863  1.00  0.00     0.288 C 
HETATM   19  O2  UNL     1       4.296   9.798  20.116  1.00  0.00    -0.264 OA
ATOM     20  H2  UNL     1       4.738   9.048  16.981  1.00  0.00     0.162 HD
BRANCH  18  21
HETATM   21  C7  UNL     1       3.980  11.264  18.337  1.00  0.00     0.206 A 
HETATM   22  N3  UNL     1       4.813  12.275  18.004  1.00  0.00    -0.264 N 
HETATM   23  N4  UNL     1       4.093  13.280  17.566  1.00  0.00    -0.225 N 
ATOM     24  H3  UNL     1       5.831  12.259  18.080  1.00  0.00     0.190 HD
HETATM   25  N5  UNL     1       2.792  12.969  17.596  1.00  0.00    -0.223 N 
ATOM     26  H4  UNL     1       4.471  14.172  17.249  1.00  0.00     0.210 HD
HETATM   27  C8  UNL     1       1.727  13.854  17.178  1.00  0.00     0.202 C 
HETATM   28  N6  UNL     1       2.748  11.747  18.064  1.00  0.00    -0.262 N 
ATOM     29  H6  UNL     1       1.886  11.222  18.206  1.00  0.00     0.190 HD
ENDBRANCH  18  21
ENDBRANCH  16  17
ENDBRANCH   1  16
BRANCH   1  30
HETATM   30  N7  UNL     1       6.308   7.231  16.580  1.00  0.00    -0.350 N 
HETATM   31  C9  UNL     1       7.079   6.526  15.630  1.00  0.00     0.225 C 
HETATM   32  O3  UNL     1       7.994   5.745  15.994  1.00  0.00    -0.273 OA
ATOM     33  H7  UNL     1       5.583   7.848  16.215  1.00  0.00     0.163 HD
BRANCH  31  34
HETATM   34  C10 UNL     1       6.829   6.692  14.187  1.00  0.00     0.030 C 
HETATM   35  C11 UNL     1       6.549   8.128  13.798  1.00  0.00     0.024 C 
HETATM   36  C12 UNL     1       7.976   6.200  13.343  1.00  0.00     0.024 C 
HETATM   37  C13 UNL     1       5.589   5.901  13.760  1.00  0.00     0.024 C 
ENDBRANCH  31  34
ENDBRANCH   1  30
TORSDOF 10
ENDMDL
MODEL 5
REMARK VINA RESULT: -7.704403411      2.468      6.480
REMARK  10 active torsions:
REMARK  status: ('A' for Active; 'I' for Inactive)
REMARK    1  A    between atoms: C2_2  and  N1_3 
REMARK    2  A    between atoms: C2_2  and  C14_31 
REMARK    3  A    between atoms: N1_3  and  C3_5 
REMARK    4  A    between atoms: C3_5  and  O1_6 
REMARK    5  A    between atoms: C3_5  and  C4_8 
REMARK    6  A    between atoms: C4_8  and  C5_9 
REMARK    7  A    between atoms: C4_8  and  N7_23 
REMARK    8  A    between atoms: C5_9  and  N2_10 
REMARK       I    between atoms: N2_10  and  C6_12 
REMARK    9  A    between atoms: C6_12  and  C7_14 
REMARK       I    between atoms: N7_23  and  C9_25 
REMARK   10  A    between atoms: C9_25  and  C10_27 
ROOT
HETATM    1  C4  UNL     1       6.651   8.324  18.148  1.00  0.00     0.150 C 
ENDROOT
BRANCH   1   2
HETATM    2  C3  UNL     1       5.521   8.327  19.095  1.00  0.00     0.238 C 
BRANCH   2   3
HETATM    3  N1  UNL     1       4.971   9.532  19.553  1.00  0.00    -0.385 N 
ATOM      4  H1  UNL     1       4.912   9.692  20.559  1.00  0.00     0.156 HD
BRANCH   3   5
HETATM    5  C2  UNL     1       4.497  10.527  18.688  1.00  0.00     0.142 C 
HETATM    6  C1  UNL     1       3.181  11.153  19.020  1.00  0.00     0.040 C 
BRANCH   5   7
HETATM    7  C14 UNL     1       5.504  11.664  18.634  1.00  0.00     0.095 C 
HETATM    8  N8  UNL     1       6.585  11.762  19.311  1.00  0.00    -0.377 N 
HETATM    9  C15 UNL     1       7.325  12.968  19.029  1.00  0.00     0.140 C 
ATOM     10  H8  UNL     1       6.893  11.058  19.982  1.00  0.00     0.160 HD
HETATM   11  C16 UNL     1       6.705  13.459  17.728  1.00  0.00     0.140 C 
HETATM   12  N9  UNL     1       5.403  12.817  17.817  1.00  0.00    -0.377 N 
ATOM     13  H9  UNL     1       4.551  13.145  17.362  1.00  0.00     0.160 HD
ENDBRANCH   5   7
ENDBRANCH   3   5
ENDBRANCH   2   3
BRANCH   2  14
HETATM   14  O1  UNL     1       6.023   7.625  20.255  1.00  0.00    -0.375 OA
ATOM     15  H1  UNL     1       6.591   6.934  19.936  1.00  0.00     0.212 HD
ENDBRANCH   2  14
ENDBRANCH   1   2
BRANCH   1  16
HETATM   16  C5  UNL     1       7.999   8.305  18.899  1.00  0.00     0.152 C 
BRANCH  16  17
HETATM   17  N2  UNL     1       8.893   9.283  18.313  1.00  0.00    -0.352 N 
HETATM   18  C6  UNL     1      10.234   9.355  18.774  1.00  0.00     0.288 C 
HETATM   19  O2  UNL     1      10.669   8.592  19.681  1.00  0.00    -0.264 OA
ATOM     20  H2  UNL     1       8.563   9.911  17.580  1.00  0.00     0.162 HD
BRANCH  18  21
HETATM   21  C7  UNL     1      11.163  10.325  18.209  1.00  0.00     0.206 A 
HETATM   22  N3  UNL     1      11.809  10.255  17.023  1.00  0.00    -0.264 N 
HETATM   23  N4  UNL     1      12.547  11.331  16.889  1.00  0.00    -0.225 N 
ATOM     24  H3  UNL     1      11.735   9.495  16.346  1.00  0.00     0.190 HD
HETATM   25  N5  UNL     1      12.413  12.125  17.957  1.00  0.00    -0.223 N 
ATOM     26  H4  UNL     1      13.140  11.534  16.084  1.00  0.00     0.210 HD
HETATM   27  C8  UNL     1      13.089  13.393  18.128  1.00  0.00     0.202 C 
HETATM   28  N6  UNL     1      11.572  11.497  18.740  1.00  0.00    -0.262 N 
ATOM     29  H6  UNL     1      11.263  11.852  19.645  1.00  0.00     0.190 HD
ENDBRANCH  18  21
ENDBRANCH  16  17
ENDBRANCH   1  16
BRANCH   1  30
HETATM   30  N7  UNL     1       6.729   7.222  17.230  1.00  0.00    -0.350 N 
HETATM   31  C9  UNL     1       6.745   7.297  15.820  1.00  0.00     0.225 C 
HETATM   32  O3  UNL     1       6.688   8.407  15.233  1.00  0.00    -0.273 OA
ATOM     33  H7  UNL     1       6.778   6.289  17.638  1.00  0.00     0.163 HD
BRANCH  31  34
HETATM   34  C10 UNL     1       6.828   6.073  15.001  1.00  0.00     0.030 C 
HETATM   35  C11 UNL     1       5.804   6.038  13.888  1.00  0.00     0.024 C 
HETATM   36  C12 UNL     1       8.189   5.887  14.383  1.00  0.00     0.024 C 
HETATM   37  C13 UNL     1       6.551   4.833  15.855  1.00  0.00     0.024 C 
ENDBRANCH  31  34
ENDBRANCH   1  30
TORSDOF 10
ENDMDL
