MODEL 1
REMARK VINA RESULT: -8.816140044      0.000      0.000
REMARK  8 active torsions:
REMARK  status: ('A' for Active; 'I' for Inactive)
REMARK    1  A    between atoms: N1_1  and  C1_5 
REMARK    2  A    between atoms: C1_5  and  C2_6 
REMARK    3  A    between atoms: C2_6  and  C3_7 
REMARK    4  A    between atoms: C3_7  and  C4_9 
REMARK       I    between atoms: C4_9  and  N2_11 
REMARK    5  A    between atoms: N2_11  and  C5_13 
REMARK    6  A    between atoms: C6_14  and  N3_15 
REMARK    7  A    between atoms: N3_15  and  C7_17 
REMARK    8  A    between atoms: C8_21  and  C9_22 
REMARK       I    between atoms: C9_22  and  N5_24 
ROOT
HETATM    1  C5  UNL     1       6.803  10.877  18.684  1.00  0.00     0.121 A 
HETATM    2  C6  UNL     1       5.596  10.281  19.057  1.00  0.00     0.120 A 
HETATM    3  C14 UNL     1       4.887  11.361  18.578  1.00  0.00     0.253 A 
HETATM    4  O5  UNL     1       3.689  11.739  18.476  1.00  0.00    -0.281 OA
HETATM    5  C15 UNL     1       6.079  11.951  18.210  1.00  0.00     0.253 A 
HETATM    6  O6  UNL     1       6.429  13.040  17.656  1.00  0.00    -0.281 OA
ENDROOT
BRANCH   2   7
HETATM    7  N3  UNL     1       5.225   9.058  19.677  1.00  0.00    -0.328 N 
ATOM      8  H3  UNL     1       4.491   9.038  20.384  1.00  0.00     0.168 HD
BRANCH   7   9
HETATM    9  C7  UNL     1       5.893   7.860  19.297  1.00  0.00     0.205 A 
HETATM   10  O3  UNL     1       6.490   6.919  19.946  1.00  0.00    -0.216 OA
HETATM   11  N4  UNL     1       6.756   6.317  18.831  1.00  0.00    -0.250 N 
HETATM   12  C8  UNL     1       6.160   7.242  18.063  1.00  0.00     0.176 A 
ATOM     13  H4  UNL     1       7.245   5.449  18.613  1.00  0.00     0.195 HD
BRANCH  12  14
HETATM   14  C9  UNL     1       5.869   7.556  16.689  1.00  0.00     0.276 C 
HETATM   15  O4  UNL     1       4.736   8.121  16.471  1.00  0.00    -0.266 OA
HETATM   16  N5  UNL     1       6.664   7.321  15.562  1.00  0.00    -0.343 N 
HETATM   17  C10 UNL     1       6.150   7.731  14.235  1.00  0.00     0.153 C 
HETATM   18  C13 UNL     1       7.970   6.711  15.517  1.00  0.00     0.153 C 
HETATM   19  C11 UNL     1       6.321   6.650  13.215  1.00  0.00     0.252 C 
HETATM   20  N6  UNL     1       7.575   5.956  13.295  1.00  0.00    -0.072 N 
HETATM   21  C12 UNL     1       7.788   5.454  14.651  1.00  0.00     0.252 C 
ATOM     22  H62 UNL     1       7.644   5.214  12.599  1.00  0.00     0.277 HD
ATOM     23  H61 UNL     1       8.352   6.535  12.976  1.00  0.00     0.277 HD
ENDBRANCH  12  14
ENDBRANCH   7   9
ENDBRANCH   2   7
BRANCH   1  24
HETATM   24  N2  UNL     1       8.160  10.471  18.790  1.00  0.00    -0.315 N 
HETATM   25  C4  UNL     1       8.930  10.065  17.673  1.00  0.00     0.292 C 
HETATM   26  O2  UNL     1       8.386  10.065  16.542  1.00  0.00    -0.264 OA
ATOM     27  H2  UNL     1       8.599  10.472  19.711  1.00  0.00     0.169 HD
BRANCH  25  28
HETATM   28  C3  UNL     1      10.314   9.654  17.804  1.00  0.00     0.218 C 
HETATM   29  O1  UNL     1      11.132   9.687  16.850  1.00  0.00    -0.287 OA
BRANCH  28  30
HETATM   30  C2  UNL     1      10.839   9.162  19.115  1.00  0.00     0.116 C 
BRANCH  30  31
HETATM   31  C1  UNL     1      12.247   9.687  19.337  1.00  0.00     0.237 C 
BRANCH  31  32
HETATM   32  N1  UNL     1      12.258  11.129  19.266  1.00  0.00    -0.079 N 
ATOM     33  H13 UNL     1      12.255  11.556  20.192  1.00  0.00     0.274 HD
ATOM     34  H12 UNL     1      13.155  11.488  18.939  1.00  0.00     0.274 HD
ATOM     35  H11 UNL     1      11.483  11.458  18.691  1.00  0.00     0.274 HD
ENDBRANCH  31  32
ENDBRANCH  30  31
ENDBRANCH  28  30
ENDBRANCH  25  28
ENDBRANCH   1  24
TORSDOF 8
ENDMDL
MODEL 2
REMARK VINA RESULT: -8.483954348      2.595      5.380
REMARK  8 active torsions:
REMARK  status: ('A' for Active; 'I' for Inactive)
REMARK    1  A    between atoms: N1_1  and  C1_5 
REMARK    2  A    between atoms: C1_5  and  C2_6 
REMARK    3  A    between atoms: C2_6  and  C3_7 
REMARK    4  A    between atoms: C3_7  and  C4_9 
REMARK       I    between atoms: C4_9  and  N2_11 
REMARK    5  A    between atoms: N2_11  and  C5_13 
REMARK    6  A    between atoms: C6_14  and  N3_15 
REMARK    7  A    between atoms: N3_15  and  C7_17 
REMARK    8  A    between atoms: C8_21  and  C9_22 
REMARK       I    between atoms: C9_22  and  N5_24 
ROOT
HETATM    1  C5  UNL     1       5.743  11.903  18.022  1.00  0.00     0.121 A 
HETATM    2  C6  UNL     1       6.255  10.694  17.546  1.00  0.00     0.120 A 
HETATM    3  C14 UNL     1       7.446  10.911  18.205  1.00  0.00     0.253 A 
HETATM    4  O5  UNL     1       8.557  10.339  18.368  1.00  0.00    -0.281 OA
HETATM    5  C15 UNL     1       6.940  12.106  18.675  1.00  0.00     0.253 A 
HETATM    6  O6  UNL     1       7.362  13.051  19.414  1.00  0.00    -0.281 OA
ENDROOT
BRANCH   2   7
HETATM    7  N3  UNL     1       5.766   9.648  16.718  1.00  0.00    -0.328 N 
ATOM      8  H3  UNL     1       5.632   9.798  15.719  1.00  0.00     0.168 HD
BRANCH   7   9
HETATM    9  C7  UNL     1       5.464   8.387  17.304  1.00  0.00     0.205 A 
HETATM   10  O3  UNL     1       4.630   7.989  18.204  1.00  0.00    -0.216 OA
HETATM   11  N4  UNL     1       5.062   6.776  18.071  1.00  0.00    -0.250 N 
HETATM   12  C8  UNL     1       5.965   7.085  17.127  1.00  0.00     0.176 A 
ATOM     13  H4  UNL     1       4.808   5.898  18.523  1.00  0.00     0.195 HD
BRANCH  12  14
HETATM   14  C9  UNL     1       6.972   6.493  16.287  1.00  0.00     0.276 C 
HETATM   15  O4  UNL     1       8.096   6.239  16.854  1.00  0.00    -0.266 OA
HETATM   16  N5  UNL     1       6.879   6.160  14.931  1.00  0.00    -0.343 N 
HETATM   17  C10 UNL     1       8.058   5.556  14.268  1.00  0.00     0.153 C 
HETATM   18  C13 UNL     1       5.744   6.330  14.057  1.00  0.00     0.153 C 
HETATM   19  C11 UNL     1       8.350   6.207  12.954  1.00  0.00     0.252 C 
HETATM   20  N6  UNL     1       7.184   6.505  12.170  1.00  0.00    -0.072 N 
HETATM   21  C12 UNL     1       6.234   7.287  12.958  1.00  0.00     0.252 C 
ATOM     22  H62 UNL     1       7.422   6.966  11.293  1.00  0.00     0.277 HD
ATOM     23  H61 UNL     1       6.757   5.662  11.786  1.00  0.00     0.277 HD
ENDBRANCH  12  14
ENDBRANCH   7   9
ENDBRANCH   2   7
BRANCH   1  24
HETATM   24  N2  UNL     1       4.498  12.565  17.850  1.00  0.00    -0.315 N 
HETATM   25  C4  UNL     1       3.263  11.990  18.236  1.00  0.00     0.292 C 
HETATM   26  O2  UNL     1       3.273  10.845  18.750  1.00  0.00    -0.264 OA
ATOM     27  H2  UNL     1       4.494  13.495  17.431  1.00  0.00     0.169 HD
BRANCH  25  28
HETATM   28  C3  UNL     1       2.003  12.684  18.050  1.00  0.00     0.218 C 
HETATM   29  O1  UNL     1       0.887  12.133  18.224  1.00  0.00    -0.287 OA
BRANCH  28  30
HETATM   30  C2  UNL     1       1.981  14.119  17.635  1.00  0.00     0.116 C 
BRANCH  30  31
HETATM   31  C1  UNL     1       1.254  14.262  16.308  1.00  0.00     0.237 C 
BRANCH  31  32
HETATM   32  N1  UNL     1       1.850  13.395  15.319  1.00  0.00    -0.079 N 
ATOM     33  H13 UNL     1       2.000  13.875  14.432  1.00  0.00     0.274 HD
ATOM     34  H12 UNL     1       2.822  13.177  15.539  1.00  0.00     0.274 HD
ATOM     35  H11 UNL     1       1.287  12.552  15.206  1.00  0.00     0.274 HD
ENDBRANCH  31  32
ENDBRANCH  30  31
ENDBRANCH  28  30
ENDBRANCH  25  28
ENDBRANCH   1  24
TORSDOF 8
ENDMDL
MODEL 3
REMARK VINA RESULT: -8.479514950      2.228      5.066
REMARK  8 active torsions:
REMARK  status: ('A' for Active; 'I' for Inactive)
REMARK    1  A    between atoms: N1_1  and  C1_5 
REMARK    2  A    between atoms: C1_5  and  C2_6 
REMARK    3  A    between atoms: C2_6  and  C3_7 
REMARK    4  A    between atoms: C3_7  and  C4_9 
REMARK       I    between atoms: C4_9  and  N2_11 
REMARK    5  A    between atoms: N2_11  and  C5_13 
REMARK    6  A    between atoms: C6_14  and  N3_15 
REMARK    7  A    between atoms: N3_15  and  C7_17 
REMARK    8  A    between atoms: C8_21  and  C9_22 
REMARK       I    between atoms: C9_22  and  N5_24 
ROOT
HETATM    1  C5  UNL     1       5.701  11.734  18.339  1.00  0.00     0.121 A 
HETATM    2  C6  UNL     1       6.139  10.530  18.896  1.00  0.00     0.120 A 
HETATM    3  C14 UNL     1       7.421  10.762  18.447  1.00  0.00     0.253 A 
HETATM    4  O5  UNL     1       8.550  10.203  18.474  1.00  0.00    -0.281 OA
HETATM    5  C15 UNL     1       6.989  11.951  17.897  1.00  0.00     0.253 A 
HETATM    6  O6  UNL     1       7.518  12.901  17.238  1.00  0.00    -0.281 OA
ENDROOT
BRANCH   2   7
HETATM    7  N3  UNL     1       5.530   9.479  19.633  1.00  0.00    -0.328 N 
ATOM      8  H3  UNL     1       4.848   9.686  20.362  1.00  0.00     0.168 HD
BRANCH   7   9
HETATM    9  C7  UNL     1       5.883   8.133  19.338  1.00  0.00     0.205 A 
HETATM   10  O3  UNL     1       6.228   7.117  20.054  1.00  0.00    -0.216 OA
HETATM   11  N4  UNL     1       6.342   6.400  18.982  1.00  0.00    -0.250 N 
HETATM   12  C8  UNL     1       5.995   7.393  18.149  1.00  0.00     0.176 A 
ATOM     13  H4  UNL     1       6.603   5.426  18.826  1.00  0.00     0.195 HD
BRANCH  12  14
HETATM   14  C9  UNL     1       5.796   7.681  16.753  1.00  0.00     0.276 C 
HETATM   15  O4  UNL     1       4.715   8.311  16.460  1.00  0.00    -0.266 OA
HETATM   16  N5  UNL     1       6.631   7.361  15.677  1.00  0.00    -0.343 N 
HETATM   17  C10 UNL     1       6.213   7.762  14.314  1.00  0.00     0.153 C 
HETATM   18  C13 UNL     1       7.895   6.668  15.718  1.00  0.00     0.153 C 
HETATM   19  C11 UNL     1       6.364   6.642  13.334  1.00  0.00     0.252 C 
HETATM   20  N6  UNL     1       7.565   5.871  13.499  1.00  0.00    -0.072 N 
HETATM   21  C12 UNL     1       7.675   5.399  14.878  1.00  0.00     0.252 C 
ATOM     22  H62 UNL     1       7.621   5.105  12.829  1.00  0.00     0.277 HD
ATOM     23  H61 UNL     1       8.394   6.389  13.207  1.00  0.00     0.277 HD
ENDBRANCH  12  14
ENDBRANCH   7   9
ENDBRANCH   2   7
BRANCH   1  24
HETATM   24  N2  UNL     1       4.437  12.381  18.296  1.00  0.00    -0.315 N 
HETATM   25  C4  UNL     1       3.211  11.672  18.286  1.00  0.00     0.292 C 
HETATM   26  O2  UNL     1       3.248  10.417  18.316  1.00  0.00    -0.264 OA
ATOM     27  H2  UNL     1       4.411  13.400  18.272  1.00  0.00     0.169 HD
BRANCH  25  28
HETATM   28  C3  UNL     1       1.932  12.352  18.241  1.00  0.00     0.218 C 
HETATM   29  O1  UNL     1       0.868  11.839  18.671  1.00  0.00    -0.287 OA
BRANCH  28  30
HETATM   30  C2  UNL     1       1.824  13.729  17.668  1.00  0.00     0.116 C 
BRANCH  30  31
HETATM   31  C1  UNL     1       1.080  13.679  16.344  1.00  0.00     0.237 C 
BRANCH  31  32
HETATM   32  N1  UNL     1       2.003  13.417  15.265  1.00  0.00    -0.079 N 
ATOM     33  H13 UNL     1       2.259  14.269  14.767  1.00  0.00     0.274 HD
ATOM     34  H12 UNL     1       2.929  13.161  15.609  1.00  0.00     0.274 HD
ATOM     35  H11 UNL     1       1.619  12.709  14.639  1.00  0.00     0.274 HD
ENDBRANCH  31  32
ENDBRANCH  30  31
ENDBRANCH  28  30
ENDBRANCH  25  28
ENDBRANCH   1  24
TORSDOF 8
ENDMDL
MODEL 4
REMARK VINA RESULT: -8.382438918      1.745      4.521
REMARK  8 active torsions:
REMARK  status: ('A' for Active; 'I' for Inactive)
REMARK    1  A    between atoms: N1_1  and  C1_5 
REMARK    2  A    between atoms: C1_5  and  C2_6 
REMARK    3  A    between atoms: C2_6  and  C3_7 
REMARK    4  A    between atoms: C3_7  and  C4_9 
REMARK       I    between atoms: C4_9  and  N2_11 
REMARK    5  A    between atoms: N2_11  and  C5_13 
REMARK    6  A    between atoms: C6_14  and  N3_15 
REMARK    7  A    between atoms: N3_15  and  C7_17 
REMARK    8  A    between atoms: C8_21  and  C9_22 
REMARK       I    between atoms: C9_22  and  N5_24 
ROOT
HETATM    1  C5  UNL     1       8.034  10.235  17.550  1.00  0.00     0.121 A 
HETATM    2  C6  UNL     1       8.825   9.112  17.805  1.00  0.00     0.120 A 
HETATM    3  C14 UNL     1       9.938   9.756  17.308  1.00  0.00     0.253 A 
HETATM    4  O5  UNL     1      11.163   9.524  17.123  1.00  0.00    -0.281 OA
HETATM    5  C15 UNL     1       9.157  10.865  17.056  1.00  0.00     0.253 A 
HETATM    6  O6  UNL     1       9.342  12.024  16.568  1.00  0.00    -0.281 OA
ENDROOT
BRANCH   2   7
HETATM    7  N3  UNL     1       8.598   7.822  18.353  1.00  0.00    -0.328 N 
ATOM      8  H3  UNL     1       9.381   7.243  18.656  1.00  0.00     0.168 HD
BRANCH   7   9
HETATM    9  C7  UNL     1       7.262   7.349  18.476  1.00  0.00     0.205 A 
HETATM   10  O3  UNL     1       6.579   6.821  19.434  1.00  0.00    -0.216 OA
HETATM   11  N4  UNL     1       5.549   6.733  18.654  1.00  0.00    -0.250 N 
HETATM   12  C8  UNL     1       6.170   7.272  17.593  1.00  0.00     0.176 A 
ATOM     13  H4  UNL     1       4.603   6.380  18.795  1.00  0.00     0.195 HD
BRANCH  12  14
HETATM   14  C9  UNL     1       5.950   7.640  16.220  1.00  0.00     0.276 C 
HETATM   15  O4  UNL     1       4.890   8.328  15.987  1.00  0.00    -0.266 OA
HETATM   16  N5  UNL     1       6.745   7.343  15.108  1.00  0.00    -0.343 N 
HETATM   17  C10 UNL     1       6.312   7.830  13.778  1.00  0.00     0.153 C 
HETATM   18  C13 UNL     1       7.980   6.598  15.081  1.00  0.00     0.153 C 
HETATM   19  C11 UNL     1       6.394   6.757  12.739  1.00  0.00     0.252 C 
HETATM   20  N6  UNL     1       7.564   5.931  12.834  1.00  0.00    -0.072 N 
HETATM   21  C12 UNL     1       7.687   5.384  14.184  1.00  0.00     0.252 C 
ATOM     22  H62 UNL     1       7.573   5.199  12.124  1.00  0.00     0.277 HD
ATOM     23  H61 UNL     1       8.407   6.429  12.547  1.00  0.00     0.277 HD
ENDBRANCH  12  14
ENDBRANCH   7   9
ENDBRANCH   2   7
BRANCH   1  24
HETATM   24  N2  UNL     1       6.656  10.517  17.750  1.00  0.00    -0.315 N 
HETATM   25  C4  UNL     1       6.043  10.491  19.027  1.00  0.00     0.292 C 
HETATM   26  O2  UNL     1       6.753  10.205  20.022  1.00  0.00    -0.264 OA
ATOM     27  H2  UNL     1       6.082  10.749  16.939  1.00  0.00     0.169 HD
BRANCH  25  28
HETATM   28  C3  UNL     1       4.635  10.781  19.207  1.00  0.00     0.218 C 
HETATM   29  O1  UNL     1       3.953  10.303  20.149  1.00  0.00    -0.287 OA
BRANCH  28  30
HETATM   30  C2  UNL     1       3.918  11.686  18.258  1.00  0.00     0.116 C 
BRANCH  30  31
HETATM   31  C1  UNL     1       2.442  11.744  18.614  1.00  0.00     0.237 C 
BRANCH  31  32
HETATM   32  N1  UNL     1       1.697  12.374  17.549  1.00  0.00    -0.079 N 
ATOM     33  H13 UNL     1       2.250  12.461  16.697  1.00  0.00     0.274 HD
ATOM     34  H12 UNL     1       0.961  11.767  17.189  1.00  0.00     0.274 HD
ATOM     35  H11 UNL     1       1.331  13.274  17.861  1.00  0.00     0.274 HD
ENDBRANCH  31  32
ENDBRANCH  30  31
ENDBRANCH  28  30
ENDBRANCH  25  28
ENDBRANCH   1  24
TORSDOF 8
ENDMDL
MODEL 5
REMARK VINA RESULT: -8.254761479      2.305      3.309
REMARK  8 active torsions:
REMARK  status: ('A' for Active; 'I' for Inactive)
REMARK    1  A    between atoms: N1_1  and  C1_5 
REMARK    2  A    between atoms: C1_5  and  C2_6 
REMARK    3  A    between atoms: C2_6  and  C3_7 
REMARK    4  A    between atoms: C3_7  and  C4_9 
REMARK       I    between atoms: C4_9  and  N2_11 
REMARK    5  A    between atoms: N2_11  and  C5_13 
REMARK    6  A    between atoms: C6_14  and  N3_15 
REMARK    7  A    between atoms: N3_15  and  C7_17 
REMARK    8  A    between atoms: C8_21  and  C9_22 
REMARK       I    between atoms: C9_22  and  N5_24 
ROOT
HETATM    1  C5  UNL     1       8.745   9.933  18.775  1.00  0.00     0.121 A 
HETATM    2  C6  UNL     1       7.391   9.626  18.624  1.00  0.00     0.120 A 
HETATM    3  C14 UNL     1       7.538   8.491  19.391  1.00  0.00     0.253 A 
HETATM    4  O5  UNL     1       6.832   7.540  19.821  1.00  0.00    -0.281 OA
HETATM    5  C15 UNL     1       8.876   8.793  19.540  1.00  0.00     0.253 A 
HETATM    6  O6  UNL     1       9.873   8.270  20.132  1.00  0.00    -0.281 OA
ENDROOT
BRANCH   2   7
HETATM    7  N3  UNL     1       6.290  10.227  17.957  1.00  0.00    -0.328 N 
ATOM      8  H3  UNL     1       6.245  11.239  17.840  1.00  0.00     0.168 HD
BRANCH   7   9
HETATM    9  C7  UNL     1       5.250   9.397  17.454  1.00  0.00     0.205 A 
HETATM   10  O3  UNL     1       4.041   9.145  17.826  1.00  0.00    -0.216 OA
HETATM   11  N4  UNL     1       3.900   8.336  16.825  1.00  0.00    -0.250 N 
HETATM   12  C8  UNL     1       5.142   8.528  16.354  1.00  0.00     0.176 A 
ATOM     13  H4  UNL     1       3.122   7.758  16.507  1.00  0.00     0.195 HD
BRANCH  12  14
HETATM   14  C9  UNL     1       6.024   8.125  15.291  1.00  0.00     0.276 C 
HETATM   15  O4  UNL     1       5.874   8.743  14.174  1.00  0.00    -0.266 OA
HETATM   16  N5  UNL     1       7.023   7.146  15.321  1.00  0.00    -0.343 N 
HETATM   17  C10 UNL     1       7.811   6.901  14.092  1.00  0.00     0.153 C 
HETATM   18  C13 UNL     1       7.406   6.312  16.433  1.00  0.00     0.153 C 
HETATM   19  C11 UNL     1       7.929   5.441  13.790  1.00  0.00     0.252 C 
HETATM   20  N6  UNL     1       8.158   4.616  14.942  1.00  0.00    -0.072 N 
HETATM   21  C12 UNL     1       7.139   4.875  15.957  1.00  0.00     0.252 C 
ATOM     22  H62 UNL     1       8.211   3.627  14.699  1.00  0.00     0.277 HD
ATOM     23  H61 UNL     1       9.102   4.731  15.312  1.00  0.00     0.277 HD
ENDBRANCH  12  14
ENDBRANCH   7   9
ENDBRANCH   2   7
BRANCH   1  24
HETATM   24  N2  UNL     1       9.559  10.996  18.301  1.00  0.00    -0.315 N 
HETATM   25  C4  UNL     1      10.677  10.790  17.456  1.00  0.00     0.292 C 
HETATM   26  O2  UNL     1      10.957   9.614  17.115  1.00  0.00    -0.264 OA
ATOM     27  H2  UNL     1       9.329  11.949  18.580  1.00  0.00     0.169 HD
BRANCH  25  28
HETATM   28  C3  UNL     1      11.495  11.890  16.983  1.00  0.00     0.218 C 
HETATM   29  O1  UNL     1      12.612  11.724  16.432  1.00  0.00    -0.287 OA
BRANCH  28  30
HETATM   30  C2  UNL     1      11.029  13.302  17.136  1.00  0.00     0.116 C 
BRANCH  30  31
HETATM   31  C1  UNL     1      10.098  13.665  15.991  1.00  0.00     0.237 C 
BRANCH  31  32
HETATM   32  N1  UNL     1      10.597  13.119  14.751  1.00  0.00    -0.079 N 
ATOM     33  H13 UNL     1      10.654  12.101  14.778  1.00  0.00     0.274 HD
ATOM     34  H12 UNL     1       9.920  13.212  13.994  1.00  0.00     0.274 HD
ATOM     35  H11 UNL     1      11.494  13.545  14.516  1.00  0.00     0.274 HD
ENDBRANCH  31  32
ENDBRANCH  30  31
ENDBRANCH  28  30
ENDBRANCH  25  28
ENDBRANCH   1  24
TORSDOF 8
ENDMDL
