MODEL 1
REMARK VINA RESULT: -7.726490712      0.000      0.000
REMARK  14 active torsions:
REMARK  status: ('A' for Active; 'I' for Inactive)
REMARK    1  A    between atoms: O1_2  and  N1_3 
REMARK    2  A    between atoms: C2_5  and  C3_6 
REMARK    3  A    between atoms: C2_5  and  N2_20 
REMARK    4  A    between atoms: C4_7  and  C5_8 
REMARK    5  A    between atoms: C5_8  and  C6_9 
REMARK    6  A    between atoms: C6_9  and  O2_10 
REMARK    7  A    between atoms: O2_10  and  C7_11 
REMARK    8  A    between atoms: C7_11  and  C8_13 
REMARK    9  A    between atoms: C8_13  and  O4_15 
REMARK   10  A    between atoms: C8_13  and  C10_17 
REMARK   11  A    between atoms: C10_17  and  O5_18 
REMARK   12  A    between atoms: N2_20  and  N3_22 
REMARK   13  A    between atoms: C14_27  and  O6_28 
REMARK   14  A    between atoms: C14_27  and  C15_30 
ROOT
HETATM    1  N1  UNL     1       4.732   9.399  19.808  1.00  0.00    -0.242 N 
ATOM      2  H1  UNL     1       4.373   8.459  19.975  1.00  0.00     0.196 HD
HETATM    3  C2  UNL     1       5.958   9.570  19.432  1.00  0.00     0.196 C 
ENDROOT
BRANCH   3   4
HETATM    4  C3  UNL     1       6.514  10.870  19.182  1.00  0.00    -0.027 C 
HETATM    5  C4  UNL     1       6.986  11.953  18.953  1.00  0.00    -0.096 C 
BRANCH   5   6
HETATM    6  C5  UNL     1       7.577  13.280  18.649  1.00  0.00     0.121 C 
BRANCH   6   7
HETATM    7  C6  UNL     1       8.798  13.119  17.807  1.00  0.00     0.191 C 
BRANCH   7   8
HETATM    8  O2  UNL     1       9.787  12.281  18.312  1.00  0.00    -0.318 OA
BRANCH   8   9
HETATM    9  C7  UNL     1      10.080  11.070  17.734  1.00  0.00     0.295 C 
HETATM   10  O3  UNL     1       9.316  10.595  16.864  1.00  0.00    -0.262 OA
BRANCH   9  11
HETATM   11  C8  UNL     1      11.291  10.285  18.108  1.00  0.00     0.162 C 
HETATM   12  C9  UNL     1      12.247  11.164  18.875  1.00  0.00     0.059 C 
BRANCH  11  13
HETATM   13  O4  UNL     1      11.911   9.832  16.965  1.00  0.00    -0.378 OA
ATOM     14  H4  UNL     1      11.747  10.442  16.256  1.00  0.00     0.211 HD
ENDBRANCH  11  13
BRANCH  11  15
HETATM   15  C10 UNL     1      10.929   9.110  18.995  1.00  0.00     0.212 C 
BRANCH  15  16
HETATM   16  O5  UNL     1       9.704   9.251  19.598  1.00  0.00    -0.397 OA
ATOM     17  H5  UNL     1       8.988   8.927  19.065  1.00  0.00     0.209 HD
ENDBRANCH  15  16
ENDBRANCH  11  15
ENDBRANCH   9  11
ENDBRANCH   8   9
ENDBRANCH   7   8
ENDBRANCH   6   7
ENDBRANCH   5   6
ENDBRANCH   3   4
BRANCH   3  18
HETATM   18  N2  UNL     1       6.753   8.416  19.271  1.00  0.00    -0.277 N 
ATOM     19  H2  UNL     1       6.758   7.703  20.001  1.00  0.00     0.189 HD
BRANCH  18  20
HETATM   20  N3  UNL     1       7.527   8.235  18.133  1.00  0.00    -0.307 N 
HETATM   21  C11 UNL     1       7.246   7.373  17.240  1.00  0.00     0.007 C 
HETATM   22  C12 UNL     1       6.082   6.444  17.262  1.00  0.00     0.057 C 
HETATM   23  C16 UNL     1       8.031   7.127  15.996  1.00  0.00     0.103 C 
HETATM   24  C13 UNL     1       6.635   5.286  16.419  1.00  0.00     0.055 C 
HETATM   25  C14 UNL     1       7.239   6.041  15.265  1.00  0.00     0.150 C 
ATOM     26  H3  UNL     1       8.356   8.818  18.008  1.00  0.00     0.186 HD
BRANCH  25  27
HETATM   27  O6  UNL     1       6.192   6.609  14.544  1.00  0.00    -0.378 OA
ATOM     28  H6  UNL     1       5.823   5.929  13.993  1.00  0.00     0.211 HD
ENDBRANCH  25  27
BRANCH  25  29
HETATM   29  C15 UNL     1       8.073   5.227  14.388  1.00  0.00     0.209 C 
HETATM   30  O7  UNL     1       8.518   4.125  14.772  1.00  0.00    -0.646 OA
HETATM   31  O8  UNL     1       8.374   5.676  13.122  1.00  0.00    -0.646 OA
ENDBRANCH  25  29
ENDBRANCH  18  20
ENDBRANCH   3  18
BRANCH   1  32
HETATM   32  O1  UNL     1       3.926  10.481  19.976  1.00  0.00    -0.283 OA
HETATM   33  C1  UNL     1       3.219  11.014  18.857  1.00  0.00     0.237 C 
ENDBRANCH   1  32
TORSDOF 14
ENDMDL
MODEL 2
REMARK VINA RESULT: -7.301981595      3.778      8.298
REMARK  14 active torsions:
REMARK  status: ('A' for Active; 'I' for Inactive)
REMARK    1  A    between atoms: O1_2  and  N1_3 
REMARK    2  A    between atoms: C2_5  and  C3_6 
REMARK    3  A    between atoms: C2_5  and  N2_20 
REMARK    4  A    between atoms: C4_7  and  C5_8 
REMARK    5  A    between atoms: C5_8  and  C6_9 
REMARK    6  A    between atoms: C6_9  and  O2_10 
REMARK    7  A    between atoms: O2_10  and  C7_11 
REMARK    8  A    between atoms: C7_11  and  C8_13 
REMARK    9  A    between atoms: C8_13  and  O4_15 
REMARK   10  A    between atoms: C8_13  and  C10_17 
REMARK   11  A    between atoms: C10_17  and  O5_18 
REMARK   12  A    between atoms: N2_20  and  N3_22 
REMARK   13  A    between atoms: C14_27  and  O6_28 
REMARK   14  A    between atoms: C14_27  and  C15_30 
ROOT
HETATM    1  N1  UNL     1       5.704  12.392  18.342  1.00  0.00    -0.242 N 
ATOM      2  H1  UNL     1       5.607  13.406  18.275  1.00  0.00     0.196 HD
HETATM    3  C2  UNL     1       4.737  11.619  17.969  1.00  0.00     0.196 C 
ENDROOT
BRANCH   3   4
HETATM    4  C3  UNL     1       4.821  10.188  18.041  1.00  0.00    -0.027 C 
HETATM    5  C4  UNL     1       4.909   8.989  18.091  1.00  0.00    -0.096 C 
BRANCH   5   6
HETATM    6  C5  UNL     1       5.037   7.511  18.137  1.00  0.00     0.121 C 
BRANCH   6   7
HETATM    7  C6  UNL     1       6.367   7.126  18.691  1.00  0.00     0.191 C 
BRANCH   7   8
HETATM    8  O2  UNL     1       7.125   6.252  17.919  1.00  0.00    -0.318 OA
BRANCH   8   9
HETATM    9  C7  UNL     1       7.488   6.548  16.628  1.00  0.00     0.295 C 
HETATM   10  O3  UNL     1       8.234   7.528  16.401  1.00  0.00    -0.262 OA
BRANCH   9  11
HETATM   11  C8  UNL     1       7.023   5.737  15.467  1.00  0.00     0.162 C 
HETATM   12  C9  UNL     1       5.969   6.501  14.707  1.00  0.00     0.059 C 
BRANCH  11  13
HETATM   13  O4  UNL     1       6.484   4.555  15.924  1.00  0.00    -0.378 OA
ATOM     14  H4  UNL     1       6.675   3.862  15.303  1.00  0.00     0.211 HD
ENDBRANCH  11  13
BRANCH  11  15
HETATM   15  C10 UNL     1       8.164   5.445  14.513  1.00  0.00     0.212 C 
BRANCH  15  16
HETATM   16  O5  UNL     1       8.735   4.215  14.719  1.00  0.00    -0.397 OA
ATOM     17  H5  UNL     1       8.863   3.726  13.915  1.00  0.00     0.209 HD
ENDBRANCH  15  16
ENDBRANCH  11  15
ENDBRANCH   9  11
ENDBRANCH   8   9
ENDBRANCH   7   8
ENDBRANCH   6   7
ENDBRANCH   5   6
ENDBRANCH   3   4
BRANCH   3  18
HETATM   18  N2  UNL     1       3.569  12.237  17.474  1.00  0.00    -0.277 N 
ATOM     19  H2  UNL     1       3.633  12.870  16.677  1.00  0.00     0.189 HD
BRANCH  18  20
HETATM   20  N3  UNL     1       2.332  11.996  18.057  1.00  0.00    -0.307 N 
HETATM   21  C11 UNL     1       1.313  12.726  17.834  1.00  0.00     0.007 C 
HETATM   22  C12 UNL     1       1.275  13.920  16.943  1.00  0.00     0.057 C 
HETATM   23  C16 UNL     1      -0.041  12.526  18.424  1.00  0.00     0.103 C 
HETATM   24  C13 UNL     1       0.137  14.717  17.596  1.00  0.00     0.055 C 
HETATM   25  C14 UNL     1      -0.889  13.632  17.793  1.00  0.00     0.150 C 
ATOM     26  H3  UNL     1       2.236  11.202  18.691  1.00  0.00     0.186 HD
BRANCH  25  27
HETATM   27  O6  UNL     1      -1.333  13.243  16.533  1.00  0.00    -0.378 OA
ATOM     28  H6  UNL     1      -1.721  12.380  16.621  1.00  0.00     0.211 HD
ENDBRANCH  25  27
BRANCH  25  29
HETATM   29  C15 UNL     1      -2.020  14.024  18.628  1.00  0.00     0.209 C 
HETATM   30  O7  UNL     1      -2.677  13.166  19.255  1.00  0.00    -0.646 OA
HETATM   31  O8  UNL     1      -2.369  15.352  18.727  1.00  0.00    -0.646 OA
ENDBRANCH  25  29
ENDBRANCH  18  20
ENDBRANCH   3  18
BRANCH   1  32
HETATM   32  O1  UNL     1       6.851  11.844  18.825  1.00  0.00    -0.283 OA
HETATM   33  C1  UNL     1       8.074  12.027  18.112  1.00  0.00     0.237 C 
ENDBRANCH   1  32
TORSDOF 14
ENDMDL
MODEL 3
REMARK VINA RESULT: -7.190965498      1.653      1.951
REMARK  14 active torsions:
REMARK  status: ('A' for Active; 'I' for Inactive)
REMARK    1  A    between atoms: O1_2  and  N1_3 
REMARK    2  A    between atoms: C2_5  and  C3_6 
REMARK    3  A    between atoms: C2_5  and  N2_20 
REMARK    4  A    between atoms: C4_7  and  C5_8 
REMARK    5  A    between atoms: C5_8  and  C6_9 
REMARK    6  A    between atoms: C6_9  and  O2_10 
REMARK    7  A    between atoms: O2_10  and  C7_11 
REMARK    8  A    between atoms: C7_11  and  C8_13 
REMARK    9  A    between atoms: C8_13  and  O4_15 
REMARK   10  A    between atoms: C8_13  and  C10_17 
REMARK   11  A    between atoms: C10_17  and  O5_18 
REMARK   12  A    between atoms: N2_20  and  N3_22 
REMARK   13  A    between atoms: C14_27  and  O6_28 
REMARK   14  A    between atoms: C14_27  and  C15_30 
ROOT
HETATM    1  N1  UNL     1       2.834  11.166  18.196  1.00  0.00    -0.242 N 
ATOM      2  H1  UNL     1       1.980  10.611  18.135  1.00  0.00     0.196 HD
HETATM    3  C2  UNL     1       3.991  10.594  18.125  1.00  0.00     0.196 C 
ENDROOT
BRANCH   3   4
HETATM    4  C3  UNL     1       5.221  11.327  18.205  1.00  0.00    -0.027 C 
HETATM    5  C4  UNL     1       6.246  11.956  18.256  1.00  0.00    -0.096 C 
BRANCH   5   6
HETATM    6  C5  UNL     1       7.504  12.743  18.299  1.00  0.00     0.121 C 
BRANCH   6   7
HETATM    7  C6  UNL     1       8.576  12.046  17.531  1.00  0.00     0.191 C 
BRANCH   7   8
HETATM    8  O2  UNL     1       9.308  11.089  18.226  1.00  0.00    -0.318 OA
BRANCH   8   9
HETATM    9  C7  UNL     1      10.255  10.308  17.611  1.00  0.00     0.295 C 
HETATM   10  O3  UNL     1       9.897   9.384  16.846  1.00  0.00    -0.262 OA
BRANCH   9  11
HETATM   11  C8  UNL     1      11.716  10.519  17.821  1.00  0.00     0.162 C 
HETATM   12  C9  UNL     1      11.999  11.992  17.966  1.00  0.00     0.059 C 
BRANCH  11  13
HETATM   13  O4  UNL     1      12.407  10.029  16.736  1.00  0.00    -0.378 OA
ATOM     14  H4  UNL     1      13.029  10.683  16.438  1.00  0.00     0.211 HD
ENDBRANCH  11  13
BRANCH  11  15
HETATM   15  C10 UNL     1      12.191   9.829  19.085  1.00  0.00     0.212 C 
BRANCH  15  16
HETATM   16  O5  UNL     1      11.201   9.113  19.710  1.00  0.00    -0.397 OA
ATOM     17  H5  UNL     1      11.506   8.285  20.061  1.00  0.00     0.209 HD
ENDBRANCH  15  16
ENDBRANCH  11  15
ENDBRANCH   9  11
ENDBRANCH   8   9
ENDBRANCH   7   8
ENDBRANCH   6   7
ENDBRANCH   5   6
ENDBRANCH   3   4
BRANCH   3  18
HETATM   18  N2  UNL     1       4.010   9.192  17.964  1.00  0.00    -0.277 N 
ATOM     19  H2  UNL     1       3.707   8.593  18.732  1.00  0.00     0.189 HD
BRANCH  18  20
HETATM   20  N3  UNL     1       4.435   8.616  16.774  1.00  0.00    -0.307 N 
HETATM   21  C11 UNL     1       5.329   7.711  16.730  1.00  0.00     0.007 C 
HETATM   22  C12 UNL     1       6.047   7.136  17.903  1.00  0.00     0.057 C 
HETATM   23  C16 UNL     1       5.832   7.050  15.492  1.00  0.00     0.103 C 
HETATM   24  C13 UNL     1       7.363   6.706  17.240  1.00  0.00     0.055 C 
HETATM   25  C14 UNL     1       6.844   6.022  16.003  1.00  0.00     0.150 C 
ATOM     26  H3  UNL     1       4.014   8.931  15.900  1.00  0.00     0.186 HD
BRANCH  25  27
HETATM   27  O6  UNL     1       6.191   4.862  16.409  1.00  0.00    -0.378 OA
ATOM     28  H6  UNL     1       6.855   4.198  16.558  1.00  0.00     0.211 HD
ENDBRANCH  25  27
BRANCH  25  29
HETATM   29  C15 UNL     1       7.873   5.704  15.019  1.00  0.00     0.209 C 
HETATM   30  O7  UNL     1       8.204   6.538  14.149  1.00  0.00    -0.646 OA
HETATM   31  O8  UNL     1       8.488   4.473  15.048  1.00  0.00    -0.646 OA
ENDBRANCH  25  29
ENDBRANCH  18  20
ENDBRANCH   3  18
BRANCH   1  32
HETATM   32  O1  UNL     1       2.763  12.516  18.351  1.00  0.00    -0.283 OA
HETATM   33  C1  UNL     1       1.638  13.227  17.833  1.00  0.00     0.237 C 
ENDBRANCH   1  32
TORSDOF 14
ENDMDL
MODEL 4
REMARK VINA RESULT: -7.143512644      4.249      7.593
REMARK  14 active torsions:
REMARK  status: ('A' for Active; 'I' for Inactive)
REMARK    1  A    between atoms: O1_2  and  N1_3 
REMARK    2  A    between atoms: C2_5  and  C3_6 
REMARK    3  A    between atoms: C2_5  and  N2_20 
REMARK    4  A    between atoms: C4_7  and  C5_8 
REMARK    5  A    between atoms: C5_8  and  C6_9 
REMARK    6  A    between atoms: C6_9  and  O2_10 
REMARK    7  A    between atoms: O2_10  and  C7_11 
REMARK    8  A    between atoms: C7_11  and  C8_13 
REMARK    9  A    between atoms: C8_13  and  O4_15 
REMARK   10  A    between atoms: C8_13  and  C10_17 
REMARK   11  A    between atoms: C10_17  and  O5_18 
REMARK   12  A    between atoms: N2_20  and  N3_22 
REMARK   13  A    between atoms: C14_27  and  O6_28 
REMARK   14  A    between atoms: C14_27  and  C15_30 
ROOT
HETATM    1  N1  UNL     1       5.680  10.442  18.617  1.00  0.00    -0.242 N 
ATOM      2  H1  UNL     1       6.317   9.646  18.584  1.00  0.00     0.196 HD
HETATM    3  C2  UNL     1       4.443  10.303  18.267  1.00  0.00     0.196 C 
ENDROOT
BRANCH   3   4
HETATM    4  C3  UNL     1       3.506  11.389  18.294  1.00  0.00    -0.027 C 
HETATM    5  C4  UNL     1       2.705  12.287  18.305  1.00  0.00    -0.096 C 
BRANCH   5   6
HETATM    6  C5  UNL     1       1.704  13.384  18.303  1.00  0.00     0.121 C 
BRANCH   6   7
HETATM    7  C6  UNL     1       0.379  12.871  17.848  1.00  0.00     0.191 C 
BRANCH   7   8
HETATM    8  O2  UNL     1       0.038  13.136  16.526  1.00  0.00    -0.318 OA
BRANCH   8   9
HETATM    9  C7  UNL     1      -1.218  13.561  16.170  1.00  0.00     0.295 C 
HETATM   10  O3  UNL     1      -2.157  13.487  16.995  1.00  0.00    -0.262 OA
BRANCH   9  11
HETATM   11  C8  UNL     1      -1.514  14.116  14.818  1.00  0.00     0.162 C 
HETATM   12  C9  UNL     1      -0.847  15.458  14.664  1.00  0.00     0.059 C 
BRANCH  11  13
HETATM   13  O4  UNL     1      -2.875  14.268  14.676  1.00  0.00    -0.378 OA
ATOM     14  H4  UNL     1      -3.237  13.495  14.260  1.00  0.00     0.211 HD
ENDBRANCH  11  13
BRANCH  11  15
HETATM   15  C10 UNL     1      -0.985  13.206  13.727  1.00  0.00     0.212 C 
BRANCH  15  16
HETATM   16  O5  UNL     1       0.384  13.103  13.731  1.00  0.00    -0.397 OA
ATOM     17  H5  UNL     1       0.732  12.752  12.920  1.00  0.00     0.209 HD
ENDBRANCH  15  16
ENDBRANCH  11  15
ENDBRANCH   9  11
ENDBRANCH   8   9
ENDBRANCH   7   8
ENDBRANCH   6   7
ENDBRANCH   5   6
ENDBRANCH   3   4
BRANCH   3  18
HETATM   18  N2  UNL     1       4.031   9.020  17.847  1.00  0.00    -0.277 N 
ATOM     19  H2  UNL     1       3.397   8.478  18.435  1.00  0.00     0.189 HD
BRANCH  18  20
HETATM   20  N3  UNL     1       4.474   8.485  16.645  1.00  0.00    -0.307 N 
HETATM   21  C11 UNL     1       5.360   7.572  16.585  1.00  0.00     0.007 C 
HETATM   22  C12 UNL     1       6.047   6.946  17.749  1.00  0.00     0.057 C 
HETATM   23  C16 UNL     1       5.881   6.953  15.333  1.00  0.00     0.103 C 
HETATM   24  C13 UNL     1       7.372   6.527  17.097  1.00  0.00     0.055 C 
HETATM   25  C14 UNL     1       6.872   5.896  15.825  1.00  0.00     0.150 C 
ATOM     26  H3  UNL     1       4.074   8.837  15.776  1.00  0.00     0.186 HD
BRANCH  25  27
HETATM   27  O6  UNL     1       6.199   4.728  16.174  1.00  0.00    -0.378 OA
ATOM     28  H6  UNL     1       5.555   4.956  16.833  1.00  0.00     0.211 HD
ENDBRANCH  25  27
BRANCH  25  29
HETATM   29  C15 UNL     1       7.918   5.604  14.850  1.00  0.00     0.209 C 
HETATM   30  O7  UNL     1       8.279   6.468  14.023  1.00  0.00    -0.646 OA
HETATM   31  O8  UNL     1       8.515   4.364  14.841  1.00  0.00    -0.646 OA
ENDBRANCH  25  29
ENDBRANCH  18  20
ENDBRANCH   3  18
BRANCH   1  32
HETATM   32  O1  UNL     1       6.125  11.659  19.030  1.00  0.00    -0.283 OA
HETATM   33  C1  UNL     1       7.161  12.316  18.299  1.00  0.00     0.237 C 
ENDBRANCH   1  32
TORSDOF 14
ENDMDL
MODEL 5
REMARK VINA RESULT: -7.086955150      1.988      5.891
REMARK  14 active torsions:
REMARK  status: ('A' for Active; 'I' for Inactive)
REMARK    1  A    between atoms: O1_2  and  N1_3 
REMARK    2  A    between atoms: C2_5  and  C3_6 
REMARK    3  A    between atoms: C2_5  and  N2_20 
REMARK    4  A    between atoms: C4_7  and  C5_8 
REMARK    5  A    between atoms: C5_8  and  C6_9 
REMARK    6  A    between atoms: C6_9  and  O2_10 
REMARK    7  A    between atoms: O2_10  and  C7_11 
REMARK    8  A    between atoms: C7_11  and  C8_13 
REMARK    9  A    between atoms: C8_13  and  O4_15 
REMARK   10  A    between atoms: C8_13  and  C10_17 
REMARK   11  A    between atoms: C10_17  and  O5_18 
REMARK   12  A    between atoms: N2_20  and  N3_22 
REMARK   13  A    between atoms: C14_27  and  O6_28 
REMARK   14  A    between atoms: C14_27  and  C15_30 
ROOT
HETATM    1  N1  UNL     1       4.840  12.005  17.987  1.00  0.00    -0.242 N 
ATOM      2  H1  UNL     1       4.981  12.975  17.702  1.00  0.00     0.196 HD
HETATM    3  C2  UNL     1       5.690  11.095  17.641  1.00  0.00     0.196 C 
ENDROOT
BRANCH   3   4
HETATM    4  C3  UNL     1       5.541   9.717  18.015  1.00  0.00    -0.027 C 
HETATM    5  C4  UNL     1       5.414   8.557  18.308  1.00  0.00    -0.096 C 
BRANCH   5   6
HETATM    6  C5  UNL     1       5.252   7.121  18.646  1.00  0.00     0.121 C 
BRANCH   6   7
HETATM    7  C6  UNL     1       6.574   6.431  18.612  1.00  0.00     0.191 C 
BRANCH   7   8
HETATM    8  O2  UNL     1       7.230   6.417  17.386  1.00  0.00    -0.318 OA
BRANCH   8   9
HETATM    9  C7  UNL     1       6.765   5.687  16.320  1.00  0.00     0.295 C 
HETATM   10  O3  UNL     1       6.242   4.566  16.514  1.00  0.00    -0.262 OA
BRANCH   9  11
HETATM   11  C8  UNL     1       6.858   6.184  14.917  1.00  0.00     0.162 C 
HETATM   12  C9  UNL     1       6.863   7.691  14.913  1.00  0.00     0.059 C 
BRANCH  11  13
HETATM   13  O4  UNL     1       5.772   5.733  14.201  1.00  0.00    -0.378 OA
ATOM     14  H4  UNL     1       5.247   6.475  13.925  1.00  0.00     0.211 HD
ENDBRANCH  11  13
BRANCH  11  15
HETATM   15  C10 UNL     1       8.139   5.715  14.256  1.00  0.00     0.212 C 
BRANCH  15  16
HETATM   16  O5  UNL     1       8.566   4.495  14.718  1.00  0.00    -0.397 OA
ATOM     17  H5  UNL     1       7.870   3.850  14.762  1.00  0.00     0.209 HD
ENDBRANCH  15  16
ENDBRANCH  11  15
ENDBRANCH   9  11
ENDBRANCH   8   9
ENDBRANCH   7   8
ENDBRANCH   6   7
ENDBRANCH   5   6
ENDBRANCH   3   4
BRANCH   3  18
HETATM   18  N2  UNL     1       6.797  11.503  16.866  1.00  0.00    -0.277 N 
ATOM     19  H2  UNL     1       6.716  11.533  15.850  1.00  0.00     0.189 HD
BRANCH  18  20
HETATM   20  N3  UNL     1       7.994  11.866  17.468  1.00  0.00    -0.307 N 
HETATM   21  C11 UNL     1       8.950  11.044  17.646  1.00  0.00     0.007 C 
HETATM   22  C12 UNL     1       8.947   9.606  17.258  1.00  0.00     0.057 C 
HETATM   23  C16 UNL     1      10.260  11.364  18.282  1.00  0.00     0.103 C 
HETATM   24  C13 UNL     1       9.935   9.038  18.286  1.00  0.00     0.055 C 
HETATM   25  C14 UNL     1      11.044  10.053  18.200  1.00  0.00     0.150 C 
ATOM     26  H3  UNL     1       8.113  12.830  17.778  1.00  0.00     0.186 HD
BRANCH  25  27
HETATM   27  O6  UNL     1      11.635   9.921  16.947  1.00  0.00    -0.378 OA
ATOM     28  H6  UNL     1      11.329  10.643  16.410  1.00  0.00     0.211 HD
ENDBRANCH  25  27
BRANCH  25  29
HETATM   29  C15 UNL     1      12.050   9.929  19.249  1.00  0.00     0.209 C 
HETATM   30  O7  UNL     1      12.358   8.809  19.710  1.00  0.00    -0.646 OA
HETATM   31  O8  UNL     1      12.669  11.057  19.738  1.00  0.00    -0.646 OA
ENDBRANCH  25  29
ENDBRANCH  18  20
ENDBRANCH   3  18
BRANCH   1  32
HETATM   32  O1  UNL     1       3.757  11.661  18.734  1.00  0.00    -0.283 OA
HETATM   33  C1  UNL     1       2.463  12.132  18.358  1.00  0.00     0.237 C 
ENDBRANCH   1  32
TORSDOF 14
ENDMDL
