MODEL 1
REMARK VINA RESULT: -8.474682448      0.000      0.000
REMARK  9 active torsions:
REMARK  status: ('A' for Active; 'I' for Inactive)
REMARK    1  A    between atoms: O1_2  and  C2_3 
REMARK    2  A    between atoms: C4_5  and  O2_6 
REMARK    3  A    between atoms: C5_10  and  O3_11 
REMARK    4  A    between atoms: O3_11  and  C6_12 
REMARK    5  A    between atoms: C6_12  and  C7_13 
REMARK    6  A    between atoms: C7_13  and  O4_14 
REMARK    7  A    between atoms: C7_13  and  C8_16 
REMARK    8  A    between atoms: C8_16  and  N2_17 
REMARK    9  A    between atoms: N2_17  and  C9_19 
ROOT
HETATM    1  C2  UNL     1       9.424  11.991  16.865  1.00  0.00     0.174 A 
HETATM    2  C3  UNL     1       9.535  10.757  17.538  1.00  0.00     0.087 A 
HETATM    3  C4  UNL     1      10.487   9.759  17.597  1.00  0.00     0.158 A 
HETATM    4  N1  UNL     1      10.057   8.776  18.428  1.00  0.00    -0.316 N 
ATOM      5  H1  UNL     1      10.582   7.927  18.639  1.00  0.00     0.170 HD
HETATM    6  C5  UNL     1       8.840   9.073  18.940  1.00  0.00     0.161 A 
HETATM    7  C13 UNL     1       8.472  10.305  18.410  1.00  0.00     0.103 A 
HETATM    8  C14 UNL     1       7.383  11.128  18.538  1.00  0.00     0.275 A 
HETATM    9  O7  UNL     1       6.454  10.744  19.295  1.00  0.00    -0.266 OA
HETATM   10  N4  UNL     1       7.357  12.284  17.865  1.00  0.00    -0.262 N 
ATOM     11  H4  UNL     1       6.532  12.874  17.982  1.00  0.00     0.190 HD
HETATM   12  N5  UNL     1       8.314  12.728  17.057  1.00  0.00    -0.272 N 
HETATM   13  C15 UNL     1       8.135  14.032  16.388  1.00  0.00     0.180 C 
ENDROOT
BRANCH   6  14
HETATM   14  O3  UNL     1       8.083   8.304  19.830  1.00  0.00    -0.332 OA
BRANCH  14  15
HETATM   15  C6  UNL     1       7.399   7.179  19.316  1.00  0.00     0.210 C 
BRANCH  15  16
HETATM   16  C7  UNL     1       5.924   7.340  19.238  1.00  0.00     0.159 C 
BRANCH  16  17
HETATM   17  O4  UNL     1       5.478   8.258  20.171  1.00  0.00    -0.392 OA
ATOM     18  H4  UNL     1       4.569   8.487  20.015  1.00  0.00     0.210 HD
ENDBRANCH  16  17
BRANCH  16  19
HETATM   19  C8  UNL     1       5.414   7.752  17.867  1.00  0.00     0.148 C 
BRANCH  19  20
HETATM   20  N2  UNL     1       6.467   7.411  16.942  1.00  0.00    -0.406 N 
ATOM     21  H2  UNL     1       7.421   7.754  17.051  1.00  0.00     0.154 HD
BRANCH  20  22
HETATM   22  C9  UNL     1       6.081   6.560  15.865  1.00  0.00     0.178 C 
HETATM   23  C10 UNL     1       6.737   5.206  15.855  1.00  0.00     0.137 C 
HETATM   24  C11 UNL     1       7.772   5.271  14.787  1.00  0.00     0.226 C 
HETATM   25  O5  UNL     1       8.709   4.449  14.665  1.00  0.00    -0.273 OA
HETATM   26  N3  UNL     1       7.496   6.397  13.974  1.00  0.00    -0.296 N 
HETATM   27  C12 UNL     1       6.513   7.220  14.594  1.00  0.00     0.247 C 
ATOM     28  H3  UNL     1       7.938   6.590  13.075  1.00  0.00     0.171 HD
HETATM   29  O6  UNL     1       6.105   8.309  14.121  1.00  0.00    -0.271 OA
ENDBRANCH  20  22
ENDBRANCH  19  20
ENDBRANCH  16  19
ENDBRANCH  15  16
ENDBRANCH  14  15
ENDBRANCH   6  14
BRANCH   3  30
HETATM   30  O2  UNL     1      11.684   9.819  16.883  1.00  0.00    -0.345 OA
ATOM     31  H2  UNL     1      12.521   9.979  17.301  1.00  0.00     0.219 HD
ENDBRANCH   3  30
BRANCH   1  32
HETATM   32  O1  UNL     1      10.454  12.350  16.067  1.00  0.00    -0.339 OA
HETATM   33  C1  UNL     1      11.531  13.172  16.135  1.00  0.00     0.211 C 
ENDBRANCH   1  32
TORSDOF 9
ENDMDL
MODEL 2
REMARK VINA RESULT: -8.365514474      1.466      1.997
REMARK  9 active torsions:
REMARK  status: ('A' for Active; 'I' for Inactive)
REMARK    1  A    between atoms: O1_2  and  C2_3 
REMARK    2  A    between atoms: C4_5  and  O2_6 
REMARK    3  A    between atoms: C5_10  and  O3_11 
REMARK    4  A    between atoms: O3_11  and  C6_12 
REMARK    5  A    between atoms: C6_12  and  C7_13 
REMARK    6  A    between atoms: C7_13  and  O4_14 
REMARK    7  A    between atoms: C7_13  and  C8_16 
REMARK    8  A    between atoms: C8_16  and  N2_17 
REMARK    9  A    between atoms: N2_17  and  C9_19 
ROOT
HETATM    1  C2  UNL     1      10.081  10.763  18.147  1.00  0.00     0.174 A 
HETATM    2  C3  UNL     1       9.213   9.789  18.682  1.00  0.00     0.087 A 
HETATM    3  C4  UNL     1       9.380   8.604  19.370  1.00  0.00     0.158 A 
HETATM    4  N1  UNL     1       8.163   8.069  19.645  1.00  0.00    -0.316 N 
ATOM      5  H1  UNL     1       8.018   7.192  20.146  1.00  0.00     0.170 HD
HETATM    6  C5  UNL     1       7.170   8.852  19.165  1.00  0.00     0.161 A 
HETATM    7  C13 UNL     1       7.779   9.943  18.553  1.00  0.00     0.103 A 
HETATM    8  C14 UNL     1       7.331  11.062  17.898  1.00  0.00     0.275 A 
HETATM    9  O7  UNL     1       6.086  11.204  17.782  1.00  0.00    -0.266 OA
HETATM   10  N4  UNL     1       8.222  11.938  17.421  1.00  0.00    -0.262 N 
ATOM     11  H4  UNL     1       7.857  12.760  16.940  1.00  0.00     0.190 HD
HETATM   12  N5  UNL     1       9.543  11.827  17.522  1.00  0.00    -0.272 N 
HETATM   13  C15 UNL     1      10.393  12.886  16.944  1.00  0.00     0.180 C 
ENDROOT
BRANCH   6  14
HETATM   14  O3  UNL     1       5.792   8.628  19.257  1.00  0.00    -0.332 OA
BRANCH  14  15
HETATM   15  C6  UNL     1       5.219   7.667  18.393  1.00  0.00     0.210 C 
BRANCH  15  16
HETATM   16  C7  UNL     1       4.337   8.235  17.342  1.00  0.00     0.159 C 
BRANCH  16  17
HETATM   17  O4  UNL     1       3.662   9.346  17.811  1.00  0.00    -0.392 OA
ATOM     18  H4  UNL     1       3.152   9.751  17.119  1.00  0.00     0.210 HD
ENDBRANCH  16  17
BRANCH  16  19
HETATM   19  C8  UNL     1       5.058   8.608  16.058  1.00  0.00     0.148 C 
BRANCH  19  20
HETATM   20  N2  UNL     1       6.154   7.677  15.943  1.00  0.00    -0.406 N 
ATOM     21  H2  UNL     1       7.014   7.779  16.481  1.00  0.00     0.154 HD
BRANCH  20  22
HETATM   22  C9  UNL     1       5.952   6.606  15.024  1.00  0.00     0.178 C 
HETATM   23  C10 UNL     1       6.617   5.310  15.399  1.00  0.00     0.137 C 
HETATM   24  C11 UNL     1       7.805   5.199  14.509  1.00  0.00     0.226 C 
HETATM   25  O5  UNL     1       8.760   4.412  14.706  1.00  0.00    -0.273 OA
HETATM   26  N3  UNL     1       7.646   6.119  13.444  1.00  0.00    -0.296 N 
HETATM   27  C12 UNL     1       6.569   7.008  13.721  1.00  0.00     0.247 C 
ATOM     28  H3  UNL     1       8.220   6.141  12.601  1.00  0.00     0.171 HD
HETATM   29  O6  UNL     1       6.226   7.956  12.974  1.00  0.00    -0.271 OA
ENDBRANCH  20  22
ENDBRANCH  19  20
ENDBRANCH  16  19
ENDBRANCH  15  16
ENDBRANCH  14  15
ENDBRANCH   6  14
BRANCH   3  30
HETATM   30  O2  UNL     1      10.636   8.096  19.698  1.00  0.00    -0.345 OA
ATOM     31  H2  UNL     1      10.853   7.176  19.616  1.00  0.00     0.219 HD
ENDBRANCH   3  30
BRANCH   1  32
HETATM   32  O1  UNL     1      11.407  10.556  18.304  1.00  0.00    -0.339 OA
HETATM   33  C1  UNL     1      12.380  10.926  19.174  1.00  0.00     0.211 C 
ENDBRANCH   1  32
TORSDOF 9
ENDMDL
MODEL 3
REMARK VINA RESULT: -8.261809921      1.780      2.843
REMARK  9 active torsions:
REMARK  status: ('A' for Active; 'I' for Inactive)
REMARK    1  A    between atoms: O1_2  and  C2_3 
REMARK    2  A    between atoms: C4_5  and  O2_6 
REMARK    3  A    between atoms: C5_10  and  O3_11 
REMARK    4  A    between atoms: O3_11  and  C6_12 
REMARK    5  A    between atoms: C6_12  and  C7_13 
REMARK    6  A    between atoms: C7_13  and  O4_14 
REMARK    7  A    between atoms: C7_13  and  C8_16 
REMARK    8  A    between atoms: C8_16  and  N2_17 
REMARK    9  A    between atoms: N2_17  and  C9_19 
ROOT
HETATM    1  C2  UNL     1       9.853  12.344  18.073  1.00  0.00     0.174 A 
HETATM    2  C3  UNL     1       8.513  11.909  18.037  1.00  0.00     0.087 A 
HETATM    3  C4  UNL     1       7.299  12.452  18.409  1.00  0.00     0.158 A 
HETATM    4  N1  UNL     1       6.308  11.566  18.134  1.00  0.00    -0.316 N 
ATOM      5  H1  UNL     1       5.318  11.732  18.317  1.00  0.00     0.170 HD
HETATM    6  C5  UNL     1       6.808  10.435  17.585  1.00  0.00     0.161 A 
HETATM    7  C13 UNL     1       8.186  10.603  17.504  1.00  0.00     0.103 A 
HETATM    8  C14 UNL     1       9.231   9.839  17.050  1.00  0.00     0.275 A 
HETATM    9  O7  UNL     1       8.956   8.703  16.585  1.00  0.00    -0.266 OA
HETATM   10  N4  UNL     1      10.474  10.327  17.121  1.00  0.00    -0.262 N 
ATOM     11  H4  UNL     1      11.229   9.735  16.775  1.00  0.00     0.190 HD
HETATM   12  N5  UNL     1      10.808  11.520  17.604  1.00  0.00    -0.272 N 
HETATM   13  C15 UNL     1      12.231  11.914  17.608  1.00  0.00     0.180 C 
ENDROOT
BRANCH   6  14
HETATM   14  O3  UNL     1       6.094   9.305  17.171  1.00  0.00    -0.332 OA
BRANCH  14  15
HETATM   15  C6  UNL     1       5.486   8.505  18.165  1.00  0.00     0.210 C 
BRANCH  15  16
HETATM   16  C7  UNL     1       6.421   7.603  18.884  1.00  0.00     0.159 C 
BRANCH  16  17
HETATM   17  O4  UNL     1       6.041   7.448  20.204  1.00  0.00    -0.392 OA
ATOM     18  H4  UNL     1       6.650   6.886  20.669  1.00  0.00     0.210 HD
ENDBRANCH  16  17
BRANCH  16  19
HETATM   19  C8  UNL     1       6.569   6.229  18.254  1.00  0.00     0.148 C 
BRANCH  19  20
HETATM   20  N2  UNL     1       7.275   6.443  17.015  1.00  0.00    -0.406 N 
ATOM     21  H2  UNL     1       8.032   7.120  16.929  1.00  0.00     0.154 HD
BRANCH  20  22
HETATM   22  C9  UNL     1       6.841   5.642  15.918  1.00  0.00     0.178 C 
HETATM   23  C10 UNL     1       7.944   4.991  15.128  1.00  0.00     0.137 C 
HETATM   24  C11 UNL     1       8.055   5.782  13.872  1.00  0.00     0.226 C 
HETATM   25  O5  UNL     1       9.035   5.731  13.093  1.00  0.00    -0.273 OA
HETATM   26  N3  UNL     1       6.883   6.567  13.739  1.00  0.00    -0.296 N 
HETATM   27  C12 UNL     1       6.138   6.544  14.953  1.00  0.00     0.247 C 
ATOM     28  H3  UNL     1       6.613   7.074  12.897  1.00  0.00     0.171 HD
HETATM   29  O6  UNL     1       5.077   7.186  15.141  1.00  0.00    -0.271 OA
ENDBRANCH  20  22
ENDBRANCH  19  20
ENDBRANCH  16  19
ENDBRANCH  15  16
ENDBRANCH  14  15
ENDBRANCH   6  14
BRANCH   3  30
HETATM   30  O2  UNL     1       7.185  13.720  18.975  1.00  0.00    -0.345 OA
ATOM     31  H2  UNL     1       6.501  13.945  19.594  1.00  0.00     0.219 HD
ENDBRANCH   3  30
BRANCH   1  32
HETATM   32  O1  UNL     1      10.086  13.574  18.584  1.00  0.00    -0.339 OA
HETATM   33  C1  UNL     1      10.264  14.833  18.113  1.00  0.00     0.211 C 
ENDBRANCH   1  32
TORSDOF 9
ENDMDL
MODEL 4
REMARK VINA RESULT: -8.207840245      1.735      2.751
REMARK  9 active torsions:
REMARK  status: ('A' for Active; 'I' for Inactive)
REMARK    1  A    between atoms: O1_2  and  C2_3 
REMARK    2  A    between atoms: C4_5  and  O2_6 
REMARK    3  A    between atoms: C5_10  and  O3_11 
REMARK    4  A    between atoms: O3_11  and  C6_12 
REMARK    5  A    between atoms: C6_12  and  C7_13 
REMARK    6  A    between atoms: C7_13  and  O4_14 
REMARK    7  A    between atoms: C7_13  and  C8_16 
REMARK    8  A    between atoms: C8_16  and  N2_17 
REMARK    9  A    between atoms: N2_17  and  C9_19 
ROOT
HETATM    1  C2  UNL     1       9.466  12.702  17.768  1.00  0.00     0.174 A 
HETATM    2  C3  UNL     1       8.376  11.973  18.289  1.00  0.00     0.087 A 
HETATM    3  C4  UNL     1       7.281  12.279  19.071  1.00  0.00     0.158 A 
HETATM    4  N1  UNL     1       6.540  11.159  19.264  1.00  0.00    -0.316 N 
ATOM      5  H1  UNL     1       5.679  11.122  19.810  1.00  0.00     0.170 HD
HETATM    6  C5  UNL     1       7.095  10.096  18.637  1.00  0.00     0.161 A 
HETATM    7  C13 UNL     1       8.249  10.558  18.011  1.00  0.00     0.103 A 
HETATM    8  C14 UNL     1       9.225   9.988  17.234  1.00  0.00     0.275 A 
HETATM    9  O7  UNL     1       9.122   8.758  16.987  1.00  0.00    -0.266 OA
HETATM   10  N4  UNL     1      10.225  10.751  16.780  1.00  0.00    -0.262 N 
ATOM     11  H4  UNL     1      10.935  10.297  16.204  1.00  0.00     0.190 HD
HETATM   12  N5  UNL     1      10.372  12.051  17.016  1.00  0.00    -0.272 N 
HETATM   13  C15 UNL     1      11.534  12.753  16.436  1.00  0.00     0.180 C 
ENDROOT
BRANCH   6  14
HETATM   14  O3  UNL     1       6.618   8.782  18.609  1.00  0.00    -0.332 OA
BRANCH  14  15
HETATM   15  C6  UNL     1       5.220   8.586  18.545  1.00  0.00     0.210 C 
BRANCH  15  16
HETATM   16  C7  UNL     1       4.713   8.217  17.198  1.00  0.00     0.159 C 
BRANCH  16  17
HETATM   17  O4  UNL     1       3.360   8.480  17.091  1.00  0.00    -0.392 OA
ATOM     18  H4  UNL     1       2.846   7.755  17.427  1.00  0.00     0.210 HD
ENDBRANCH  16  17
BRANCH  16  19
HETATM   19  C8  UNL     1       5.436   8.902  16.051  1.00  0.00     0.148 C 
BRANCH  19  20
HETATM   20  N2  UNL     1       6.513   8.016  15.686  1.00  0.00    -0.406 N 
ATOM     21  H2  UNL     1       7.486   8.219  15.911  1.00  0.00     0.154 HD
BRANCH  20  22
HETATM   22  C9  UNL     1       6.123   6.837  14.986  1.00  0.00     0.178 C 
HETATM   23  C10 UNL     1       6.767   5.566  15.469  1.00  0.00     0.137 C 
HETATM   24  C11 UNL     1       7.805   5.234  14.456  1.00  0.00     0.226 C 
HETATM   25  O5  UNL     1       8.736   4.417  14.644  1.00  0.00    -0.273 OA
HETATM   26  N3  UNL     1       7.542   5.992  13.288  1.00  0.00    -0.296 N 
HETATM   27  C12 UNL     1       6.564   6.991  13.564  1.00  0.00     0.247 C 
ATOM     28  H3  UNL     1       7.987   5.844  12.383  1.00  0.00     0.171 HD
HETATM   29  O6  UNL     1       6.167   7.838  12.728  1.00  0.00    -0.271 OA
ENDBRANCH  20  22
ENDBRANCH  19  20
ENDBRANCH  16  19
ENDBRANCH  15  16
ENDBRANCH  14  15
ENDBRANCH   6  14
BRANCH   3  30
HETATM   30  O2  UNL     1       7.038  13.564  19.554  1.00  0.00    -0.345 OA
ATOM     31  H2  UNL     1       6.810  14.290  18.986  1.00  0.00     0.219 HD
ENDBRANCH   3  30
BRANCH   1  32
HETATM   32  O1  UNL     1       9.522  14.019  18.067  1.00  0.00    -0.339 OA
HETATM   33  C1  UNL     1       9.174  15.191  17.481  1.00  0.00     0.211 C 
ENDBRANCH   1  32
TORSDOF 9
ENDMDL
MODEL 5
REMARK VINA RESULT: -8.182142787      1.306      2.036
REMARK  9 active torsions:
REMARK  status: ('A' for Active; 'I' for Inactive)
REMARK    1  A    between atoms: O1_2  and  C2_3 
REMARK    2  A    between atoms: C4_5  and  O2_6 
REMARK    3  A    between atoms: C5_10  and  O3_11 
REMARK    4  A    between atoms: O3_11  and  C6_12 
REMARK    5  A    between atoms: C6_12  and  C7_13 
REMARK    6  A    between atoms: C7_13  and  O4_14 
REMARK    7  A    between atoms: C7_13  and  C8_16 
REMARK    8  A    between atoms: C8_16  and  N2_17 
REMARK    9  A    between atoms: N2_17  and  C9_19 
ROOT
HETATM    1  C2  UNL     1      10.067  10.915  17.285  1.00  0.00     0.174 A 
HETATM    2  C3  UNL     1       9.693   9.897  18.186  1.00  0.00     0.087 A 
HETATM    3  C4  UNL     1      10.373   9.036  19.024  1.00  0.00     0.158 A 
HETATM    4  N1  UNL     1       9.482   8.249  19.678  1.00  0.00    -0.316 N 
ATOM      5  H1  UNL     1       9.735   7.529  20.355  1.00  0.00     0.170 HD
HETATM    6  C5  UNL     1       8.213   8.546  19.313  1.00  0.00     0.161 A 
HETATM    7  C13 UNL     1       8.295   9.573  18.379  1.00  0.00     0.103 A 
HETATM    8  C14 UNL     1       7.384  10.297  17.652  1.00  0.00     0.275 A 
HETATM    9  O7  UNL     1       6.167  10.023  17.814  1.00  0.00    -0.266 OA
HETATM   10  N4  UNL     1       7.823  11.248  16.819  1.00  0.00    -0.262 N 
ATOM     11  H4  UNL     1       7.121  11.769  16.294  1.00  0.00     0.190 HD
HETATM   12  N5  UNL     1       9.097  11.570  16.619  1.00  0.00    -0.272 N 
HETATM   13  C15 UNL     1       9.418  12.650  15.665  1.00  0.00     0.180 C 
ENDROOT
BRANCH   6  14
HETATM   14  O3  UNL     1       7.035   7.949  19.773  1.00  0.00    -0.332 OA
BRANCH  14  15
HETATM   15  C6  UNL     1       6.681   6.687  19.242  1.00  0.00     0.210 C 
BRANCH  15  16
HETATM   16  C7  UNL     1       5.448   6.694  18.415  1.00  0.00     0.159 C 
BRANCH  16  17
HETATM   17  O4  UNL     1       4.739   7.867  18.594  1.00  0.00    -0.392 OA
ATOM     18  H4  UNL     1       3.805   7.698  18.630  1.00  0.00     0.210 HD
ENDBRANCH  16  17
BRANCH  16  19
HETATM   19  C8  UNL     1       5.693   6.494  16.929  1.00  0.00     0.148 C 
BRANCH  19  20
HETATM   20  N2  UNL     1       7.023   5.948  16.825  1.00  0.00    -0.406 N 
ATOM     21  H2  UNL     1       7.362   5.215  17.448  1.00  0.00     0.154 HD
BRANCH  20  22
HETATM   22  C9  UNL     1       7.832   6.503  15.791  1.00  0.00     0.178 C 
HETATM   23  C10 UNL     1       7.247   7.705  15.098  1.00  0.00     0.137 C 
HETATM   24  C11 UNL     1       6.763   7.210  13.781  1.00  0.00     0.226 C 
HETATM   25  O5  UNL     1       5.970   7.838  13.043  1.00  0.00    -0.273 OA
HETATM   26  N3  UNL     1       7.355   5.946  13.539  1.00  0.00    -0.296 N 
HETATM   27  C12 UNL     1       7.979   5.463  14.725  1.00  0.00     0.247 C 
ATOM     28  H3  UNL     1       7.336   5.453  12.646  1.00  0.00     0.171 HD
HETATM   29  O6  UNL     1       8.545   4.347  14.820  1.00  0.00    -0.271 OA
ENDBRANCH  20  22
ENDBRANCH  19  20
ENDBRANCH  16  19
ENDBRANCH  15  16
ENDBRANCH  14  15
ENDBRANCH   6  14
BRANCH   3  30
HETATM   30  O2  UNL     1      11.763   9.032  19.130  1.00  0.00    -0.345 OA
ATOM     31  H2  UNL     1      12.265   8.235  19.247  1.00  0.00     0.219 HD
ENDBRANCH   3  30
BRANCH   1  32
HETATM   32  O1  UNL     1      11.389  11.165  17.155  1.00  0.00    -0.339 OA
HETATM   33  C1  UNL     1      12.282  12.077  17.610  1.00  0.00     0.211 C 
ENDBRANCH   1  32
TORSDOF 9
ENDMDL
