MODEL 1
REMARK VINA RESULT: -8.679300224      0.000      0.000
REMARK  6 active torsions:
REMARK  status: ('A' for Active; 'I' for Inactive)
REMARK    1  A    between atoms: N1_1  and  C1_5 
REMARK    2  A    between atoms: C1_5  and  C2_6 
REMARK    3  A    between atoms: C2_6  and  N2_7 
REMARK    4  A    between atoms: N3_10  and  C5_11 
REMARK    5  A    between atoms: C9_23  and  N8_24 
REMARK    6  A    between atoms: N8_24  and  C10_26 
ROOT
HETATM    1  C5  UNL     1      67.148   4.442   1.271  1.00  0.00     0.682 A 
HETATM    2  N4  UNL     1      66.094   3.903   1.949  1.00  0.00    -0.176 N 
ATOM      3  H4  UNL     1      65.148   4.187   1.696  1.00  0.00     0.185 HD
HETATM    4  C6  UNL     1      66.261   3.013   2.935  1.00  0.00     0.161 A 
HETATM    5  N5  UNL     1      65.168   2.449   3.645  1.00  0.00    -0.080 NA
HETATM    6  C7  UNL     1      67.554   2.639   3.266  1.00  0.00     0.109 A 
HETATM    7  N6  UNL     1      67.751   1.754   4.238  1.00  0.00    -0.304 N 
ATOM      8  H6  UNL     1      66.956   1.358   4.739  1.00  0.00     0.171 HD
HETATM    9  C8  UNL     1      68.994   1.388   4.556  1.00  0.00     0.326 A 
HETATM   10  O1  UNL     1      69.199   0.550   5.474  1.00  0.00    -0.247 OA
HETATM   11  N7  UNL     1      70.083   1.890   3.917  1.00  0.00    -0.292 N 
ATOM     12  H7  UNL     1      71.018   1.583   4.189  1.00  0.00     0.172 HD
HETATM   13  C9  UNL     1      69.935   2.783   2.932  1.00  0.00     0.155 A 
HETATM   14  C11 UNL     1      68.624   3.172   2.595  1.00  0.00     0.124 A 
HETATM   15  N13 UNL     1      68.403   4.060   1.614  1.00  0.00    -0.186 N 
ATOM     16  H13 UNL     1      69.198   4.458   1.113  1.00  0.00     0.184 HD
ENDROOT
BRANCH   1  17
HETATM   17  N3  UNL     1      66.917   5.370   0.235  1.00  0.00    -0.214 N 
HETATM   18  C4  UNL     1      65.589   5.608  -0.282  1.00  0.00     0.171 C 
HETATM   19  C3  UNL     1      65.741   6.742  -1.296  1.00  0.00     0.293 C 
HETATM   20  N2  UNL     1      66.418   7.881  -0.768  1.00  0.00     0.093 N 
HETATM   21  C13 UNL     1      67.647   7.596  -0.072  1.00  0.00     0.293 C 
HETATM   22  C12 UNL     1      67.998   6.130  -0.343  1.00  0.00     0.171 C 
BRANCH  20  23
HETATM   23  C2  UNL     1      66.739   8.858  -1.792  1.00  0.00     0.299 C 
BRANCH  23  24
HETATM   24  C1  UNL     1      66.860   8.251  -3.165  1.00  0.00     0.259 C 
BRANCH  24  25
HETATM   25  N1  UNL     1      67.230   9.352  -4.063  1.00  0.00    -0.078 N 
ATOM     26  H13 UNL     1      66.620  10.166  -3.980  1.00  0.00     0.274 HD
ATOM     27  H12 UNL     1      68.098   9.819  -3.799  1.00  0.00     0.274 HD
ATOM     28  H11 UNL     1      67.252   8.954  -5.002  1.00  0.00     0.274 HD
ENDBRANCH  24  25
ENDBRANCH  23  24
ENDBRANCH  20  23
ENDBRANCH   1  17
BRANCH  13  29
HETATM   29  N8  UNL     1      70.901   3.261   2.311  1.00  0.00    -0.172 N 
ATOM     30  H8  UNL     1      70.899   3.022   1.319  1.00  0.00     0.186 HD
BRANCH  29  31
HETATM   31  C10 UNL     1      71.984   4.052   2.680  1.00  0.00     0.712 A 
HETATM   32  N9  UNL     1      72.892   4.527   1.763  1.00  0.00    -0.118 N 
HETATM   33  N10 UNL     1      73.819   5.241   2.363  1.00  0.00    -0.212 N 
ATOM     34  H9  UNL     1      72.852   4.350   0.759  1.00  0.00     0.207 HD
HETATM   35  N11 UNL     1      73.539   5.246   3.653  1.00  0.00     0.009 NA
ATOM     36  H10 UNL     1      74.608   5.706   1.915  1.00  0.00     0.206 HD
HETATM   37  N12 UNL     1      72.443   4.535   3.845  1.00  0.00    -0.113 N 
ATOM     38  H12 UNL     1      72.006   4.375   4.753  1.00  0.00     0.203 HD
ENDBRANCH  29  31
ENDBRANCH  13  29
TORSDOF 6
ENDMDL
MODEL 2
REMARK VINA RESULT: -8.440219004      1.055      1.428
REMARK  6 active torsions:
REMARK  status: ('A' for Active; 'I' for Inactive)
REMARK    1  A    between atoms: N1_1  and  C1_5 
REMARK    2  A    between atoms: C1_5  and  C2_6 
REMARK    3  A    between atoms: C2_6  and  N2_7 
REMARK    4  A    between atoms: N3_10  and  C5_11 
REMARK    5  A    between atoms: C9_23  and  N8_24 
REMARK    6  A    between atoms: N8_24  and  C10_26 
ROOT
HETATM    1  C5  UNL     1      67.996   4.790   1.267  1.00  0.00     0.682 A 
HETATM    2  N4  UNL     1      67.056   3.814   1.108  1.00  0.00    -0.176 N 
ATOM      3  H4  UNL     1      66.325   3.943   0.409  1.00  0.00     0.185 HD
HETATM    4  C6  UNL     1      67.061   2.694   1.839  1.00  0.00     0.161 A 
HETATM    5  N5  UNL     1      66.085   1.675   1.680  1.00  0.00    -0.080 NA
HETATM    6  C7  UNL     1      68.062   2.536   2.786  1.00  0.00     0.109 A 
HETATM    7  N6  UNL     1      68.096   1.431   3.525  1.00  0.00    -0.304 N 
ATOM      8  H6  UNL     1      67.388   0.708   3.399  1.00  0.00     0.171 HD
HETATM    9  C8  UNL     1      69.061   1.272   4.432  1.00  0.00     0.326 A 
HETATM   10  O1  UNL     1      69.108   0.232   5.141  1.00  0.00    -0.247 OA
HETATM   11  N7  UNL     1      70.025   2.208   4.636  1.00  0.00    -0.292 N 
ATOM     12  H7  UNL     1      70.746   2.049   5.340  1.00  0.00     0.172 HD
HETATM   13  C9  UNL     1      70.032   3.336   3.917  1.00  0.00     0.155 A 
HETATM   14  C11 UNL     1      69.015   3.506   2.959  1.00  0.00     0.124 A 
HETATM   15  N13 UNL     1      68.965   4.612   2.199  1.00  0.00    -0.186 N 
ATOM     16  H13 UNL     1      69.673   5.335   2.326  1.00  0.00     0.184 HD
ENDROOT
BRANCH   1  17
HETATM   17  N3  UNL     1      67.950   5.949   0.465  1.00  0.00    -0.214 N 
HETATM   18  C4  UNL     1      69.049   6.312  -0.400  1.00  0.00     0.171 C 
HETATM   19  C3  UNL     1      68.575   7.544  -1.170  1.00  0.00     0.293 C 
HETATM   20  N2  UNL     1      67.314   7.357  -1.808  1.00  0.00     0.093 N 
HETATM   21  C13 UNL     1      66.280   6.797  -0.975  1.00  0.00     0.293 C 
HETATM   22  C12 UNL     1      66.796   6.814   0.468  1.00  0.00     0.171 C 
BRANCH  20  23
HETATM   23  C2  UNL     1      66.781   8.591  -2.355  1.00  0.00     0.299 C 
BRANCH  23  24
HETATM   24  C1  UNL     1      66.532   8.517  -3.839  1.00  0.00     0.259 C 
BRANCH  24  25
HETATM   25  N1  UNL     1      67.589   9.317  -4.468  1.00  0.00    -0.078 N 
ATOM     26  H13 UNL     1      67.289  10.257  -4.725  1.00  0.00     0.274 HD
ATOM     27  H12 UNL     1      68.329   9.594  -3.822  1.00  0.00     0.274 HD
ATOM     28  H11 UNL     1      67.925   8.766  -5.259  1.00  0.00     0.274 HD
ENDBRANCH  24  25
ENDBRANCH  23  24
ENDBRANCH  20  23
ENDBRANCH   1  17
BRANCH  13  29
HETATM   29  N8  UNL     1      70.901   4.215   4.060  1.00  0.00    -0.172 N 
ATOM     30  H8  UNL     1      70.714   4.841   4.844  1.00  0.00     0.186 HD
BRANCH  29  31
HETATM   31  C10 UNL     1      72.073   4.527   3.378  1.00  0.00     0.712 A 
HETATM   32  N9  UNL     1      72.277   4.163   2.067  1.00  0.00    -0.118 N 
HETATM   33  N10 UNL     1      73.459   4.570   1.658  1.00  0.00    -0.212 N 
ATOM     34  H9  UNL     1      71.606   3.652   1.493  1.00  0.00     0.207 HD
HETATM   35  N11 UNL     1      74.034   5.191   2.670  1.00  0.00     0.009 NA
ATOM     36  H10 UNL     1      73.858   4.430   0.730  1.00  0.00     0.206 HD
HETATM   37  N12 UNL     1      73.208   5.166   3.700  1.00  0.00    -0.113 N 
ATOM     38  H12 UNL     1      73.404   5.576   4.613  1.00  0.00     0.203 HD
ENDBRANCH  29  31
ENDBRANCH  13  29
TORSDOF 6
ENDMDL
MODEL 3
REMARK VINA RESULT: -8.101523860      2.746      7.882
REMARK  6 active torsions:
REMARK  status: ('A' for Active; 'I' for Inactive)
REMARK    1  A    between atoms: N1_1  and  C1_5 
REMARK    2  A    between atoms: C1_5  and  C2_6 
REMARK    3  A    between atoms: C2_6  and  N2_7 
REMARK    4  A    between atoms: N3_10  and  C5_11 
REMARK    5  A    between atoms: C9_23  and  N8_24 
REMARK    6  A    between atoms: N8_24  and  C10_26 
ROOT
HETATM    1  C5  UNL     1      69.688   3.280   3.059  1.00  0.00     0.682 A 
HETATM    2  N4  UNL     1      70.969   3.536   3.455  1.00  0.00    -0.176 N 
ATOM      3  H4  UNL     1      71.365   2.994   4.223  1.00  0.00     0.185 HD
HETATM    4  C6  UNL     1      71.722   4.473   2.868  1.00  0.00     0.161 A 
HETATM    5  N5  UNL     1      73.054   4.745   3.276  1.00  0.00    -0.080 NA
HETATM    6  C7  UNL     1      71.167   5.200   1.826  1.00  0.00     0.109 A 
HETATM    7  N6  UNL     1      71.892   6.135   1.221  1.00  0.00    -0.304 N 
ATOM      8  H6  UNL     1      72.848   6.320   1.526  1.00  0.00     0.171 HD
HETATM    9  C8  UNL     1      71.364   6.833   0.214  1.00  0.00     0.326 A 
HETATM   10  O1  UNL     1      72.037   7.723  -0.370  1.00  0.00    -0.247 OA
HETATM   11  N7  UNL     1      70.095   6.624  -0.225  1.00  0.00    -0.292 N 
ATOM     12  H7  UNL     1      69.728   7.178  -0.998  1.00  0.00     0.172 HD
HETATM   13  C9  UNL     1      69.327   5.693   0.353  1.00  0.00     0.155 A 
HETATM   14  C11 UNL     1      69.882   4.956   1.416  1.00  0.00     0.124 A 
HETATM   15  N13 UNL     1      69.168   4.004   2.037  1.00  0.00    -0.186 N 
ATOM     16  H13 UNL     1      68.212   3.820   1.733  1.00  0.00     0.184 HD
ENDROOT
BRANCH   1  17
HETATM   17  N3  UNL     1      68.940   2.275   3.706  1.00  0.00    -0.214 N 
HETATM   18  C4  UNL     1      67.677   1.816   3.175  1.00  0.00     0.171 C 
HETATM   19  C3  UNL     1      67.243   0.666   4.083  1.00  0.00     0.293 C 
HETATM   20  N2  UNL     1      68.250  -0.330   4.248  1.00  0.00     0.093 N 
HETATM   21  C13 UNL     1      69.561   0.169   4.579  1.00  0.00     0.293 C 
HETATM   22  C12 UNL     1      69.411   1.656   4.920  1.00  0.00     0.171 C 
BRANCH  20  23
HETATM   23  C2  UNL     1      67.907  -1.301   5.271  1.00  0.00     0.299 C 
BRANCH  23  24
HETATM   24  C1  UNL     1      66.995  -0.740   6.330  1.00  0.00     0.259 C 
BRANCH  24  25
HETATM   25  N1  UNL     1      67.487  -1.266   7.609  1.00  0.00    -0.078 N 
ATOM     26  H13 UNL     1      67.243  -2.244   7.767  1.00  0.00     0.274 HD
ATOM     27  H12 UNL     1      68.500  -1.385   7.637  1.00  0.00     0.274 HD
ATOM     28  H11 UNL     1      67.131  -0.636   8.328  1.00  0.00     0.274 HD
ENDBRANCH  24  25
ENDBRANCH  23  24
ENDBRANCH  20  23
ENDBRANCH   1  17
BRANCH  13  29
HETATM   29  N8  UNL     1      68.164   5.458  -0.022  1.00  0.00    -0.172 N 
ATOM     30  H8  UNL     1      68.060   4.540  -0.456  1.00  0.00     0.186 HD
BRANCH  29  31
HETATM   31  C10 UNL     1      66.975   6.179   0.023  1.00  0.00     0.712 A 
HETATM   32  N9  UNL     1      66.233   6.297   1.175  1.00  0.00    -0.118 N 
HETATM   33  N10 UNL     1      65.158   7.021   0.955  1.00  0.00    -0.212 N 
ATOM     34  H9  UNL     1      66.481   5.881   2.073  1.00  0.00     0.207 HD
HETATM   35  N11 UNL     1      65.178   7.382  -0.315  1.00  0.00     0.009 NA
ATOM     36  H10 UNL     1      64.440   7.261   1.639  1.00  0.00     0.206 HD
HETATM   37  N12 UNL     1      66.264   6.879  -0.874  1.00  0.00    -0.113 N 
ATOM     38  H12 UNL     1      66.525   7.005  -1.852  1.00  0.00     0.203 HD
ENDBRANCH  29  31
ENDBRANCH  13  29
TORSDOF 6
ENDMDL
MODEL 4
REMARK VINA RESULT: -8.084017719      2.972      6.318
REMARK  6 active torsions:
REMARK  status: ('A' for Active; 'I' for Inactive)
REMARK    1  A    between atoms: N1_1  and  C1_5 
REMARK    2  A    between atoms: C1_5  and  C2_6 
REMARK    3  A    between atoms: C2_6  and  N2_7 
REMARK    4  A    between atoms: N3_10  and  C5_11 
REMARK    5  A    between atoms: C9_23  and  N8_24 
REMARK    6  A    between atoms: N8_24  and  C10_26 
ROOT
HETATM    1  C5  UNL     1      65.955   3.774   1.693  1.00  0.00     0.682 A 
HETATM    2  N4  UNL     1      65.169   4.627   0.974  1.00  0.00    -0.176 N 
ATOM      3  H4  UNL     1      64.156   4.550   1.055  1.00  0.00     0.185 HD
HETATM    4  C6  UNL     1      65.685   5.561   0.167  1.00  0.00     0.161 A 
HETATM    5  N5  UNL     1      64.873   6.451  -0.585  1.00  0.00    -0.080 NA
HETATM    6  C7  UNL     1      67.064   5.651   0.069  1.00  0.00     0.109 A 
HETATM    7  N6  UNL     1      67.606   6.572  -0.722  1.00  0.00    -0.304 N 
ATOM      8  H6  UNL     1      67.010   7.205  -1.256  1.00  0.00     0.171 HD
HETATM    9  C8  UNL     1      68.934   6.666  -0.815  1.00  0.00     0.326 A 
HETATM   10  O1  UNL     1      69.464   7.533  -1.559  1.00  0.00    -0.247 OA
HETATM   11  N7  UNL     1      69.768   5.846  -0.124  1.00  0.00    -0.292 N 
ATOM     12  H7  UNL     1      70.778   5.949  -0.222  1.00  0.00     0.172 HD
HETATM   13  C9  UNL     1      69.269   4.903   0.684  1.00  0.00     0.155 A 
HETATM   14  C11 UNL     1      67.869   4.802   0.783  1.00  0.00     0.124 A 
HETATM   15  N13 UNL     1      67.302   3.882   1.580  1.00  0.00    -0.186 N 
ATOM     16  H13 UNL     1      67.899   3.249   2.113  1.00  0.00     0.184 HD
ENDROOT
BRANCH   1  17
HETATM   17  N3  UNL     1      65.361   2.812   2.535  1.00  0.00    -0.214 N 
HETATM   18  C4  UNL     1      65.939   2.470   3.814  1.00  0.00     0.171 C 
HETATM   19  C3  UNL     1      64.959   1.492   4.460  1.00  0.00     0.293 C 
HETATM   20  N2  UNL     1      63.618   1.978   4.491  1.00  0.00     0.093 N 
HETATM   21  C13 UNL     1      63.128   2.508   3.244  1.00  0.00     0.293 C 
HETATM   22  C12 UNL     1      64.144   2.137   2.158  1.00  0.00     0.171 C 
BRANCH  20  23
HETATM   23  C2  UNL     1      62.670   0.963   4.911  1.00  0.00     0.299 C 
BRANCH  23  24
HETATM   24  C1  UNL     1      61.264   1.489   5.036  1.00  0.00     0.259 C 
BRANCH  24  25
HETATM   25  N1  UNL     1      61.197   2.160   6.339  1.00  0.00    -0.078 N 
ATOM     26  H13 UNL     1      60.272   2.123   6.768  1.00  0.00     0.274 HD
ATOM     27  H12 UNL     1      61.696   1.665   7.078  1.00  0.00     0.274 HD
ATOM     28  H11 UNL     1      61.536   3.110   6.184  1.00  0.00     0.274 HD
ENDBRANCH  24  25
ENDBRANCH  23  24
ENDBRANCH  20  23
ENDBRANCH   1  17
BRANCH  13  29
HETATM   29  N8  UNL     1      69.993   4.137   1.346  1.00  0.00    -0.172 N 
ATOM     30  H8  UNL     1      69.741   3.154   1.240  1.00  0.00     0.186 HD
BRANCH  29  31
HETATM   31  C10 UNL     1      71.074   4.336   2.199  1.00  0.00     0.712 A 
HETATM   32  N9  UNL     1      71.025   4.009   3.534  1.00  0.00    -0.118 N 
HETATM   33  N10 UNL     1      72.167   4.297   4.119  1.00  0.00    -0.212 N 
ATOM     34  H9  UNL     1      70.217   3.600   4.003  1.00  0.00     0.207 HD
HETATM   35  N11 UNL     1      72.964   4.806   3.198  1.00  0.00     0.009 NA
ATOM     36  H10 UNL     1      72.394   4.154   5.103  1.00  0.00     0.206 HD
HETATM   37  N12 UNL     1      72.313   4.831   2.050  1.00  0.00    -0.113 N 
ATOM     38  H12 UNL     1      72.697   5.179   1.171  1.00  0.00     0.203 HD
ENDBRANCH  29  31
ENDBRANCH  13  29
TORSDOF 6
ENDMDL
MODEL 5
REMARK VINA RESULT: -8.075170145      3.025      7.206
REMARK  6 active torsions:
REMARK  status: ('A' for Active; 'I' for Inactive)
REMARK    1  A    between atoms: N1_1  and  C1_5 
REMARK    2  A    between atoms: C1_5  and  C2_6 
REMARK    3  A    between atoms: C2_6  and  N2_7 
REMARK    4  A    between atoms: N3_10  and  C5_11 
REMARK    5  A    between atoms: C9_23  and  N8_24 
REMARK    6  A    between atoms: N8_24  and  C10_26 
ROOT
HETATM    1  C5  UNL     1      66.623   4.269   0.868  1.00  0.00     0.682 A 
HETATM    2  N4  UNL     1      67.741   3.822   1.509  1.00  0.00    -0.176 N 
ATOM      3  H4  UNL     1      67.666   3.015   2.127  1.00  0.00     0.185 HD
HETATM    4  C6  UNL     1      68.934   4.408   1.352  1.00  0.00     0.161 A 
HETATM    5  N5  UNL     1      70.102   3.949   2.016  1.00  0.00    -0.080 NA
HETATM    6  C7  UNL     1      69.018   5.504   0.508  1.00  0.00     0.109 A 
HETATM    7  N6  UNL     1      70.190   6.105   0.329  1.00  0.00    -0.304 N 
ATOM      8  H6  UNL     1      71.020   5.764   0.813  1.00  0.00     0.171 HD
HETATM    9  C8  UNL     1      70.276   7.157  -0.487  1.00  0.00     0.326 A 
HETATM   10  O1  UNL     1      71.379   7.738  -0.668  1.00  0.00    -0.247 OA
HETATM   11  N7  UNL     1      69.198   7.648  -1.153  1.00  0.00    -0.292 N 
ATOM     12  H7  UNL     1      69.305   8.454  -1.768  1.00  0.00     0.172 HD
HETATM   13  C9  UNL     1      67.997   7.077  -1.004  1.00  0.00     0.155 A 
HETATM   14  C11 UNL     1      67.904   5.966  -0.143  1.00  0.00     0.124 A 
HETATM   15  N13 UNL     1      66.730   5.343   0.047  1.00  0.00    -0.186 N 
ATOM     16  H13 UNL     1      65.900   5.685  -0.436  1.00  0.00     0.184 HD
ENDROOT
BRANCH   1  17
HETATM   17  N3  UNL     1      65.391   3.610   1.062  1.00  0.00    -0.214 N 
HETATM   18  C4  UNL     1      65.187   2.700   2.165  1.00  0.00     0.171 C 
HETATM   19  C3  UNL     1      63.717   2.290   2.093  1.00  0.00     0.293 C 
HETATM   20  N2  UNL     1      62.826   3.401   2.028  1.00  0.00     0.093 N 
HETATM   21  C13 UNL     1      63.166   4.406   1.052  1.00  0.00     0.293 C 
HETATM   22  C12 UNL     1      64.278   3.828   0.170  1.00  0.00     0.171 C 
BRANCH  20  23
HETATM   23  C2  UNL     1      61.459   3.000   1.749  1.00  0.00     0.299 C 
BRANCH  23  24
HETATM   24  C1  UNL     1      60.459   3.643   2.673  1.00  0.00     0.259 C 
BRANCH  24  25
HETATM   25  N1  UNL     1      60.815   3.202   4.027  1.00  0.00    -0.078 N 
ATOM     26  H13 UNL     1      60.405   2.303   4.282  1.00  0.00     0.274 HD
ATOM     27  H12 UNL     1      61.792   2.925   4.120  1.00  0.00     0.274 HD
ATOM     28  H11 UNL     1      60.547   3.964   4.650  1.00  0.00     0.274 HD
ENDBRANCH  24  25
ENDBRANCH  23  24
ENDBRANCH  20  23
ENDBRANCH   1  17
BRANCH  13  29
HETATM   29  N8  UNL     1      66.984   7.483  -1.602  1.00  0.00    -0.172 N 
ATOM     30  H8  UNL     1      66.113   7.144  -1.193  1.00  0.00     0.186 HD
BRANCH  29  31
HETATM   31  C10 UNL     1      66.786   8.302  -2.709  1.00  0.00     0.712 A 
HETATM   32  N9  UNL     1      66.513   7.793  -3.957  1.00  0.00    -0.118 N 
HETATM   33  N10 UNL     1      66.374   8.768  -4.829  1.00  0.00    -0.212 N 
ATOM     34  H9  UNL     1      66.429   6.800  -4.176  1.00  0.00     0.207 HD
HETATM   35  N11 UNL     1      66.550   9.904  -4.181  1.00  0.00     0.009 NA
ATOM     36  H10 UNL     1      66.168   8.665  -5.822  1.00  0.00     0.206 HD
HETATM   37  N12 UNL     1      66.797   9.628  -2.914  1.00  0.00    -0.113 N 
ATOM     38  H12 UNL     1      66.973  10.325  -2.190  1.00  0.00     0.203 HD
ENDBRANCH  29  31
ENDBRANCH  13  29
TORSDOF 6
ENDMDL
