MODEL 1
REMARK VINA RESULT: -8.014572130      0.000      0.000
REMARK  7 active torsions:
REMARK  status: ('A' for Active; 'I' for Inactive)
REMARK    1  A    between atoms: C3_4  and  C4_5 
REMARK    2  A    between atoms: N2_6  and  N3_8 
REMARK    3  A    between atoms: N5_17  and  C7_18 
REMARK    4  A    between atoms: C7_18  and  O3_19 
REMARK    5  A    between atoms: C7_18  and  C8_21 
REMARK    6  A    between atoms: C8_21  and  N6_22 
REMARK    7  A    between atoms: C12_31  and  N9_32 
ROOT
HETATM    1  N1  UNL     1      67.101   4.469   1.090  1.00  0.00    -0.190 NA
HETATM    2  C1  UNL     1      68.174   4.902   1.039  1.00  0.00     0.119 C 
HETATM    3  C2  UNL     1      69.528   5.425   0.981  1.00  0.00     0.139 A 
HETATM    4  C3  UNL     1      69.853   6.411   0.081  1.00  0.00     0.087 A 
HETATM    5  C5  UNL     1      71.142   6.917   0.016  1.00  0.00     0.264 A 
HETATM    6  O1  UNL     1      71.394   7.807  -0.810  1.00  0.00    -0.267 OA
HETATM    7  N4  UNL     1      72.015   6.387   0.869  1.00  0.00    -0.274 N 
ATOM      8  H4  UNL     1      72.975   6.731   0.854  1.00  0.00     0.173 HD
HETATM    9  C6  UNL     1      71.691   5.403   1.768  1.00  0.00     0.332 A 
HETATM   10  O2  UNL     1      72.677   5.053   2.475  1.00  0.00    -0.246 OA
HETATM   11  N5  UNL     1      70.459   4.904   1.845  1.00  0.00    -0.260 N 
ENDROOT
BRANCH   4  12
HETATM   12  C4  UNL     1      68.819   6.922  -0.810  1.00  0.00     0.126 C 
HETATM   13  N2  UNL     1      68.526   8.182  -0.810  1.00  0.00    -0.317 N 
ATOM     14  H2  UNL     1      69.029   8.805  -0.179  1.00  0.00     0.185 HD
BRANCH  13  15
HETATM   15  N3  UNL     1      67.551   8.711  -1.640  1.00  0.00    -0.345 N 
ATOM     16  H32 UNL     1      67.057   8.074  -2.265  1.00  0.00     0.176 HD
ATOM     17  H31 UNL     1      67.319   9.705  -1.640  1.00  0.00     0.176 HD
ENDBRANCH  13  15
ENDBRANCH   4  12
BRANCH  11  18
HETATM   18  C7  UNL     1      70.106   3.891   2.764  1.00  0.00     0.250 C 
BRANCH  18  19
HETATM   19  O3  UNL     1      71.084   2.918   2.946  1.00  0.00    -0.374 OA
ATOM     20  H3  UNL     1      70.742   2.048   3.116  1.00  0.00     0.212 HD
ENDBRANCH  18  19
BRANCH  18  21
HETATM   21  C8  UNL     1      69.659   4.310   4.131  1.00  0.00     0.204 C 
BRANCH  21  22
HETATM   22  N6  UNL     1      68.466   3.475   4.422  1.00  0.00    -0.271 N 
HETATM   23  N7  UNL     1      67.211   3.875   4.421  1.00  0.00    -0.307 N 
HETATM   24  C9  UNL     1      66.387   2.855   4.713  1.00  0.00     0.128 A 
ATOM     25  H7  UNL     1      66.906   4.829   4.224  1.00  0.00     0.186 HD
HETATM   26  C10 UNL     1      67.156   1.741   4.913  1.00  0.00     0.095 A 
HETATM   27  C11 UNL     1      66.860   0.425   5.239  1.00  0.00     0.275 A 
HETATM   28  C13 UNL     1      68.477   2.164   4.722  1.00  0.00     0.155 A 
HETATM   29  O4  UNL     1      65.676   0.063   5.407  1.00  0.00    -0.267 OA
HETATM   30  N8  UNL     1      67.858  -0.452   5.372  1.00  0.00    -0.155 N 
HETATM   31  C12 UNL     1      69.139  -0.057   5.190  1.00  0.00     0.680 A 
ATOM     32  H8  UNL     1      67.654  -1.423   5.611  1.00  0.00     0.187 HD
HETATM   33  N10 UNL     1      69.426   1.231   4.871  1.00  0.00    -0.174 N 
ATOM     34  H10 UNL     1      70.402   1.498   4.741  1.00  0.00     0.186 HD
BRANCH  31  35
HETATM   35  N9  UNL     1      70.096  -0.908   5.320  1.00  0.00    -0.234 N 
ATOM     36  H92 UNL     1      70.989  -0.609   5.711  1.00  0.00     0.174 HD
ATOM     37  H91 UNL     1      69.955  -1.877   5.032  1.00  0.00     0.174 HD
ENDBRANCH  31  35
ENDBRANCH  21  22
ENDBRANCH  18  21
ENDBRANCH  11  18
TORSDOF 7
ENDMDL
MODEL 2
REMARK VINA RESULT: -7.551285533      1.347      2.379
REMARK  7 active torsions:
REMARK  status: ('A' for Active; 'I' for Inactive)
REMARK    1  A    between atoms: C3_4  and  C4_5 
REMARK    2  A    between atoms: N2_6  and  N3_8 
REMARK    3  A    between atoms: N5_17  and  C7_18 
REMARK    4  A    between atoms: C7_18  and  O3_19 
REMARK    5  A    between atoms: C7_18  and  C8_21 
REMARK    6  A    between atoms: C8_21  and  N6_22 
REMARK    7  A    between atoms: C12_31  and  N9_32 
ROOT
HETATM    1  N1  UNL     1      66.840   4.398   0.784  1.00  0.00    -0.190 NA
HETATM    2  C1  UNL     1      67.933   4.769   0.874  1.00  0.00     0.119 C 
HETATM    3  C2  UNL     1      69.312   5.214   0.992  1.00  0.00     0.139 A 
HETATM    4  C3  UNL     1      69.778   6.244   0.211  1.00  0.00     0.087 A 
HETATM    5  C5  UNL     1      71.091   6.676   0.315  1.00  0.00     0.264 A 
HETATM    6  O1  UNL     1      71.471   7.609  -0.408  1.00  0.00    -0.267 OA
HETATM    7  N4  UNL     1      71.843   6.033   1.203  1.00  0.00    -0.274 N 
ATOM      8  H4  UNL     1      72.816   6.320   1.310  1.00  0.00     0.173 HD
HETATM    9  C6  UNL     1      71.379   5.005   1.983  1.00  0.00     0.332 A 
HETATM   10  O2  UNL     1      72.267   4.545   2.753  1.00  0.00    -0.246 OA
HETATM   11  N5  UNL     1      70.121   4.575   1.899  1.00  0.00    -0.260 N 
ENDROOT
BRANCH   4  12
HETATM   12  C4  UNL     1      68.868   6.882  -0.733  1.00  0.00     0.126 C 
HETATM   13  N2  UNL     1      68.653   8.155  -0.669  1.00  0.00    -0.317 N 
ATOM     14  H2  UNL     1      69.130   8.700   0.049  1.00  0.00     0.185 HD
BRANCH  13  15
HETATM   15  N3  UNL     1      67.797   8.803  -1.546  1.00  0.00    -0.345 N 
ATOM     16  H32 UNL     1      66.804   8.825  -1.315  1.00  0.00     0.176 HD
ATOM     17  H31 UNL     1      68.132   9.250  -2.400  1.00  0.00     0.176 HD
ENDBRANCH  13  15
ENDBRANCH   4  12
BRANCH  11  18
HETATM   18  C7  UNL     1      69.624   3.518   2.693  1.00  0.00     0.250 C 
BRANCH  18  19
HETATM   19  O3  UNL     1      70.548   2.509   2.945  1.00  0.00    -0.374 OA
ATOM     20  H3  UNL     1      71.183   2.720   3.619  1.00  0.00     0.212 HD
ENDBRANCH  18  19
BRANCH  18  21
HETATM   21  C8  UNL     1      68.999   3.865   4.010  1.00  0.00     0.204 C 
BRANCH  21  22
HETATM   22  N6  UNL     1      68.224   2.661   4.400  1.00  0.00    -0.271 N 
HETATM   23  N7  UNL     1      68.637   1.681   5.179  1.00  0.00    -0.307 N 
HETATM   24  C9  UNL     1      67.673   0.759   5.332  1.00  0.00     0.128 A 
ATOM     25  H7  UNL     1      69.563   1.631   5.606  1.00  0.00     0.186 HD
HETATM   26  C10 UNL     1      66.584   1.169   4.613  1.00  0.00     0.095 A 
HETATM   27  C11 UNL     1      65.323   0.627   4.401  1.00  0.00     0.275 A 
HETATM   28  C13 UNL     1      66.962   2.384   4.029  1.00  0.00     0.155 A 
HETATM   29  O4  UNL     1      65.001  -0.458   4.930  1.00  0.00    -0.267 OA
HETATM   30  N8  UNL     1      64.457   1.282   3.624  1.00  0.00    -0.155 N 
HETATM   31  C12 UNL     1      64.810   2.457   3.052  1.00  0.00     0.680 A 
ATOM     32  H8  UNL     1      63.527   0.895   3.460  1.00  0.00     0.187 HD
HETATM   33  N10 UNL     1      66.043   2.983   3.262  1.00  0.00    -0.174 N 
ATOM     34  H10 UNL     1      66.278   3.871   2.817  1.00  0.00     0.186 HD
BRANCH  31  35
HETATM   35  N9  UNL     1      63.969   3.082   2.304  1.00  0.00    -0.234 N 
ATOM     36  H92 UNL     1      62.973   2.878   2.384  1.00  0.00     0.174 HD
ATOM     37  H91 UNL     1      64.303   3.775   1.635  1.00  0.00     0.174 HD
ENDBRANCH  31  35
ENDBRANCH  21  22
ENDBRANCH  18  21
ENDBRANCH  11  18
TORSDOF 7
ENDMDL
MODEL 3
REMARK VINA RESULT: -7.456052167      2.113      2.915
REMARK  7 active torsions:
REMARK  status: ('A' for Active; 'I' for Inactive)
REMARK    1  A    between atoms: C3_4  and  C4_5 
REMARK    2  A    between atoms: N2_6  and  N3_8 
REMARK    3  A    between atoms: N5_17  and  C7_18 
REMARK    4  A    between atoms: C7_18  and  O3_19 
REMARK    5  A    between atoms: C7_18  and  C8_21 
REMARK    6  A    between atoms: C8_21  and  N6_22 
REMARK    7  A    between atoms: C12_31  and  N9_32 
ROOT
HETATM    1  N1  UNL     1      65.162   7.911   1.470  1.00  0.00    -0.190 NA
HETATM    2  C1  UNL     1      66.169   7.498   1.074  1.00  0.00     0.119 C 
HETATM    3  C2  UNL     1      67.426   6.958   0.583  1.00  0.00     0.139 A 
HETATM    4  C3  UNL     1      68.041   7.517  -0.512  1.00  0.00     0.087 A 
HETATM    5  C5  UNL     1      69.240   7.011  -0.989  1.00  0.00     0.264 A 
HETATM    6  O1  UNL     1      69.761   7.545  -1.979  1.00  0.00    -0.267 OA
HETATM    7  N4  UNL     1      69.734   5.971  -0.324  1.00  0.00    -0.274 N 
ATOM      8  H4  UNL     1      70.614   5.567  -0.643  1.00  0.00     0.173 HD
HETATM    9  C6  UNL     1      69.121   5.412   0.769  1.00  0.00     0.332 A 
HETATM   10  O2  UNL     1      69.769   4.436   1.239  1.00  0.00    -0.246 OA
HETATM   11  N5  UNL     1      67.969   5.884   1.243  1.00  0.00    -0.260 N 
ENDROOT
BRANCH   4  12
HETATM   12  C4  UNL     1      67.413   8.657  -1.169  1.00  0.00     0.126 C 
HETATM   13  N2  UNL     1      67.232   8.651  -2.449  1.00  0.00    -0.317 N 
ATOM     14  H2  UNL     1      67.536   7.838  -2.986  1.00  0.00     0.185 HD
BRANCH  13  15
HETATM   15  N3  UNL     1      66.639   9.712  -3.115  1.00  0.00    -0.345 N 
ATOM     16  H32 UNL     1      67.079  10.629  -3.039  1.00  0.00     0.176 HD
ATOM     17  H31 UNL     1      65.790   9.599  -3.669  1.00  0.00     0.176 HD
ENDBRANCH  13  15
ENDBRANCH   4  12
BRANCH  11  18
HETATM   18  C7  UNL     1      67.323   5.323   2.366  1.00  0.00     0.250 C 
BRANCH  18  19
HETATM   19  O3  UNL     1      66.964   3.988   2.212  1.00  0.00    -0.374 OA
ATOM     20  H3  UNL     1      66.488   3.625   2.950  1.00  0.00     0.212 HD
ENDBRANCH  18  19
BRANCH  18  21
HETATM   21  C8  UNL     1      68.008   5.432   3.695  1.00  0.00     0.204 C 
BRANCH  21  22
HETATM   22  N6  UNL     1      68.363   4.038   4.063  1.00  0.00    -0.271 N 
HETATM   23  N7  UNL     1      69.549   3.477   3.953  1.00  0.00    -0.307 N 
HETATM   24  C9  UNL     1      69.517   2.208   4.392  1.00  0.00     0.128 A 
ATOM     25  H7  UNL     1      70.379   3.942   3.584  1.00  0.00     0.186 HD
HETATM   26  C10 UNL     1      68.239   1.941   4.806  1.00  0.00     0.095 A 
HETATM   27  C11 UNL     1      67.626   0.817   5.340  1.00  0.00     0.275 A 
HETATM   28  C13 UNL     1      67.525   3.125   4.585  1.00  0.00     0.155 A 
HETATM   29  O4  UNL     1      68.277  -0.232   5.531  1.00  0.00    -0.267 OA
HETATM   30  N8  UNL     1      66.328   0.869   5.648  1.00  0.00    -0.155 N 
HETATM   31  C12 UNL     1      65.625   2.007   5.439  1.00  0.00     0.680 A 
ATOM     32  H8  UNL     1      65.865   0.049   6.041  1.00  0.00     0.187 HD
HETATM   33  N10 UNL     1      66.228   3.105   4.917  1.00  0.00    -0.174 N 
ATOM     34  H10 UNL     1      65.671   3.947   4.772  1.00  0.00     0.186 HD
BRANCH  31  35
HETATM   35  N9  UNL     1      64.373   2.049   5.738  1.00  0.00    -0.234 N 
ATOM     36  H92 UNL     1      64.089   2.235   6.700  1.00  0.00     0.174 HD
ATOM     37  H91 UNL     1      63.673   1.896   5.012  1.00  0.00     0.174 HD
ENDBRANCH  31  35
ENDBRANCH  21  22
ENDBRANCH  18  21
ENDBRANCH  11  18
TORSDOF 7
ENDMDL
MODEL 4
REMARK VINA RESULT: -7.423783566      2.411      3.508
REMARK  7 active torsions:
REMARK  status: ('A' for Active; 'I' for Inactive)
REMARK    1  A    between atoms: C3_4  and  C4_5 
REMARK    2  A    between atoms: N2_6  and  N3_8 
REMARK    3  A    between atoms: N5_17  and  C7_18 
REMARK    4  A    between atoms: C7_18  and  O3_19 
REMARK    5  A    between atoms: C7_18  and  C8_21 
REMARK    6  A    between atoms: C8_21  and  N6_22 
REMARK    7  A    between atoms: C12_31  and  N9_32 
ROOT
HETATM    1  N1  UNL     1      70.903   7.331  -0.422  1.00  0.00    -0.190 NA
HETATM    2  C1  UNL     1      69.842   6.944  -0.165  1.00  0.00     0.119 C 
HETATM    3  C2  UNL     1      68.516   6.459   0.180  1.00  0.00     0.139 A 
HETATM    4  C3  UNL     1      67.441   6.750  -0.625  1.00  0.00     0.087 A 
HETATM    5  C5  UNL     1      66.171   6.294  -0.306  1.00  0.00     0.264 A 
HETATM    6  O1  UNL     1      65.227   6.579  -1.058  1.00  0.00    -0.267 OA
HETATM    7  N4  UNL     1      66.078   5.573   0.808  1.00  0.00    -0.274 N 
ATOM      8  H4  UNL     1      65.162   5.219   1.080  1.00  0.00     0.173 HD
HETATM    9  C6  UNL     1      67.152   5.282   1.611  1.00  0.00     0.332 A 
HETATM   10  O2  UNL     1      66.828   4.586   2.614  1.00  0.00    -0.246 OA
HETATM   11  N5  UNL     1      68.378   5.711   1.322  1.00  0.00    -0.260 N 
ENDROOT
BRANCH   4  12
HETATM   12  C4  UNL     1      67.653   7.550  -1.825  1.00  0.00     0.126 C 
HETATM   13  N2  UNL     1      66.912   8.584  -2.056  1.00  0.00    -0.317 N 
ATOM     14  H2  UNL     1      66.182   8.827  -1.387  1.00  0.00     0.185 HD
BRANCH  13  15
HETATM   15  N3  UNL     1      67.078   9.372  -3.184  1.00  0.00    -0.345 N 
ATOM     16  H32 UNL     1      67.485   8.940  -4.013  1.00  0.00     0.176 HD
ATOM     17  H31 UNL     1      66.807  10.356  -3.203  1.00  0.00     0.176 HD
ENDBRANCH  13  15
ENDBRANCH   4  12
BRANCH  11  18
HETATM   18  C7  UNL     1      69.496   5.422   2.136  1.00  0.00     0.250 C 
BRANCH  18  19
HETATM   19  O3  UNL     1      69.232   5.451   3.502  1.00  0.00    -0.374 OA
ATOM     20  H3  UNL     1      69.675   6.148   3.971  1.00  0.00     0.212 HD
ENDBRANCH  18  19
BRANCH  18  21
HETATM   21  C8  UNL     1      70.245   4.152   1.872  1.00  0.00     0.204 C 
BRANCH  21  22
HETATM   22  N6  UNL     1      69.939   3.273   3.030  1.00  0.00    -0.271 N 
HETATM   23  N7  UNL     1      70.581   3.240   4.179  1.00  0.00    -0.307 N 
HETATM   24  C9  UNL     1      70.029   2.337   5.006  1.00  0.00     0.128 A 
ATOM     25  H7  UNL     1      71.387   3.822   4.411  1.00  0.00     0.186 HD
HETATM   26  C10 UNL     1      68.976   1.758   4.349  1.00  0.00     0.095 A 
HETATM   27  C11 UNL     1      68.058   0.778   4.698  1.00  0.00     0.275 A 
HETATM   28  C13 UNL     1      68.941   2.374   3.092  1.00  0.00     0.155 A 
HETATM   29  O4  UNL     1      68.102   0.238   5.824  1.00  0.00    -0.267 OA
HETATM   30  N8  UNL     1      67.126   0.416   3.814  1.00  0.00    -0.155 N 
HETATM   31  C12 UNL     1      67.081   1.002   2.595  1.00  0.00     0.680 A 
ATOM     32  H8  UNL     1      66.445  -0.304   4.058  1.00  0.00     0.187 HD
HETATM   33  N10 UNL     1      67.979   1.961   2.257  1.00  0.00    -0.174 N 
ATOM     34  H10 UNL     1      67.919   2.383   1.330  1.00  0.00     0.186 HD
BRANCH  31  35
HETATM   35  N9  UNL     1      66.178   0.647   1.748  1.00  0.00    -0.234 N 
ATOM     36  H92 UNL     1      65.981   1.240   0.942  1.00  0.00     0.174 HD
ATOM     37  H91 UNL     1      65.666  -0.224   1.888  1.00  0.00     0.174 HD
ENDBRANCH  31  35
ENDBRANCH  21  22
ENDBRANCH  18  21
ENDBRANCH  11  18
TORSDOF 7
ENDMDL
MODEL 5
REMARK VINA RESULT: -7.356795343      1.899      2.647
REMARK  7 active torsions:
REMARK  status: ('A' for Active; 'I' for Inactive)
REMARK    1  A    between atoms: C3_4  and  C4_5 
REMARK    2  A    between atoms: N2_6  and  N3_8 
REMARK    3  A    between atoms: N5_17  and  C7_18 
REMARK    4  A    between atoms: C7_18  and  O3_19 
REMARK    5  A    between atoms: C7_18  and  C8_21 
REMARK    6  A    between atoms: C8_21  and  N6_22 
REMARK    7  A    between atoms: C12_31  and  N9_32 
ROOT
HETATM    1  N1  UNL     1      64.693   5.619   0.323  1.00  0.00    -0.190 NA
HETATM    2  C1  UNL     1      65.849   5.676   0.279  1.00  0.00     0.119 C 
HETATM    3  C2  UNL     1      67.301   5.725   0.229  1.00  0.00     0.139 A 
HETATM    4  C3  UNL     1      67.936   6.576  -0.643  1.00  0.00     0.087 A 
HETATM    5  C5  UNL     1      69.320   6.630  -0.700  1.00  0.00     0.264 A 
HETATM    6  O1  UNL     1      69.854   7.412  -1.501  1.00  0.00    -0.267 OA
HETATM    7  N4  UNL     1      69.966   5.817   0.131  1.00  0.00    -0.274 N 
ATOM      8  H4  UNL     1      70.985   5.826   0.120  1.00  0.00     0.173 HD
HETATM    9  C6  UNL     1      69.332   4.968   1.002  1.00  0.00     0.332 A 
HETATM   10  O2  UNL     1      70.144   4.292   1.692  1.00  0.00    -0.246 OA
HETATM   11  N5  UNL     1      68.004   4.901   1.071  1.00  0.00    -0.260 N 
ENDROOT
BRANCH   4  12
HETATM   12  C4  UNL     1      67.132   7.426  -1.512  1.00  0.00     0.126 C 
HETATM   13  N2  UNL     1      67.379   8.693  -1.591  1.00  0.00    -0.317 N 
ATOM     14  H2  UNL     1      68.142   9.082  -1.037  1.00  0.00     0.185 HD
BRANCH  13  15
HETATM   15  N3  UNL     1      66.641   9.539  -2.404  1.00  0.00    -0.345 N 
ATOM     16  H32 UNL     1      65.697   9.785  -2.105  1.00  0.00     0.176 HD
ATOM     17  H31 UNL     1      67.013   9.913  -3.277  1.00  0.00     0.176 HD
ENDBRANCH  13  15
ENDBRANCH   4  12
BRANCH  11  18
HETATM   18  C7  UNL     1      67.333   4.033   1.961  1.00  0.00     0.250 C 
BRANCH  18  19
HETATM   19  O3  UNL     1      67.609   2.684   1.762  1.00  0.00    -0.374 OA
ATOM     20  H3  UNL     1      68.470   2.511   1.399  1.00  0.00     0.212 HD
ENDBRANCH  18  19
BRANCH  18  21
HETATM   21  C8  UNL     1      67.478   4.287   3.431  1.00  0.00     0.204 C 
BRANCH  21  22
HETATM   22  N6  UNL     1      67.993   3.013   3.995  1.00  0.00    -0.271 N 
HETATM   23  N7  UNL     1      69.244   2.599   3.981  1.00  0.00    -0.307 N 
HETATM   24  C9  UNL     1      69.356   1.408   4.592  1.00  0.00     0.128 A 
ATOM     25  H7  UNL     1      70.020   3.112   3.562  1.00  0.00     0.186 HD
HETATM   26  C10 UNL     1      68.110   1.040   5.021  1.00  0.00     0.095 A 
HETATM   27  C11 UNL     1      67.625  -0.071   5.699  1.00  0.00     0.275 A 
HETATM   28  C13 UNL     1      67.260   2.081   4.628  1.00  0.00     0.155 A 
HETATM   29  O4  UNL     1      68.396  -0.991   6.044  1.00  0.00    -0.267 OA
HETATM   30  N8  UNL     1      66.322  -0.144   5.978  1.00  0.00    -0.155 N 
HETATM   31  C12 UNL     1      65.489   0.855   5.603  1.00  0.00     0.680 A 
ATOM     32  H8  UNL     1      65.953  -0.954   6.476  1.00  0.00     0.187 HD
HETATM   33  N10 UNL     1      65.966   1.939   4.941  1.00  0.00    -0.174 N 
ATOM     34  H10 UNL     1      65.313   2.675   4.672  1.00  0.00     0.186 HD
BRANCH  31  35
HETATM   35  N9  UNL     1      64.233   0.777   5.876  1.00  0.00    -0.234 N 
ATOM     36  H92 UNL     1      63.804  -0.137   6.021  1.00  0.00     0.174 HD
ATOM     37  H91 UNL     1      63.675   1.628   5.945  1.00  0.00     0.174 HD
ENDBRANCH  31  35
ENDBRANCH  21  22
ENDBRANCH  18  21
ENDBRANCH  11  18
TORSDOF 7
ENDMDL
