MODEL 1
REMARK VINA RESULT: -8.277691554      0.000      0.000
REMARK  13 active torsions:
REMARK  status: ('A' for Active; 'I' for Inactive)
REMARK    1  A    between atoms: N1_2  and  C2_3 
REMARK    2  A    between atoms: N1_2  and  C9_10 
REMARK    3  A    between atoms: C2_3  and  C3_4 
REMARK    4  A    between atoms: C11_12  and  N2_13 
REMARK    5  A    between atoms: N2_13  and  C12_15 
REMARK    6  A    between atoms: C12_15  and  C13_16 
REMARK    7  A    between atoms: C13_16  and  C14_17 
REMARK    8  A    between atoms: C14_17  and  C15_18 
REMARK    9  A    between atoms: C15_18  and  C16_19 
REMARK   10  A    between atoms: C16_19  and  N3_20 
REMARK       I    between atoms: C17_22  and  N5_24 
REMARK   11  A    between atoms: N5_24  and  C18_26 
REMARK   12  A    between atoms: C18_26  and  C19_27 
REMARK   13  A    between atoms: C19_27  and  N6_28 
ROOT
HETATM    1  N2  UNL     1       7.512  -7.564 -19.481  1.00  0.00    -0.376 N 
ATOM      2  H2  UNL     1       8.083  -8.401 -19.368  1.00  0.00     0.161 HD
ENDROOT
BRANCH   1   3
HETATM    3  C11 UNL     1       7.954  -6.443 -19.056  1.00  0.00     0.105 A 
HETATM    4  C10 UNL     1       7.216  -5.283 -19.349  1.00  0.00     0.096 A 
HETATM    5  C9  UNL     1       7.611  -4.031 -18.943  1.00  0.00     0.107 A 
HETATM    6  N8  UNL     1       8.758  -3.974 -18.238  1.00  0.00    -0.339 N 
HETATM    7  C20 UNL     1       9.471  -5.084 -17.952  1.00  0.00     0.183 A 
ATOM      8  H8  UNL     1       9.096  -3.069 -17.912  1.00  0.00     0.168 HD
HETATM    9  N7  UNL     1       9.087  -6.304 -18.347  1.00  0.00    -0.339 N 
ATOM     10  H7  UNL     1       9.651  -7.122 -18.113  1.00  0.00     0.168 HD
BRANCH   5  11
HETATM   11  N1  UNL     1       6.826  -2.901 -19.264  1.00  0.00    -0.367 N 
HETATM   12  C1  UNL     1       6.804  -2.508 -20.676  1.00  0.00     0.151 C 
BRANCH  11  13
HETATM   13  C2  UNL     1       6.124  -2.217 -18.227  1.00  0.00     0.162 C 
BRANCH  13  14
HETATM   14  C3  UNL     1       6.700  -0.931 -17.815  1.00  0.00    -0.040 A 
HETATM   15  C4  UNL     1       6.432   0.250 -18.468  1.00  0.00     0.009 A 
HETATM   16  C5  UNL     1       6.996   1.448 -18.036  1.00  0.00     0.001 A 
HETATM   17  C6  UNL     1       7.835   1.499 -16.952  1.00  0.00     0.000 A 
HETATM   18  C7  UNL     1       8.108   0.320 -16.292  1.00  0.00     0.001 A 
HETATM   19  C8  UNL     1       7.542  -0.875 -16.726  1.00  0.00     0.009 A 
ENDBRANCH  13  14
ENDBRANCH  11  13
ENDBRANCH   5  11
ENDBRANCH   1   3
BRANCH   1  20
HETATM   20  C12 UNL     1       6.227  -7.670 -20.116  1.00  0.00     0.121 C 
BRANCH  20  21
HETATM   21  C13 UNL     1       5.282  -8.628 -19.468  1.00  0.00     0.020 C 
BRANCH  21  22
HETATM   22  C14 UNL     1       6.019  -9.699 -18.720  1.00  0.00     0.003 C 
BRANCH  22  23
HETATM   23  C15 UNL     1       5.478  -9.812 -17.319  1.00  0.00     0.020 C 
BRANCH  23  24
HETATM   24  C16 UNL     1       6.225  -8.859 -16.388  1.00  0.00     0.122 C 
BRANCH  24  25
HETATM   25  N3  UNL     1       7.621  -9.157 -16.372  1.00  0.00    -0.365 N 
HETATM   26  C17 UNL     1       8.567  -8.476 -15.871  1.00  0.00     0.184 C 
HETATM   27  N4  UNL     1       8.318  -7.238 -15.219  1.00  0.00    -0.064 NA
HETATM   28  N5  UNL     1       9.900  -8.982 -15.975  1.00  0.00    -0.363 N 
ATOM     29  H5  UNL     1      10.064  -9.954 -16.239  1.00  0.00     0.162 HD
ATOM     30  H3  UNL     1       7.893 -10.032 -16.822  1.00  0.00     0.162 HD
BRANCH  28  31
HETATM   31  C18 UNL     1      11.008  -8.108 -15.703  1.00  0.00     0.149 C 
BRANCH  31  32
HETATM   32  C19 UNL     1      11.795  -8.617 -14.515  1.00  0.00     0.249 C 
BRANCH  32  33
HETATM   33  N6  UNL     1      11.038  -9.694 -13.902  1.00  0.00    -0.078 N 
ATOM     34  H63 UNL     1      11.562 -10.181 -13.175  1.00  0.00     0.274 HD
ATOM     35  H62 UNL     1      10.274  -9.356 -13.317  1.00  0.00     0.274 HD
ATOM     36  H61 UNL     1      10.720 -10.318 -14.644  1.00  0.00     0.274 HD
ENDBRANCH  32  33
ENDBRANCH  31  32
ENDBRANCH  28  31
ENDBRANCH  24  25
ENDBRANCH  23  24
ENDBRANCH  22  23
ENDBRANCH  21  22
ENDBRANCH  20  21
ENDBRANCH   1  20
TORSDOF 13
ENDMDL
MODEL 2
REMARK VINA RESULT: -8.202974559      0.466      1.024
REMARK  13 active torsions:
REMARK  status: ('A' for Active; 'I' for Inactive)
REMARK    1  A    between atoms: N1_2  and  C2_3 
REMARK    2  A    between atoms: N1_2  and  C9_10 
REMARK    3  A    between atoms: C2_3  and  C3_4 
REMARK    4  A    between atoms: C11_12  and  N2_13 
REMARK    5  A    between atoms: N2_13  and  C12_15 
REMARK    6  A    between atoms: C12_15  and  C13_16 
REMARK    7  A    between atoms: C13_16  and  C14_17 
REMARK    8  A    between atoms: C14_17  and  C15_18 
REMARK    9  A    between atoms: C15_18  and  C16_19 
REMARK   10  A    between atoms: C16_19  and  N3_20 
REMARK       I    between atoms: C17_22  and  N5_24 
REMARK   11  A    between atoms: N5_24  and  C18_26 
REMARK   12  A    between atoms: C18_26  and  C19_27 
REMARK   13  A    between atoms: C19_27  and  N6_28 
ROOT
HETATM    1  N2  UNL     1       7.282  -7.488 -19.798  1.00  0.00    -0.376 N 
ATOM      2  H2  UNL     1       7.906  -8.242 -20.084  1.00  0.00     0.161 HD
ENDROOT
BRANCH   1   3
HETATM    3  C11 UNL     1       7.779  -6.416 -19.310  1.00  0.00     0.105 A 
HETATM    4  C10 UNL     1       7.127  -5.200 -19.576  1.00  0.00     0.096 A 
HETATM    5  C9  UNL     1       7.586  -3.995 -19.103  1.00  0.00     0.107 A 
HETATM    6  N8  UNL     1       8.708  -4.041 -18.359  1.00  0.00    -0.339 N 
HETATM    7  C20 UNL     1       9.339  -5.206 -18.098  1.00  0.00     0.183 A 
ATOM      8  H8  UNL     1       9.091  -3.174 -17.983  1.00  0.00     0.168 HD
HETATM    9  N7  UNL     1       8.893  -6.381 -18.559  1.00  0.00    -0.339 N 
ATOM     10  H7  UNL     1       9.394  -7.243 -18.342  1.00  0.00     0.168 HD
BRANCH   5  11
HETATM   11  N1  UNL     1       6.887  -2.803 -19.401  1.00  0.00    -0.367 N 
HETATM   12  C1  UNL     1       6.995  -2.315 -20.778  1.00  0.00     0.151 C 
BRANCH  11  13
HETATM   13  C2  UNL     1       6.140  -2.154 -18.373  1.00  0.00     0.162 C 
BRANCH  13  14
HETATM   14  C3  UNL     1       6.724  -0.909 -17.857  1.00  0.00    -0.040 A 
HETATM   15  C4  UNL     1       7.563  -0.875 -16.767  1.00  0.00     0.009 A 
HETATM   16  C5  UNL     1       8.100   0.329 -16.316  1.00  0.00     0.001 A 
HETATM   17  C6  UNL     1       7.816   1.519 -16.935  1.00  0.00     0.000 A 
HETATM   18  C7  UNL     1       6.976   1.494 -18.029  1.00  0.00     0.001 A 
HETATM   19  C8  UNL     1       6.442   0.289 -18.476  1.00  0.00     0.009 A 
ENDBRANCH  13  14
ENDBRANCH  11  13
ENDBRANCH   5  11
ENDBRANCH   1   3
BRANCH   1  20
HETATM   20  C12 UNL     1       5.862  -7.652 -19.952  1.00  0.00     0.121 C 
BRANCH  20  21
HETATM   21  C13 UNL     1       5.087  -7.661 -18.676  1.00  0.00     0.020 C 
BRANCH  21  22
HETATM   22  C14 UNL     1       4.461  -9.001 -18.427  1.00  0.00     0.003 C 
BRANCH  22  23
HETATM   23  C15 UNL     1       5.462  -9.923 -17.780  1.00  0.00     0.020 C 
BRANCH  23  24
HETATM   24  C16 UNL     1       6.163  -9.210 -16.625  1.00  0.00     0.122 C 
BRANCH  24  25
HETATM   25  N3  UNL     1       7.581  -9.275 -16.775  1.00  0.00    -0.365 N 
HETATM   26  C17 UNL     1       8.474  -8.718 -16.066  1.00  0.00     0.184 C 
HETATM   27  N4  UNL     1       8.132  -7.901 -14.955  1.00  0.00    -0.064 NA
HETATM   28  N5  UNL     1       9.846  -8.933 -16.408  1.00  0.00    -0.363 N 
ATOM     29  H5  UNL     1      10.106  -9.680 -17.053  1.00  0.00     0.162 HD
ATOM     30  H3  UNL     1       7.920  -9.842 -17.552  1.00  0.00     0.162 HD
BRANCH  28  31
HETATM   31  C18 UNL     1      10.856  -8.085 -15.834  1.00  0.00     0.149 C 
BRANCH  31  32
HETATM   32  C19 UNL     1      11.762  -8.893 -14.931  1.00  0.00     0.249 C 
BRANCH  32  33
HETATM   33  N6  UNL     1      10.936  -9.543 -13.929  1.00  0.00    -0.078 N 
ATOM     34  H63 UNL     1       9.953  -9.283 -14.000  1.00  0.00     0.274 HD
ATOM     35  H62 UNL     1      10.826 -10.543 -14.097  1.00  0.00     0.274 HD
ATOM     36  H61 UNL     1      11.333  -9.338 -13.012  1.00  0.00     0.274 HD
ENDBRANCH  32  33
ENDBRANCH  31  32
ENDBRANCH  28  31
ENDBRANCH  24  25
ENDBRANCH  23  24
ENDBRANCH  22  23
ENDBRANCH  21  22
ENDBRANCH  20  21
ENDBRANCH   1  20
TORSDOF 13
ENDMDL
MODEL 3
REMARK VINA RESULT: -8.113968589      1.146      1.561
REMARK  13 active torsions:
REMARK  status: ('A' for Active; 'I' for Inactive)
REMARK    1  A    between atoms: N1_2  and  C2_3 
REMARK    2  A    between atoms: N1_2  and  C9_10 
REMARK    3  A    between atoms: C2_3  and  C3_4 
REMARK    4  A    between atoms: C11_12  and  N2_13 
REMARK    5  A    between atoms: N2_13  and  C12_15 
REMARK    6  A    between atoms: C12_15  and  C13_16 
REMARK    7  A    between atoms: C13_16  and  C14_17 
REMARK    8  A    between atoms: C14_17  and  C15_18 
REMARK    9  A    between atoms: C15_18  and  C16_19 
REMARK   10  A    between atoms: C16_19  and  N3_20 
REMARK       I    between atoms: C17_22  and  N5_24 
REMARK   11  A    between atoms: N5_24  and  C18_26 
REMARK   12  A    between atoms: C18_26  and  C19_27 
REMARK   13  A    between atoms: C19_27  and  N6_28 
ROOT
HETATM    1  N2  UNL     1       6.547  -6.311 -18.723  1.00  0.00    -0.376 N 
ATOM      2  H2  UNL     1       5.985  -6.375 -17.874  1.00  0.00     0.161 HD
ENDROOT
BRANCH   1   3
HETATM    3  C11 UNL     1       7.690  -5.742 -18.674  1.00  0.00     0.105 A 
HETATM    4  C10 UNL     1       7.733  -4.353 -18.463  1.00  0.00     0.096 A 
HETATM    5  C9  UNL     1       8.911  -3.649 -18.402  1.00  0.00     0.107 A 
HETATM    6  N8  UNL     1      10.039  -4.371 -18.555  1.00  0.00    -0.339 N 
HETATM    7  C20 UNL     1      10.005  -5.705 -18.757  1.00  0.00     0.183 A 
ATOM      8  H8  UNL     1      10.941  -3.897 -18.518  1.00  0.00     0.168 HD
HETATM    9  N7  UNL     1       8.857  -6.392 -18.817  1.00  0.00    -0.339 N 
ATOM     10  H7  UNL     1       8.869  -7.401 -18.971  1.00  0.00     0.168 HD
BRANCH   5  11
HETATM   11  N1  UNL     1       8.894  -2.253 -18.184  1.00  0.00    -0.367 N 
HETATM   12  C1  UNL     1       9.872  -1.467 -18.941  1.00  0.00     0.151 C 
BRANCH  11  13
HETATM   13  C2  UNL     1       7.956  -1.699 -17.262  1.00  0.00     0.162 C 
BRANCH  13  14
HETATM   14  C3  UNL     1       7.589  -0.297 -17.498  1.00  0.00    -0.040 A 
HETATM   15  C4  UNL     1       8.198   0.752 -16.850  1.00  0.00     0.009 A 
HETATM   16  C5  UNL     1       7.821   2.068 -17.112  1.00  0.00     0.001 A 
HETATM   17  C6  UNL     1       6.836   2.368 -18.017  1.00  0.00     0.000 A 
HETATM   18  C7  UNL     1       6.220   1.321 -18.671  1.00  0.00     0.001 A 
HETATM   19  C8  UNL     1       6.600   0.008 -18.407  1.00  0.00     0.009 A 
ENDBRANCH  13  14
ENDBRANCH  11  13
ENDBRANCH   5  11
ENDBRANCH   1   3
BRANCH   1  20
HETATM   20  C12 UNL     1       6.035  -6.862 -19.948  1.00  0.00     0.121 C 
BRANCH  20  21
HETATM   21  C13 UNL     1       5.764  -8.330 -19.912  1.00  0.00     0.020 C 
BRANCH  21  22
HETATM   22  C14 UNL     1       4.831  -8.685 -18.794  1.00  0.00     0.003 C 
BRANCH  22  23
HETATM   23  C15 UNL     1       5.424  -9.794 -17.963  1.00  0.00     0.020 C 
BRANCH  23  24
HETATM   24  C16 UNL     1       6.113  -9.215 -16.729  1.00  0.00     0.122 C 
BRANCH  24  25
HETATM   25  N3  UNL     1       7.532  -9.242 -16.882  1.00  0.00    -0.365 N 
HETATM   26  C17 UNL     1       8.415  -8.715 -16.139  1.00  0.00     0.184 C 
HETATM   27  N4  UNL     1       8.057  -7.977 -14.978  1.00  0.00    -0.064 NA
HETATM   28  N5  UNL     1       9.791  -8.879 -16.493  1.00  0.00    -0.363 N 
ATOM     29  H5  UNL     1      10.065  -9.578 -17.183  1.00  0.00     0.162 HD
ATOM     30  H3  UNL     1       7.882  -9.752 -17.693  1.00  0.00     0.162 HD
BRANCH  28  31
HETATM   31  C18 UNL     1      10.783  -8.050 -15.865  1.00  0.00     0.149 C 
BRANCH  31  32
HETATM   32  C19 UNL     1      11.694  -8.894 -14.999  1.00  0.00     0.249 C 
BRANCH  32  33
HETATM   33  N6  UNL     1      10.874  -9.574 -14.013  1.00  0.00    -0.078 N 
ATOM     34  H63 UNL     1       9.911  -9.705 -14.323  1.00  0.00     0.274 HD
ATOM     35  H62 UNL     1      11.119 -10.559 -13.909  1.00  0.00     0.274 HD
ATOM     36  H61 UNL     1      10.939  -9.057 -13.137  1.00  0.00     0.274 HD
ENDBRANCH  32  33
ENDBRANCH  31  32
ENDBRANCH  28  31
ENDBRANCH  24  25
ENDBRANCH  23  24
ENDBRANCH  22  23
ENDBRANCH  21  22
ENDBRANCH  20  21
ENDBRANCH   1  20
TORSDOF 13
ENDMDL
MODEL 4
REMARK VINA RESULT: -8.072623411      1.173      1.990
REMARK  13 active torsions:
REMARK  status: ('A' for Active; 'I' for Inactive)
REMARK    1  A    between atoms: N1_2  and  C2_3 
REMARK    2  A    between atoms: N1_2  and  C9_10 
REMARK    3  A    between atoms: C2_3  and  C3_4 
REMARK    4  A    between atoms: C11_12  and  N2_13 
REMARK    5  A    between atoms: N2_13  and  C12_15 
REMARK    6  A    between atoms: C12_15  and  C13_16 
REMARK    7  A    between atoms: C13_16  and  C14_17 
REMARK    8  A    between atoms: C14_17  and  C15_18 
REMARK    9  A    between atoms: C15_18  and  C16_19 
REMARK   10  A    between atoms: C16_19  and  N3_20 
REMARK       I    between atoms: C17_22  and  N5_24 
REMARK   11  A    between atoms: N5_24  and  C18_26 
REMARK   12  A    between atoms: C18_26  and  C19_27 
REMARK   13  A    between atoms: C19_27  and  N6_28 
ROOT
HETATM    1  N2  UNL     1       7.217  -6.544 -19.630  1.00  0.00    -0.376 N 
ATOM      2  H2  UNL     1       8.226  -6.678 -19.576  1.00  0.00     0.161 HD
ENDROOT
BRANCH   1   3
HETATM    3  C11 UNL     1       6.711  -5.440 -19.232  1.00  0.00     0.105 A 
HETATM    4  C10 UNL     1       7.583  -4.439 -18.770  1.00  0.00     0.096 A 
HETATM    5  C9  UNL     1       7.138  -3.221 -18.315  1.00  0.00     0.107 A 
HETATM    6  N8  UNL     1       5.804  -3.034 -18.338  1.00  0.00    -0.339 N 
HETATM    7  C20 UNL     1       4.961  -3.991 -18.782  1.00  0.00     0.183 A 
ATOM      8  H8  UNL     1       5.421  -2.147 -18.012  1.00  0.00     0.168 HD
HETATM    9  N7  UNL     1       5.394  -5.178 -19.224  1.00  0.00    -0.339 N 
ATOM     10  H7  UNL     1       4.728  -5.878 -19.553  1.00  0.00     0.168 HD
BRANCH   5  11
HETATM   11  N1  UNL     1       8.062  -2.251 -17.865  1.00  0.00    -0.367 N 
HETATM   12  C1  UNL     1       9.375  -2.255 -18.515  1.00  0.00     0.151 C 
BRANCH  11  13
HETATM   13  C2  UNL     1       7.681  -1.349 -16.826  1.00  0.00     0.162 C 
BRANCH  13  14
HETATM   14  C3  UNL     1       7.480   0.045 -17.241  1.00  0.00    -0.040 A 
HETATM   15  C4  UNL     1       8.181   1.094 -16.695  1.00  0.00     0.009 A 
HETATM   16  C5  UNL     1       7.962   2.401 -17.126  1.00  0.00     0.001 A 
HETATM   17  C6  UNL     1       7.044   2.692 -18.102  1.00  0.00     0.000 A 
HETATM   18  C7  UNL     1       6.337   1.646 -18.655  1.00  0.00     0.001 A 
HETATM   19  C8  UNL     1       6.559   0.342 -18.223  1.00  0.00     0.009 A 
ENDBRANCH  13  14
ENDBRANCH  11  13
ENDBRANCH   5  11
ENDBRANCH   1   3
BRANCH   1  20
HETATM   20  C12 UNL     1       6.393  -7.600 -20.151  1.00  0.00     0.121 C 
BRANCH  20  21
HETATM   21  C13 UNL     1       6.575  -8.926 -19.488  1.00  0.00     0.020 C 
BRANCH  21  22
HETATM   22  C14 UNL     1       5.290  -9.420 -18.894  1.00  0.00     0.003 C 
BRANCH  22  23
HETATM   23  C15 UNL     1       5.544  -9.990 -17.523  1.00  0.00     0.020 C 
BRANCH  23  24
HETATM   24  C16 UNL     1       5.975  -8.882 -16.564  1.00  0.00     0.122 C 
BRANCH  24  25
HETATM   25  N3  UNL     1       7.240  -9.184 -15.975  1.00  0.00    -0.365 N 
HETATM   26  C17 UNL     1       8.336  -8.559 -16.101  1.00  0.00     0.184 C 
HETATM   27  N4  UNL     1       8.433  -7.394 -16.909  1.00  0.00    -0.064 NA
HETATM   28  N5  UNL     1       9.484  -9.052 -15.405  1.00  0.00    -0.363 N 
ATOM     29  H5  UNL     1       9.379  -9.742 -14.661  1.00  0.00     0.162 HD
ATOM     30  H3  UNL     1       7.264 -10.009 -15.376  1.00  0.00     0.162 HD
BRANCH  28  31
HETATM   31  C18 UNL     1      10.788  -8.564 -15.764  1.00  0.00     0.149 C 
BRANCH  31  32
HETATM   32  C19 UNL     1      11.742  -8.723 -14.599  1.00  0.00     0.249 C 
BRANCH  32  33
HETATM   33  N6  UNL     1      11.157  -9.666 -13.663  1.00  0.00    -0.078 N 
ATOM     34  H63 UNL     1      11.082 -10.608 -14.047  1.00  0.00     0.274 HD
ATOM     35  H62 UNL     1      11.777  -9.885 -12.884  1.00  0.00     0.274 HD
ATOM     36  H61 UNL     1      10.258  -9.292 -13.359  1.00  0.00     0.274 HD
ENDBRANCH  32  33
ENDBRANCH  31  32
ENDBRANCH  28  31
ENDBRANCH  24  25
ENDBRANCH  23  24
ENDBRANCH  22  23
ENDBRANCH  21  22
ENDBRANCH  20  21
ENDBRANCH   1  20
TORSDOF 13
ENDMDL
MODEL 5
REMARK VINA RESULT: -8.006851250      1.397      2.331
REMARK  13 active torsions:
REMARK  status: ('A' for Active; 'I' for Inactive)
REMARK    1  A    between atoms: N1_2  and  C2_3 
REMARK    2  A    between atoms: N1_2  and  C9_10 
REMARK    3  A    between atoms: C2_3  and  C3_4 
REMARK    4  A    between atoms: C11_12  and  N2_13 
REMARK    5  A    between atoms: N2_13  and  C12_15 
REMARK    6  A    between atoms: C12_15  and  C13_16 
REMARK    7  A    between atoms: C13_16  and  C14_17 
REMARK    8  A    between atoms: C14_17  and  C15_18 
REMARK    9  A    between atoms: C15_18  and  C16_19 
REMARK   10  A    between atoms: C16_19  and  N3_20 
REMARK       I    between atoms: C17_22  and  N5_24 
REMARK   11  A    between atoms: N5_24  and  C18_26 
REMARK   12  A    between atoms: C18_26  and  C19_27 
REMARK   13  A    between atoms: C19_27  and  N6_28 
ROOT
HETATM    1  N2  UNL     1       6.874  -6.782 -18.910  1.00  0.00    -0.376 N 
ATOM      2  H2  UNL     1       7.487  -7.051 -18.141  1.00  0.00     0.161 HD
ENDROOT
BRANCH   1   3
HETATM    3  C11 UNL     1       6.502  -5.564 -19.016  1.00  0.00     0.105 A 
HETATM    4  C10 UNL     1       7.326  -4.568 -18.464  1.00  0.00     0.096 A 
HETATM    5  C9  UNL     1       7.011  -3.232 -18.520  1.00  0.00     0.107 A 
HETATM    6  N8  UNL     1       5.857  -2.923 -19.143  1.00  0.00    -0.339 N 
HETATM    7  C20 UNL     1       5.063  -3.874 -19.677  1.00  0.00     0.183 A 
ATOM      8  H8  UNL     1       5.577  -1.945 -19.214  1.00  0.00     0.168 HD
HETATM    9  N7  UNL     1       5.368  -5.177 -19.622  1.00  0.00    -0.339 N 
ATOM     10  H7  UNL     1       4.744  -5.869 -20.037  1.00  0.00     0.168 HD
BRANCH   5  11
HETATM   11  N1  UNL     1       7.879  -2.273 -17.949  1.00  0.00    -0.367 N 
HETATM   12  C1  UNL     1       9.258  -2.272 -18.443  1.00  0.00     0.151 C 
BRANCH  11  13
HETATM   13  C2  UNL     1       7.383  -1.388 -16.947  1.00  0.00     0.162 C 
BRANCH  13  14
HETATM   14  C3  UNL     1       7.283   0.023 -17.341  1.00  0.00    -0.040 A 
HETATM   15  C4  UNL     1       6.390   0.472 -18.287  1.00  0.00     0.009 A 
HETATM   16  C5  UNL     1       6.327   1.822 -18.624  1.00  0.00     0.001 A 
HETATM   17  C6  UNL     1       7.146   2.750 -18.034  1.00  0.00     0.000 A 
HETATM   18  C7  UNL     1       8.043   2.308 -17.085  1.00  0.00     0.001 A 
HETATM   19  C8  UNL     1       8.103   0.959 -16.751  1.00  0.00     0.009 A 
ENDBRANCH  13  14
ENDBRANCH  11  13
ENDBRANCH   5  11
ENDBRANCH   1   3
BRANCH   1  20
HETATM   20  C12 UNL     1       6.447  -7.781 -19.851  1.00  0.00     0.121 C 
BRANCH  20  21
HETATM   21  C13 UNL     1       5.421  -8.735 -19.334  1.00  0.00     0.020 C 
BRANCH  21  22
HETATM   22  C14 UNL     1       5.175  -8.530 -17.869  1.00  0.00     0.003 C 
BRANCH  22  23
HETATM   23  C15 UNL     1       5.713  -9.702 -17.089  1.00  0.00     0.020 C 
BRANCH  23  24
HETATM   24  C16 UNL     1       6.661  -9.215 -15.995  1.00  0.00     0.122 C 
BRANCH  24  25
HETATM   25  N3  UNL     1       7.986  -9.061 -16.505  1.00  0.00    -0.365 N 
HETATM   26  C17 UNL     1       8.862  -8.203 -16.176  1.00  0.00     0.184 C 
HETATM   27  N4  UNL     1       8.596  -7.221 -15.184  1.00  0.00    -0.064 NA
HETATM   28  N5  UNL     1      10.134  -8.245 -16.827  1.00  0.00    -0.363 N 
ATOM     29  H5  UNL     1      10.409  -9.065 -17.369  1.00  0.00     0.162 HD
ATOM     30  H3  UNL     1       8.265  -9.726 -17.226  1.00  0.00     0.162 HD
BRANCH  28  31
HETATM   31  C18 UNL     1      11.022  -7.121 -16.710  1.00  0.00     0.149 C 
BRANCH  31  32
HETATM   32  C19 UNL     1      10.731  -6.112 -17.801  1.00  0.00     0.249 C 
BRANCH  32  33
HETATM   33  N6  UNL     1      11.827  -6.148 -18.752  1.00  0.00    -0.078 N 
ATOM     34  H63 UNL     1      12.689  -5.752 -18.376  1.00  0.00     0.274 HD
ATOM     35  H62 UNL     1      12.173  -7.093 -18.918  1.00  0.00     0.274 HD
ATOM     36  H61 UNL     1      11.520  -5.684 -19.606  1.00  0.00     0.274 HD
ENDBRANCH  32  33
ENDBRANCH  31  32
ENDBRANCH  28  31
ENDBRANCH  24  25
ENDBRANCH  23  24
ENDBRANCH  22  23
ENDBRANCH  21  22
ENDBRANCH  20  21
ENDBRANCH   1  20
TORSDOF 13
ENDMDL
