MODEL 1
REMARK VINA RESULT: -7.369588623      0.000      0.000
REMARK  13 active torsions:
REMARK  status: ('A' for Active; 'I' for Inactive)
REMARK    1  A    between atoms: N1_1  and  C1_5 
REMARK    2  A    between atoms: C1_5  and  C2_6 
REMARK    3  A    between atoms: C2_6  and  N2_7 
REMARK    4  A    between atoms: C2_6  and  C3_11 
REMARK    5  A    between atoms: C3_11  and  O1_12 
REMARK    6  A    between atoms: O1_12  and  C4_13 
REMARK    7  A    between atoms: C7_16  and  C8_17 
REMARK    8  A    between atoms: C8_17  and  N3_18 
REMARK    9  A    between atoms: N3_18  and  S1_20 
REMARK   10  A    between atoms: S1_20  and  C9_23 
REMARK   11  A    between atoms: C9_23  and  C10_24 
REMARK   12  A    between atoms: C10_24  and  C11_25 
REMARK   13  A    between atoms: C11_25  and  C12_26 
ROOT
HETATM    1  C4  UNL     1       9.767  -5.812 -18.105  1.00  0.00     0.068 A 
HETATM    2  C5  UNL     1      10.003  -5.187 -19.312  1.00  0.00     0.037 A 
HETATM    3  C6  UNL     1       9.339  -4.038 -19.689  1.00  0.00     0.011 A 
HETATM    4  C7  UNL     1       8.396  -3.460 -18.857  1.00  0.00    -0.040 A 
HETATM    5  C18 UNL     1       8.163  -4.090 -17.650  1.00  0.00     0.011 A 
HETATM    6  C19 UNL     1       8.827  -5.238 -17.273  1.00  0.00     0.037 A 
ENDROOT
BRANCH   4   7
HETATM    7  C8  UNL     1       7.674  -2.223 -19.254  1.00  0.00     0.170 C 
BRANCH   7   8
HETATM    8  N3  UNL     1       7.241  -2.280 -20.636  1.00  0.00    -0.315 N 
ATOM      9  H3  UNL     1       7.767  -1.944 -21.443  1.00  0.00     0.172 HD
BRANCH   8  10
HETATM   10  S1  UNL     1       5.662  -3.025 -20.676  1.00  0.00     0.226 S 
HETATM   11  O2  UNL     1       5.075  -2.916 -19.300  1.00  0.00    -0.206 OA
HETATM   12  O3  UNL     1       4.834  -2.202 -21.606  1.00  0.00    -0.206 OA
BRANCH  10  13
HETATM   13  C9  UNL     1       5.770  -4.713 -21.134  1.00  0.00     0.163 C 
BRANCH  13  14
HETATM   14  C10 UNL     1       5.781  -5.687 -20.017  1.00  0.00     0.021 C 
BRANCH  14  15
HETATM   15  C11 UNL     1       6.723  -6.836 -20.150  1.00  0.00     0.039 C 
BRANCH  15  16
HETATM   16  C12 UNL     1       6.296  -7.945 -19.261  1.00  0.00    -0.058 A 
HETATM   17  C13 UNL     1       5.156  -8.629 -19.545  1.00  0.00     0.007 A 
HETATM   18  C14 UNL     1       4.750  -9.665 -18.723  1.00  0.00     0.001 A 
HETATM   19  C15 UNL     1       5.480 -10.014 -17.623  1.00  0.00     0.000 A 
HETATM   20  C16 UNL     1       6.629  -9.313 -17.349  1.00  0.00     0.001 A 
HETATM   21  C17 UNL     1       7.044  -8.282 -18.158  1.00  0.00     0.007 A 
ENDBRANCH  15  16
ENDBRANCH  14  15
ENDBRANCH  13  14
ENDBRANCH  10  13
ENDBRANCH   8  10
ENDBRANCH   7   8
ENDBRANCH   4   7
BRANCH   1  22
HETATM   22  O1  UNL     1      10.451  -6.975 -17.745  1.00  0.00    -0.349 OA
BRANCH  22  23
HETATM   23  C3  UNL     1      10.891  -7.096 -16.399  1.00  0.00     0.210 C 
BRANCH  23  24
HETATM   24  C2  UNL     1      10.468  -8.397 -15.790  1.00  0.00     0.232 C 
BRANCH  24  25
HETATM   25  C1  UNL     1      11.584  -8.994 -14.943  1.00  0.00     0.264 C 
BRANCH  25  26
HETATM   26  N1  UNL     1      10.948  -9.749 -13.856  1.00  0.00    -0.077 N 
ATOM     27  H13 UNL     1      11.177  -9.387 -12.931  1.00  0.00     0.274 HD
ATOM     28  H12 UNL     1       9.939  -9.606 -13.807  1.00  0.00     0.274 HD
ATOM     29  H11 UNL     1      11.206 -10.729 -13.977  1.00  0.00     0.274 HD
ENDBRANCH  25  26
ENDBRANCH  24  25
BRANCH  24  30
HETATM   30  N2  UNL     1       9.252  -8.230 -14.994  1.00  0.00    -0.071 N 
ATOM     31  H23 UNL     1       8.494  -7.822 -15.541  1.00  0.00     0.274 HD
ATOM     32  H22 UNL     1       8.817  -9.125 -14.775  1.00  0.00     0.274 HD
ATOM     33  H21 UNL     1       9.446  -7.687 -14.152  1.00  0.00     0.274 HD
ENDBRANCH  24  30
ENDBRANCH  23  24
ENDBRANCH  22  23
ENDBRANCH   1  22
TORSDOF 13
ENDMDL
MODEL 2
REMARK VINA RESULT: -7.254862802      1.485      1.731
REMARK  13 active torsions:
REMARK  status: ('A' for Active; 'I' for Inactive)
REMARK    1  A    between atoms: N1_1  and  C1_5 
REMARK    2  A    between atoms: C1_5  and  C2_6 
REMARK    3  A    between atoms: C2_6  and  N2_7 
REMARK    4  A    between atoms: C2_6  and  C3_11 
REMARK    5  A    between atoms: C3_11  and  O1_12 
REMARK    6  A    between atoms: O1_12  and  C4_13 
REMARK    7  A    between atoms: C7_16  and  C8_17 
REMARK    8  A    between atoms: C8_17  and  N3_18 
REMARK    9  A    between atoms: N3_18  and  S1_20 
REMARK   10  A    between atoms: S1_20  and  C9_23 
REMARK   11  A    between atoms: C9_23  and  C10_24 
REMARK   12  A    between atoms: C10_24  and  C11_25 
REMARK   13  A    between atoms: C11_25  and  C12_26 
ROOT
HETATM    1  C4  UNL     1       9.078  -5.576 -17.690  1.00  0.00     0.068 A 
HETATM    2  C5  UNL     1       9.601  -5.885 -18.929  1.00  0.00     0.037 A 
HETATM    3  C6  UNL     1       9.416  -5.074 -20.030  1.00  0.00     0.011 A 
HETATM    4  C7  UNL     1       8.687  -3.901 -19.930  1.00  0.00    -0.040 A 
HETATM    5  C18 UNL     1       8.166  -3.597 -18.688  1.00  0.00     0.011 A 
HETATM    6  C19 UNL     1       8.352  -4.407 -17.587  1.00  0.00     0.037 A 
ENDROOT
BRANCH   4   7
HETATM    7  C8  UNL     1       8.482  -3.020 -21.110  1.00  0.00     0.170 C 
BRANCH   7   8
HETATM    8  N3  UNL     1       7.077  -2.910 -21.452  1.00  0.00    -0.315 N 
ATOM      9  H3  UNL     1       6.394  -2.307 -20.993  1.00  0.00     0.172 HD
BRANCH   8  10
HETATM   10  S1  UNL     1       6.761  -3.990 -22.788  1.00  0.00     0.226 S 
HETATM   11  O2  UNL     1       6.132  -3.181 -23.884  1.00  0.00    -0.206 OA
HETATM   12  O3  UNL     1       8.092  -4.469 -23.263  1.00  0.00    -0.206 OA
BRANCH  10  13
HETATM   13  C9  UNL     1       5.674  -5.280 -22.315  1.00  0.00     0.163 C 
BRANCH  13  14
HETATM   14  C10 UNL     1       6.222  -6.269 -21.356  1.00  0.00     0.021 C 
BRANCH  14  15
HETATM   15  C11 UNL     1       5.790  -6.123 -19.936  1.00  0.00     0.039 C 
BRANCH  15  16
HETATM   16  C12 UNL     1       5.832  -7.442 -19.257  1.00  0.00    -0.058 A 
HETATM   17  C13 UNL     1       4.879  -7.753 -18.338  1.00  0.00     0.007 A 
HETATM   18  C14 UNL     1       4.911  -8.981 -17.701  1.00  0.00     0.001 A 
HETATM   19  C15 UNL     1       5.889  -9.891 -17.980  1.00  0.00     0.000 A 
HETATM   20  C16 UNL     1       6.845  -9.562 -18.910  1.00  0.00     0.001 A 
HETATM   21  C17 UNL     1       6.825  -8.346 -19.551  1.00  0.00     0.007 A 
ENDBRANCH  15  16
ENDBRANCH  14  15
ENDBRANCH  13  14
ENDBRANCH  10  13
ENDBRANCH   8  10
ENDBRANCH   7   8
ENDBRANCH   4   7
BRANCH   1  22
HETATM   22  O1  UNL     1       9.278  -6.412 -16.590  1.00  0.00    -0.349 OA
BRANCH  22  23
HETATM   23  C3  UNL     1      10.380  -7.309 -16.630  1.00  0.00     0.210 C 
BRANCH  23  24
HETATM   24  C2  UNL     1      10.147  -8.516 -15.776  1.00  0.00     0.232 C 
BRANCH  24  25
HETATM   25  C1  UNL     1      11.389  -8.861 -14.965  1.00  0.00     0.264 C 
BRANCH  25  26
HETATM   26  N1  UNL     1      10.978  -9.814 -13.925  1.00  0.00    -0.077 N 
ATOM     27  H13 UNL     1      10.283  -9.430 -13.285  1.00  0.00     0.274 HD
ATOM     28  H12 UNL     1      10.415 -10.582 -14.287  1.00  0.00     0.274 HD
ATOM     29  H11 UNL     1      11.826 -10.128 -13.452  1.00  0.00     0.274 HD
ENDBRANCH  25  26
ENDBRANCH  24  25
BRANCH  24  30
HETATM   30  N2  UNL     1       8.996  -8.318 -14.894  1.00  0.00    -0.071 N 
ATOM     31  H23 UNL     1       9.278  -7.977 -13.975  1.00  0.00     0.274 HD
ATOM     32  H22 UNL     1       8.428  -7.523 -15.185  1.00  0.00     0.274 HD
ATOM     33  H21 UNL     1       8.445  -9.174 -14.827  1.00  0.00     0.274 HD
ENDBRANCH  24  30
ENDBRANCH  23  24
ENDBRANCH  22  23
ENDBRANCH   1  22
TORSDOF 13
ENDMDL
MODEL 3
REMARK VINA RESULT: -7.008971965      2.633      6.222
REMARK  13 active torsions:
REMARK  status: ('A' for Active; 'I' for Inactive)
REMARK    1  A    between atoms: N1_1  and  C1_5 
REMARK    2  A    between atoms: C1_5  and  C2_6 
REMARK    3  A    between atoms: C2_6  and  N2_7 
REMARK    4  A    between atoms: C2_6  and  C3_11 
REMARK    5  A    between atoms: C3_11  and  O1_12 
REMARK    6  A    between atoms: O1_12  and  C4_13 
REMARK    7  A    between atoms: C7_16  and  C8_17 
REMARK    8  A    between atoms: C8_17  and  N3_18 
REMARK    9  A    between atoms: N3_18  and  S1_20 
REMARK   10  A    between atoms: S1_20  and  C9_23 
REMARK   11  A    between atoms: C9_23  and  C10_24 
REMARK   12  A    between atoms: C10_24  and  C11_25 
REMARK   13  A    between atoms: C11_25  and  C12_26 
ROOT
HETATM    1  C4  UNL     1       7.793  -2.514 -19.070  1.00  0.00     0.068 A 
HETATM    2  C5  UNL     1       8.618  -3.280 -19.868  1.00  0.00     0.037 A 
HETATM    3  C6  UNL     1       9.222  -4.433 -19.410  1.00  0.00     0.011 A 
HETATM    4  C7  UNL     1       9.020  -4.871 -18.114  1.00  0.00    -0.040 A 
HETATM    5  C18 UNL     1       8.193  -4.101 -17.319  1.00  0.00     0.011 A 
HETATM    6  C19 UNL     1       7.588  -2.949 -17.776  1.00  0.00     0.037 A 
ENDROOT
BRANCH   4   7
HETATM    7  C8  UNL     1       9.666  -6.112 -17.610  1.00  0.00     0.170 C 
BRANCH   7   8
HETATM    8  N3  UNL     1       8.804  -7.266 -17.779  1.00  0.00    -0.315 N 
ATOM      9  H3  UNL     1       8.374  -7.571 -18.652  1.00  0.00     0.172 HD
BRANCH   8  10
HETATM   10  S1  UNL     1       8.631  -8.042 -16.223  1.00  0.00     0.226 S 
HETATM   11  O2  UNL     1       9.759  -9.019 -16.077  1.00  0.00    -0.206 OA
HETATM   12  O3  UNL     1       8.804  -6.970 -15.199  1.00  0.00    -0.206 OA
BRANCH  10  13
HETATM   13  C9  UNL     1       7.102  -8.890 -16.105  1.00  0.00     0.163 C 
BRANCH  13  14
HETATM   14  C10 UNL     1       6.548  -9.404 -17.380  1.00  0.00     0.021 C 
BRANCH  14  15
HETATM   15  C11 UNL     1       5.259  -8.803 -17.831  1.00  0.00     0.039 C 
BRANCH  15  16
HETATM   16  C12 UNL     1       5.520  -7.741 -18.834  1.00  0.00    -0.058 A 
HETATM   17  C13 UNL     1       5.994  -8.081 -20.062  1.00  0.00     0.007 A 
HETATM   18  C14 UNL     1       6.240  -7.097 -21.003  1.00  0.00     0.001 A 
HETATM   19  C15 UNL     1       6.013  -5.781 -20.717  1.00  0.00     0.000 A 
HETATM   20  C16 UNL     1       5.535  -5.453 -19.472  1.00  0.00     0.001 A 
HETATM   21  C17 UNL     1       5.286  -6.421 -18.528  1.00  0.00     0.007 A 
ENDBRANCH  15  16
ENDBRANCH  14  15
ENDBRANCH  13  14
ENDBRANCH  10  13
ENDBRANCH   8  10
ENDBRANCH   7   8
ENDBRANCH   4   7
BRANCH   1  22
HETATM   22  O1  UNL     1       7.193  -1.351 -19.554  1.00  0.00    -0.349 OA
BRANCH  22  23
HETATM   23  C3  UNL     1       7.768  -0.105 -19.187  1.00  0.00     0.210 C 
BRANCH  23  24
HETATM   24  C2  UNL     1       6.961   0.594 -18.137  1.00  0.00     0.232 C 
BRANCH  24  25
HETATM   25  C1  UNL     1       7.862   1.235 -17.090  1.00  0.00     0.264 C 
BRANCH  25  26
HETATM   26  N1  UNL     1       8.166   0.205 -16.089  1.00  0.00    -0.077 N 
ATOM     27  H13 UNL     1       7.333  -0.165 -15.632  1.00  0.00     0.274 HD
ATOM     28  H12 UNL     1       8.491  -0.669 -16.501  1.00  0.00     0.274 HD
ATOM     29  H11 UNL     1       8.835   0.610 -15.433  1.00  0.00     0.274 HD
ENDBRANCH  25  26
ENDBRANCH  24  25
BRANCH  24  30
HETATM   30  N2  UNL     1       6.077   1.593 -18.736  1.00  0.00    -0.071 N 
ATOM     31  H23 UNL     1       5.118   1.255 -18.811  1.00  0.00     0.274 HD
ATOM     32  H22 UNL     1       5.912   2.379 -18.107  1.00  0.00     0.274 HD
ATOM     33  H21 UNL     1       6.442   1.900 -19.638  1.00  0.00     0.274 HD
ENDBRANCH  24  30
ENDBRANCH  23  24
ENDBRANCH  22  23
ENDBRANCH   1  22
TORSDOF 13
ENDMDL
MODEL 4
REMARK VINA RESULT: -7.004118070      2.834      6.510
REMARK  13 active torsions:
REMARK  status: ('A' for Active; 'I' for Inactive)
REMARK    1  A    between atoms: N1_1  and  C1_5 
REMARK    2  A    between atoms: C1_5  and  C2_6 
REMARK    3  A    between atoms: C2_6  and  N2_7 
REMARK    4  A    between atoms: C2_6  and  C3_11 
REMARK    5  A    between atoms: C3_11  and  O1_12 
REMARK    6  A    between atoms: O1_12  and  C4_13 
REMARK    7  A    between atoms: C7_16  and  C8_17 
REMARK    8  A    between atoms: C8_17  and  N3_18 
REMARK    9  A    between atoms: N3_18  and  S1_20 
REMARK   10  A    between atoms: S1_20  and  C9_23 
REMARK   11  A    between atoms: C9_23  and  C10_24 
REMARK   12  A    between atoms: C10_24  and  C11_25 
REMARK   13  A    between atoms: C11_25  and  C12_26 
ROOT
HETATM    1  C4  UNL     1       6.836  -5.478 -20.463  1.00  0.00     0.068 A 
HETATM    2  C5  UNL     1       8.156  -5.704 -20.798  1.00  0.00     0.037 A 
HETATM    3  C6  UNL     1       9.147  -5.824 -19.847  1.00  0.00     0.011 A 
HETATM    4  C7  UNL     1       8.851  -5.720 -18.499  1.00  0.00    -0.040 A 
HETATM    5  C18 UNL     1       7.529  -5.493 -18.169  1.00  0.00     0.011 A 
HETATM    6  C19 UNL     1       6.537  -5.374 -19.120  1.00  0.00     0.037 A 
ENDROOT
BRANCH   4   7
HETATM    7  C8  UNL     1       9.912  -5.847 -17.466  1.00  0.00     0.170 C 
BRANCH   7   8
HETATM    8  N3  UNL     1      10.719  -7.033 -17.676  1.00  0.00    -0.315 N 
ATOM      9  H3  UNL     1      11.246  -7.257 -18.520  1.00  0.00     0.172 HD
BRANCH   8  10
HETATM   10  S1  UNL     1      10.631  -8.008 -16.229  1.00  0.00     0.226 S 
HETATM   11  O2  UNL     1      10.958  -9.421 -16.616  1.00  0.00    -0.206 OA
HETATM   12  O3  UNL     1      11.706  -7.509 -15.322  1.00  0.00    -0.206 OA
BRANCH  10  13
HETATM   13  C9  UNL     1       9.029  -7.951 -15.524  1.00  0.00     0.163 C 
BRANCH  13  14
HETATM   14  C10 UNL     1       8.176  -9.142 -15.755  1.00  0.00     0.021 C 
BRANCH  14  15
HETATM   15  C11 UNL     1       6.703  -8.909 -15.768  1.00  0.00     0.039 C 
BRANCH  15  16
HETATM   16  C12 UNL     1       6.208  -8.880 -17.166  1.00  0.00    -0.058 A 
HETATM   17  C13 UNL     1       7.082  -9.071 -18.190  1.00  0.00     0.007 A 
HETATM   18  C14 UNL     1       6.629  -9.047 -19.497  1.00  0.00     0.001 A 
HETATM   19  C15 UNL     1       5.310  -8.832 -19.779  1.00  0.00     0.000 A 
HETATM   20  C16 UNL     1       4.440  -8.641 -18.733  1.00  0.00     0.001 A 
HETATM   21  C17 UNL     1       4.876  -8.663 -17.430  1.00  0.00     0.007 A 
ENDBRANCH  15  16
ENDBRANCH  14  15
ENDBRANCH  13  14
ENDBRANCH  10  13
ENDBRANCH   8  10
ENDBRANCH   7   8
ENDBRANCH   4   7
BRANCH   1  22
HETATM   22  O1  UNL     1       5.849  -5.360 -21.444  1.00  0.00    -0.349 OA
BRANCH  22  23
HETATM   23  C3  UNL     1       5.746  -4.124 -22.136  1.00  0.00     0.210 C 
BRANCH  23  24
HETATM   24  C2  UNL     1       5.480  -4.323 -23.596  1.00  0.00     0.232 C 
BRANCH  24  25
HETATM   25  C1  UNL     1       6.766  -4.633 -24.350  1.00  0.00     0.264 C 
BRANCH  25  26
HETATM   26  N1  UNL     1       7.042  -6.064 -24.168  1.00  0.00    -0.077 N 
ATOM     27  H13 UNL     1       7.612  -6.259 -23.344  1.00  0.00     0.274 HD
ATOM     28  H12 UNL     1       6.219  -6.597 -23.888  1.00  0.00     0.274 HD
ATOM     29  H11 UNL     1       7.462  -6.404 -25.033  1.00  0.00     0.274 HD
ENDBRANCH  25  26
ENDBRANCH  24  25
BRANCH  24  30
HETATM   30  N2  UNL     1       4.492  -5.381 -23.807  1.00  0.00    -0.071 N 
ATOM     31  H23 UNL     1       4.932  -6.260 -24.078  1.00  0.00     0.274 HD
ATOM     32  H22 UNL     1       4.069  -5.685 -22.931  1.00  0.00     0.274 HD
ATOM     33  H21 UNL     1       3.789  -5.085 -24.485  1.00  0.00     0.274 HD
ENDBRANCH  24  30
ENDBRANCH  23  24
ENDBRANCH  22  23
ENDBRANCH   1  22
TORSDOF 13
ENDMDL
MODEL 5
REMARK VINA RESULT: -6.947328974      1.553      2.488
REMARK  13 active torsions:
REMARK  status: ('A' for Active; 'I' for Inactive)
REMARK    1  A    between atoms: N1_1  and  C1_5 
REMARK    2  A    between atoms: C1_5  and  C2_6 
REMARK    3  A    between atoms: C2_6  and  N2_7 
REMARK    4  A    between atoms: C2_6  and  C3_11 
REMARK    5  A    between atoms: C3_11  and  O1_12 
REMARK    6  A    between atoms: O1_12  and  C4_13 
REMARK    7  A    between atoms: C7_16  and  C8_17 
REMARK    8  A    between atoms: C8_17  and  N3_18 
REMARK    9  A    between atoms: N3_18  and  S1_20 
REMARK   10  A    between atoms: S1_20  and  C9_23 
REMARK   11  A    between atoms: C9_23  and  C10_24 
REMARK   12  A    between atoms: C10_24  and  C11_25 
REMARK   13  A    between atoms: C11_25  and  C12_26 
ROOT
HETATM    1  C4  UNL     1       9.007  -5.777 -18.094  1.00  0.00     0.068 A 
HETATM    2  C5  UNL     1       8.484  -4.665 -17.464  1.00  0.00     0.037 A 
HETATM    3  C6  UNL     1       8.393  -3.439 -18.089  1.00  0.00     0.011 A 
HETATM    4  C7  UNL     1       8.830  -3.274 -19.392  1.00  0.00    -0.040 A 
HETATM    5  C18 UNL     1       9.353  -4.390 -20.018  1.00  0.00     0.011 A 
HETATM    6  C19 UNL     1       9.443  -5.616 -19.393  1.00  0.00     0.037 A 
ENDROOT
BRANCH   4   7
HETATM    7  C8  UNL     1       8.737  -1.957 -20.075  1.00  0.00     0.170 C 
BRANCH   7   8
HETATM    8  N3  UNL     1       8.007  -0.994 -19.274  1.00  0.00    -0.315 N 
ATOM      9  H3  UNL     1       8.373  -0.483 -18.471  1.00  0.00     0.172 HD
BRANCH   8  10
HETATM   10  S1  UNL     1       6.392  -0.862 -19.928  1.00  0.00     0.226 S 
HETATM   11  O2  UNL     1       5.459  -1.539 -18.968  1.00  0.00    -0.206 OA
HETATM   12  O3  UNL     1       6.067   0.594 -19.950  1.00  0.00    -0.206 OA
BRANCH  10  13
HETATM   13  C9  UNL     1       6.280  -1.635 -21.497  1.00  0.00     0.163 C 
BRANCH  13  14
HETATM   14  C10 UNL     1       5.447  -2.860 -21.557  1.00  0.00     0.021 C 
BRANCH  14  15
HETATM   15  C11 UNL     1       6.115  -4.091 -22.070  1.00  0.00     0.039 C 
BRANCH  15  16
HETATM   16  C12 UNL     1       5.998  -5.183 -21.072  1.00  0.00    -0.058 A 
HETATM   17  C13 UNL     1       5.485  -4.914 -19.843  1.00  0.00     0.007 A 
HETATM   18  C14 UNL     1       5.371  -5.926 -18.906  1.00  0.00     0.001 A 
HETATM   19  C15 UNL     1       5.767  -7.200 -19.199  1.00  0.00     0.000 A 
HETATM   20  C16 UNL     1       6.283  -7.456 -20.446  1.00  0.00     0.001 A 
HETATM   21  C17 UNL     1       6.402  -6.459 -21.385  1.00  0.00     0.007 A 
ENDBRANCH  15  16
ENDBRANCH  14  15
ENDBRANCH  13  14
ENDBRANCH  10  13
ENDBRANCH   8  10
ENDBRANCH   7   8
ENDBRANCH   4   7
BRANCH   1  22
HETATM   22  O1  UNL     1       9.089  -7.008 -17.441  1.00  0.00    -0.349 OA
BRANCH  22  23
HETATM   23  C3  UNL     1      10.246  -7.269 -16.660  1.00  0.00     0.210 C 
BRANCH  23  24
HETATM   24  C2  UNL     1      10.075  -8.481 -15.798  1.00  0.00     0.232 C 
BRANCH  24  25
HETATM   25  C1  UNL     1      11.359  -8.803 -15.044  1.00  0.00     0.264 C 
BRANCH  25  26
HETATM   26  N1  UNL     1      11.000  -9.700 -13.938  1.00  0.00    -0.077 N 
ATOM     27  H13 UNL     1      11.112  -9.267 -13.021  1.00  0.00     0.274 HD
ATOM     28  H12 UNL     1       9.998  -9.879 -13.878  1.00  0.00     0.274 HD
ATOM     29  H11 UNL     1      11.552 -10.551 -14.048  1.00  0.00     0.274 HD
ENDBRANCH  25  26
ENDBRANCH  24  25
BRANCH  24  30
HETATM   30  N2  UNL     1       8.962  -8.307 -14.866  1.00  0.00    -0.071 N 
ATOM     31  H23 UNL     1       9.259  -7.853 -14.002  1.00  0.00     0.274 HD
ATOM     32  H22 UNL     1       8.303  -7.600 -15.190  1.00  0.00     0.274 HD
ATOM     33  H21 UNL     1       8.502  -9.199 -14.686  1.00  0.00     0.274 HD
ENDBRANCH  24  30
ENDBRANCH  23  24
ENDBRANCH  22  23
ENDBRANCH   1  22
TORSDOF 13
ENDMDL
