MODEL 1
REMARK VINA RESULT: -6.782986941      0.000      0.000
REMARK  10 active torsions:
REMARK  status: ('A' for Active; 'I' for Inactive)
REMARK    1  A    between atoms: C2_2  and  C3_3 
REMARK    2  A    between atoms: C3_3  and  C4_4 
REMARK    3  A    between atoms: C5_6  and  C6_7 
REMARK    4  A    between atoms: C6_7  and  C8_9 
REMARK    5  A    between atoms: C21_24  and  N2_25 
REMARK    6  A    between atoms: C25_30  and  O4_32 
REMARK    7  A    between atoms: O4_32  and  C27_33 
REMARK       I    between atoms: C27_33  and  N3_35 
REMARK    8  A    between atoms: N3_35  and  C29_37 
REMARK    9  A    between atoms: C29_37  and  C30_38 
REMARK   10  A    between atoms: C30_38  and  O6_39 
ROOT
HETATM    1  C4  UNL     1       5.989 -15.661 -23.603  1.00  0.00     0.198 C 
HETATM    2  O1  UNL     1       6.765 -15.871 -22.425  1.00  0.00    -0.365 OA
HETATM    3  C5  UNL     1       6.698 -17.193 -21.987  1.00  0.00     0.200 C 
HETATM    4  C20 UNL     1       5.348 -17.706 -22.263  1.00  0.00     0.185 C 
HETATM    5  O2  UNL     1       4.507 -17.849 -21.458  1.00  0.00    -0.292 OA
HETATM    6  C21 UNL     1       5.113 -18.045 -23.707  1.00  0.00     0.224 C 
HETATM    7  C24 UNL     1       5.943 -16.914 -24.358  1.00  0.00     0.185 C 
HETATM    8  O3  UNL     1       6.450 -17.182 -25.385  1.00  0.00    -0.292 OA
ENDROOT
BRANCH   3   9
HETATM    9  C6  UNL     1       7.130 -17.254 -20.558  1.00  0.00     0.055 C 
HETATM   10  C7  UNL     1       7.277 -18.623 -19.990  1.00  0.00     0.015 C 
BRANCH   9  11
HETATM   11  C8  UNL     1       8.245 -16.319 -20.182  1.00  0.00     0.252 C 
HETATM   12  C9  UNL     1       7.619 -15.102 -19.567  1.00  0.00     0.013 C 
HETATM   13  C10 UNL     1       8.230 -14.381 -18.645  1.00  0.00    -0.067 C 
HETATM   14  C11 UNL     1       9.592 -14.833 -18.236  1.00  0.00     0.047 C 
HETATM   15  C17 UNL     1       7.872 -13.172 -17.879  1.00  0.00    -0.024 C 
HETATM   16  C12 UNL     1       9.478 -16.336 -18.092  1.00  0.00     0.282 C 
HETATM   17  C14 UNL     1       9.910 -14.121 -16.959  1.00  0.00    -0.008 C 
HETATM   18  N1  UNL     1       9.270 -16.896 -19.386  1.00  0.00     0.093 N 
HETATM   19  C13 UNL     1      10.530 -17.053 -20.053  1.00  0.00     0.310 C 
HETATM   20  C15 UNL     1      10.133 -15.048 -15.789  1.00  0.00     0.011 C 
HETATM   21  C16 UNL     1       8.852 -13.093 -16.723  1.00  0.00     0.018 C 
HETATM   22  C18 UNL     1       6.486 -13.273 -17.267  1.00  0.00     0.019 C 
HETATM   23  C19 UNL     1       7.985 -11.949 -18.767  1.00  0.00     0.019 C 
ENDBRANCH   9  11
ENDBRANCH   3   9
BRANCH   1  24
HETATM   24  C3  UNL     1       6.590 -14.491 -24.282  1.00  0.00     0.076 C 
BRANCH  24  25
HETATM   25  C2  UNL     1       7.593 -13.690 -23.591  1.00  0.00    -0.051 C 
HETATM   26  C1  UNL     1       7.397 -12.685 -22.537  1.00  0.00     0.046 C 
HETATM   27  C25 UNL     1       8.880 -13.868 -23.986  1.00  0.00     0.056 C 
HETATM   28  C26 UNL     1       9.189 -14.870 -25.051  1.00  0.00     0.077 C 
BRANCH  27  29
HETATM   29  O4  UNL     1       9.942 -13.166 -23.455  1.00  0.00    -0.266 OA
BRANCH  29  30
HETATM   30  C27 UNL     1      10.858 -13.842 -22.658  1.00  0.00     0.367 C 
HETATM   31  O5  UNL     1      10.480 -14.226 -21.523  1.00  0.00    -0.238 OA
HETATM   32  N3  UNL     1      12.183 -14.112 -23.070  1.00  0.00    -0.330 N 
HETATM   33  C28 UNL     1      12.631 -13.674 -24.373  1.00  0.00     0.155 C 
BRANCH  32  34
HETATM   34  C29 UNL     1      13.105 -14.824 -22.209  1.00  0.00     0.153 C 
BRANCH  34  35
HETATM   35  C30 UNL     1      13.857 -13.889 -21.285  1.00  0.00     0.184 C 
BRANCH  35  36
HETATM   36  O6  UNL     1      13.174 -13.859 -20.074  1.00  0.00    -0.399 OA
ATOM     37  H6  UNL     1      13.559 -13.171 -19.545  1.00  0.00     0.209 HD
ENDBRANCH  35  36
ENDBRANCH  34  35
ENDBRANCH  32  34
ENDBRANCH  29  30
ENDBRANCH  27  29
ENDBRANCH  24  25
ENDBRANCH   1  24
BRANCH   6  38
HETATM   38  N2  UNL     1       3.804 -18.078 -24.143  1.00  0.00    -0.404 N 
HETATM   39  C22 UNL     1       3.117 -16.898 -24.435  1.00  0.00     0.144 C 
HETATM   40  C23 UNL     1       3.149 -19.309 -24.325  1.00  0.00     0.144 C 
ENDBRANCH   6  38
TORSDOF 10
ENDMDL
MODEL 2
REMARK VINA RESULT: -6.674631733      2.879      6.908
REMARK  10 active torsions:
REMARK  status: ('A' for Active; 'I' for Inactive)
REMARK    1  A    between atoms: C2_2  and  C3_3 
REMARK    2  A    between atoms: C3_3  and  C4_4 
REMARK    3  A    between atoms: C5_6  and  C6_7 
REMARK    4  A    between atoms: C6_7  and  C8_9 
REMARK    5  A    between atoms: C21_24  and  N2_25 
REMARK    6  A    between atoms: C25_30  and  O4_32 
REMARK    7  A    between atoms: O4_32  and  C27_33 
REMARK       I    between atoms: C27_33  and  N3_35 
REMARK    8  A    between atoms: N3_35  and  C29_37 
REMARK    9  A    between atoms: C29_37  and  C30_38 
REMARK   10  A    between atoms: C30_38  and  O6_39 
ROOT
HETATM    1  C4  UNL     1      10.532 -20.022 -21.230  1.00  0.00     0.198 C 
HETATM    2  O1  UNL     1      10.291 -18.620 -21.341  1.00  0.00    -0.365 OA
HETATM    3  C5  UNL     1      11.452 -17.877 -21.137  1.00  0.00     0.200 C 
HETATM    4  C20 UNL     1      12.270 -18.558 -20.124  1.00  0.00     0.185 C 
HETATM    5  O2  UNL     1      12.372 -18.220 -19.005  1.00  0.00    -0.292 OA
HETATM    6  C21 UNL     1      12.992 -19.769 -20.641  1.00  0.00     0.224 C 
HETATM    7  C24 UNL     1      11.916 -20.288 -21.624  1.00  0.00     0.185 C 
HETATM    8  O3  UNL     1      12.324 -20.837 -22.581  1.00  0.00    -0.292 OA
ENDROOT
BRANCH   3   9
HETATM    9  C6  UNL     1      11.076 -16.465 -20.819  1.00  0.00     0.055 C 
HETATM   10  C7  UNL     1      11.442 -15.456 -21.851  1.00  0.00     0.015 C 
BRANCH   9  11
HETATM   11  C8  UNL     1       9.697 -16.280 -20.251  1.00  0.00     0.252 C 
HETATM   12  C9  UNL     1       9.838 -16.185 -18.760  1.00  0.00     0.013 C 
HETATM   13  C10 UNL     1       9.005 -15.483 -18.013  1.00  0.00    -0.067 C 
HETATM   14  C11 UNL     1       7.901 -14.776 -18.726  1.00  0.00     0.047 C 
HETATM   15  C17 UNL     1       8.899 -15.210 -16.567  1.00  0.00    -0.024 C 
HETATM   16  C12 UNL     1       8.553 -14.161 -19.946  1.00  0.00     0.282 C 
HETATM   17  C14 UNL     1       7.345 -13.776 -17.763  1.00  0.00    -0.008 C 
HETATM   18  N1  UNL     1       8.952 -15.214 -20.820  1.00  0.00     0.093 N 
HETATM   19  C13 UNL     1       7.835 -15.625 -21.622  1.00  0.00     0.310 C 
HETATM   20  C15 UNL     1       7.473 -12.348 -18.233  1.00  0.00     0.011 C 
HETATM   21  C16 UNL     1       7.957 -14.029 -16.424  1.00  0.00     0.018 C 
HETATM   22  C18 UNL     1      10.227 -14.782 -15.967  1.00  0.00     0.019 C 
HETATM   23  C19 UNL     1       8.351 -16.429 -15.854  1.00  0.00     0.019 C 
ENDBRANCH   9  11
ENDBRANCH   3   9
BRANCH   1  24
HETATM   24  C3  UNL     1       9.470 -20.680 -22.024  1.00  0.00     0.076 C 
BRANCH  24  25
HETATM   25  C2  UNL     1       8.097 -20.687 -21.534  1.00  0.00    -0.051 C 
HETATM   26  C1  UNL     1       7.567 -21.290 -20.303  1.00  0.00     0.046 C 
HETATM   27  C25 UNL     1       7.174 -20.081 -22.324  1.00  0.00     0.056 C 
HETATM   28  C26 UNL     1       7.610 -19.433 -23.597  1.00  0.00     0.077 C 
BRANCH  27  29
HETATM   29  O4  UNL     1       5.830 -20.028 -22.019  1.00  0.00    -0.266 OA
BRANCH  29  30
HETATM   30  C27 UNL     1       5.231 -18.784 -21.856  1.00  0.00     0.367 C 
HETATM   31  O5  UNL     1       5.492 -18.138 -20.811  1.00  0.00    -0.238 OA
HETATM   32  N3  UNL     1       4.350 -18.225 -22.809  1.00  0.00    -0.330 N 
HETATM   33  C28 UNL     1       4.039 -18.960 -24.015  1.00  0.00     0.155 C 
BRANCH  32  34
HETATM   34  C29 UNL     1       3.750 -16.923 -22.602  1.00  0.00     0.153 C 
BRANCH  34  35
HETATM   35  C30 UNL     1       4.493 -15.829 -23.342  1.00  0.00     0.184 C 
BRANCH  35  36
HETATM   36  O6  UNL     1       4.009 -14.610 -22.880  1.00  0.00    -0.399 OA
ATOM     37  H6  UNL     1       3.968 -14.020 -23.623  1.00  0.00     0.209 HD
ENDBRANCH  35  36
ENDBRANCH  34  35
ENDBRANCH  32  34
ENDBRANCH  29  30
ENDBRANCH  27  29
ENDBRANCH  24  25
ENDBRANCH   1  24
BRANCH   6  38
HETATM   38  N2  UNL     1      13.384 -20.714 -19.716  1.00  0.00    -0.404 N 
HETATM   39  C22 UNL     1      12.462 -21.614 -19.177  1.00  0.00     0.144 C 
HETATM   40  C23 UNL     1      14.730 -20.802 -19.321  1.00  0.00     0.144 C 
ENDBRANCH   6  38
TORSDOF 10
ENDMDL
MODEL 3
REMARK VINA RESULT: -6.655677238      4.307      7.978
REMARK  10 active torsions:
REMARK  status: ('A' for Active; 'I' for Inactive)
REMARK    1  A    between atoms: C2_2  and  C3_3 
REMARK    2  A    between atoms: C3_3  and  C4_4 
REMARK    3  A    between atoms: C5_6  and  C6_7 
REMARK    4  A    between atoms: C6_7  and  C8_9 
REMARK    5  A    between atoms: C21_24  and  N2_25 
REMARK    6  A    between atoms: C25_30  and  O4_32 
REMARK    7  A    between atoms: O4_32  and  C27_33 
REMARK       I    between atoms: C27_33  and  N3_35 
REMARK    8  A    between atoms: N3_35  and  C29_37 
REMARK    9  A    between atoms: C29_37  and  C30_38 
REMARK   10  A    between atoms: C30_38  and  O6_39 
ROOT
HETATM    1  C4  UNL     1      14.512 -13.657 -20.972  1.00  0.00     0.198 C 
HETATM    2  O1  UNL     1      13.087 -13.679 -21.028  1.00  0.00    -0.365 OA
HETATM    3  C5  UNL     1      12.583 -14.975 -20.943  1.00  0.00     0.200 C 
HETATM    4  C20 UNL     1      13.511 -15.882 -21.634  1.00  0.00     0.185 C 
HETATM    5  O2  UNL     1      13.332 -16.342 -22.698  1.00  0.00    -0.292 OA
HETATM    6  C21 UNL     1      14.757 -16.184 -20.853  1.00  0.00     0.224 C 
HETATM    7  C24 UNL     1      14.963 -14.805 -20.183  1.00  0.00     0.185 C 
HETATM    8  O3  UNL     1      15.455 -14.826 -19.115  1.00  0.00    -0.292 OA
ENDROOT
BRANCH   3   9
HETATM    9  C6  UNL     1      11.177 -14.985 -21.449  1.00  0.00     0.055 C 
HETATM   10  C7  UNL     1      10.999 -15.486 -22.840  1.00  0.00     0.015 C 
BRANCH   9  11
HETATM   11  C8  UNL     1      10.148 -15.501 -20.482  1.00  0.00     0.252 C 
HETATM   12  C9  UNL     1      10.606 -15.128 -19.103  1.00  0.00     0.013 C 
HETATM   13  C10 UNL     1       9.760 -14.893 -18.116  1.00  0.00    -0.067 C 
HETATM   14  C11 UNL     1       8.308 -15.017 -18.435  1.00  0.00     0.047 C 
HETATM   15  C17 UNL     1       9.913 -14.514 -16.698  1.00  0.00    -0.024 C 
HETATM   16  C12 UNL     1       8.143 -14.332 -19.775  1.00  0.00     0.282 C 
HETATM   17  C14 UNL     1       7.569 -14.354 -17.316  1.00  0.00    -0.008 C 
HETATM   18  N1  UNL     1       8.812 -15.111 -20.763  1.00  0.00     0.093 N 
HETATM   19  C13 UNL     1       7.956 -16.177 -21.199  1.00  0.00     0.310 C 
HETATM   20  C15 UNL     1       6.737 -13.174 -17.756  1.00  0.00     0.011 C 
HETATM   21  C16 UNL     1       8.550 -14.033 -16.236  1.00  0.00     0.018 C 
HETATM   22  C18 UNL     1      10.870 -13.349 -16.517  1.00  0.00     0.019 C 
HETATM   23  C19 UNL     1      10.364 -15.716 -15.892  1.00  0.00     0.019 C 
ENDBRANCH   9  11
ENDBRANCH   3   9
BRANCH   1  24
HETATM   24  C3  UNL     1      14.878 -12.314 -20.469  1.00  0.00     0.076 C 
BRANCH  24  25
HETATM   25  C2  UNL     1      15.733 -11.449 -21.272  1.00  0.00    -0.051 C 
HETATM   26  C1  UNL     1      15.899 -11.424 -22.733  1.00  0.00     0.046 C 
HETATM   27  C25 UNL     1      16.502 -10.563 -20.589  1.00  0.00     0.056 C 
HETATM   28  C26 UNL     1      16.407 -10.504 -19.099  1.00  0.00     0.077 C 
BRANCH  27  29
HETATM   29  O4  UNL     1      17.387  -9.697 -21.197  1.00  0.00    -0.266 OA
BRANCH  29  30
HETATM   30  C27 UNL     1      17.127  -8.332 -21.146  1.00  0.00     0.367 C 
HETATM   31  O5  UNL     1      16.108  -7.904 -21.741  1.00  0.00    -0.238 OA
HETATM   32  N3  UNL     1      17.957  -7.417 -20.457  1.00  0.00    -0.330 N 
HETATM   33  C28 UNL     1      19.135  -7.897 -19.771  1.00  0.00     0.155 C 
BRANCH  32  34
HETATM   34  C29 UNL     1      17.648  -6.003 -20.425  1.00  0.00     0.153 C 
BRANCH  34  35
HETATM   35  C30 UNL     1      18.115  -5.347 -19.142  1.00  0.00     0.184 C 
BRANCH  35  36
HETATM   36  O6  UNL     1      16.986  -5.069 -18.380  1.00  0.00    -0.399 OA
ATOM     37  H6  UNL     1      16.782  -5.849 -17.878  1.00  0.00     0.209 HD
ENDBRANCH  35  36
ENDBRANCH  34  35
ENDBRANCH  32  34
ENDBRANCH  29  30
ENDBRANCH  27  29
ENDBRANCH  24  25
ENDBRANCH   1  24
BRANCH   6  38
HETATM   38  N2  UNL     1      15.859 -16.614 -21.562  1.00  0.00    -0.404 N 
HETATM   39  C22 UNL     1      16.253 -17.954 -21.532  1.00  0.00     0.144 C 
HETATM   40  C23 UNL     1      16.590 -15.709 -22.352  1.00  0.00     0.144 C 
ENDBRANCH   6  38
TORSDOF 10
ENDMDL
MODEL 4
REMARK VINA RESULT: -6.548314331      2.825      7.064
REMARK  10 active torsions:
REMARK  status: ('A' for Active; 'I' for Inactive)
REMARK    1  A    between atoms: C2_2  and  C3_3 
REMARK    2  A    between atoms: C3_3  and  C4_4 
REMARK    3  A    between atoms: C5_6  and  C6_7 
REMARK    4  A    between atoms: C6_7  and  C8_9 
REMARK    5  A    between atoms: C21_24  and  N2_25 
REMARK    6  A    between atoms: C25_30  and  O4_32 
REMARK    7  A    between atoms: O4_32  and  C27_33 
REMARK       I    between atoms: C27_33  and  N3_35 
REMARK    8  A    between atoms: N3_35  and  C29_37 
REMARK    9  A    between atoms: C29_37  and  C30_38 
REMARK   10  A    between atoms: C30_38  and  O6_39 
ROOT
HETATM    1  C4  UNL     1       9.679 -20.119 -21.310  1.00  0.00     0.198 C 
HETATM    2  O1  UNL     1       9.571 -18.697 -21.291  1.00  0.00    -0.365 OA
HETATM    3  C5  UNL     1      10.818 -18.080 -21.378  1.00  0.00     0.200 C 
HETATM    4  C20 UNL     1      11.797 -18.905 -20.654  1.00  0.00     0.185 C 
HETATM    5  O2  UNL     1      12.227 -18.658 -19.591  1.00  0.00    -0.292 OA
HETATM    6  C21 UNL     1      12.219 -20.138 -21.400  1.00  0.00     0.224 C 
HETATM    7  C24 UNL     1      10.871 -20.484 -22.076  1.00  0.00     0.185 C 
HETATM    8  O3  UNL     1      10.949 -20.999 -23.130  1.00  0.00    -0.292 OA
ENDROOT
BRANCH   3   9
HETATM    9  C6  UNL     1      10.695 -16.666 -20.908  1.00  0.00     0.055 C 
HETATM   10  C7  UNL     1      11.190 -15.631 -21.857  1.00  0.00     0.015 C 
BRANCH   9  11
HETATM   11  C8  UNL     1       9.387 -16.317 -20.256  1.00  0.00     0.252 C 
HETATM   12  C9  UNL     1       9.625 -16.273 -18.775  1.00  0.00     0.013 C 
HETATM   13  C10 UNL     1       8.935 -15.485 -17.970  1.00  0.00    -0.067 C 
HETATM   14  C11 UNL     1       7.893 -14.627 -18.606  1.00  0.00     0.047 C 
HETATM   15  C17 UNL     1       8.949 -15.231 -16.517  1.00  0.00    -0.024 C 
HETATM   16  C12 UNL     1       8.548 -14.075 -19.854  1.00  0.00     0.282 C 
HETATM   17  C14 UNL     1       7.529 -13.583 -17.597  1.00  0.00    -0.008 C 
HETATM   18  N1  UNL     1       8.755 -15.151 -20.765  1.00  0.00     0.093 N 
HETATM   19  C13 UNL     1       7.550 -15.398 -21.504  1.00  0.00     0.310 C 
HETATM   20  C15 UNL     1       7.814 -12.174 -18.055  1.00  0.00     0.011 C 
HETATM   21  C16 UNL     1       8.179 -13.943 -16.301  1.00  0.00     0.018 C 
HETATM   22  C18 UNL     1      10.354 -14.992 -15.992  1.00  0.00     0.019 C 
HETATM   23  C19 UNL     1       8.289 -16.385 -15.789  1.00  0.00     0.019 C 
ENDBRANCH   9  11
ENDBRANCH   3   9
BRANCH   1  24
HETATM   24  C3  UNL     1       8.380 -20.618 -21.814  1.00  0.00     0.076 C 
BRANCH  24  25
HETATM   25  C2  UNL     1       7.139 -20.136 -21.220  1.00  0.00    -0.051 C 
HETATM   26  C1  UNL     1       6.530 -20.513 -19.936  1.00  0.00     0.046 C 
HETATM   27  C25 UNL     1       6.430 -19.240 -21.954  1.00  0.00     0.056 C 
HETATM   28  C26 UNL     1       6.962 -18.788 -23.274  1.00  0.00     0.077 C 
BRANCH  27  29
HETATM   29  O4  UNL     1       5.222 -18.712 -21.548  1.00  0.00    -0.266 OA
BRANCH  29  30
HETATM   30  C27 UNL     1       4.131 -18.807 -22.406  1.00  0.00     0.367 C 
HETATM   31  O5  UNL     1       3.652 -19.947 -22.625  1.00  0.00    -0.238 OA
HETATM   32  N3  UNL     1       3.548 -17.682 -23.033  1.00  0.00    -0.330 N 
HETATM   33  C28 UNL     1       4.091 -16.365 -22.791  1.00  0.00     0.155 C 
BRANCH  32  34
HETATM   34  C29 UNL     1       2.410 -17.825 -23.918  1.00  0.00     0.153 C 
BRANCH  34  35
HETATM   35  C30 UNL     1       1.096 -17.607 -23.195  1.00  0.00     0.184 C 
BRANCH  35  36
HETATM   36  O6  UNL     1       0.774 -18.795 -22.548  1.00  0.00    -0.399 OA
ATOM     37  H6  UNL     1       0.335 -19.353 -23.179  1.00  0.00     0.209 HD
ENDBRANCH  35  36
ENDBRANCH  34  35
ENDBRANCH  32  34
ENDBRANCH  29  30
ENDBRANCH  27  29
ENDBRANCH  24  25
ENDBRANCH   1  24
BRANCH   6  38
HETATM   38  N2  UNL     1      12.738 -21.178 -20.658  1.00  0.00    -0.404 N 
HETATM   39  C22 UNL     1      11.904 -22.000 -19.896  1.00  0.00     0.144 C 
HETATM   40  C23 UNL     1      14.118 -21.445 -20.680  1.00  0.00     0.144 C 
ENDBRANCH   6  38
TORSDOF 10
ENDMDL
MODEL 5
REMARK VINA RESULT: -6.440584661      2.717      7.571
REMARK  10 active torsions:
REMARK  status: ('A' for Active; 'I' for Inactive)
REMARK    1  A    between atoms: C2_2  and  C3_3 
REMARK    2  A    between atoms: C3_3  and  C4_4 
REMARK    3  A    between atoms: C5_6  and  C6_7 
REMARK    4  A    between atoms: C6_7  and  C8_9 
REMARK    5  A    between atoms: C21_24  and  N2_25 
REMARK    6  A    between atoms: C25_30  and  O4_32 
REMARK    7  A    between atoms: O4_32  and  C27_33 
REMARK       I    between atoms: C27_33  and  N3_35 
REMARK    8  A    between atoms: N3_35  and  C29_37 
REMARK    9  A    between atoms: C29_37  and  C30_38 
REMARK   10  A    between atoms: C30_38  and  O6_39 
ROOT
HETATM    1  C4  UNL     1      13.133 -14.796 -21.988  1.00  0.00     0.198 C 
HETATM    2  O1  UNL     1      11.861 -14.927 -22.621  1.00  0.00    -0.365 OA
HETATM    3  C5  UNL     1      11.889 -14.479 -23.940  1.00  0.00     0.200 C 
HETATM    4  C20 UNL     1      12.807 -13.334 -24.024  1.00  0.00     0.185 C 
HETATM    5  O2  UNL     1      12.475 -12.211 -24.102  1.00  0.00    -0.292 OA
HETATM    6  C21 UNL     1      14.258 -13.718 -23.996  1.00  0.00     0.224 C 
HETATM    7  C24 UNL     1      14.173 -14.908 -23.010  1.00  0.00     0.185 C 
HETATM    8  O3  UNL     1      14.949 -15.773 -23.190  1.00  0.00    -0.292 OA
ENDROOT
BRANCH   3   9
HETATM    9  C6  UNL     1      10.489 -14.216 -24.394  1.00  0.00     0.055 C 
HETATM   10  C7  UNL     1      10.224 -14.472 -25.837  1.00  0.00     0.015 C 
BRANCH   9  11
HETATM   11  C8  UNL     1       9.410 -14.724 -23.479  1.00  0.00     0.252 C 
HETATM   12  C9  UNL     1       8.601 -13.538 -23.042  1.00  0.00     0.013 C 
HETATM   13  C10 UNL     1       7.317 -13.629 -22.744  1.00  0.00    -0.067 C 
HETATM   14  C11 UNL     1       6.696 -14.980 -22.862  1.00  0.00     0.047 C 
HETATM   15  C17 UNL     1       6.292 -12.663 -22.303  1.00  0.00    -0.024 C 
HETATM   16  C12 UNL     1       7.230 -15.544 -24.162  1.00  0.00     0.282 C 
HETATM   17  C14 UNL     1       5.215 -14.770 -22.853  1.00  0.00    -0.008 C 
HETATM   18  N1  UNL     1       8.626 -15.784 -24.006  1.00  0.00     0.093 N 
HETATM   19  C13 UNL     1       8.830 -17.054 -23.370  1.00  0.00     0.310 C 
HETATM   20  C15 UNL     1       4.530 -15.234 -24.115  1.00  0.00     0.011 C 
HETATM   21  C16 UNL     1       4.951 -13.339 -22.512  1.00  0.00     0.018 C 
HETATM   22  C18 UNL     1       6.285 -11.407 -23.157  1.00  0.00     0.019 C 
HETATM   23  C19 UNL     1       6.504 -12.323 -20.842  1.00  0.00     0.019 C 
ENDBRANCH   9  11
ENDBRANCH   3   9
BRANCH   1  24
HETATM   24  C3  UNL     1      13.150 -15.802 -20.901  1.00  0.00     0.076 C 
BRANCH  24  25
HETATM   25  C2  UNL     1      12.741 -15.420 -19.555  1.00  0.00    -0.051 C 
HETATM   26  C1  UNL     1      13.092 -14.208 -18.800  1.00  0.00     0.046 C 
HETATM   27  C25 UNL     1      11.955 -16.306 -18.892  1.00  0.00     0.056 C 
HETATM   28  C26 UNL     1      11.538 -17.570 -19.572  1.00  0.00     0.077 C 
BRANCH  27  29
HETATM   29  O4  UNL     1      11.509 -16.109 -17.601  1.00  0.00    -0.266 OA
BRANCH  29  30
HETATM   30  C27 UNL     1      10.175 -15.776 -17.400  1.00  0.00     0.367 C 
HETATM   31  O5  UNL     1       9.304 -16.438 -18.018  1.00  0.00    -0.238 OA
HETATM   32  N3  UNL     1       9.764 -14.734 -16.538  1.00  0.00    -0.330 N 
HETATM   33  C28 UNL     1      10.757 -13.964 -15.823  1.00  0.00     0.155 C 
BRANCH  32  34
HETATM   34  C29 UNL     1       8.362 -14.422 -16.354  1.00  0.00     0.153 C 
BRANCH  34  35
HETATM   35  C30 UNL     1       7.781 -13.690 -17.547  1.00  0.00     0.184 C 
BRANCH  35  36
HETATM   36  O6  UNL     1       6.947 -14.579 -18.215  1.00  0.00    -0.399 OA
ATOM     37  H6  UNL     1       6.613 -14.134 -18.985  1.00  0.00     0.209 HD
ENDBRANCH  35  36
ENDBRANCH  34  35
ENDBRANCH  32  34
ENDBRANCH  29  30
ENDBRANCH  27  29
ENDBRANCH  24  25
ENDBRANCH   1  24
BRANCH   6  38
HETATM   38  N2  UNL     1      15.161 -12.751 -23.604  1.00  0.00    -0.404 N 
HETATM   39  C22 UNL     1      15.303 -12.410 -22.257  1.00  0.00     0.144 C 
HETATM   40  C23 UNL     1      15.972 -12.112 -24.557  1.00  0.00     0.144 C 
ENDBRANCH   6  38
TORSDOF 10
ENDMDL
