MODEL 1
REMARK VINA RESULT: -7.396865185      0.000      0.000
REMARK  10 active torsions:
REMARK  status: ('A' for Active; 'I' for Inactive)
REMARK    1  A    between atoms: C6_8  and  C7_9 
REMARK    2  A    between atoms: C10_12  and  C11_13 
REMARK    3  A    between atoms: C12_14  and  C13_15 
REMARK    4  A    between atoms: C14_16  and  C15_17 
REMARK    5  A    between atoms: C16_20  and  O5_21 
REMARK    6  A    between atoms: O5_21  and  C17_22 
REMARK    7  A    between atoms: C19_25  and  O7_26 
REMARK    8  A    between atoms: O7_26  and  C20_27 
REMARK    9  A    between atoms: C20_27  and  C21_29 
REMARK   10  A    between atoms: C22_30  and  C23_31 
REMARK       I    between atoms: C23_31  and  N1_33 
ROOT
HETATM    1  C1  UNL     1      11.039 -14.054 -16.401  1.00  0.00     0.025 C 
HETATM    2  C2  UNL     1      11.344 -14.741 -17.466  1.00  0.00     0.017 C 
HETATM    3  C3  UNL     1      12.429 -14.432 -18.384  1.00  0.00     0.289 C 
HETATM    4  O1  UNL     1      13.140 -13.385 -18.425  1.00  0.00    -0.260 OA
HETATM    5  O2  UNL     1      12.597 -15.496 -19.265  1.00  0.00    -0.307 OA
HETATM    6  C4  UNL     1      11.860 -16.577 -18.720  1.00  0.00     0.166 C 
HETATM    7  C5  UNL     1      11.637 -17.701 -19.609  1.00  0.00     0.010 C 
HETATM    8  C6  UNL     1      10.554 -18.198 -20.230  1.00  0.00    -0.068 C 
HETATM    9  C10 UNL     1       9.213 -17.633 -20.091  1.00  0.00     0.069 C 
HETATM   10  C16 UNL     1       9.319 -16.122 -20.164  1.00  0.00     0.174 C 
HETATM   11  C19 UNL     1       9.489 -15.600 -18.768  1.00  0.00     0.174 C 
HETATM   12  C29 UNL     1      10.696 -15.992 -18.025  1.00  0.00     0.089 C 
ENDROOT
BRANCH  11  13
HETATM   13  O7  UNL     1       9.278 -14.206 -18.681  1.00  0.00    -0.309 OA
BRANCH  13  14
HETATM   14  C20 UNL     1       8.068 -13.623 -18.876  1.00  0.00     0.283 C 
HETATM   15  O8  UNL     1       7.311 -13.575 -17.891  1.00  0.00    -0.260 OA
BRANCH  14  16
HETATM   16  C21 UNL     1       7.618 -13.065 -20.140  1.00  0.00     0.088 C 
HETATM   17  C22 UNL     1       6.785 -13.722 -20.907  1.00  0.00     0.080 C 
BRANCH  17  18
HETATM   18  C23 UNL     1       6.363 -13.131 -22.156  1.00  0.00     0.243 C 
HETATM   19  O9  UNL     1       6.512 -11.867 -22.305  1.00  0.00    -0.268 OA
HETATM   20  N1  UNL     1       5.797 -13.845 -23.228  1.00  0.00    -0.349 N 
HETATM   21  C24 UNL     1       5.412 -13.069 -24.419  1.00  0.00     0.126 C 
HETATM   22  C28 UNL     1       5.611 -15.261 -23.153  1.00  0.00     0.126 C 
HETATM   23  C25 UNL     1       4.938 -14.048 -25.459  1.00  0.00     0.020 C 
HETATM   24  C26 UNL     1       6.010 -15.110 -25.618  1.00  0.00     0.003 C 
HETATM   25  C27 UNL     1       6.046 -16.009 -24.400  1.00  0.00     0.020 C 
ENDBRANCH  17  18
ENDBRANCH  14  16
ENDBRANCH  13  14
ENDBRANCH  11  13
BRANCH  10  26
HETATM   26  O5  UNL     1      10.343 -15.816 -21.039  1.00  0.00    -0.313 OA
BRANCH  26  27
HETATM   27  C17 UNL     1      10.184 -14.855 -22.005  1.00  0.00     0.255 C 
HETATM   28  C18 UNL     1       9.426 -15.147 -23.233  1.00  0.00     0.126 C 
HETATM   29  O6  UNL     1      10.686 -13.728 -21.837  1.00  0.00    -0.266 OA
ENDBRANCH  26  27
ENDBRANCH  10  26
BRANCH   9  30
HETATM   30  C11 UNL     1       8.160 -18.170 -20.944  1.00  0.00    -0.015 C 
HETATM   31  C12 UNL     1       6.876 -18.238 -20.547  1.00  0.00    -0.003 C 
BRANCH  31  32
HETATM   32  C13 UNL     1       5.847 -18.776 -21.414  1.00  0.00     0.007 C 
HETATM   33  C14 UNL     1       5.474 -20.019 -21.539  1.00  0.00     0.084 C 
BRANCH  33  34
HETATM   34  C15 UNL     1       5.993 -21.172 -20.843  1.00  0.00     0.198 C 
HETATM   35  O3  UNL     1       6.790 -22.009 -21.311  1.00  0.00    -0.645 OA
HETATM   36  O4  UNL     1       5.589 -21.420 -19.506  1.00  0.00    -0.645 OA
ENDBRANCH  33  34
ENDBRANCH  31  32
ENDBRANCH   9  30
BRANCH   8  37
HETATM   37  C7  UNL     1      10.725 -19.380 -21.068  1.00  0.00     0.007 C 
HETATM   38  C8  UNL     1      11.456 -20.524 -20.352  1.00  0.00     0.014 C 
HETATM   39  C9  UNL     1      11.409 -19.181 -22.377  1.00  0.00     0.014 C 
ENDBRANCH   8  37
TORSDOF 10
ENDMDL
MODEL 2
REMARK VINA RESULT: -7.111701921      1.795      2.117
REMARK  10 active torsions:
REMARK  status: ('A' for Active; 'I' for Inactive)
REMARK    1  A    between atoms: C6_8  and  C7_9 
REMARK    2  A    between atoms: C10_12  and  C11_13 
REMARK    3  A    between atoms: C12_14  and  C13_15 
REMARK    4  A    between atoms: C14_16  and  C15_17 
REMARK    5  A    between atoms: C16_20  and  O5_21 
REMARK    6  A    between atoms: O5_21  and  C17_22 
REMARK    7  A    between atoms: C19_25  and  O7_26 
REMARK    8  A    between atoms: O7_26  and  C20_27 
REMARK    9  A    between atoms: C20_27  and  C21_29 
REMARK   10  A    between atoms: C22_30  and  C23_31 
REMARK       I    between atoms: C23_31  and  N1_33 
ROOT
HETATM    1  C1  UNL     1       9.314 -14.300 -16.161  1.00  0.00     0.025 C 
HETATM    2  C2  UNL     1      10.005 -14.825 -17.134  1.00  0.00     0.017 C 
HETATM    3  C3  UNL     1      11.361 -14.448 -17.502  1.00  0.00     0.289 C 
HETATM    4  O1  UNL     1      12.036 -13.461 -17.084  1.00  0.00    -0.260 OA
HETATM    5  O2  UNL     1      11.854 -15.364 -18.426  1.00  0.00    -0.307 OA
HETATM    6  C4  UNL     1      10.960 -16.465 -18.402  1.00  0.00     0.166 C 
HETATM    7  C5  UNL     1      11.095 -17.411 -19.492  1.00  0.00     0.010 C 
HETATM    8  C6  UNL     1      10.335 -17.723 -20.555  1.00  0.00    -0.068 C 
HETATM    9  C10 UNL     1       9.045 -17.096 -20.838  1.00  0.00     0.069 C 
HETATM   10  C16 UNL     1       9.175 -15.604 -20.597  1.00  0.00     0.174 C 
HETATM   11  C19 UNL     1       8.794 -15.328 -19.173  1.00  0.00     0.174 C 
HETATM   12  C29 UNL     1       9.620 -15.920 -18.109  1.00  0.00     0.089 C 
ENDROOT
BRANCH  11  13
HETATM   13  O7  UNL     1       8.569 -13.955 -18.927  1.00  0.00    -0.309 OA
BRANCH  13  14
HETATM   14  C20 UNL     1       7.346 -13.374 -19.020  1.00  0.00     0.283 C 
HETATM   15  O8  UNL     1       6.824 -13.010 -17.951  1.00  0.00    -0.260 OA
BRANCH  14  16
HETATM   16  C21 UNL     1       6.632 -13.155 -20.266  1.00  0.00     0.088 C 
HETATM   17  C22 UNL     1       7.162 -12.444 -21.228  1.00  0.00     0.080 C 
BRANCH  17  18
HETATM   18  C23 UNL     1       6.419 -12.251 -22.452  1.00  0.00     0.243 C 
HETATM   19  O9  UNL     1       5.708 -11.190 -22.564  1.00  0.00    -0.268 OA
HETATM   20  N1  UNL     1       6.417 -13.145 -23.538  1.00  0.00    -0.349 N 
HETATM   21  C24 UNL     1       5.583 -12.787 -24.698  1.00  0.00     0.126 C 
HETATM   22  C28 UNL     1       7.195 -14.345 -23.504  1.00  0.00     0.126 C 
HETATM   23  C25 UNL     1       5.824 -13.824 -25.761  1.00  0.00     0.020 C 
HETATM   24  C26 UNL     1       7.322 -13.935 -25.969  1.00  0.00     0.003 C 
HETATM   25  C27 UNL     1       7.971 -14.614 -24.781  1.00  0.00     0.020 C 
ENDBRANCH  17  18
ENDBRANCH  14  16
ENDBRANCH  13  14
ENDBRANCH  11  13
BRANCH  10  26
HETATM   26  O5  UNL     1      10.458 -15.233 -20.949  1.00  0.00    -0.313 OA
BRANCH  26  27
HETATM   27  C17 UNL     1      10.704 -14.559 -22.118  1.00  0.00     0.255 C 
HETATM   28  C18 UNL     1      11.369 -15.236 -23.244  1.00  0.00     0.126 C 
HETATM   29  O6  UNL     1      10.360 -13.368 -22.224  1.00  0.00    -0.266 OA
ENDBRANCH  26  27
ENDBRANCH  10  26
BRANCH   9  30
HETATM   30  C11 UNL     1       8.402 -17.411 -22.107  1.00  0.00    -0.015 C 
HETATM   31  C12 UNL     1       7.089 -17.694 -22.199  1.00  0.00    -0.003 C 
BRANCH  31  32
HETATM   32  C13 UNL     1       6.473 -18.005 -23.472  1.00  0.00     0.007 C 
HETATM   33  C14 UNL     1       5.264 -17.721 -23.868  1.00  0.00     0.084 C 
BRANCH  33  34
HETATM   34  C15 UNL     1       4.235 -17.023 -23.135  1.00  0.00     0.198 C 
HETATM   35  O3  UNL     1       3.590 -17.480 -22.170  1.00  0.00    -0.645 OA
HETATM   36  O4  UNL     1       3.889 -15.699 -23.505  1.00  0.00    -0.645 OA
ENDBRANCH  33  34
ENDBRANCH  31  32
ENDBRANCH   9  30
BRANCH   8  37
HETATM   37  C7  UNL     1      10.812 -18.763 -21.460  1.00  0.00     0.007 C 
HETATM   38  C8  UNL     1      10.639 -20.179 -20.893  1.00  0.00     0.014 C 
HETATM   39  C9  UNL     1      12.224 -18.652 -21.924  1.00  0.00     0.014 C 
ENDBRANCH   8  37
TORSDOF 10
ENDMDL
MODEL 3
REMARK VINA RESULT: -7.027234138      2.593      3.381
REMARK  10 active torsions:
REMARK  status: ('A' for Active; 'I' for Inactive)
REMARK    1  A    between atoms: C6_8  and  C7_9 
REMARK    2  A    between atoms: C10_12  and  C11_13 
REMARK    3  A    between atoms: C12_14  and  C13_15 
REMARK    4  A    between atoms: C14_16  and  C15_17 
REMARK    5  A    between atoms: C16_20  and  O5_21 
REMARK    6  A    between atoms: O5_21  and  C17_22 
REMARK    7  A    between atoms: C19_25  and  O7_26 
REMARK    8  A    between atoms: O7_26  and  C20_27 
REMARK    9  A    between atoms: C20_27  and  C21_29 
REMARK   10  A    between atoms: C22_30  and  C23_31 
REMARK       I    between atoms: C23_31  and  N1_33 
ROOT
HETATM    1  C1  UNL     1       8.965 -14.594 -16.196  1.00  0.00     0.025 C 
HETATM    2  C2  UNL     1       9.871 -14.971 -17.055  1.00  0.00     0.017 C 
HETATM    3  C3  UNL     1      11.245 -14.497 -17.091  1.00  0.00     0.289 C 
HETATM    4  O1  UNL     1      11.756 -13.538 -16.438  1.00  0.00    -0.260 OA
HETATM    5  O2  UNL     1      11.973 -15.276 -17.985  1.00  0.00    -0.307 OA
HETATM    6  C4  UNL     1      11.168 -16.408 -18.264  1.00  0.00     0.166 C 
HETATM    7  C5  UNL     1      11.581 -17.213 -19.397  1.00  0.00     0.010 C 
HETATM    8  C6  UNL     1      11.073 -17.430 -20.622  1.00  0.00    -0.068 C 
HETATM    9  C10 UNL     1       9.829 -16.828 -21.098  1.00  0.00     0.069 C 
HETATM   10  C16 UNL     1       9.809 -15.371 -20.678  1.00  0.00     0.174 C 
HETATM   11  C19 UNL     1       9.131 -15.282 -19.343  1.00  0.00     0.174 C 
HETATM   12  C29 UNL     1       9.763 -15.959 -18.200  1.00  0.00     0.089 C 
ENDROOT
BRANCH  11  13
HETATM   13  O7  UNL     1       8.772 -13.958 -19.004  1.00  0.00    -0.309 OA
BRANCH  13  14
HETATM   14  C20 UNL     1       7.643 -13.355 -19.456  1.00  0.00     0.283 C 
HETATM   15  O8  UNL     1       6.770 -13.107 -18.606  1.00  0.00    -0.260 OA
BRANCH  14  16
HETATM   16  C21 UNL     1       7.404 -12.991 -20.842  1.00  0.00     0.088 C 
HETATM   17  C22 UNL     1       6.536 -13.648 -21.569  1.00  0.00     0.080 C 
BRANCH  17  18
HETATM   18  C23 UNL     1       6.328 -13.254 -22.943  1.00  0.00     0.243 C 
HETATM   19  O9  UNL     1       6.981 -12.244 -23.386  1.00  0.00    -0.268 OA
HETATM   20  N1  UNL     1       5.455 -13.900 -23.838  1.00  0.00    -0.349 N 
HETATM   21  C24 UNL     1       5.362 -13.345 -25.200  1.00  0.00     0.126 C 
HETATM   22  C28 UNL     1       4.701 -15.045 -23.433  1.00  0.00     0.126 C 
HETATM   23  C25 UNL     1       4.464 -14.254 -25.994  1.00  0.00     0.020 C 
HETATM   24  C26 UNL     1       4.985 -15.670 -25.838  1.00  0.00     0.003 C 
HETATM   25  C27 UNL     1       4.713 -16.182 -24.439  1.00  0.00     0.020 C 
ENDBRANCH  17  18
ENDBRANCH  14  16
ENDBRANCH  13  14
ENDBRANCH  11  13
BRANCH  10  26
HETATM   26  O5  UNL     1      11.109 -14.907 -20.714  1.00  0.00    -0.313 OA
BRANCH  26  27
HETATM   27  C17 UNL     1      11.564 -14.157 -21.769  1.00  0.00     0.255 C 
HETATM   28  C18 UNL     1      12.966 -14.258 -22.207  1.00  0.00     0.126 C 
HETATM   29  O6  UNL     1      10.781 -13.389 -22.358  1.00  0.00    -0.266 OA
ENDBRANCH  26  27
ENDBRANCH  10  26
BRANCH   9  30
HETATM   30  C11 UNL     1       9.476 -17.019 -22.499  1.00  0.00    -0.015 C 
HETATM   31  C12 UNL     1       8.715 -16.141 -23.178  1.00  0.00    -0.003 C 
BRANCH  31  32
HETATM   32  C13 UNL     1       8.379 -16.353 -24.570  1.00  0.00     0.007 C 
HETATM   33  C14 UNL     1       8.709 -15.619 -25.595  1.00  0.00     0.084 C 
BRANCH  33  34
HETATM   34  C15 UNL     1       9.494 -14.407 -25.598  1.00  0.00     0.198 C 
HETATM   35  O3  UNL     1       9.041 -13.245 -25.624  1.00  0.00    -0.645 OA
HETATM   36  O4  UNL     1      10.909 -14.492 -25.572  1.00  0.00    -0.645 OA
ENDBRANCH  33  34
ENDBRANCH  31  32
ENDBRANCH   9  30
BRANCH   8  37
HETATM   37  C7  UNL     1      11.790 -18.334 -21.514  1.00  0.00     0.007 C 
HETATM   38  C8  UNL     1      11.803 -19.786 -21.015  1.00  0.00     0.014 C 
HETATM   39  C9  UNL     1      13.200 -17.976 -21.839  1.00  0.00     0.014 C 
ENDBRANCH   8  37
TORSDOF 10
ENDMDL
MODEL 4
REMARK VINA RESULT: -6.997425655      1.130      1.288
REMARK  10 active torsions:
REMARK  status: ('A' for Active; 'I' for Inactive)
REMARK    1  A    between atoms: C6_8  and  C7_9 
REMARK    2  A    between atoms: C10_12  and  C11_13 
REMARK    3  A    between atoms: C12_14  and  C13_15 
REMARK    4  A    between atoms: C14_16  and  C15_17 
REMARK    5  A    between atoms: C16_20  and  O5_21 
REMARK    6  A    between atoms: O5_21  and  C17_22 
REMARK    7  A    between atoms: C19_25  and  O7_26 
REMARK    8  A    between atoms: O7_26  and  C20_27 
REMARK    9  A    between atoms: C20_27  and  C21_29 
REMARK   10  A    between atoms: C22_30  and  C23_31 
REMARK       I    between atoms: C23_31  and  N1_33 
ROOT
HETATM    1  C1  UNL     1      10.697 -14.282 -16.367  1.00  0.00     0.025 C 
HETATM    2  C2  UNL     1      11.210 -14.913 -17.386  1.00  0.00     0.017 C 
HETATM    3  C3  UNL     1      12.347 -14.460 -18.171  1.00  0.00     0.289 C 
HETATM    4  O1  UNL     1      12.920 -13.330 -18.132  1.00  0.00    -0.260 OA
HETATM    5  O2  UNL     1      12.751 -15.484 -19.021  1.00  0.00    -0.307 OA
HETATM    6  C4  UNL     1      12.098 -16.656 -18.562  1.00  0.00     0.166 C 
HETATM    7  C5  UNL     1      12.126 -17.789 -19.466  1.00  0.00     0.010 C 
HETATM    8  C6  UNL     1      11.196 -18.412 -20.209  1.00  0.00    -0.068 C 
HETATM    9  C10 UNL     1       9.787 -18.023 -20.231  1.00  0.00     0.069 C 
HETATM   10  C16 UNL     1       9.708 -16.511 -20.298  1.00  0.00     0.174 C 
HETATM   11  C19 UNL     1       9.645 -15.986 -18.894  1.00  0.00     0.174 C 
HETATM   12  C29 UNL     1      10.796 -16.230 -18.012  1.00  0.00     0.089 C 
ENDROOT
BRANCH  11  13
HETATM   13  O7  UNL     1       9.250 -14.631 -18.838  1.00  0.00    -0.309 OA
BRANCH  13  14
HETATM   14  C20 UNL     1       7.953 -14.231 -18.880  1.00  0.00     0.283 C 
HETATM   15  O8  UNL     1       7.249 -14.534 -17.902  1.00  0.00    -0.260 OA
BRANCH  14  16
HETATM   16  C21 UNL     1       7.357 -13.487 -19.976  1.00  0.00     0.088 C 
HETATM   17  C22 UNL     1       7.197 -14.037 -21.153  1.00  0.00     0.080 C 
BRANCH  17  18
HETATM   18  C23 UNL     1       6.600 -13.262 -22.216  1.00  0.00     0.243 C 
HETATM   19  O9  UNL     1       6.519 -11.991 -22.064  1.00  0.00    -0.268 OA
HETATM   20  N1  UNL     1       6.097 -13.800 -23.415  1.00  0.00    -0.349 N 
HETATM   21  C24 UNL     1       5.508 -12.854 -24.379  1.00  0.00     0.126 C 
HETATM   22  C28 UNL     1       6.162 -15.205 -23.675  1.00  0.00     0.126 C 
HETATM   23  C25 UNL     1       5.144 -13.637 -25.611  1.00  0.00     0.020 C 
HETATM   24  C26 UNL     1       6.369 -14.420 -26.041  1.00  0.00     0.003 C 
HETATM   25  C27 UNL     1       6.638 -15.554 -25.073  1.00  0.00     0.020 C 
ENDBRANCH  17  18
ENDBRANCH  14  16
ENDBRANCH  13  14
ENDBRANCH  11  13
BRANCH  10  26
HETATM   26  O5  UNL     1      10.780 -16.068 -21.048  1.00  0.00    -0.313 OA
BRANCH  26  27
HETATM   27  C17 UNL     1      10.631 -15.071 -21.978  1.00  0.00     0.255 C 
HETATM   28  C18 UNL     1      10.160 -15.382 -23.338  1.00  0.00     0.126 C 
HETATM   29  O6  UNL     1      10.894 -13.895 -21.664  1.00  0.00    -0.266 OA
ENDBRANCH  26  27
ENDBRANCH  10  26
BRANCH   9  30
HETATM   30  C11 UNL     1       8.918 -18.680 -21.200  1.00  0.00    -0.015 C 
HETATM   31  C12 UNL     1       8.277 -18.001 -22.170  1.00  0.00    -0.003 C 
BRANCH  31  32
HETATM   32  C13 UNL     1       7.419 -18.678 -23.121  1.00  0.00     0.007 C 
HETATM   33  C14 UNL     1       6.158 -18.981 -22.989  1.00  0.00     0.084 C 
BRANCH  33  34
HETATM   34  C15 UNL     1       5.300 -18.718 -21.859  1.00  0.00     0.198 C 
HETATM   35  O3  UNL     1       5.363 -19.281 -20.748  1.00  0.00    -0.645 OA
HETATM   36  O4  UNL     1       4.277 -17.741 -21.972  1.00  0.00    -0.645 OA
ENDBRANCH  33  34
ENDBRANCH  31  32
ENDBRANCH   9  30
BRANCH   8  37
HETATM   37  C7  UNL     1      11.612 -19.554 -21.015  1.00  0.00     0.007 C 
HETATM   38  C8  UNL     1      12.329 -20.638 -20.198  1.00  0.00     0.014 C 
HETATM   39  C9  UNL     1      12.473 -19.263 -22.197  1.00  0.00     0.014 C 
ENDBRANCH   8  37
TORSDOF 10
ENDMDL
MODEL 5
REMARK VINA RESULT: -6.981667937      2.583      7.926
REMARK  10 active torsions:
REMARK  status: ('A' for Active; 'I' for Inactive)
REMARK    1  A    between atoms: C6_8  and  C7_9 
REMARK    2  A    between atoms: C10_12  and  C11_13 
REMARK    3  A    between atoms: C12_14  and  C13_15 
REMARK    4  A    between atoms: C14_16  and  C15_17 
REMARK    5  A    between atoms: C16_20  and  O5_21 
REMARK    6  A    between atoms: O5_21  and  C17_22 
REMARK    7  A    between atoms: C19_25  and  O7_26 
REMARK    8  A    between atoms: O7_26  and  C20_27 
REMARK    9  A    between atoms: C20_27  and  C21_29 
REMARK   10  A    between atoms: C22_30  and  C23_31 
REMARK       I    between atoms: C23_31  and  N1_33 
ROOT
HETATM    1  C1  UNL     1       5.965 -21.358 -22.615  1.00  0.00     0.025 C 
HETATM    2  C2  UNL     1       6.065 -20.355 -23.443  1.00  0.00     0.017 C 
HETATM    3  C3  UNL     1       7.069 -20.221 -24.485  1.00  0.00     0.289 C 
HETATM    4  O1  UNL     1       8.103 -20.932 -24.667  1.00  0.00    -0.260 OA
HETATM    5  O2  UNL     1       6.733 -19.151 -25.308  1.00  0.00    -0.307 OA
HETATM    6  C4  UNL     1       5.391 -18.819 -24.991  1.00  0.00     0.166 C 
HETATM    7  C5  UNL     1       4.918 -17.547 -25.501  1.00  0.00     0.010 C 
HETATM    8  C6  UNL     1       4.601 -16.374 -24.930  1.00  0.00    -0.068 C 
HETATM    9  C10 UNL     1       4.662 -16.133 -23.489  1.00  0.00     0.069 C 
HETATM   10  C16 UNL     1       5.943 -16.745 -22.956  1.00  0.00     0.174 C 
HETATM   11  C19 UNL     1       5.644 -18.151 -22.527  1.00  0.00     0.174 C 
HETATM   12  C29 UNL     1       5.209 -19.109 -23.554  1.00  0.00     0.089 C 
ENDROOT
BRANCH  11  13
HETATM   13  O7  UNL     1       6.668 -18.704 -21.728  1.00  0.00    -0.309 OA
BRANCH  13  14
HETATM   14  C20 UNL     1       6.891 -18.332 -20.442  1.00  0.00     0.283 C 
HETATM   15  O8  UNL     1       5.954 -18.509 -19.644  1.00  0.00    -0.260 OA
BRANCH  14  16
HETATM   16  C21 UNL     1       8.133 -17.755 -19.956  1.00  0.00     0.088 C 
HETATM   17  C22 UNL     1       8.130 -16.659 -19.241  1.00  0.00     0.080 C 
BRANCH  17  18
HETATM   18  C23 UNL     1       9.387 -16.117 -18.778  1.00  0.00     0.243 C 
HETATM   19  O9  UNL     1      10.418 -16.263 -19.526  1.00  0.00    -0.268 OA
HETATM   20  N1  UNL     1       9.566 -15.437 -17.559  1.00  0.00    -0.349 N 
HETATM   21  C24 UNL     1      10.927 -14.969 -17.248  1.00  0.00     0.126 C 
HETATM   22  C28 UNL     1       8.466 -15.216 -16.673  1.00  0.00     0.126 C 
HETATM   23  C25 UNL     1      10.850 -14.187 -15.964  1.00  0.00     0.020 C 
HETATM   24  C26 UNL     1       9.758 -13.146 -16.121  1.00  0.00     0.003 C 
HETATM   25  C27 UNL     1       8.395 -13.805 -16.116  1.00  0.00     0.020 C 
ENDBRANCH  17  18
ENDBRANCH  14  16
ENDBRANCH  13  14
ENDBRANCH  11  13
BRANCH  10  26
HETATM   26  O5  UNL     1       6.908 -16.618 -23.936  1.00  0.00    -0.313 OA
BRANCH  26  27
HETATM   27  C17 UNL     1       8.216 -16.358 -23.612  1.00  0.00     0.255 C 
HETATM   28  C18 UNL     1       8.666 -14.976 -23.375  1.00  0.00     0.126 C 
HETATM   29  O6  UNL     1       9.023 -17.301 -23.518  1.00  0.00    -0.266 OA
ENDBRANCH  26  27
ENDBRANCH  10  26
BRANCH   9  30
HETATM   30  C11 UNL     1       4.446 -14.770 -23.020  1.00  0.00    -0.015 C 
HETATM   31  C12 UNL     1       5.369 -14.097 -22.309  1.00  0.00    -0.003 C 
BRANCH  31  32
HETATM   32  C13 UNL     1       5.130 -12.743 -21.854  1.00  0.00     0.007 C 
HETATM   33  C14 UNL     1       5.623 -11.637 -22.336  1.00  0.00     0.084 C 
BRANCH  33  34
HETATM   34  C15 UNL     1       6.533 -11.485 -23.447  1.00  0.00     0.198 C 
HETATM   35  O3  UNL     1       7.777 -11.527 -23.381  1.00  0.00    -0.645 OA
HETATM   36  O4  UNL     1       6.014 -11.265 -24.749  1.00  0.00    -0.645 OA
ENDBRANCH  33  34
ENDBRANCH  31  32
ENDBRANCH   9  30
BRANCH   8  37
HETATM   37  C7  UNL     1       4.145 -15.290 -25.794  1.00  0.00     0.007 C 
HETATM   38  C8  UNL     1       3.108 -15.742 -26.831  1.00  0.00     0.014 C 
HETATM   39  C9  UNL     1       5.197 -14.536 -26.534  1.00  0.00     0.014 C 
ENDBRANCH   8  37
TORSDOF 10
ENDMDL
