MODEL 1
REMARK VINA RESULT: -7.026053708      0.000      0.000
REMARK  10 active torsions:
REMARK  status: ('A' for Active; 'I' for Inactive)
REMARK    1  A    between atoms: C2_2  and  C3_3 
REMARK    2  A    between atoms: C3_3  and  C4_4 
REMARK    3  A    between atoms: C21_25  and  O5_26 
REMARK    4  A    between atoms: O5_26  and  C22_27 
REMARK    5  A    between atoms: C22_27  and  C23_29 
REMARK    6  A    between atoms: C24_30  and  C25_31 
REMARK    7  A    between atoms: C25_31  and  C26_32 
REMARK    8  A    between atoms: C26_32  and  C27_33 
REMARK    9  A    between atoms: C27_33  and  S1_34 
REMARK   10  A    between atoms: C28_37  and  O9_38 
ROOT
HETATM    1  C4  UNL     1       9.932 -15.456 -17.744  1.00  0.00    -0.055 C 
HETATM    2  C5  UNL     1      10.973 -15.411 -18.538  1.00  0.00    -0.021 C 
HETATM    3  C6  UNL     1      10.931 -15.229 -20.023  1.00  0.00     0.035 C 
HETATM    4  C7  UNL     1       9.518 -15.092 -20.547  1.00  0.00     0.035 C 
HETATM    5  C8  UNL     1       8.659 -15.996 -19.699  1.00  0.00     0.027 C 
HETATM    6  C9  UNL     1       7.321 -16.032 -20.345  1.00  0.00     0.016 C 
HETATM    7  C10 UNL     1       7.341 -16.711 -21.707  1.00  0.00     0.032 C 
HETATM    8  C11 UNL     1       6.771 -18.060 -21.569  1.00  0.00     0.068 C 
HETATM    9  C12 UNL     1       5.234 -17.880 -21.447  1.00  0.00     0.047 C 
HETATM   10  C13 UNL     1       7.131 -18.853 -20.347  1.00  0.00     0.047 C 
HETATM   11  O1  UNL     1       6.900 -18.921 -22.676  1.00  0.00    -0.310 OA
HETATM   12  C14 UNL     1       7.996 -19.427 -23.303  1.00  0.00     0.259 C 
HETATM   13  O2  UNL     1       7.897 -20.550 -23.819  1.00  0.00    -0.265 OA
HETATM   14  C15 UNL     1       9.300 -18.772 -23.433  1.00  0.00     0.112 C 
HETATM   15  C16 UNL     1       9.561 -17.674 -22.432  1.00  0.00     0.022 C 
HETATM   16  C17 UNL     1       8.614 -16.528 -22.448  1.00  0.00    -0.002 C 
HETATM   17  C18 UNL     1       8.304 -16.234 -23.927  1.00  0.00     0.019 C 
HETATM   18  C19 UNL     1       9.384 -15.299 -22.000  1.00  0.00     0.118 C 
HETATM   19  O3  UNL     1      10.698 -15.289 -22.590  1.00  0.00    -0.303 OA
HETATM   20  C20 UNL     1      10.639 -13.944 -22.888  1.00  0.00     0.292 C 
HETATM   21  O4  UNL     1      11.534 -13.123 -23.154  1.00  0.00    -0.262 OA
HETATM   22  C21 UNL     1       9.174 -14.022 -22.739  1.00  0.00     0.267 C 
HETATM   23  C28 UNL     1       8.538 -15.318 -18.347  1.00  0.00     0.154 C 
ENDROOT
BRANCH  22  24
HETATM   24  O5  UNL     1       8.583 -13.041 -21.918  1.00  0.00    -0.299 OA
BRANCH  24  25
HETATM   25  C22 UNL     1       7.483 -12.256 -22.316  1.00  0.00     0.283 C 
HETATM   26  O6  UNL     1       7.743 -11.561 -23.323  1.00  0.00    -0.260 OA
BRANCH  25  27
HETATM   27  C23 UNL     1       6.232 -12.298 -21.599  1.00  0.00     0.078 C 
HETATM   28  C24 UNL     1       5.292 -13.155 -21.822  1.00  0.00    -0.021 C 
BRANCH  28  29
HETATM   29  C25 UNL     1       5.189 -14.259 -22.781  1.00  0.00     0.028 C 
BRANCH  29  30
HETATM   30  C26 UNL     1       4.932 -13.609 -24.154  1.00  0.00     0.020 C 
BRANCH  30  31
HETATM   31  C27 UNL     1       5.148 -14.647 -25.248  1.00  0.00     0.157 C 
BRANCH  31  32
HETATM   32  S1  UNL     1       4.319 -15.958 -24.925  1.00  0.00     0.250 S 
HETATM   33  O7  UNL     1       2.984 -16.006 -24.891  1.00  0.00    -0.212 OA
HETATM   34  O8  UNL     1       5.053 -17.284 -24.926  1.00  0.00    -0.212 OA
ENDBRANCH  31  32
ENDBRANCH  30  31
ENDBRANCH  29  30
ENDBRANCH  28  29
ENDBRANCH  25  27
ENDBRANCH  24  25
ENDBRANCH  22  24
BRANCH  23  35
HETATM   35  O9  UNL     1       8.215 -13.992 -18.501  1.00  0.00    -0.386 OA
HETATM   36  C29 UNL     1       7.109 -13.681 -17.697  1.00  0.00     0.202 C 
ENDBRANCH  23  35
BRANCH   1  37
HETATM   37  C3  UNL     1       9.960 -15.630 -16.287  1.00  0.00     0.036 C 
BRANCH  37  38
HETATM   38  C2  UNL     1      10.661 -14.604 -15.482  1.00  0.00    -0.000 C 
HETATM   39  C1  UNL     1      10.133 -13.231 -15.822  1.00  0.00     0.005 C 
ENDBRANCH  37  38
ENDBRANCH   1  37
TORSDOF 10
ENDMDL
MODEL 2
REMARK VINA RESULT: -6.855774622      1.248      1.505
REMARK  10 active torsions:
REMARK  status: ('A' for Active; 'I' for Inactive)
REMARK    1  A    between atoms: C2_2  and  C3_3 
REMARK    2  A    between atoms: C3_3  and  C4_4 
REMARK    3  A    between atoms: C21_25  and  O5_26 
REMARK    4  A    between atoms: O5_26  and  C22_27 
REMARK    5  A    between atoms: C22_27  and  C23_29 
REMARK    6  A    between atoms: C24_30  and  C25_31 
REMARK    7  A    between atoms: C25_31  and  C26_32 
REMARK    8  A    between atoms: C26_32  and  C27_33 
REMARK    9  A    between atoms: C27_33  and  S1_34 
REMARK   10  A    between atoms: C28_37  and  O9_38 
ROOT
HETATM    1  C4  UNL     1       9.976 -15.701 -17.701  1.00  0.00    -0.055 C 
HETATM    2  C5  UNL     1      11.081 -16.008 -18.335  1.00  0.00    -0.021 C 
HETATM    3  C6  UNL     1      11.230 -16.125 -19.819  1.00  0.00     0.035 C 
HETATM    4  C7  UNL     1       9.938 -15.841 -20.554  1.00  0.00     0.035 C 
HETATM    5  C8  UNL     1       8.828 -16.383 -19.688  1.00  0.00     0.027 C 
HETATM    6  C9  UNL     1       7.585 -16.304 -20.500  1.00  0.00     0.016 C 
HETATM    7  C10 UNL     1       7.605 -17.236 -21.702  1.00  0.00     0.032 C 
HETATM    8  C11 UNL     1       6.758 -18.402 -21.408  1.00  0.00     0.068 C 
HETATM    9  C12 UNL     1       5.287 -17.924 -21.538  1.00  0.00     0.047 C 
HETATM   10  C13 UNL     1       6.818 -18.984 -20.027  1.00  0.00     0.047 C 
HETATM   11  O1  UNL     1       6.820 -19.477 -22.315  1.00  0.00    -0.310 OA
HETATM   12  C14 UNL     1       7.847 -20.292 -22.682  1.00  0.00     0.259 C 
HETATM   13  O2  UNL     1       7.572 -21.458 -22.999  1.00  0.00    -0.265 OA
HETATM   14  C15 UNL     1       9.265 -19.925 -22.741  1.00  0.00     0.112 C 
HETATM   15  C16 UNL     1       9.642 -18.714 -21.925  1.00  0.00     0.022 C 
HETATM   16  C17 UNL     1       8.958 -17.442 -22.277  1.00  0.00    -0.002 C 
HETATM   17  C18 UNL     1       8.870 -17.401 -23.814  1.00  0.00     0.019 C 
HETATM   18  C19 UNL     1       9.915 -16.310 -21.950  1.00  0.00     0.118 C 
HETATM   19  O3  UNL     1      11.256 -16.659 -22.342  1.00  0.00    -0.303 OA
HETATM   20  C20 UNL     1      11.507 -15.414 -22.879  1.00  0.00     0.292 C 
HETATM   21  O4  UNL     1      12.575 -14.841 -23.158  1.00  0.00    -0.262 OA
HETATM   22  C21 UNL     1      10.050 -15.192 -22.926  1.00  0.00     0.267 C 
HETATM   23  C28 UNL     1       8.711 -15.436 -18.508  1.00  0.00     0.154 C 
ENDROOT
BRANCH  22  24
HETATM   24  O5  UNL     1       9.593 -13.975 -22.385  1.00  0.00    -0.299 OA
BRANCH  24  25
HETATM   25  C22 UNL     1       8.686 -13.122 -23.046  1.00  0.00     0.283 C 
HETATM   26  O6  UNL     1       8.639 -13.350 -24.274  1.00  0.00    -0.260 OA
BRANCH  25  27
HETATM   27  C23 UNL     1       7.931 -12.126 -22.325  1.00  0.00     0.078 C 
HETATM   28  C24 UNL     1       6.816 -12.354 -21.716  1.00  0.00    -0.021 C 
BRANCH  28  29
HETATM   29  C25 UNL     1       6.021 -13.578 -21.568  1.00  0.00     0.028 C 
BRANCH  29  30
HETATM   30  C26 UNL     1       4.867 -13.462 -22.582  1.00  0.00     0.020 C 
BRANCH  30  31
HETATM   31  C27 UNL     1       5.084 -14.470 -23.704  1.00  0.00     0.157 C 
BRANCH  31  32
HETATM   32  S1  UNL     1       5.148 -13.724 -25.101  1.00  0.00     0.250 S 
HETATM   33  O7  UNL     1       4.531 -14.156 -26.205  1.00  0.00    -0.212 OA
HETATM   34  O8  UNL     1       5.700 -12.313 -25.131  1.00  0.00    -0.212 OA
ENDBRANCH  31  32
ENDBRANCH  30  31
ENDBRANCH  29  30
ENDBRANCH  28  29
ENDBRANCH  25  27
ENDBRANCH  24  25
ENDBRANCH  22  24
BRANCH  23  35
HETATM   35  O9  UNL     1       8.686 -14.132 -18.940  1.00  0.00    -0.386 OA
HETATM   36  C29 UNL     1       7.635 -13.449 -18.311  1.00  0.00     0.202 C 
ENDBRANCH  23  35
BRANCH   1  37
HETATM   37  C3  UNL     1       9.817 -15.580 -16.247  1.00  0.00     0.036 C 
BRANCH  37  38
HETATM   38  C2  UNL     1      10.641 -14.570 -15.544  1.00  0.00    -0.000 C 
HETATM   39  C1  UNL     1      10.186 -13.180 -15.918  1.00  0.00     0.005 C 
ENDBRANCH  37  38
ENDBRANCH   1  37
TORSDOF 10
ENDMDL
MODEL 3
REMARK VINA RESULT: -6.837123441      1.593      2.248
REMARK  10 active torsions:
REMARK  status: ('A' for Active; 'I' for Inactive)
REMARK    1  A    between atoms: C2_2  and  C3_3 
REMARK    2  A    between atoms: C3_3  and  C4_4 
REMARK    3  A    between atoms: C21_25  and  O5_26 
REMARK    4  A    between atoms: O5_26  and  C22_27 
REMARK    5  A    between atoms: C22_27  and  C23_29 
REMARK    6  A    between atoms: C24_30  and  C25_31 
REMARK    7  A    between atoms: C25_31  and  C26_32 
REMARK    8  A    between atoms: C26_32  and  C27_33 
REMARK    9  A    between atoms: C27_33  and  S1_34 
REMARK   10  A    between atoms: C28_37  and  O9_38 
ROOT
HETATM    1  C4  UNL     1      10.012 -15.743 -17.656  1.00  0.00    -0.055 C 
HETATM    2  C5  UNL     1      11.121 -16.264 -18.120  1.00  0.00    -0.021 C 
HETATM    3  C6  UNL     1      11.390 -16.607 -19.551  1.00  0.00     0.035 C 
HETATM    4  C7  UNL     1      10.220 -16.282 -20.453  1.00  0.00     0.035 C 
HETATM    5  C8  UNL     1       8.973 -16.563 -19.651  1.00  0.00     0.027 C 
HETATM    6  C9  UNL     1       7.832 -16.456 -20.597  1.00  0.00     0.016 C 
HETATM    7  C10 UNL     1       7.841 -17.545 -21.660  1.00  0.00     0.032 C 
HETATM    8  C11 UNL     1       6.827 -18.551 -21.312  1.00  0.00     0.068 C 
HETATM    9  C12 UNL     1       5.449 -17.929 -21.663  1.00  0.00     0.047 C 
HETATM   10  C13 UNL     1       6.682 -18.934 -19.868  1.00  0.00     0.047 C 
HETATM   11  O1  UNL     1       6.832 -19.744 -22.059  1.00  0.00    -0.310 OA
HETATM   12  C14 UNL     1       7.773 -20.716 -22.202  1.00  0.00     0.259 C 
HETATM   13  O2  UNL     1       7.380 -21.876 -22.394  1.00  0.00    -0.265 OA
HETATM   14  C15 UNL     1       9.226 -20.530 -22.153  1.00  0.00     0.112 C 
HETATM   15  C16 UNL     1       9.681 -19.267 -21.464  1.00  0.00     0.022 C 
HETATM   16  C17 UNL     1       9.204 -17.987 -22.051  1.00  0.00    -0.002 C 
HETATM   17  C18 UNL     1       9.264 -18.155 -23.581  1.00  0.00     0.019 C 
HETATM   18  C19 UNL     1      10.265 -16.939 -21.771  1.00  0.00     0.118 C 
HETATM   19  O3  UNL     1      11.580 -17.494 -21.965  1.00  0.00    -0.303 OA
HETATM   20  C20 UNL     1      12.040 -16.375 -22.629  1.00  0.00     0.292 C 
HETATM   21  O4  UNL     1      13.194 -15.976 -22.860  1.00  0.00    -0.262 OA
HETATM   22  C21 UNL     1      10.634 -15.994 -22.863  1.00  0.00     0.267 C 
HETATM   23  C28 UNL     1       8.872 -15.450 -18.624  1.00  0.00     0.154 C 
ENDROOT
BRANCH  22  24
HETATM   24  O5  UNL     1      10.291 -14.668 -22.537  1.00  0.00    -0.299 OA
BRANCH  24  25
HETATM   25  C22 UNL     1       9.404 -13.884 -23.302  1.00  0.00     0.283 C 
HETATM   26  O6  UNL     1       8.953 -12.917 -22.652  1.00  0.00    -0.260 OA
BRANCH  25  27
HETATM   27  C23 UNL     1       9.098 -14.219 -24.672  1.00  0.00     0.078 C 
HETATM   28  C24 UNL     1       8.019 -14.816 -25.054  1.00  0.00    -0.021 C 
BRANCH  28  29
HETATM   29  C25 UNL     1       6.860 -15.305 -24.302  1.00  0.00     0.028 C 
BRANCH  29  30
HETATM   30  C26 UNL     1       5.665 -14.443 -24.751  1.00  0.00     0.020 C 
BRANCH  30  31
HETATM   31  C27 UNL     1       5.588 -13.198 -23.875  1.00  0.00     0.157 C 
BRANCH  31  32
HETATM   32  S1  UNL     1       4.969 -13.565 -22.463  1.00  0.00     0.250 S 
HETATM   33  O7  UNL     1       5.318 -12.968 -21.319  1.00  0.00    -0.212 OA
HETATM   34  O8  UNL     1       3.728 -14.435 -22.433  1.00  0.00    -0.212 OA
ENDBRANCH  31  32
ENDBRANCH  30  31
ENDBRANCH  29  30
ENDBRANCH  28  29
ENDBRANCH  25  27
ENDBRANCH  24  25
ENDBRANCH  22  24
BRANCH  23  35
HETATM   35  O9  UNL     1       9.057 -14.227 -19.221  1.00  0.00    -0.386 OA
HETATM   36  C29 UNL     1       7.936 -13.417 -18.990  1.00  0.00     0.202 C 
ENDBRANCH  23  35
BRANCH   1  37
HETATM   37  C3  UNL     1       9.736 -15.399 -16.256  1.00  0.00     0.036 C 
BRANCH  37  38
HETATM   38  C2  UNL     1      10.507 -14.288 -15.653  1.00  0.00    -0.000 C 
HETATM   39  C1  UNL     1       9.845 -12.968 -15.969  1.00  0.00     0.005 C 
ENDBRANCH  37  38
ENDBRANCH   1  37
TORSDOF 10
ENDMDL
MODEL 4
REMARK VINA RESULT: -6.772515799      2.508      5.491
REMARK  10 active torsions:
REMARK  status: ('A' for Active; 'I' for Inactive)
REMARK    1  A    between atoms: C2_2  and  C3_3 
REMARK    2  A    between atoms: C3_3  and  C4_4 
REMARK    3  A    between atoms: C21_25  and  O5_26 
REMARK    4  A    between atoms: O5_26  and  C22_27 
REMARK    5  A    between atoms: C22_27  and  C23_29 
REMARK    6  A    between atoms: C24_30  and  C25_31 
REMARK    7  A    between atoms: C25_31  and  C26_32 
REMARK    8  A    between atoms: C26_32  and  C27_33 
REMARK    9  A    between atoms: C27_33  and  S1_34 
REMARK   10  A    between atoms: C28_37  and  O9_38 
ROOT
HETATM    1  C4  UNL     1      11.517 -15.477 -22.999  1.00  0.00    -0.055 C 
HETATM    2  C5  UNL     1      11.000 -14.651 -23.876  1.00  0.00    -0.021 C 
HETATM    3  C6  UNL     1       9.657 -13.999 -23.772  1.00  0.00     0.035 C 
HETATM    4  C7  UNL     1       8.920 -14.393 -22.511  1.00  0.00     0.035 C 
HETATM    5  C8  UNL     1       9.273 -15.835 -22.243  1.00  0.00     0.027 C 
HETATM    6  C9  UNL     1       8.387 -16.287 -21.139  1.00  0.00     0.016 C 
HETATM    7  C10 UNL     1       6.920 -16.335 -21.541  1.00  0.00     0.032 C 
HETATM    8  C11 UNL     1       6.540 -17.737 -21.768  1.00  0.00     0.068 C 
HETATM    9  C12 UNL     1       6.394 -18.388 -20.366  1.00  0.00     0.047 C 
HETATM   10  C13 UNL     1       7.523 -18.628 -22.468  1.00  0.00     0.047 C 
HETATM   11  O1  UNL     1       5.280 -17.968 -22.353  1.00  0.00    -0.310 OA
HETATM   12  C14 UNL     1       4.769 -17.613 -23.564  1.00  0.00     0.259 C 
HETATM   13  O2  UNL     1       3.939 -18.373 -24.083  1.00  0.00    -0.265 OA
HETATM   14  C15 UNL     1       5.104 -16.408 -24.327  1.00  0.00     0.112 C 
HETATM   15  C16 UNL     1       6.413 -15.761 -23.949  1.00  0.00     0.022 C 
HETATM   16  C17 UNL     1       6.540 -15.304 -22.540  1.00  0.00    -0.002 C 
HETATM   17  C18 UNL     1       5.181 -14.695 -22.150  1.00  0.00     0.019 C 
HETATM   18  C19 UNL     1       7.474 -14.108 -22.535  1.00  0.00     0.118 C 
HETATM   19  O3  UNL     1       7.193 -13.249 -23.656  1.00  0.00    -0.303 OA
HETATM   20  C20 UNL     1       7.295 -12.099 -22.902  1.00  0.00     0.292 C 
HETATM   21  O4  UNL     1       7.469 -10.914 -23.232  1.00  0.00    -0.262 OA
HETATM   22  C21 UNL     1       7.114 -12.930 -21.696  1.00  0.00     0.267 C 
HETATM   23  C28 UNL     1      10.711 -15.834 -21.756  1.00  0.00     0.154 C 
ENDROOT
BRANCH  22  24
HETATM   24  O5  UNL     1       8.047 -12.728 -20.661  1.00  0.00    -0.299 OA
BRANCH  24  25
HETATM   25  C22 UNL     1       7.685 -12.581 -19.307  1.00  0.00     0.283 C 
HETATM   26  O6  UNL     1       8.198 -11.563 -18.793  1.00  0.00    -0.260 OA
BRANCH  25  27
HETATM   27  C23 UNL     1       6.817 -13.531 -18.654  1.00  0.00     0.078 C 
HETATM   28  C24 UNL     1       7.222 -14.614 -18.079  1.00  0.00    -0.021 C 
BRANCH  28  29
HETATM   29  C25 UNL     1       8.563 -15.184 -17.913  1.00  0.00     0.028 C 
BRANCH  29  30
HETATM   30  C26 UNL     1       8.658 -15.627 -16.441  1.00  0.00     0.020 C 
BRANCH  30  31
HETATM   31  C27 UNL     1      10.034 -15.263 -15.896  1.00  0.00     0.157 C 
BRANCH  31  32
HETATM   32  S1  UNL     1      10.352 -13.740 -16.197  1.00  0.00     0.250 S 
HETATM   33  O7  UNL     1       9.702 -12.718 -15.632  1.00  0.00    -0.212 OA
HETATM   34  O8  UNL     1      11.629 -13.413 -16.945  1.00  0.00    -0.212 OA
ENDBRANCH  31  32
ENDBRANCH  30  31
ENDBRANCH  29  30
ENDBRANCH  28  29
ENDBRANCH  25  27
ENDBRANCH  24  25
ENDBRANCH  22  24
BRANCH  23  35
HETATM   35  O9  UNL     1      10.888 -14.879 -20.784  1.00  0.00    -0.386 OA
HETATM   36  C29 UNL     1      11.680 -15.402 -19.751  1.00  0.00     0.202 C 
ENDBRANCH  23  35
BRANCH   1  37
HETATM   37  C3  UNL     1      12.833 -16.120 -23.088  1.00  0.00     0.036 C 
BRANCH  37  38
HETATM   38  C2  UNL     1      14.005 -15.259 -23.366  1.00  0.00    -0.000 C 
HETATM   39  C1  UNL     1      14.263 -14.341 -22.195  1.00  0.00     0.005 C 
ENDBRANCH  37  38
ENDBRANCH   1  37
TORSDOF 10
ENDMDL
MODEL 5
REMARK VINA RESULT: -6.711866200      2.528      5.425
REMARK  10 active torsions:
REMARK  status: ('A' for Active; 'I' for Inactive)
REMARK    1  A    between atoms: C2_2  and  C3_3 
REMARK    2  A    between atoms: C3_3  and  C4_4 
REMARK    3  A    between atoms: C21_25  and  O5_26 
REMARK    4  A    between atoms: O5_26  and  C22_27 
REMARK    5  A    between atoms: C22_27  and  C23_29 
REMARK    6  A    between atoms: C24_30  and  C25_31 
REMARK    7  A    between atoms: C25_31  and  C26_32 
REMARK    8  A    between atoms: C26_32  and  C27_33 
REMARK    9  A    between atoms: C27_33  and  S1_34 
REMARK   10  A    between atoms: C28_37  and  O9_38 
ROOT
HETATM    1  C4  UNL     1       8.448 -13.516 -18.048  1.00  0.00    -0.055 C 
HETATM    2  C5  UNL     1       7.682 -12.861 -18.886  1.00  0.00    -0.021 C 
HETATM    3  C6  UNL     1       7.201 -13.370 -20.208  1.00  0.00     0.035 C 
HETATM    4  C7  UNL     1       7.695 -14.770 -20.501  1.00  0.00     0.035 C 
HETATM    5  C8  UNL     1       9.085 -14.862 -19.923  1.00  0.00     0.027 C 
HETATM    6  C9  UNL     1       9.653 -16.151 -20.396  1.00  0.00     0.016 C 
HETATM    7  C10 UNL     1       9.877 -16.180 -21.901  1.00  0.00     0.032 C 
HETATM    8  C11 UNL     1      11.313 -16.009 -22.167  1.00  0.00     0.068 C 
HETATM    9  C12 UNL     1      11.990 -17.364 -21.829  1.00  0.00     0.047 C 
HETATM   10  C13 UNL     1      12.070 -15.019 -21.332  1.00  0.00     0.047 C 
HETATM   11  O1  UNL     1      11.690 -15.796 -23.507  1.00  0.00    -0.310 OA
HETATM   12  C14 UNL     1      11.389 -14.797 -24.382  1.00  0.00     0.259 C 
HETATM   13  O2  UNL     1      12.240 -14.502 -25.233  1.00  0.00    -0.265 OA
HETATM   14  C15 UNL     1      10.145 -14.025 -24.421  1.00  0.00     0.112 C 
HETATM   15  C16 UNL     1       9.346 -14.044 -23.142  1.00  0.00     0.022 C 
HETATM   16  C17 UNL     1       8.891 -15.378 -22.668  1.00  0.00    -0.002 C 
HETATM   17  C18 UNL     1       8.457 -16.165 -23.918  1.00  0.00     0.019 C 
HETATM   18  C19 UNL     1       7.589 -15.170 -21.915  1.00  0.00     0.118 C 
HETATM   19  O3  UNL     1       6.760 -14.215 -22.604  1.00  0.00    -0.303 OA
HETATM   20  C20 UNL     1       5.614 -14.960 -22.421  1.00  0.00     0.292 C 
HETATM   21  O4  UNL     1       4.413 -14.647 -22.487  1.00  0.00    -0.262 OA
HETATM   22  C21 UNL     1       6.473 -16.129 -22.152  1.00  0.00     0.267 C 
HETATM   23  C28 UNL     1       8.913 -14.920 -18.416  1.00  0.00     0.154 C 
ENDROOT
BRANCH  22  24
HETATM   24  O5  UNL     1       6.168 -16.864 -20.990  1.00  0.00    -0.299 OA
BRANCH  24  25
HETATM   25  C22 UNL     1       6.148 -18.273 -20.945  1.00  0.00     0.283 C 
HETATM   26  O6  UNL     1       5.731 -18.700 -19.848  1.00  0.00    -0.260 OA
BRANCH  25  27
HETATM   27  C23 UNL     1       6.573 -19.065 -22.074  1.00  0.00     0.078 C 
HETATM   28  C24 UNL     1       7.464 -19.997 -22.017  1.00  0.00    -0.021 C 
BRANCH  28  29
HETATM   29  C25 UNL     1       8.265 -20.511 -20.901  1.00  0.00     0.028 C 
BRANCH  29  30
HETATM   30  C26 UNL     1       7.985 -22.025 -20.837  1.00  0.00     0.020 C 
BRANCH  30  31
HETATM   31  C27 UNL     1       7.471 -22.380 -19.447  1.00  0.00     0.157 C 
BRANCH  31  32
HETATM   32  S1  UNL     1       5.902 -22.173 -19.378  1.00  0.00     0.250 S 
HETATM   33  O7  UNL     1       5.092 -22.259 -20.438  1.00  0.00    -0.212 OA
HETATM   34  O8  UNL     1       5.245 -22.150 -18.013  1.00  0.00    -0.212 OA
ENDBRANCH  31  32
ENDBRANCH  30  31
ENDBRANCH  29  30
ENDBRANCH  28  29
ENDBRANCH  25  27
ENDBRANCH  24  25
ENDBRANCH  22  24
BRANCH  23  35
HETATM   35  O9  UNL     1       7.953 -15.843 -18.077  1.00  0.00    -0.386 OA
HETATM   36  C29 UNL     1       8.299 -16.456 -16.864  1.00  0.00     0.202 C 
ENDBRANCH  23  35
BRANCH   1  37
HETATM   37  C3  UNL     1       8.924 -13.029 -16.748  1.00  0.00     0.036 C 
BRANCH  37  38
HETATM   38  C2  UNL     1      10.386 -12.916 -16.546  1.00  0.00    -0.000 C 
HETATM   39  C1  UNL     1      10.872 -14.026 -15.644  1.00  0.00     0.005 C 
ENDBRANCH  37  38
ENDBRANCH   1  37
TORSDOF 10
ENDMDL
