MODEL 1
REMARK VINA RESULT: -7.838030933      0.000      0.000
REMARK  9 active torsions:
REMARK  status: ('A' for Active; 'I' for Inactive)
REMARK    1  A    between atoms: C2_2  and  C4_4 
REMARK    2  A    between atoms: C4_4  and  C5_5 
REMARK    3  A    between atoms: C4_4  and  C7_7 
REMARK    4  A    between atoms: C7_7  and  N1_8 
REMARK    5  A    between atoms: C15_16  and  C16_17 
REMARK    6  A    between atoms: C16_17  and  C17_18 
REMARK    7  A    between atoms: C17_18  and  C18_19 
REMARK       I    between atoms: C18_19  and  N2_21 
REMARK    8  A    between atoms: C23_28  and  O4_29 
REMARK    9  A    between atoms: C25_31  and  O5_32 
ROOT
HETATM    1  N1  UNL     1       8.330 -14.577 -19.691  1.00  0.00     0.131 N 
HETATM    2  C8  UNL     1       8.098 -13.176 -19.860  1.00  0.00     0.278 C 
HETATM    3  C9  UNL     1       8.159 -12.845 -21.320  1.00  0.00     0.048 C 
HETATM    4  C10 UNL     1       8.810 -14.061 -21.978  1.00  0.00     0.054 C 
HETATM    5  C11 UNL     1      10.121 -13.524 -22.563  1.00  0.00     0.026 C 
HETATM    6  C12 UNL     1      11.108 -14.631 -22.687  1.00  0.00     0.042 C 
HETATM    7  C13 UNL     1      12.356 -14.234 -23.409  1.00  0.00     0.012 C 
HETATM    8  C14 UNL     1      13.344 -13.452 -22.616  1.00  0.00     0.032 C 
HETATM    9  C15 UNL     1      13.526 -14.137 -21.275  1.00  0.00     0.125 C 
HETATM   10  O2  UNL     1      12.257 -14.134 -20.675  1.00  0.00    -0.356 OA
HETATM   11  C21 UNL     1      11.396 -15.092 -21.273  1.00  0.00     0.267 C 
HETATM   12  O3  UNL     1      10.344 -15.203 -20.471  1.00  0.00    -0.318 OA
HETATM   13  C22 UNL     1       9.060 -15.049 -20.888  1.00  0.00     0.302 C 
HETATM   14  C23 UNL     1       8.542 -16.426 -21.179  1.00  0.00     0.219 C 
HETATM   15  C25 UNL     1       7.226 -16.423 -21.934  1.00  0.00     0.183 C 
HETATM   16  C26 UNL     1       7.632 -15.885 -23.315  1.00  0.00     0.186 C 
HETATM   17  O6  UNL     1       6.532 -15.857 -24.178  1.00  0.00    -0.345 OA
HETATM   18  C27 UNL     1       6.049 -14.559 -24.147  1.00  0.00     0.158 C 
HETATM   19  C28 UNL     1       4.553 -14.633 -23.821  1.00  0.00     0.078 C 
HETATM   20  C29 UNL     1       6.206 -13.828 -25.452  1.00  0.00     0.078 C 
HETATM   21  O7  UNL     1       6.653 -13.902 -23.094  1.00  0.00    -0.347 OA
HETATM   22  C30 UNL     1       7.958 -14.453 -23.117  1.00  0.00     0.170 C 
ENDROOT
BRANCH   1  23
HETATM   23  C7  UNL     1       9.102 -14.765 -18.504  1.00  0.00     0.311 C 
BRANCH  23  24
HETATM   24  C4  UNL     1       8.686 -14.103 -17.269  1.00  0.00    -0.047 C 
BRANCH  24  25
HETATM   25  C2  UNL     1       9.648 -13.161 -16.646  1.00  0.00    -0.067 C 
HETATM   26  C1  UNL     1       9.599 -11.846 -16.767  1.00  0.00     0.018 C 
HETATM   27  C3  UNL     1      10.798 -13.703 -15.827  1.00  0.00     0.047 C 
ENDBRANCH  24  25
BRANCH  24  28
HETATM   28  C5  UNL     1       7.920 -14.919 -16.259  1.00  0.00     0.032 C 
HETATM   29  C6  UNL     1       8.491 -16.321 -16.223  1.00  0.00     0.010 C 
ENDBRANCH  24  28
ENDBRANCH  23  24
ENDBRANCH   1  23
BRANCH  14  30
HETATM   30  O4  UNL     1       8.521 -17.253 -20.095  1.00  0.00    -0.383 OA
HETATM   31  C24 UNL     1       7.906 -18.475 -20.335  1.00  0.00     0.202 C 
ENDBRANCH  14  30
BRANCH  15  32
HETATM   32  O5  UNL     1       6.280 -15.589 -21.388  1.00  0.00    -0.390 OA
ATOM     33  H5  UNL     1       5.998 -14.896 -21.975  1.00  0.00     0.210 HD
ENDBRANCH  15  32
BRANCH   9  34
HETATM   34  C16 UNL     1      14.396 -13.308 -20.394  1.00  0.00     0.041 C 
BRANCH  34  35
HETATM   35  C17 UNL     1      15.461 -12.610 -21.171  1.00  0.00     0.105 C 
BRANCH  35  36
HETATM   36  C18 UNL     1      15.859 -11.292 -20.661  1.00  0.00     0.219 C 
HETATM   37  O1  UNL     1      16.063 -11.111 -19.447  1.00  0.00    -0.273 OA
HETATM   38  N2  UNL     1      16.011 -10.212 -21.557  1.00  0.00    -0.361 N 
HETATM   39  C19 UNL     1      15.787 -10.346 -22.971  1.00  0.00     0.152 C 
HETATM   40  C20 UNL     1      16.411  -8.895 -21.050  1.00  0.00     0.152 C 
ENDBRANCH  35  36
ENDBRANCH  34  35
ENDBRANCH   9  34
TORSDOF 9
ENDMDL
MODEL 2
REMARK VINA RESULT: -7.728931338      2.854      6.827
REMARK  9 active torsions:
REMARK  status: ('A' for Active; 'I' for Inactive)
REMARK    1  A    between atoms: C2_2  and  C4_4 
REMARK    2  A    between atoms: C4_4  and  C5_5 
REMARK    3  A    between atoms: C4_4  and  C7_7 
REMARK    4  A    between atoms: C7_7  and  N1_8 
REMARK    5  A    between atoms: C15_16  and  C16_17 
REMARK    6  A    between atoms: C16_17  and  C17_18 
REMARK    7  A    between atoms: C17_18  and  C18_19 
REMARK       I    between atoms: C18_19  and  N2_21 
REMARK    8  A    between atoms: C23_28  and  O4_29 
REMARK    9  A    between atoms: C25_31  and  O5_32 
ROOT
HETATM    1  N1  UNL     1       9.603 -15.634 -19.020  1.00  0.00     0.131 N 
HETATM    2  C8  UNL     1       8.538 -16.586 -19.075  1.00  0.00     0.278 C 
HETATM    3  C9  UNL     1       8.783 -17.525 -20.217  1.00  0.00     0.048 C 
HETATM    4  C10 UNL     1       9.859 -16.847 -21.066  1.00  0.00     0.054 C 
HETATM    5  C11 UNL     1       9.172 -16.576 -22.410  1.00  0.00     0.026 C 
HETATM    6  C12 UNL     1       9.838 -15.435 -23.095  1.00  0.00     0.042 C 
HETATM    7  C13 UNL     1       9.345 -15.211 -24.489  1.00  0.00     0.012 C 
HETATM    8  C14 UNL     1       8.036 -14.511 -24.610  1.00  0.00     0.032 C 
HETATM    9  C15 UNL     1       8.059 -13.300 -23.697  1.00  0.00     0.125 C 
HETATM   10  O2  UNL     1       8.260 -13.807 -22.404  1.00  0.00    -0.356 OA
HETATM   11  C21 UNL     1       9.603 -14.226 -22.212  1.00  0.00     0.267 C 
HETATM   12  O3  UNL     1       9.753 -14.420 -20.907  1.00  0.00    -0.318 OA
HETATM   13  C22 UNL     1      10.214 -15.578 -20.366  1.00  0.00     0.302 C 
HETATM   14  C23 UNL     1      11.686 -15.389 -20.152  1.00  0.00     0.219 C 
HETATM   15  C25 UNL     1      12.414 -16.680 -19.830  1.00  0.00     0.183 C 
HETATM   16  C26 UNL     1      12.334 -17.451 -21.157  1.00  0.00     0.186 C 
HETATM   17  O6  UNL     1      13.010 -18.671 -21.062  1.00  0.00    -0.345 OA
HETATM   18  C27 UNL     1      12.043 -19.628 -20.796  1.00  0.00     0.158 C 
HETATM   19  C28 UNL     1      12.492 -20.399 -19.549  1.00  0.00     0.078 C 
HETATM   20  C29 UNL     1      11.853 -20.617 -21.911  1.00  0.00     0.078 C 
HETATM   21  O7  UNL     1      10.875 -18.974 -20.460  1.00  0.00    -0.347 OA
HETATM   22  C30 UNL     1      10.915 -17.847 -21.316  1.00  0.00     0.170 C 
ENDROOT
BRANCH   1  23
HETATM   23  C7  UNL     1       9.055 -14.369 -18.646  1.00  0.00     0.311 C 
BRANCH  23  24
HETATM   24  C4  UNL     1       8.945 -14.029 -17.228  1.00  0.00    -0.047 C 
BRANCH  24  25
HETATM   25  C2  UNL     1       9.922 -14.655 -16.303  1.00  0.00    -0.067 C 
HETATM   26  C1  UNL     1       9.814 -15.876 -15.808  1.00  0.00     0.018 C 
HETATM   27  C3  UNL     1      11.129 -13.866 -15.848  1.00  0.00     0.047 C 
ENDBRANCH  24  25
BRANCH  24  28
HETATM   28  C5  UNL     1       7.562 -13.916 -16.639  1.00  0.00     0.032 C 
HETATM   29  C6  UNL     1       6.635 -13.307 -17.669  1.00  0.00     0.010 C 
ENDBRANCH  24  28
ENDBRANCH  23  24
ENDBRANCH   1  23
BRANCH  14  30
HETATM   30  O4  UNL     1      11.997 -14.384 -19.284  1.00  0.00    -0.383 OA
HETATM   31  C24 UNL     1      13.361 -14.215 -19.087  1.00  0.00     0.202 C 
ENDBRANCH  14  30
BRANCH  15  32
HETATM   32  O5  UNL     1      11.811 -17.423 -18.844  1.00  0.00    -0.390 OA
ATOM     33  H5  UNL     1      12.155 -18.305 -18.766  1.00  0.00     0.210 HD
ENDBRANCH  15  32
BRANCH   9  34
HETATM   34  C16 UNL     1       6.716 -12.653 -23.676  1.00  0.00     0.041 C 
BRANCH  34  35
HETATM   35  C17 UNL     1       5.678 -13.521 -24.304  1.00  0.00     0.105 C 
BRANCH  35  36
HETATM   36  C18 UNL     1       4.827 -14.270 -23.371  1.00  0.00     0.219 C 
HETATM   37  O1  UNL     1       4.511 -13.788 -22.267  1.00  0.00    -0.273 OA
HETATM   38  N2  UNL     1       4.363 -15.554 -23.724  1.00  0.00    -0.361 N 
HETATM   39  C19 UNL     1       4.692 -16.175 -24.979  1.00  0.00     0.152 C 
HETATM   40  C20 UNL     1       3.511 -16.304 -22.795  1.00  0.00     0.152 C 
ENDBRANCH  35  36
ENDBRANCH  34  35
ENDBRANCH   9  34
TORSDOF 9
ENDMDL
MODEL 3
REMARK VINA RESULT: -7.599669640      2.667      6.987
REMARK  9 active torsions:
REMARK  status: ('A' for Active; 'I' for Inactive)
REMARK    1  A    between atoms: C2_2  and  C4_4 
REMARK    2  A    between atoms: C4_4  and  C5_5 
REMARK    3  A    between atoms: C4_4  and  C7_7 
REMARK    4  A    between atoms: C7_7  and  N1_8 
REMARK    5  A    between atoms: C15_16  and  C16_17 
REMARK    6  A    between atoms: C16_17  and  C17_18 
REMARK    7  A    between atoms: C17_18  and  C18_19 
REMARK       I    between atoms: C18_19  and  N2_21 
REMARK    8  A    between atoms: C23_28  and  O4_29 
REMARK    9  A    between atoms: C25_31  and  O5_32 
ROOT
HETATM    1  N1  UNL     1      10.647 -15.972 -19.538  1.00  0.00     0.131 N 
HETATM    2  C8  UNL     1       9.839 -17.140 -19.700  1.00  0.00     0.278 C 
HETATM    3  C9  UNL     1      10.179 -17.790 -21.006  1.00  0.00     0.048 C 
HETATM    4  C10 UNL     1      10.969 -16.736 -21.782  1.00  0.00     0.054 C 
HETATM    5  C11 UNL     1      10.101 -16.434 -23.010  1.00  0.00     0.026 C 
HETATM    6  C12 UNL     1      10.402 -15.068 -23.515  1.00  0.00     0.042 C 
HETATM    7  C13 UNL     1       9.727 -14.754 -24.813  1.00  0.00     0.012 C 
HETATM    8  C14 UNL     1       8.284 -14.396 -24.724  1.00  0.00     0.032 C 
HETATM    9  C15 UNL     1       8.113 -13.382 -23.609  1.00  0.00     0.125 C 
HETATM   10  O2  UNL     1       8.563 -14.023 -22.445  1.00  0.00    -0.356 OA
HETATM   11  C21 UNL     1       9.980 -14.115 -22.415  1.00  0.00     0.267 C 
HETATM   12  O3  UNL     1      10.307 -14.472 -21.179  1.00  0.00    -0.318 OA
HETATM   13  C22 UNL     1      11.083 -15.548 -20.886  1.00  0.00     0.302 C 
HETATM   14  C23 UNL     1      12.482 -15.031 -20.732  1.00  0.00     0.219 C 
HETATM   15  C25 UNL     1      13.526 -16.131 -20.695  1.00  0.00     0.183 C 
HETATM   16  C26 UNL     1      13.493 -16.673 -22.133  1.00  0.00     0.186 C 
HETATM   17  O6  UNL     1      14.445 -17.683 -22.303  1.00  0.00    -0.345 OA
HETATM   18  C27 UNL     1      13.767 -18.882 -22.155  1.00  0.00     0.158 C 
HETATM   19  C28 UNL     1      14.513 -19.705 -21.099  1.00  0.00     0.078 C 
HETATM   20  C29 UNL     1      13.702 -19.695 -23.419  1.00  0.00     0.078 C 
HETATM   21  O7  UNL     1      12.518 -18.607 -21.635  1.00  0.00    -0.347 OA
HETATM   22  C30 UNL     1      12.200 -17.383 -22.274  1.00  0.00     0.170 C 
ENDROOT
BRANCH   1  23
HETATM   23  C7  UNL     1       9.856 -14.963 -18.907  1.00  0.00     0.311 C 
BRANCH  23  24
HETATM   24  C4  UNL     1       9.925 -14.805 -17.456  1.00  0.00    -0.047 C 
BRANCH  24  25
HETATM   25  C2  UNL     1       8.709 -15.145 -16.677  1.00  0.00    -0.067 C 
HETATM   26  C1  UNL     1       8.449 -16.337 -16.171  1.00  0.00     0.018 C 
HETATM   27  C3  UNL     1       7.654 -14.087 -16.444  1.00  0.00     0.047 C 
ENDBRANCH  24  25
BRANCH  24  28
HETATM   28  C5  UNL     1      10.655 -13.602 -16.916  1.00  0.00     0.032 C 
HETATM   29  C6  UNL     1      11.149 -13.909 -15.518  1.00  0.00     0.010 C 
ENDBRANCH  24  28
ENDBRANCH  23  24
ENDBRANCH   1  23
BRANCH  14  30
HETATM   30  O4  UNL     1      12.634 -14.133 -19.717  1.00  0.00    -0.383 OA
HETATM   31  C24 UNL     1      13.946 -13.721 -19.524  1.00  0.00     0.202 C 
ENDBRANCH  14  30
BRANCH  15  32
HETATM   32  O5  UNL     1      13.223 -17.151 -19.825  1.00  0.00    -0.390 OA
ATOM     33  H5  UNL     1      13.248 -18.013 -20.224  1.00  0.00     0.210 HD
ENDBRANCH  15  32
BRANCH   9  34
HETATM   34  C16 UNL     1       6.665 -13.106 -23.390  1.00  0.00     0.041 C 
BRANCH  34  35
HETATM   35  C17 UNL     1       6.140 -13.837 -22.199  1.00  0.00     0.105 C 
BRANCH  35  36
HETATM   36  C18 UNL     1       5.003 -14.730 -22.453  1.00  0.00     0.219 C 
HETATM   37  O1  UNL     1       3.874 -14.271 -22.706  1.00  0.00    -0.273 OA
HETATM   38  N2  UNL     1       5.188 -16.128 -22.408  1.00  0.00    -0.361 N 
HETATM   39  C19 UNL     1       6.462 -16.728 -22.118  1.00  0.00     0.152 C 
HETATM   40  C20 UNL     1       4.054 -17.023 -22.664  1.00  0.00     0.152 C 
ENDBRANCH  35  36
ENDBRANCH  34  35
ENDBRANCH   9  34
TORSDOF 9
ENDMDL
MODEL 4
REMARK VINA RESULT: -7.431978596      2.964      6.700
REMARK  9 active torsions:
REMARK  status: ('A' for Active; 'I' for Inactive)
REMARK    1  A    between atoms: C2_2  and  C4_4 
REMARK    2  A    between atoms: C4_4  and  C5_5 
REMARK    3  A    between atoms: C4_4  and  C7_7 
REMARK    4  A    between atoms: C7_7  and  N1_8 
REMARK    5  A    between atoms: C15_16  and  C16_17 
REMARK    6  A    between atoms: C16_17  and  C17_18 
REMARK    7  A    between atoms: C17_18  and  C18_19 
REMARK       I    between atoms: C18_19  and  N2_21 
REMARK    8  A    between atoms: C23_28  and  O4_29 
REMARK    9  A    between atoms: C25_31  and  O5_32 
ROOT
HETATM    1  N1  UNL     1       9.310 -15.922 -19.432  1.00  0.00     0.131 N 
HETATM    2  C8  UNL     1       8.297 -16.897 -19.691  1.00  0.00     0.278 C 
HETATM    3  C9  UNL     1       8.656 -17.655 -20.932  1.00  0.00     0.048 C 
HETATM    4  C10 UNL     1       9.749 -16.823 -21.604  1.00  0.00     0.054 C 
HETATM    5  C11 UNL     1       9.134 -16.392 -22.941  1.00  0.00     0.026 C 
HETATM    6  C12 UNL     1       9.785 -15.141 -23.414  1.00  0.00     0.042 C 
HETATM    7  C13 UNL     1       9.369 -14.741 -24.794  1.00  0.00     0.012 C 
HETATM    8  C14 UNL     1       8.038 -14.082 -24.905  1.00  0.00     0.032 C 
HETATM    9  C15 UNL     1       7.946 -13.013 -23.834  1.00  0.00     0.125 C 
HETATM   10  O2  UNL     1       8.092 -13.689 -22.613  1.00  0.00    -0.356 OA
HETATM   11  C21 UNL     1       9.439 -14.078 -22.391  1.00  0.00     0.267 C 
HETATM   12  O3  UNL     1       9.517 -14.449 -21.118  1.00  0.00    -0.318 OA
HETATM   13  C22 UNL     1       9.998 -15.653 -20.713  1.00  0.00     0.302 C 
HETATM   14  C23 UNL     1      11.444 -15.439 -20.375  1.00  0.00     0.219 C 
HETATM   15  C25 UNL     1      12.212 -16.733 -20.186  1.00  0.00     0.183 C 
HETATM   16  C26 UNL     1      12.251 -17.311 -21.610  1.00  0.00     0.186 C 
HETATM   17  O6  UNL     1      12.977 -18.506 -21.639  1.00  0.00    -0.345 OA
HETATM   18  C27 UNL     1      12.043 -19.527 -21.574  1.00  0.00     0.158 C 
HETATM   19  C28 UNL     1      12.450 -20.448 -20.418  1.00  0.00     0.078 C 
HETATM   20  C29 UNL     1      11.969 -20.355 -22.826  1.00  0.00     0.078 C 
HETATM   21  O7  UNL     1      10.826 -18.973 -21.231  1.00  0.00    -0.347 OA
HETATM   22  C30 UNL     1      10.865 -17.735 -21.918  1.00  0.00     0.170 C 
ENDROOT
BRANCH   1  23
HETATM   23  C7  UNL     1       8.679 -14.744 -18.924  1.00  0.00     0.311 C 
BRANCH  23  24
HETATM   24  C4  UNL     1       8.727 -14.472 -17.489  1.00  0.00    -0.047 C 
BRANCH  24  25
HETATM   25  C2  UNL     1       8.931 -13.063 -17.072  1.00  0.00    -0.067 C 
HETATM   26  C1  UNL     1       9.723 -12.676 -16.088  1.00  0.00     0.018 C 
HETATM   27  C3  UNL     1       8.178 -11.959 -17.781  1.00  0.00     0.047 C 
ENDBRANCH  24  25
BRANCH  24  28
HETATM   28  C5  UNL     1       9.454 -15.459 -16.611  1.00  0.00     0.032 C 
HETATM   29  C6  UNL     1       8.445 -16.393 -15.978  1.00  0.00     0.010 C 
ENDBRANCH  24  28
ENDBRANCH  23  24
ENDBRANCH   1  23
BRANCH  14  30
HETATM   30  O4  UNL     1      11.652 -14.555 -19.357  1.00  0.00    -0.383 OA
HETATM   31  C24 UNL     1      12.978 -14.468 -18.953  1.00  0.00     0.202 C 
ENDBRANCH  14  30
BRANCH  15  32
HETATM   32  O5  UNL     1      11.586 -17.631 -19.356  1.00  0.00    -0.390 OA
ATOM     33  H5  UNL     1      11.743 -17.471 -18.433  1.00  0.00     0.210 HD
ENDBRANCH  15  32
BRANCH   9  34
HETATM   34  C16 UNL     1       6.576 -12.427 -23.816  1.00  0.00     0.041 C 
BRANCH  34  35
HETATM   35  C17 UNL     1       5.571 -13.360 -24.404  1.00  0.00     0.105 C 
BRANCH  35  36
HETATM   36  C18 UNL     1       4.806 -14.159 -23.439  1.00  0.00     0.219 C 
HETATM   37  O1  UNL     1       4.476 -13.686 -22.336  1.00  0.00    -0.273 OA
HETATM   38  N2  UNL     1       4.438 -15.483 -23.762  1.00  0.00    -0.361 N 
HETATM   39  C19 UNL     1       4.789 -16.096 -25.015  1.00  0.00     0.152 C 
HETATM   40  C20 UNL     1       3.671 -16.282 -22.801  1.00  0.00     0.152 C 
ENDBRANCH  35  36
ENDBRANCH  34  35
ENDBRANCH   9  34
TORSDOF 9
ENDMDL
MODEL 5
REMARK VINA RESULT: -7.333023073      3.243      6.181
REMARK  9 active torsions:
REMARK  status: ('A' for Active; 'I' for Inactive)
REMARK    1  A    between atoms: C2_2  and  C4_4 
REMARK    2  A    between atoms: C4_4  and  C5_5 
REMARK    3  A    between atoms: C4_4  and  C7_7 
REMARK    4  A    between atoms: C7_7  and  N1_8 
REMARK    5  A    between atoms: C15_16  and  C16_17 
REMARK    6  A    between atoms: C16_17  and  C17_18 
REMARK    7  A    between atoms: C17_18  and  C18_19 
REMARK       I    between atoms: C18_19  and  N2_21 
REMARK    8  A    between atoms: C23_28  and  O4_29 
REMARK    9  A    between atoms: C25_31  and  O5_32 
ROOT
HETATM    1  N1  UNL     1       9.474 -15.233 -20.034  1.00  0.00     0.131 N 
HETATM    2  C8  UNL     1      10.201 -15.432 -21.248  1.00  0.00     0.278 C 
HETATM    3  C9  UNL     1       9.242 -15.421 -22.399  1.00  0.00     0.048 C 
HETATM    4  C10 UNL     1       7.859 -15.578 -21.765  1.00  0.00     0.054 C 
HETATM    5  C11 UNL     1       7.338 -16.914 -22.309  1.00  0.00     0.026 C 
HETATM    6  C12 UNL     1       6.336 -17.484 -21.369  1.00  0.00     0.042 C 
HETATM    7  C13 UNL     1       5.647 -18.700 -21.902  1.00  0.00     0.012 C 
HETATM    8  C14 UNL     1       6.424 -19.968 -21.833  1.00  0.00     0.032 C 
HETATM    9  C15 UNL     1       7.023 -20.084 -20.445  1.00  0.00     0.125 C 
HETATM   10  O2  UNL     1       7.849 -18.959 -20.296  1.00  0.00    -0.356 OA
HETATM   11  C21 UNL     1       7.088 -17.778 -20.087  1.00  0.00     0.267 C 
HETATM   12  O3  UNL     1       7.945 -16.845 -19.688  1.00  0.00    -0.318 OA
HETATM   13  C22 UNL     1       8.073 -15.634 -20.290  1.00  0.00     0.302 C 
HETATM   14  C23 UNL     1       7.215 -14.682 -19.511  1.00  0.00     0.219 C 
HETATM   15  C25 UNL     1       7.006 -13.354 -20.213  1.00  0.00     0.183 C 
HETATM   16  C26 UNL     1       6.126 -13.742 -21.411  1.00  0.00     0.186 C 
HETATM   17  O6  UNL     1       5.785 -12.612 -22.162  1.00  0.00    -0.345 OA
HETATM   18  C27 UNL     1       6.681 -12.566 -23.218  1.00  0.00     0.158 C 
HETATM   19  C28 UNL     1       7.315 -11.170 -23.221  1.00  0.00     0.078 C 
HETATM   20  C29 UNL     1       6.039 -12.788 -24.559  1.00  0.00     0.078 C 
HETATM   21  O7  UNL     1       7.696 -13.463 -22.959  1.00  0.00    -0.347 OA
HETATM   22  C30 UNL     1       6.997 -14.519 -22.324  1.00  0.00     0.170 C 
ENDROOT
BRANCH   1  23
HETATM   23  C7  UNL     1      10.068 -16.042 -19.016  1.00  0.00     0.311 C 
BRANCH  23  24
HETATM   24  C4  UNL     1      10.949 -15.417 -18.032  1.00  0.00    -0.047 C 
BRANCH  24  25
HETATM   25  C2  UNL     1      10.391 -15.172 -16.680  1.00  0.00    -0.067 C 
HETATM   26  C1  UNL     1       9.474 -15.923 -16.097  1.00  0.00     0.018 C 
HETATM   27  C3  UNL     1      10.858 -13.971 -15.887  1.00  0.00     0.047 C 
ENDBRANCH  24  25
BRANCH  24  28
HETATM   28  C5  UNL     1      11.857 -14.311 -18.506  1.00  0.00     0.032 C 
HETATM   29  C6  UNL     1      13.131 -14.917 -19.055  1.00  0.00     0.010 C 
ENDBRANCH  24  28
ENDBRANCH  23  24
ENDBRANCH   1  23
BRANCH  14  30
HETATM   30  O4  UNL     1       7.593 -14.531 -18.209  1.00  0.00    -0.383 OA
HETATM   31  C24 UNL     1       6.970 -13.470 -17.564  1.00  0.00     0.202 C 
ENDBRANCH  14  30
BRANCH  15  32
HETATM   32  O5  UNL     1       8.168 -12.785 -20.676  1.00  0.00    -0.390 OA
ATOM     33  H5  UNL     1       8.262 -12.824 -21.621  1.00  0.00     0.210 HD
ENDBRANCH  15  32
BRANCH   9  34
HETATM   34  C16 UNL     1       7.928 -21.266 -20.377  1.00  0.00     0.041 C 
BRANCH  34  35
HETATM   35  C17 UNL     1       9.193 -21.034 -21.134  1.00  0.00     0.105 C 
BRANCH  35  36
HETATM   36  C18 UNL     1      10.433 -21.295 -20.393  1.00  0.00     0.219 C 
HETATM   37  O1  UNL     1      10.613 -22.380 -19.808  1.00  0.00    -0.273 OA
HETATM   38  N2  UNL     1      11.437 -20.305 -20.338  1.00  0.00    -0.361 N 
HETATM   39  C19 UNL     1      11.296 -19.028 -20.985  1.00  0.00     0.152 C 
HETATM   40  C20 UNL     1      12.678 -20.564 -19.601  1.00  0.00     0.152 C 
ENDBRANCH  35  36
ENDBRANCH  34  35
ENDBRANCH   9  34
TORSDOF 9
ENDMDL
