MODEL 1
REMARK VINA RESULT: -6.976391524      0.000      0.000
REMARK  10 active torsions:
REMARK  status: ('A' for Active; 'I' for Inactive)
REMARK       I    between atoms: N2_5  and  C4_6 
REMARK    1  A    between atoms: C4_6  and  O2_8 
REMARK    2  A    between atoms: O2_8  and  C5_9 
REMARK    3  A    between atoms: C5_9  and  C6_10 
REMARK    4  A    between atoms: C6_10  and  O3_11 
REMARK    5  A    between atoms: O3_11  and  C7_12 
REMARK    6  A    between atoms: C7_12  and  C8_13 
REMARK    7  A    between atoms: C8_13  and  O4_14 
REMARK    8  A    between atoms: O4_14  and  C9_15 
REMARK    9  A    between atoms: C26_34  and  C28_36 
REMARK   10  A    between atoms: C28_36  and  O7_37 
ROOT
HETATM    1  C9  UNL     1       7.657 -13.538 -20.254  1.00  0.00     0.132 C 
HETATM    2  C10 UNL     1       7.854 -12.371 -21.278  1.00  0.00     0.034 C 
HETATM    3  C11 UNL     1       7.261 -12.669 -22.597  1.00  0.00     0.012 C 
HETATM    4  C12 UNL     1       6.529 -13.967 -22.738  1.00  0.00    -0.035 C 
HETATM    5  C13 UNL     1       5.091 -13.658 -22.242  1.00  0.00     0.016 C 
HETATM    6  C14 UNL     1       6.358 -14.204 -24.232  1.00  0.00     0.006 C 
HETATM    7  C15 UNL     1       7.549 -13.954 -25.061  1.00  0.00     0.007 C 
HETATM    8  C16 UNL     1       7.687 -14.730 -26.312  1.00  0.00     0.012 C 
HETATM    9  C17 UNL     1       6.533 -15.520 -26.787  1.00  0.00    -0.016 C 
HETATM   10  C18 UNL     1       7.000 -16.882 -27.332  1.00  0.00     0.018 C 
HETATM   11  C19 UNL     1       5.852 -14.849 -27.985  1.00  0.00     0.177 C 
HETATM   12  O5  UNL     1       4.490 -15.029 -27.782  1.00  0.00    -0.390 OA
HETATM   13  C20 UNL     1       4.314 -14.887 -26.387  1.00  0.00     0.173 C 
HETATM   14  C21 UNL     1       5.415 -15.746 -25.863  1.00  0.00     0.031 C 
HETATM   15  C22 UNL     1       5.708 -15.530 -24.410  1.00  0.00     0.067 C 
HETATM   16  C23 UNL     1       6.495 -16.630 -23.875  1.00  0.00     0.132 C 
HETATM   17  O6  UNL     1       6.451 -17.721 -24.412  1.00  0.00    -0.298 OA
HETATM   18  C24 UNL     1       7.346 -16.381 -22.663  1.00  0.00     0.085 C 
HETATM   19  C25 UNL     1       7.031 -15.116 -21.947  1.00  0.00     0.014 C 
HETATM   20  C26 UNL     1       8.133 -14.771 -20.950  1.00  0.00     0.008 C 
HETATM   21  C27 UNL     1       9.493 -14.629 -21.562  1.00  0.00     0.020 C 
ENDROOT
BRANCH   1  22
HETATM   22  O4  UNL     1       8.471 -13.204 -19.195  1.00  0.00    -0.383 OA
BRANCH  22  23
HETATM   23  C8  UNL     1       7.859 -12.696 -18.072  1.00  0.00     0.194 C 
BRANCH  23  24
HETATM   24  C7  UNL     1       8.195 -13.359 -16.779  1.00  0.00     0.193 C 
BRANCH  24  25
HETATM   25  O3  UNL     1       7.948 -14.633 -16.652  1.00  0.00    -0.387 OA
BRANCH  25  26
HETATM   26  C6  UNL     1       8.609 -15.649 -16.197  1.00  0.00     0.194 C 
BRANCH  26  27
HETATM   27  C5  UNL     1      10.103 -15.631 -16.077  1.00  0.00     0.207 C 
BRANCH  27  28
HETATM   28  O2  UNL     1      10.769 -15.662 -17.339  1.00  0.00    -0.302 OA
BRANCH  28  29
HETATM   29  C4  UNL     1      11.692 -14.764 -17.794  1.00  0.00     0.362 C 
HETATM   30  N2  UNL     1      12.520 -15.109 -18.899  1.00  0.00    -0.325 N 
HETATM   31  C3  UNL     1      12.359 -16.401 -19.507  1.00  0.00     0.158 C 
HETATM   32  C29 UNL     1      13.484 -14.131 -19.351  1.00  0.00     0.158 C 
HETATM   33  C2  UNL     1      13.236 -16.519 -20.749  1.00  0.00     0.291 C 
HETATM   34  N1  UNL     1      13.082 -15.283 -21.486  1.00  0.00     0.087 N 
HETATM   35  C1  UNL     1      13.543 -15.361 -22.842  1.00  0.00     0.310 C 
HETATM   36  C30 UNL     1      13.859 -14.275 -20.788  1.00  0.00     0.291 C 
HETATM   37  O1  UNL     1      11.802 -13.635 -17.230  1.00  0.00    -0.238 OA
ENDBRANCH  28  29
ENDBRANCH  27  28
ENDBRANCH  26  27
ENDBRANCH  25  26
ENDBRANCH  24  25
ENDBRANCH  23  24
ENDBRANCH  22  23
ENDBRANCH   1  22
BRANCH  20  38
HETATM   38  C28 UNL     1       8.283 -15.869 -19.923  1.00  0.00     0.176 C 
BRANCH  38  39
HETATM   39  O7  UNL     1       7.109 -16.057 -19.156  1.00  0.00    -0.400 OA
ATOM     40  H7  UNL     1       6.349 -16.247 -19.695  1.00  0.00     0.209 HD
ENDBRANCH  38  39
ENDBRANCH  20  38
TORSDOF 10
ENDMDL
MODEL 2
REMARK VINA RESULT: -6.774543292      1.982      3.861
REMARK  10 active torsions:
REMARK  status: ('A' for Active; 'I' for Inactive)
REMARK       I    between atoms: N2_5  and  C4_6 
REMARK    1  A    between atoms: C4_6  and  O2_8 
REMARK    2  A    between atoms: O2_8  and  C5_9 
REMARK    3  A    between atoms: C5_9  and  C6_10 
REMARK    4  A    between atoms: C6_10  and  O3_11 
REMARK    5  A    between atoms: O3_11  and  C7_12 
REMARK    6  A    between atoms: C7_12  and  C8_13 
REMARK    7  A    between atoms: C8_13  and  O4_14 
REMARK    8  A    between atoms: O4_14  and  C9_15 
REMARK    9  A    between atoms: C26_34  and  C28_36 
REMARK   10  A    between atoms: C28_36  and  O7_37 
ROOT
HETATM    1  C9  UNL     1       8.663 -14.320 -17.961  1.00  0.00     0.132 C 
HETATM    2  C10 UNL     1       8.034 -15.684 -18.403  1.00  0.00     0.034 C 
HETATM    3  C11 UNL     1       7.865 -15.780 -19.867  1.00  0.00     0.012 C 
HETATM    4  C12 UNL     1       8.360 -14.632 -20.688  1.00  0.00    -0.035 C 
HETATM    5  C13 UNL     1       9.865 -14.936 -20.915  1.00  0.00     0.016 C 
HETATM    6  C14 UNL     1       7.742 -14.792 -22.070  1.00  0.00     0.006 C 
HETATM    7  C15 UNL     1       6.309 -15.132 -22.095  1.00  0.00     0.007 C 
HETATM    8  C16 UNL     1       5.520 -14.685 -23.262  1.00  0.00     0.012 C 
HETATM    9  C17 UNL     1       6.236 -14.148 -24.438  1.00  0.00    -0.016 C 
HETATM   10  C18 UNL     1       5.491 -12.928 -25.012  1.00  0.00     0.018 C 
HETATM   11  C19 UNL     1       6.251 -15.156 -25.592  1.00  0.00     0.177 C 
HETATM   12  O5  UNL     1       7.519 -15.056 -26.151  1.00  0.00    -0.390 OA
HETATM   13  C20 UNL     1       8.382 -14.860 -25.048  1.00  0.00     0.173 C 
HETATM   14  C21 UNL     1       7.655 -13.800 -24.291  1.00  0.00     0.031 C 
HETATM   15  C22 UNL     1       8.147 -13.618 -22.888  1.00  0.00     0.067 C 
HETATM   16  C23 UNL     1       7.684 -12.352 -22.342  1.00  0.00     0.132 C 
HETATM   17  O6  UNL     1       7.397 -11.439 -23.093  1.00  0.00    -0.298 OA
HETATM   18  C24 UNL     1       7.574 -12.211 -20.850  1.00  0.00     0.085 C 
HETATM   19  C25 UNL     1       8.270 -13.280 -20.085  1.00  0.00     0.014 C 
HETATM   20  C26 UNL     1       7.841 -13.262 -18.621  1.00  0.00     0.008 C 
HETATM   21  C27 UNL     1       6.366 -13.428 -18.411  1.00  0.00     0.020 C 
ENDROOT
BRANCH   1  22
HETATM   22  O4  UNL     1       8.512 -14.302 -16.592  1.00  0.00    -0.383 OA
BRANCH  22  23
HETATM   23  C8  UNL     1       9.538 -14.834 -15.844  1.00  0.00     0.194 C 
BRANCH  23  24
HETATM   24  C7  UNL     1      10.828 -14.084 -15.863  1.00  0.00     0.193 C 
BRANCH  24  25
HETATM   25  O3  UNL     1      11.627 -14.250 -16.879  1.00  0.00    -0.387 OA
BRANCH  25  26
HETATM   26  C6  UNL     1      11.844 -15.209 -17.722  1.00  0.00     0.194 C 
BRANCH  26  27
HETATM   27  C5  UNL     1      12.845 -15.075 -18.830  1.00  0.00     0.207 C 
BRANCH  27  28
HETATM   28  O2  UNL     1      13.125 -13.720 -19.174  1.00  0.00    -0.302 OA
BRANCH  28  29
HETATM   29  C4  UNL     1      14.287 -13.240 -19.707  1.00  0.00     0.362 C 
HETATM   30  N2  UNL     1      14.453 -13.216 -21.121  1.00  0.00    -0.325 N 
HETATM   31  C3  UNL     1      13.385 -13.703 -21.951  1.00  0.00     0.158 C 
HETATM   32  C29 UNL     1      15.697 -12.700 -21.646  1.00  0.00     0.158 C 
HETATM   33  C2  UNL     1      13.703 -13.465 -23.423  1.00  0.00     0.291 C 
HETATM   34  N1  UNL     1      14.221 -12.118 -23.525  1.00  0.00     0.087 N 
HETATM   35  C1  UNL     1      14.231 -11.606 -24.864  1.00  0.00     0.310 C 
HETATM   36  C30 UNL     1      15.585 -12.150 -23.029  1.00  0.00     0.291 C 
HETATM   37  O1  UNL     1      15.204 -12.819 -18.941  1.00  0.00    -0.238 OA
ENDBRANCH  28  29
ENDBRANCH  27  28
ENDBRANCH  26  27
ENDBRANCH  25  26
ENDBRANCH  24  25
ENDBRANCH  23  24
ENDBRANCH  22  23
ENDBRANCH   1  22
BRANCH  20  38
HETATM   38  C28 UNL     1       8.176 -11.933 -17.985  1.00  0.00     0.176 C 
BRANCH  38  39
HETATM   39  O7  UNL     1       9.476 -11.911 -17.430  1.00  0.00    -0.400 OA
ATOM     40  H7  UNL     1      10.006 -11.202 -17.773  1.00  0.00     0.209 HD
ENDBRANCH  38  39
ENDBRANCH  20  38
TORSDOF 10
ENDMDL
MODEL 3
REMARK VINA RESULT: -6.671674576      0.893      1.058
REMARK  10 active torsions:
REMARK  status: ('A' for Active; 'I' for Inactive)
REMARK       I    between atoms: N2_5  and  C4_6 
REMARK    1  A    between atoms: C4_6  and  O2_8 
REMARK    2  A    between atoms: O2_8  and  C5_9 
REMARK    3  A    between atoms: C5_9  and  C6_10 
REMARK    4  A    between atoms: C6_10  and  O3_11 
REMARK    5  A    between atoms: O3_11  and  C7_12 
REMARK    6  A    between atoms: C7_12  and  C8_13 
REMARK    7  A    between atoms: C8_13  and  O4_14 
REMARK    8  A    between atoms: O4_14  and  C9_15 
REMARK    9  A    between atoms: C26_34  and  C28_36 
REMARK   10  A    between atoms: C28_36  and  O7_37 
ROOT
HETATM    1  C9  UNL     1       7.557 -13.455 -20.334  1.00  0.00     0.132 C 
HETATM    2  C10 UNL     1       7.665 -12.309 -21.395  1.00  0.00     0.034 C 
HETATM    3  C11 UNL     1       7.030 -12.664 -22.679  1.00  0.00     0.012 C 
HETATM    4  C12 UNL     1       6.344 -13.993 -22.756  1.00  0.00    -0.035 C 
HETATM    5  C13 UNL     1       4.918 -13.726 -22.207  1.00  0.00     0.016 C 
HETATM    6  C14 UNL     1       6.121 -14.277 -24.234  1.00  0.00     0.006 C 
HETATM    7  C15 UNL     1       7.266 -14.004 -25.120  1.00  0.00     0.007 C 
HETATM    8  C16 UNL     1       7.382 -14.807 -26.355  1.00  0.00     0.012 C 
HETATM    9  C17 UNL     1       6.240 -15.653 -26.761  1.00  0.00    -0.016 C 
HETATM   10  C18 UNL     1       6.738 -17.011 -27.291  1.00  0.00     0.018 C 
HETATM   11  C19 UNL     1       5.485 -15.041 -27.945  1.00  0.00     0.177 C 
HETATM   12  O5  UNL     1       4.140 -15.268 -27.680  1.00  0.00    -0.390 OA
HETATM   13  C20 UNL     1       4.017 -15.095 -26.283  1.00  0.00     0.173 C 
HETATM   14  C21 UNL     1       5.172 -15.897 -25.784  1.00  0.00     0.031 C 
HETATM   15  C22 UNL     1       5.516 -15.631 -24.351  1.00  0.00     0.067 C 
HETATM   16  C23 UNL     1       6.368 -16.685 -23.823  1.00  0.00     0.132 C 
HETATM   17  O6  UNL     1       6.344 -17.792 -24.329  1.00  0.00    -0.298 OA
HETATM   18  C24 UNL     1       7.258 -16.371 -22.655  1.00  0.00     0.085 C 
HETATM   19  C25 UNL     1       6.924 -15.101 -21.958  1.00  0.00     0.014 C 
HETATM   20  C26 UNL     1       8.052 -14.687 -21.018  1.00  0.00     0.008 C 
HETATM   21  C27 UNL     1       9.379 -14.510 -21.691  1.00  0.00     0.020 C 
ENDROOT
BRANCH   1  22
HETATM   22  O4  UNL     1       8.401 -13.062 -19.319  1.00  0.00    -0.383 OA
BRANCH  22  23
HETATM   23  C8  UNL     1       7.820 -12.502 -18.205  1.00  0.00     0.194 C 
BRANCH  23  24
HETATM   24  C7  UNL     1       7.547 -13.426 -17.066  1.00  0.00     0.193 C 
BRANCH  24  25
HETATM   25  O3  UNL     1       8.521 -13.705 -16.246  1.00  0.00    -0.387 OA
BRANCH  25  26
HETATM   26  C6  UNL     1       9.683 -13.190 -16.002  1.00  0.00     0.194 C 
BRANCH  26  27
HETATM   27  C5  UNL     1      10.914 -14.038 -15.884  1.00  0.00     0.207 C 
BRANCH  27  28
HETATM   28  O2  UNL     1      11.131 -14.874 -17.019  1.00  0.00    -0.302 OA
BRANCH  28  29
HETATM   29  C4  UNL     1      12.037 -14.667 -18.020  1.00  0.00     0.362 C 
HETATM   30  N2  UNL     1      12.298 -15.708 -18.956  1.00  0.00    -0.325 N 
HETATM   31  C3  UNL     1      11.596 -16.955 -18.818  1.00  0.00     0.158 C 
HETATM   32  C29 UNL     1      13.263 -15.449 -20.001  1.00  0.00     0.158 C 
HETATM   33  C2  UNL     1      11.914 -17.878 -19.989  1.00  0.00     0.291 C 
HETATM   34  N1  UNL     1      11.844 -17.070 -21.187  1.00  0.00     0.087 N 
HETATM   35  C1  UNL     1      11.758 -17.838 -22.394  1.00  0.00     0.310 C 
HETATM   36  C30 UNL     1      13.055 -16.270 -21.230  1.00  0.00     0.291 C 
HETATM   37  O1  UNL     1      12.634 -13.553 -18.108  1.00  0.00    -0.238 OA
ENDBRANCH  28  29
ENDBRANCH  27  28
ENDBRANCH  26  27
ENDBRANCH  25  26
ENDBRANCH  24  25
ENDBRANCH  23  24
ENDBRANCH  22  23
ENDBRANCH   1  22
BRANCH  20  38
HETATM   38  C28 UNL     1       8.287 -15.750 -19.971  1.00  0.00     0.176 C 
BRANCH  38  39
HETATM   39  O7  UNL     1       7.144 -15.984 -19.171  1.00  0.00    -0.400 OA
ATOM     40  H7  UNL     1       6.415 -15.422 -19.404  1.00  0.00     0.209 HD
ENDBRANCH  38  39
ENDBRANCH  20  38
TORSDOF 10
ENDMDL
MODEL 4
REMARK VINA RESULT: -6.593899139      2.416      4.203
REMARK  10 active torsions:
REMARK  status: ('A' for Active; 'I' for Inactive)
REMARK       I    between atoms: N2_5  and  C4_6 
REMARK    1  A    between atoms: C4_6  and  O2_8 
REMARK    2  A    between atoms: O2_8  and  C5_9 
REMARK    3  A    between atoms: C5_9  and  C6_10 
REMARK    4  A    between atoms: C6_10  and  O3_11 
REMARK    5  A    between atoms: O3_11  and  C7_12 
REMARK    6  A    between atoms: C7_12  and  C8_13 
REMARK    7  A    between atoms: C8_13  and  O4_14 
REMARK    8  A    between atoms: O4_14  and  C9_15 
REMARK    9  A    between atoms: C26_34  and  C28_36 
REMARK   10  A    between atoms: C28_36  and  O7_37 
ROOT
HETATM    1  C9  UNL     1       8.697 -14.341 -17.961  1.00  0.00     0.132 C 
HETATM    2  C10 UNL     1       8.078 -15.705 -18.416  1.00  0.00     0.034 C 
HETATM    3  C11 UNL     1       7.906 -15.786 -19.880  1.00  0.00     0.012 C 
HETATM    4  C12 UNL     1       8.388 -14.624 -20.690  1.00  0.00    -0.035 C 
HETATM    5  C13 UNL     1       9.895 -14.911 -20.925  1.00  0.00     0.016 C 
HETATM    6  C14 UNL     1       7.767 -14.774 -22.071  1.00  0.00     0.006 C 
HETATM    7  C15 UNL     1       6.337 -15.126 -22.096  1.00  0.00     0.007 C 
HETATM    8  C16 UNL     1       5.541 -14.673 -23.256  1.00  0.00     0.012 C 
HETATM    9  C17 UNL     1       6.249 -14.116 -24.428  1.00  0.00    -0.016 C 
HETATM   10  C18 UNL     1       5.490 -12.896 -24.986  1.00  0.00     0.018 C 
HETATM   11  C19 UNL     1       6.269 -15.111 -25.593  1.00  0.00     0.177 C 
HETATM   12  O5  UNL     1       7.534 -14.993 -26.155  1.00  0.00    -0.390 OA
HETATM   13  C20 UNL     1       8.399 -14.802 -25.053  1.00  0.00     0.173 C 
HETATM   14  C21 UNL     1       7.665 -13.757 -24.281  1.00  0.00     0.031 C 
HETATM   15  C22 UNL     1       8.159 -13.586 -22.878  1.00  0.00     0.067 C 
HETATM   16  C23 UNL     1       7.686 -12.332 -22.315  1.00  0.00     0.132 C 
HETATM   17  O6  UNL     1       7.389 -11.412 -23.055  1.00  0.00    -0.298 OA
HETATM   18  C24 UNL     1       7.580 -12.209 -20.822  1.00  0.00     0.085 C 
HETATM   19  C25 UNL     1       8.288 -13.279 -20.071  1.00  0.00     0.014 C 
HETATM   20  C26 UNL     1       7.862 -13.283 -18.605  1.00  0.00     0.008 C 
HETATM   21  C27 UNL     1       6.390 -13.464 -18.393  1.00  0.00     0.020 C 
ENDROOT
BRANCH   1  22
HETATM   22  O4  UNL     1       8.550 -14.340 -16.591  1.00  0.00    -0.383 OA
BRANCH  22  23
HETATM   23  C8  UNL     1       9.565 -14.905 -15.854  1.00  0.00     0.194 C 
BRANCH  23  24
HETATM   24  C7  UNL     1      10.824 -14.112 -15.745  1.00  0.00     0.193 C 
BRANCH  24  25
HETATM   25  O3  UNL     1      11.643 -14.105 -16.759  1.00  0.00    -0.387 OA
BRANCH  25  26
HETATM   26  C6  UNL     1      11.793 -14.839 -17.814  1.00  0.00     0.194 C 
BRANCH  26  27
HETATM   27  C5  UNL     1      13.084 -14.872 -18.576  1.00  0.00     0.207 C 
BRANCH  27  28
HETATM   28  O2  UNL     1      13.532 -13.579 -18.980  1.00  0.00    -0.302 OA
BRANCH  28  29
HETATM   29  C4  UNL     1      14.046 -13.241 -20.199  1.00  0.00     0.362 C 
HETATM   30  N2  UNL     1      15.314 -12.599 -20.272  1.00  0.00    -0.325 N 
HETATM   31  C3  UNL     1      16.020 -12.322 -19.051  1.00  0.00     0.158 C 
HETATM   32  C29 UNL     1      15.823 -12.257 -21.582  1.00  0.00     0.158 C 
HETATM   33  C2  UNL     1      17.405 -11.760 -19.353  1.00  0.00     0.291 C 
HETATM   34  N1  UNL     1      17.963 -12.574 -20.412  1.00  0.00     0.087 N 
HETATM   35  C1  UNL     1      19.380 -12.420 -20.569  1.00  0.00     0.310 C 
HETATM   36  C30 UNL     1      17.311 -12.168 -21.644  1.00  0.00     0.291 C 
HETATM   37  O1  UNL     1      13.391 -13.503 -21.252  1.00  0.00    -0.238 OA
ENDBRANCH  28  29
ENDBRANCH  27  28
ENDBRANCH  26  27
ENDBRANCH  25  26
ENDBRANCH  24  25
ENDBRANCH  23  24
ENDBRANCH  22  23
ENDBRANCH   1  22
BRANCH  20  38
HETATM   38  C28 UNL     1       8.188 -11.958 -17.956  1.00  0.00     0.176 C 
BRANCH  38  39
HETATM   39  O7  UNL     1       9.495 -11.926 -17.417  1.00  0.00    -0.400 OA
ATOM     40  H7  UNL     1       9.886 -11.061 -17.462  1.00  0.00     0.209 HD
ENDBRANCH  38  39
ENDBRANCH  20  38
TORSDOF 10
ENDMDL
MODEL 5
REMARK VINA RESULT: -6.583752185      1.379      1.808
REMARK  10 active torsions:
REMARK  status: ('A' for Active; 'I' for Inactive)
REMARK       I    between atoms: N2_5  and  C4_6 
REMARK    1  A    between atoms: C4_6  and  O2_8 
REMARK    2  A    between atoms: O2_8  and  C5_9 
REMARK    3  A    between atoms: C5_9  and  C6_10 
REMARK    4  A    between atoms: C6_10  and  O3_11 
REMARK    5  A    between atoms: O3_11  and  C7_12 
REMARK    6  A    between atoms: C7_12  and  C8_13 
REMARK    7  A    between atoms: C8_13  and  O4_14 
REMARK    8  A    between atoms: O4_14  and  C9_15 
REMARK    9  A    between atoms: C26_34  and  C28_36 
REMARK   10  A    between atoms: C28_36  and  O7_37 
ROOT
HETATM    1  C9  UNL     1       7.176 -12.956 -20.986  1.00  0.00     0.132 C 
HETATM    2  C10 UNL     1       6.837 -11.868 -22.059  1.00  0.00     0.034 C 
HETATM    3  C11 UNL     1       6.126 -12.427 -23.226  1.00  0.00     0.012 C 
HETATM    4  C12 UNL     1       5.788 -13.885 -23.185  1.00  0.00    -0.035 C 
HETATM    5  C13 UNL     1       4.438 -13.950 -22.423  1.00  0.00     0.016 C 
HETATM    6  C14 UNL     1       5.424 -14.283 -24.608  1.00  0.00     0.006 C 
HETATM    7  C15 UNL     1       6.321 -13.779 -25.663  1.00  0.00     0.007 C 
HETATM    8  C16 UNL     1       6.447 -14.585 -26.896  1.00  0.00     0.012 C 
HETATM    9  C17 UNL     1       5.504 -15.702 -27.112  1.00  0.00    -0.016 C 
HETATM   10  C18 UNL     1       6.239 -16.921 -27.703  1.00  0.00     0.018 C 
HETATM   11  C19 UNL     1       4.453 -15.349 -28.169  1.00  0.00     0.177 C 
HETATM   12  O5  UNL     1       3.261 -15.884 -27.696  1.00  0.00    -0.390 OA
HETATM   13  C20 UNL     1       3.309 -15.682 -26.298  1.00  0.00     0.173 C 
HETATM   14  C21 UNL     1       4.688 -16.154 -25.979  1.00  0.00     0.031 C 
HETATM   15  C22 UNL     1       5.165 -15.747 -24.619  1.00  0.00     0.067 C 
HETATM   16  C23 UNL     1       6.320 -16.536 -24.222  1.00  0.00     0.132 C 
HETATM   17  O6  UNL     1       6.497 -17.637 -24.710  1.00  0.00    -0.298 OA
HETATM   18  C24 UNL     1       7.269 -15.961 -23.209  1.00  0.00     0.085 C 
HETATM   19  C25 UNL     1       6.737 -14.780 -22.479  1.00  0.00     0.014 C 
HETATM   20  C26 UNL     1       7.854 -14.061 -21.729  1.00  0.00     0.008 C 
HETATM   21  C27 UNL     1       8.980 -13.596 -22.602  1.00  0.00     0.020 C 
ENDROOT
BRANCH   1  22
HETATM   22  O4  UNL     1       8.038 -12.323 -20.118  1.00  0.00    -0.383 OA
BRANCH  22  23
HETATM   23  C8  UNL     1       7.540 -11.984 -18.880  1.00  0.00     0.194 C 
BRANCH  23  24
HETATM   24  C7  UNL     1       7.929 -12.871 -17.746  1.00  0.00     0.193 C 
BRANCH  24  25
HETATM   25  O3  UNL     1       9.197 -13.030 -17.489  1.00  0.00    -0.387 OA
BRANCH  25  26
HETATM   26  C6  UNL     1       9.921 -13.002 -16.416  1.00  0.00     0.194 C 
BRANCH  26  27
HETATM   27  C5  UNL     1      11.149 -13.850 -16.269  1.00  0.00     0.207 C 
BRANCH  27  28
HETATM   28  O2  UNL     1      11.998 -13.813 -17.415  1.00  0.00    -0.302 OA
BRANCH  28  29
HETATM   29  C4  UNL     1      12.205 -14.826 -18.307  1.00  0.00     0.362 C 
HETATM   30  N2  UNL     1      13.238 -14.704 -19.279  1.00  0.00    -0.325 N 
HETATM   31  C3  UNL     1      14.036 -13.509 -19.294  1.00  0.00     0.158 C 
HETATM   32  C29 UNL     1      13.425 -15.798 -20.205  1.00  0.00     0.158 C 
HETATM   33  C2  UNL     1      15.164 -13.634 -20.313  1.00  0.00     0.291 C 
HETATM   34  N1  UNL     1      15.734 -14.952 -20.142  1.00  0.00     0.087 N 
HETATM   35  C1  UNL     1      17.020 -15.107 -20.758  1.00  0.00     0.310 C 
HETATM   36  C30 UNL     1      14.811 -15.894 -20.750  1.00  0.00     0.291 C 
HETATM   37  O1  UNL     1      11.480 -15.864 -18.260  1.00  0.00    -0.238 OA
ENDBRANCH  28  29
ENDBRANCH  27  28
ENDBRANCH  26  27
ENDBRANCH  25  26
ENDBRANCH  24  25
ENDBRANCH  23  24
ENDBRANCH  22  23
ENDBRANCH   1  22
BRANCH  20  38
HETATM   38  C28 UNL     1       8.499 -14.985 -20.723  1.00  0.00     0.176 C 
BRANCH  38  39
HETATM   39  O7  UNL     1       9.748 -14.503 -20.267  1.00  0.00    -0.400 OA
ATOM     40  H7  UNL     1      10.386 -14.427 -20.967  1.00  0.00     0.209 HD
ENDBRANCH  38  39
ENDBRANCH  20  38
TORSDOF 10
ENDMDL
