MODEL 1
REMARK VINA RESULT: -7.032848895      0.000      0.000
REMARK  11 active torsions:
REMARK  status: ('A' for Active; 'I' for Inactive)
REMARK    1  A    between atoms: C2_2  and  C3_3 
REMARK    2  A    between atoms: C3_3  and  C4_4 
REMARK    3  A    between atoms: C4_4  and  C5_5 
REMARK    4  A    between atoms: C6_7  and  C7_8 
REMARK    5  A    between atoms: C7_8  and  O2_9 
REMARK    6  A    between atoms: C12_15  and  O4_16 
REMARK    7  A    between atoms: C13_18  and  O5_19 
REMARK    8  A    between atoms: C14_21  and  C16_23 
REMARK    9  A    between atoms: C16_23  and  C17_24 
REMARK   10  A    between atoms: C18_25  and  C20_27 
REMARK   11  A    between atoms: C21_28  and  C22_29 
ROOT
HETATM    1  C5  UNL     1       7.419  18.024  21.810  1.00  0.00     0.140 C 
HETATM    2  O1  UNL     1       7.351  19.437  22.085  1.00  0.00    -0.364 OA
HETATM    3  C6  UNL     1       5.967  19.693  22.288  1.00  0.00     0.144 C 
HETATM    4  C9  UNL     1       5.995  19.754  23.825  1.00  0.00     0.056 C 
HETATM    5  C10 UNL     1       6.696  18.369  24.019  1.00  0.00     0.032 C 
HETATM    6  C11 UNL     1       6.164  17.916  25.290  1.00  0.00     0.177 C 
HETATM    7  O3  UNL     1       4.777  17.736  25.162  1.00  0.00    -0.358 OA
HETATM    8  C12 UNL     1       4.670  16.356  25.122  1.00  0.00     0.286 C 
HETATM    9  C13 UNL     1       4.959  15.765  23.795  1.00  0.00     0.182 C 
HETATM   10  C14 UNL     1       6.162  16.170  23.048  1.00  0.00     0.007 C 
HETATM   11  C15 UNL     1       7.459  15.710  23.749  1.00  0.00     0.020 C 
HETATM   12  C27 UNL     1       6.345  17.570  22.752  1.00  0.00     0.065 C 
HETATM   13  C28 UNL     1       5.263  18.390  22.178  1.00  0.00     0.175 C 
HETATM   14  O9  UNL     1       4.170  18.256  21.734  1.00  0.00    -0.294 OA
ENDROOT
BRANCH  10  15
HETATM   15  C16 UNL     1       6.114  15.219  21.836  1.00  0.00     0.041 C 
BRANCH  15  16
HETATM   16  C17 UNL     1       7.067  14.079  22.035  1.00  0.00    -0.019 C 
HETATM   17  C18 UNL     1       7.631  13.365  21.105  1.00  0.00    -0.066 C 
HETATM   18  C19 UNL     1       8.560  12.259  21.543  1.00  0.00     0.048 C 
BRANCH  17  19
HETATM   19  C20 UNL     1       7.481  13.537  19.687  1.00  0.00     0.005 C 
HETATM   20  C21 UNL     1       8.370  13.077  18.832  1.00  0.00     0.006 C 
BRANCH  20  21
HETATM   21  C22 UNL     1       8.253  13.233  17.360  1.00  0.00     0.161 C 
HETATM   22  C23 UNL     1       7.644  14.532  16.959  1.00  0.00     0.115 C 
HETATM   23  C24 UNL     1       8.599  15.502  16.363  1.00  0.00     0.139 C 
HETATM   24  O6  UNL     1       8.271  16.323  15.548  1.00  0.00    -0.297 OA
HETATM   25  C25 UNL     1      10.023  15.452  16.795  1.00  0.00     0.189 C 
HETATM   26  C26 UNL     1      10.457  14.044  16.642  1.00  0.00     0.266 C 
HETATM   27  O7  UNL     1      11.660  13.794  16.443  1.00  0.00    -0.265 OA
HETATM   28  O8  UNL     1       9.515  13.015  16.723  1.00  0.00    -0.311 OA
ENDBRANCH  20  21
ENDBRANCH  17  19
ENDBRANCH  15  16
ENDBRANCH  10  15
BRANCH   9  29
HETATM   29  O5  UNL     1       3.781  15.842  23.061  1.00  0.00    -0.390 OA
ATOM     30  H5  UNL     1       3.954  15.424  22.226  1.00  0.00     0.210 HD
ENDBRANCH   9  29
BRANCH   8  31
HETATM   31  O4  UNL     1       3.359  16.035  25.467  1.00  0.00    -0.369 OA
ATOM     32  H4  UNL     1       3.379  15.179  25.880  1.00  0.00     0.212 HD
ENDBRANCH   8  31
BRANCH   1  33
HETATM   33  C4  UNL     1       7.184  18.023  20.357  1.00  0.00     0.033 C 
BRANCH  33  34
HETATM   34  C3  UNL     1       8.221  17.173  19.597  1.00  0.00     0.002 C 
BRANCH  34  35
HETATM   35  C2  UNL     1       9.570  17.253  20.242  1.00  0.00    -0.004 C 
HETATM   36  C1  UNL     1      10.200  15.923  20.480  1.00  0.00     0.005 C 
ENDBRANCH  34  35
ENDBRANCH  33  34
ENDBRANCH   1  33
BRANCH   3  37
HETATM   37  C7  UNL     1       5.469  20.836  21.578  1.00  0.00     0.213 C 
BRANCH  37  38
HETATM   38  O2  UNL     1       5.522  20.976  20.254  1.00  0.00    -0.393 OA
HETATM   39  C8  UNL     1       6.362  21.850  19.681  1.00  0.00     0.201 C 
ENDBRANCH  37  38
ENDBRANCH   3  37
TORSDOF 11
ENDMDL
MODEL 2
REMARK VINA RESULT: -6.556405004      1.801      2.708
REMARK  11 active torsions:
REMARK  status: ('A' for Active; 'I' for Inactive)
REMARK    1  A    between atoms: C2_2  and  C3_3 
REMARK    2  A    between atoms: C3_3  and  C4_4 
REMARK    3  A    between atoms: C4_4  and  C5_5 
REMARK    4  A    between atoms: C6_7  and  C7_8 
REMARK    5  A    between atoms: C7_8  and  O2_9 
REMARK    6  A    between atoms: C12_15  and  O4_16 
REMARK    7  A    between atoms: C13_18  and  O5_19 
REMARK    8  A    between atoms: C14_21  and  C16_23 
REMARK    9  A    between atoms: C16_23  and  C17_24 
REMARK   10  A    between atoms: C18_25  and  C20_27 
REMARK   11  A    between atoms: C21_28  and  C22_29 
ROOT
HETATM    1  C5  UNL     1       9.242  17.619  22.003  1.00  0.00     0.140 C 
HETATM    2  O1  UNL     1       9.991  18.781  22.411  1.00  0.00    -0.364 OA
HETATM    3  C6  UNL     1       9.300  19.874  21.819  1.00  0.00     0.144 C 
HETATM    4  C9  UNL     1       8.556  20.350  23.078  1.00  0.00     0.056 C 
HETATM    5  C10 UNL     1       7.925  18.959  23.416  1.00  0.00     0.032 C 
HETATM    6  C11 UNL     1       6.676  19.320  24.057  1.00  0.00     0.177 C 
HETATM    7  O3  UNL     1       5.869  19.998  23.129  1.00  0.00    -0.358 OA
HETATM    8  C12 UNL     1       4.924  19.036  22.815  1.00  0.00     0.286 C 
HETATM    9  C13 UNL     1       5.384  18.038  21.821  1.00  0.00     0.182 C 
HETATM   10  C14 UNL     1       6.694  17.383  21.978  1.00  0.00     0.007 C 
HETATM   11  C15 UNL     1       6.732  16.457  23.213  1.00  0.00     0.020 C 
HETATM   12  C27 UNL     1       7.868  18.215  22.070  1.00  0.00     0.065 C 
HETATM   13  C28 UNL     1       8.118  19.314  21.118  1.00  0.00     0.175 C 
HETATM   14  O9  UNL     1       7.666  19.754  20.112  1.00  0.00    -0.294 OA
ENDROOT
BRANCH  10  15
HETATM   15  C16 UNL     1       6.673  16.360  20.826  1.00  0.00     0.041 C 
BRANCH  15  16
HETATM   16  C17 UNL     1       6.525  14.971  21.370  1.00  0.00    -0.019 C 
HETATM   17  C18 UNL     1       6.597  13.860  20.698  1.00  0.00    -0.066 C 
HETATM   18  C19 UNL     1       6.413  12.571  21.460  1.00  0.00     0.048 C 
BRANCH  17  19
HETATM   19  C20 UNL     1       6.861  13.727  19.292  1.00  0.00     0.005 C 
HETATM   20  C21 UNL     1       8.071  13.491  18.831  1.00  0.00     0.006 C 
BRANCH  20  21
HETATM   21  C22 UNL     1       8.386  13.347  17.386  1.00  0.00     0.161 C 
HETATM   22  C23 UNL     1       7.955  14.521  16.577  1.00  0.00     0.115 C 
HETATM   23  C24 UNL     1       9.068  15.381  16.100  1.00  0.00     0.139 C 
HETATM   24  O6  UNL     1       9.012  16.013  15.077  1.00  0.00    -0.297 OA
HETATM   25  C25 UNL     1      10.306  15.462  16.923  1.00  0.00     0.189 C 
HETATM   26  C26 UNL     1      10.725  14.066  17.185  1.00  0.00     0.266 C 
HETATM   27  O7  UNL     1      11.927  13.819  17.394  1.00  0.00    -0.265 OA
HETATM   28  O8  UNL     1       9.772  13.045  17.195  1.00  0.00    -0.311 OA
ENDBRANCH  20  21
ENDBRANCH  17  19
ENDBRANCH  15  16
ENDBRANCH  10  15
BRANCH   9  29
HETATM   29  O5  UNL     1       5.175  18.601  20.568  1.00  0.00    -0.390 OA
ATOM     30  H5  UNL     1       5.987  19.032  20.325  1.00  0.00     0.210 HD
ENDBRANCH   9  29
BRANCH   8  31
HETATM   31  O4  UNL     1       3.820  19.701  22.287  1.00  0.00    -0.369 OA
ATOM     32  H4  UNL     1       3.085  19.527  22.863  1.00  0.00     0.212 HD
ENDBRANCH   8  31
BRANCH   1  33
HETATM   33  C4  UNL     1       9.870  17.339  20.702  1.00  0.00     0.033 C 
BRANCH  33  34
HETATM   34  C3  UNL     1      10.350  15.879  20.586  1.00  0.00     0.002 C 
BRANCH  34  35
HETATM   35  C2  UNL     1      10.680  15.304  21.929  1.00  0.00    -0.004 C 
HETATM   36  C1  UNL     1       9.920  14.063  22.253  1.00  0.00     0.005 C 
ENDBRANCH  34  35
ENDBRANCH  33  34
ENDBRANCH   1  33
BRANCH   3  37
HETATM   37  C7  UNL     1      10.151  20.813  21.145  1.00  0.00     0.213 C 
BRANCH  37  38
HETATM   38  O2  UNL     1      10.770  20.568  19.992  1.00  0.00    -0.393 OA
HETATM   39  C8  UNL     1      12.083  20.296  19.951  1.00  0.00     0.201 C 
ENDBRANCH  37  38
ENDBRANCH   3  37
TORSDOF 11
ENDMDL
MODEL 3
REMARK VINA RESULT: -6.492231472      1.054      1.231
REMARK  11 active torsions:
REMARK  status: ('A' for Active; 'I' for Inactive)
REMARK    1  A    between atoms: C2_2  and  C3_3 
REMARK    2  A    between atoms: C3_3  and  C4_4 
REMARK    3  A    between atoms: C4_4  and  C5_5 
REMARK    4  A    between atoms: C6_7  and  C7_8 
REMARK    5  A    between atoms: C7_8  and  O2_9 
REMARK    6  A    between atoms: C12_15  and  O4_16 
REMARK    7  A    between atoms: C13_18  and  O5_19 
REMARK    8  A    between atoms: C14_21  and  C16_23 
REMARK    9  A    between atoms: C16_23  and  C17_24 
REMARK   10  A    between atoms: C18_25  and  C20_27 
REMARK   11  A    between atoms: C21_28  and  C22_29 
ROOT
HETATM    1  C5  UNL     1       8.407  17.620  21.442  1.00  0.00     0.140 C 
HETATM    2  O1  UNL     1       8.816  19.002  21.447  1.00  0.00    -0.364 OA
HETATM    3  C6  UNL     1       7.605  19.730  21.290  1.00  0.00     0.144 C 
HETATM    4  C9  UNL     1       7.426  20.146  22.760  1.00  0.00     0.056 C 
HETATM    5  C10 UNL     1       7.540  18.698  23.341  1.00  0.00     0.032 C 
HETATM    6  C11 UNL     1       6.699  18.759  24.520  1.00  0.00     0.177 C 
HETATM    7  O3  UNL     1       5.376  19.011  24.121  1.00  0.00    -0.358 OA
HETATM    8  C12 UNL     1       4.783  17.772  24.297  1.00  0.00     0.286 C 
HETATM    9  C13 UNL     1       5.031  16.820  23.190  1.00  0.00     0.182 C 
HETATM   10  C14 UNL     1       6.395  16.623  22.670  1.00  0.00     0.007 C 
HETATM   11  C15 UNL     1       7.318  15.953  23.711  1.00  0.00     0.020 C 
HETATM   12  C27 UNL     1       7.115  17.775  22.186  1.00  0.00     0.065 C 
HETATM   13  C28 UNL     1       6.502  18.738  21.252  1.00  0.00     0.175 C 
HETATM   14  O9  UNL     1       5.513  18.861  20.607  1.00  0.00    -0.294 OA
ENDROOT
BRANCH  10  15
HETATM   15  C16 UNL     1       6.185  15.478  21.662  1.00  0.00     0.041 C 
BRANCH  15  16
HETATM   16  C17 UNL     1       7.144  14.360  21.940  1.00  0.00    -0.019 C 
HETATM   17  C18 UNL     1       7.678  13.556  21.068  1.00  0.00    -0.066 C 
HETATM   18  C19 UNL     1       8.621  12.496  21.583  1.00  0.00     0.048 C 
BRANCH  17  19
HETATM   19  C20 UNL     1       7.482  13.587  19.645  1.00  0.00     0.005 C 
HETATM   20  C21 UNL     1       8.450  13.295  18.803  1.00  0.00     0.006 C 
BRANCH  20  21
HETATM   21  C22 UNL     1       8.289  13.315  17.327  1.00  0.00     0.161 C 
HETATM   22  C23 UNL     1       7.676  14.577  16.825  1.00  0.00     0.115 C 
HETATM   23  C24 UNL     1       8.618  15.478  16.114  1.00  0.00     0.139 C 
HETATM   24  O6  UNL     1       8.271  16.223  15.235  1.00  0.00    -0.297 OA
HETATM   25  C25 UNL     1      10.055  15.456  16.505  1.00  0.00     0.189 C 
HETATM   26  C26 UNL     1      10.474  14.035  16.471  1.00  0.00     0.266 C 
HETATM   27  O7  UNL     1      11.669  13.756  16.260  1.00  0.00    -0.265 OA
HETATM   28  O8  UNL     1       9.529  13.027  16.675  1.00  0.00    -0.311 OA
ENDBRANCH  20  21
ENDBRANCH  17  19
ENDBRANCH  15  16
ENDBRANCH  10  15
BRANCH   9  29
HETATM   29  O5  UNL     1       4.084  17.094  22.210  1.00  0.00    -0.390 OA
ATOM     30  H5  UNL     1       4.565  17.300  21.417  1.00  0.00     0.210 HD
ENDBRANCH   9  29
BRANCH   8  31
HETATM   31  O4  UNL     1       3.409  17.982  24.392  1.00  0.00    -0.369 OA
ATOM     32  H4  UNL     1       3.035  17.775  23.543  1.00  0.00     0.212 HD
ENDBRANCH   8  31
BRANCH   1  33
HETATM   33  C4  UNL     1       8.406  17.347  19.996  1.00  0.00     0.033 C 
BRANCH  33  34
HETATM   34  C3  UNL     1       9.723  16.703  19.520  1.00  0.00     0.002 C 
BRANCH  34  35
HETATM   35  C2  UNL     1      10.371  15.914  20.616  1.00  0.00    -0.004 C 
HETATM   36  C1  UNL     1      11.839  16.146  20.734  1.00  0.00     0.005 C 
ENDBRANCH  34  35
ENDBRANCH  33  34
ENDBRANCH   1  33
BRANCH   3  37
HETATM   37  C7  UNL     1       7.666  20.768  20.300  1.00  0.00     0.213 C 
BRANCH  37  38
HETATM   38  O2  UNL     1       6.931  21.878  20.333  1.00  0.00    -0.393 OA
HETATM   39  C8  UNL     1       6.095  22.187  19.331  1.00  0.00     0.201 C 
ENDBRANCH  37  38
ENDBRANCH   3  37
TORSDOF 11
ENDMDL
MODEL 4
REMARK VINA RESULT: -6.478291671      3.614      6.267
REMARK  11 active torsions:
REMARK  status: ('A' for Active; 'I' for Inactive)
REMARK    1  A    between atoms: C2_2  and  C3_3 
REMARK    2  A    between atoms: C3_3  and  C4_4 
REMARK    3  A    between atoms: C4_4  and  C5_5 
REMARK    4  A    between atoms: C6_7  and  C7_8 
REMARK    5  A    between atoms: C7_8  and  O2_9 
REMARK    6  A    between atoms: C12_15  and  O4_16 
REMARK    7  A    between atoms: C13_18  and  O5_19 
REMARK    8  A    between atoms: C14_21  and  C16_23 
REMARK    9  A    between atoms: C16_23  and  C17_24 
REMARK   10  A    between atoms: C18_25  and  C20_27 
REMARK   11  A    between atoms: C21_28  and  C22_29 
ROOT
HETATM    1  C5  UNL     1       8.089  15.999  19.603  1.00  0.00     0.140 C 
HETATM    2  O1  UNL     1       7.040  15.633  18.684  1.00  0.00    -0.364 OA
HETATM    3  C6  UNL     1       7.133  14.218  18.586  1.00  0.00     0.144 C 
HETATM    4  C9  UNL     1       5.956  13.872  19.514  1.00  0.00     0.056 C 
HETATM    5  C10 UNL     1       6.460  14.728  20.723  1.00  0.00     0.032 C 
HETATM    6  C11 UNL     1       5.955  13.996  21.867  1.00  0.00     0.177 C 
HETATM    7  O3  UNL     1       6.559  12.727  21.896  1.00  0.00    -0.358 OA
HETATM    8  C12 UNL     1       7.464  12.865  22.934  1.00  0.00     0.286 C 
HETATM    9  C13 UNL     1       8.720  13.552  22.554  1.00  0.00     0.182 C 
HETATM   10  C14 UNL     1       8.676  14.813  21.793  1.00  0.00     0.007 C 
HETATM   11  C15 UNL     1       8.068  15.966  22.621  1.00  0.00     0.020 C 
HETATM   12  C27 UNL     1       7.983  14.824  20.529  1.00  0.00     0.065 C 
HETATM   13  C28 UNL     1       8.214  13.787  19.507  1.00  0.00     0.175 C 
HETATM   14  O9  UNL     1       8.938  12.867  19.305  1.00  0.00    -0.294 OA
ENDROOT
BRANCH  10  15
HETATM   15  C16 UNL     1      10.164  15.210  21.758  1.00  0.00     0.041 C 
BRANCH  15  16
HETATM   16  C17 UNL     1      10.603  15.695  23.107  1.00  0.00    -0.019 C 
HETATM   17  C18 UNL     1      11.735  16.264  23.400  1.00  0.00    -0.066 C 
HETATM   18  C19 UNL     1      11.961  16.669  24.836  1.00  0.00     0.048 C 
BRANCH  17  19
HETATM   19  C20 UNL     1      12.798  16.574  22.484  1.00  0.00     0.005 C 
HETATM   20  C21 UNL     1      13.710  15.687  22.150  1.00  0.00     0.006 C 
BRANCH  20  21
HETATM   21  C22 UNL     1      14.823  15.967  21.208  1.00  0.00     0.161 C 
HETATM   22  C23 UNL     1      16.160  15.619  21.766  1.00  0.00     0.115 C 
HETATM   23  C24 UNL     1      16.781  14.410  21.168  1.00  0.00     0.139 C 
HETATM   24  O6  UNL     1      17.972  14.263  21.080  1.00  0.00    -0.297 OA
HETATM   25  C25 UNL     1      15.889  13.334  20.654  1.00  0.00     0.189 C 
HETATM   26  C26 UNL     1      14.917  13.993  19.750  1.00  0.00     0.266 C 
HETATM   27  O7  UNL     1      14.401  13.338  18.827  1.00  0.00    -0.265 OA
HETATM   28  O8  UNL     1      14.592  15.337  19.944  1.00  0.00    -0.311 OA
ENDBRANCH  20  21
ENDBRANCH  17  19
ENDBRANCH  15  16
ENDBRANCH  10  15
BRANCH   9  29
HETATM   29  O5  UNL     1       9.552  12.584  22.004  1.00  0.00    -0.390 OA
ATOM     30  H5  UNL     1      10.092  13.026  21.358  1.00  0.00     0.210 HD
ENDBRANCH   9  29
BRANCH   8  31
HETATM   31  O4  UNL     1       7.785  11.582  23.373  1.00  0.00    -0.369 OA
ATOM     32  H4  UNL     1       7.705  11.002  22.625  1.00  0.00     0.212 HD
ENDBRANCH   8  31
BRANCH   1  33
HETATM   33  C4  UNL     1       9.226  16.116  18.676  1.00  0.00     0.033 C 
BRANCH  33  34
HETATM   34  C3  UNL     1      10.308  17.085  19.196  1.00  0.00     0.002 C 
BRANCH  34  35
HETATM   35  C2  UNL     1      11.665  16.710  18.687  1.00  0.00    -0.004 C 
HETATM   36  C1  UNL     1      11.680  15.451  17.889  1.00  0.00     0.005 C 
ENDBRANCH  34  35
ENDBRANCH  33  34
ENDBRANCH   1  33
BRANCH   3  37
HETATM   37  C7  UNL     1       7.098  13.717  17.241  1.00  0.00     0.213 C 
BRANCH  37  38
HETATM   38  O2  UNL     1       7.760  14.263  16.222  1.00  0.00    -0.393 OA
HETATM   39  C8  UNL     1       8.950  13.784  15.829  1.00  0.00     0.201 C 
ENDBRANCH  37  38
ENDBRANCH   3  37
TORSDOF 11
ENDMDL
MODEL 5
REMARK VINA RESULT: -6.300648272      3.290      6.700
REMARK  11 active torsions:
REMARK  status: ('A' for Active; 'I' for Inactive)
REMARK    1  A    between atoms: C2_2  and  C3_3 
REMARK    2  A    between atoms: C3_3  and  C4_4 
REMARK    3  A    between atoms: C4_4  and  C5_5 
REMARK    4  A    between atoms: C6_7  and  C7_8 
REMARK    5  A    between atoms: C7_8  and  O2_9 
REMARK    6  A    between atoms: C12_15  and  O4_16 
REMARK    7  A    between atoms: C13_18  and  O5_19 
REMARK    8  A    between atoms: C14_21  and  C16_23 
REMARK    9  A    between atoms: C16_23  and  C17_24 
REMARK   10  A    between atoms: C18_25  and  C20_27 
REMARK   11  A    between atoms: C21_28  and  C22_29 
ROOT
HETATM    1  C5  UNL     1       7.151  15.362  18.949  1.00  0.00     0.140 C 
HETATM    2  O1  UNL     1       6.858  13.963  18.759  1.00  0.00    -0.364 OA
HETATM    3  C6  UNL     1       7.770  13.290  19.617  1.00  0.00     0.144 C 
HETATM    4  C9  UNL     1       6.784  12.978  20.757  1.00  0.00     0.056 C 
HETATM    5  C10 UNL     1       6.293  14.452  20.939  1.00  0.00     0.032 C 
HETATM    6  C11 UNL     1       5.969  14.510  22.351  1.00  0.00     0.177 C 
HETATM    7  O3  UNL     1       7.143  14.302  23.094  1.00  0.00    -0.358 OA
HETATM    8  C12 UNL     1       7.421  15.579  23.553  1.00  0.00     0.286 C 
HETATM    9  C13 UNL     1       8.096  16.445  22.559  1.00  0.00     0.182 C 
HETATM   10  C14 UNL     1       7.581  16.537  21.182  1.00  0.00     0.007 C 
HETATM   11  C15 UNL     1       6.199  17.223  21.128  1.00  0.00     0.020 C 
HETATM   12  C27 UNL     1       7.451  15.321  20.418  1.00  0.00     0.065 C 
HETATM   13  C28 UNL     1       8.543  14.334  20.336  1.00  0.00     0.175 C 
HETATM   14  O9  UNL     1       9.681  14.222  20.656  1.00  0.00    -0.294 OA
ENDROOT
BRANCH  10  15
HETATM   15  C16 UNL     1       8.490  17.626  20.579  1.00  0.00     0.041 C 
BRANCH  15  16
HETATM   16  C17 UNL     1       7.716  18.895  20.383  1.00  0.00    -0.019 C 
HETATM   17  C18 UNL     1       8.179  20.108  20.460  1.00  0.00    -0.066 C 
HETATM   18  C19 UNL     1       7.208  21.240  20.226  1.00  0.00     0.048 C 
BRANCH  17  19
HETATM   19  C20 UNL     1       9.539  20.489  20.724  1.00  0.00     0.005 C 
HETATM   20  C21 UNL     1      10.084  21.551  20.170  1.00  0.00     0.006 C 
BRANCH  20  21
HETATM   21  C22 UNL     1      11.485  21.979  20.415  1.00  0.00     0.161 C 
HETATM   22  C23 UNL     1      12.233  21.042  21.300  1.00  0.00     0.115 C 
HETATM   23  C24 UNL     1      13.259  20.225  20.603  1.00  0.00     0.139 C 
HETATM   24  O6  UNL     1      14.260  19.834  21.144  1.00  0.00    -0.297 OA
HETATM   25  C25 UNL     1      13.038  19.877  19.172  1.00  0.00     0.189 C 
HETATM   26  C26 UNL     1      12.739  21.150  18.475  1.00  0.00     0.266 C 
HETATM   27  O7  UNL     1      13.000  21.256  17.262  1.00  0.00    -0.265 OA
HETATM   28  O8  UNL     1      12.170  22.211  19.182  1.00  0.00    -0.311 OA
ENDBRANCH  20  21
ENDBRANCH  17  19
ENDBRANCH  15  16
ENDBRANCH  10  15
BRANCH   9  29
HETATM   29  O5  UNL     1       9.454  16.158  22.640  1.00  0.00    -0.390 OA
ATOM     30  H5  UNL     1       9.670  15.645  21.870  1.00  0.00     0.210 HD
ENDBRANCH   9  29
BRANCH   8  31
HETATM   31  O4  UNL     1       8.260  15.446  24.657  1.00  0.00    -0.369 OA
ATOM     32  H4  UNL     1       9.066  15.906  24.454  1.00  0.00     0.212 HD
ENDBRANCH   8  31
BRANCH   1  33
HETATM   33  C4  UNL     1       8.236  15.542  17.973  1.00  0.00     0.033 C 
BRANCH  33  34
HETATM   34  C3  UNL     1       7.788  15.220  16.533  1.00  0.00     0.002 C 
BRANCH  34  35
HETATM   35  C2  UNL     1       8.591  15.985  15.527  1.00  0.00    -0.004 C 
HETATM   36  C1  UNL     1      10.012  15.543  15.434  1.00  0.00     0.005 C 
ENDBRANCH  34  35
ENDBRANCH  33  34
ENDBRANCH   1  33
BRANCH   3  37
HETATM   37  C7  UNL     1       8.456  12.191  19.001  1.00  0.00     0.213 C 
BRANCH  37  38
HETATM   38  O2  UNL     1       8.570  12.023  17.685  1.00  0.00    -0.393 OA
HETATM   39  C8  UNL     1       9.744  12.199  17.061  1.00  0.00     0.201 C 
ENDBRANCH  37  38
ENDBRANCH   3  37
TORSDOF 11
ENDMDL
