MODEL 1
REMARK VINA RESULT: -6.884833636      0.000      0.000
REMARK  10 active torsions:
REMARK  status: ('A' for Active; 'I' for Inactive)
REMARK    1  A    between atoms: N1_2  and  O1_3 
REMARK    2  A    between atoms: N1_2  and  C2_5 
REMARK    3  A    between atoms: C2_5  and  C3_6 
REMARK    4  A    between atoms: C3_6  and  C4_7 
REMARK    5  A    between atoms: C5_8  and  C7_10 
REMARK    6  A    between atoms: C7_10  and  C8_11 
REMARK    7  A    between atoms: C8_11  and  C9_12 
REMARK    8  A    between atoms: C10_13  and  C12_15 
REMARK    9  A    between atoms: C12_15  and  C13_16 
REMARK   10  A    between atoms: C22_31  and  O7_32 
ROOT
HETATM    1  C2  UNL     1       6.601  16.603  21.717  1.00  0.00     0.225 C 
HETATM    2  O3  UNL     1       7.315  16.154  22.805  1.00  0.00    -0.320 OA
HETATM    3  C14 UNL     1       8.476  16.857  22.941  1.00  0.00     0.278 C 
HETATM    4  O4  UNL     1       9.611  16.130  22.562  1.00  0.00    -0.344 OA
HETATM    5  C15 UNL     1      10.538  17.121  22.396  1.00  0.00     0.116 C 
HETATM    6  C16 UNL     1      10.910  17.857  23.645  1.00  0.00     0.052 C 
HETATM    7  C17 UNL     1      11.774  16.721  21.658  1.00  0.00     0.196 C 
HETATM    8  O5  UNL     1      11.469  15.750  20.726  1.00  0.00    -0.345 OA
HETATM    9  C18 UNL     1      12.241  15.984  19.607  1.00  0.00     0.158 C 
HETATM   10  C19 UNL     1      11.464  15.488  18.399  1.00  0.00     0.078 C 
HETATM   11  C20 UNL     1      13.566  15.290  19.621  1.00  0.00     0.078 C 
HETATM   12  O6  UNL     1      12.458  17.354  19.537  1.00  0.00    -0.343 OA
HETATM   13  C21 UNL     1      12.371  17.816  20.872  1.00  0.00     0.212 C 
HETATM   14  C22 UNL     1      11.709  19.138  20.847  1.00  0.00     0.291 C 
HETATM   15  O8  UNL     1      10.483  19.229  21.473  1.00  0.00    -0.349 OA
HETATM   16  C24 UNL     1       9.801  18.050  21.413  1.00  0.00     0.177 C 
HETATM   17  C25 UNL     1       8.440  18.048  21.996  1.00  0.00     0.148 C 
HETATM   18  C26 UNL     1       7.461  17.579  21.004  1.00  0.00     0.196 C 
HETATM   19  O9  UNL     1       7.331  17.885  19.838  1.00  0.00    -0.292 OA
ENDROOT
BRANCH   1  20
HETATM   20  N1  UNL     1       5.387  17.288  22.075  1.00  0.00    -0.238 N 
HETATM   21  C1  UNL     1       4.826  17.038  23.191  1.00  0.00     0.153 C 
BRANCH  20  22
HETATM   22  O1  UNL     1       4.850  18.198  21.224  1.00  0.00    -0.285 OA
ATOM     23  H1  UNL     1       5.381  18.903  20.875  1.00  0.00     0.245 HD
ENDBRANCH  20  22
ENDBRANCH   1  20
BRANCH   1  24
HETATM   24  C3  UNL     1       6.324  15.392  20.839  1.00  0.00     0.099 C 
BRANCH  24  25
HETATM   25  C4  UNL     1       6.566  14.149  21.577  1.00  0.00    -0.019 C 
HETATM   26  C5  UNL     1       7.480  13.245  21.371  1.00  0.00    -0.087 C 
HETATM   27  C6  UNL     1       7.562  12.033  22.243  1.00  0.00     0.043 C 
BRANCH  26  28
HETATM   28  C7  UNL     1       8.488  13.337  20.291  1.00  0.00     0.037 C 
BRANCH  28  29
HETATM   29  C8  UNL     1       8.187  12.390  19.149  1.00  0.00     0.031 C 
BRANCH  29  30
HETATM   30  C9  UNL     1       8.488  13.053  17.834  1.00  0.00    -0.024 C 
HETATM   31  C10 UNL     1       7.506  13.625  17.158  1.00  0.00    -0.079 C 
HETATM   32  C11 UNL     1       6.110  13.624  17.670  1.00  0.00     0.043 C 
BRANCH  31  33
HETATM   33  C12 UNL     1       7.792  14.280  15.860  1.00  0.00     0.133 C 
BRANCH  33  34
HETATM   34  C13 UNL     1       8.513  15.569  16.055  1.00  0.00     0.235 C 
HETATM   35  N2  UNL     1       9.639  15.846  15.274  1.00  0.00    -0.062 NA
HETATM   36  O2  UNL     1       8.142  16.433  16.907  1.00  0.00    -0.277 OA
ENDBRANCH  33  34
ENDBRANCH  31  33
ENDBRANCH  29  30
ENDBRANCH  28  29
ENDBRANCH  26  28
ENDBRANCH  24  25
ENDBRANCH   1  24
BRANCH  14  37
HETATM   37  O7  UNL     1      11.523  19.605  19.552  1.00  0.00    -0.363 OA
HETATM   38  C23 UNL     1      11.887  20.945  19.520  1.00  0.00     0.204 C 
ENDBRANCH  14  37
TORSDOF 10
ENDMDL
MODEL 2
REMARK VINA RESULT: -6.817494875      2.329      3.269
REMARK  10 active torsions:
REMARK  status: ('A' for Active; 'I' for Inactive)
REMARK    1  A    between atoms: N1_2  and  O1_3 
REMARK    2  A    between atoms: N1_2  and  C2_5 
REMARK    3  A    between atoms: C2_5  and  C3_6 
REMARK    4  A    between atoms: C3_6  and  C4_7 
REMARK    5  A    between atoms: C5_8  and  C7_10 
REMARK    6  A    between atoms: C7_10  and  C8_11 
REMARK    7  A    between atoms: C8_11  and  C9_12 
REMARK    8  A    between atoms: C10_13  and  C12_15 
REMARK    9  A    between atoms: C12_15  and  C13_16 
REMARK   10  A    between atoms: C22_31  and  O7_32 
ROOT
HETATM    1  C2  UNL     1       8.029  15.297  21.022  1.00  0.00     0.225 C 
HETATM    2  O3  UNL     1       8.257  14.098  21.659  1.00  0.00    -0.320 OA
HETATM    3  C14 UNL     1       9.089  14.271  22.726  1.00  0.00     0.278 C 
HETATM    4  O4  UNL     1      10.386  13.794  22.499  1.00  0.00    -0.344 OA
HETATM    5  C15 UNL     1      11.094  14.423  23.486  1.00  0.00     0.116 C 
HETATM    6  C16 UNL     1      10.735  14.016  24.882  1.00  0.00     0.052 C 
HETATM    7  C17 UNL     1      12.578  14.401  23.319  1.00  0.00     0.196 C 
HETATM    8  O5  UNL     1      12.899  14.413  21.978  1.00  0.00    -0.345 OA
HETATM    9  C18 UNL     1      14.028  15.189  21.822  1.00  0.00     0.158 C 
HETATM   10  C19 UNL     1      13.970  15.817  20.439  1.00  0.00     0.078 C 
HETATM   11  C20 UNL     1      15.313  14.430  21.930  1.00  0.00     0.078 C 
HETATM   12  O6  UNL     1      14.001  16.159  22.815  1.00  0.00    -0.343 OA
HETATM   13  C21 UNL     1      13.251  15.591  23.872  1.00  0.00     0.212 C 
HETATM   14  C22 UNL     1      12.440  16.669  24.478  1.00  0.00     0.291 C 
HETATM   15  O8  UNL     1      11.069  16.548  24.371  1.00  0.00    -0.349 OA
HETATM   16  C24 UNL     1      10.712  15.893  23.230  1.00  0.00     0.177 C 
HETATM   17  C25 UNL     1       9.258  15.762  22.976  1.00  0.00     0.148 C 
HETATM   18  C26 UNL     1       8.922  16.301  21.651  1.00  0.00     0.196 C 
HETATM   19  O9  UNL     1       9.267  17.337  21.125  1.00  0.00    -0.292 OA
ENDROOT
BRANCH   1  20
HETATM   20  N1  UNL     1       6.680  15.774  21.173  1.00  0.00    -0.238 N 
HETATM   21  C1  UNL     1       5.827  15.068  21.805  1.00  0.00     0.153 C 
BRANCH  20  22
HETATM   22  O1  UNL     1       6.325  16.972  20.644  1.00  0.00    -0.285 OA
ATOM     23  H1  UNL     1       6.872  17.391  19.991  1.00  0.00     0.245 HD
ENDBRANCH  20  22
ENDBRANCH   1  20
BRANCH   1  24
HETATM   24  C3  UNL     1       8.394  15.098  19.559  1.00  0.00     0.099 C 
BRANCH  24  25
HETATM   25  C4  UNL     1       8.546  13.672  19.250  1.00  0.00    -0.019 C 
HETATM   26  C5  UNL     1       7.819  12.928  18.467  1.00  0.00    -0.087 C 
HETATM   27  C6  UNL     1       8.139  11.479  18.282  1.00  0.00     0.043 C 
BRANCH  26  28
HETATM   28  C7  UNL     1       6.651  13.435  17.715  1.00  0.00     0.037 C 
BRANCH  28  29
HETATM   29  C8  UNL     1       7.039  13.958  16.347  1.00  0.00     0.031 C 
BRANCH  29  30
HETATM   30  C9  UNL     1       8.525  13.851  16.155  1.00  0.00    -0.024 C 
HETATM   31  C10 UNL     1       9.203  14.912  15.747  1.00  0.00    -0.079 C 
HETATM   32  C11 UNL     1       8.524  16.205  15.472  1.00  0.00     0.043 C 
BRANCH  31  33
HETATM   33  C12 UNL     1      10.668  14.817  15.553  1.00  0.00     0.133 C 
BRANCH  33  34
HETATM   34  C13 UNL     1      11.378  14.714  16.858  1.00  0.00     0.235 C 
HETATM   35  N2  UNL     1      11.479  15.846  17.672  1.00  0.00    -0.062 NA
HETATM   36  O2  UNL     1      11.900  13.630  17.264  1.00  0.00    -0.277 OA
ENDBRANCH  33  34
ENDBRANCH  31  33
ENDBRANCH  29  30
ENDBRANCH  28  29
ENDBRANCH  26  28
ENDBRANCH  24  25
ENDBRANCH   1  24
BRANCH  14  37
HETATM   37  O7  UNL     1      12.762  17.918  23.962  1.00  0.00    -0.363 OA
HETATM   38  C23 UNL     1      12.640  18.851  24.984  1.00  0.00     0.204 C 
ENDBRANCH  14  37
TORSDOF 10
ENDMDL
MODEL 3
REMARK VINA RESULT: -6.736592796      2.475      3.466
REMARK  10 active torsions:
REMARK  status: ('A' for Active; 'I' for Inactive)
REMARK    1  A    between atoms: N1_2  and  O1_3 
REMARK    2  A    between atoms: N1_2  and  C2_5 
REMARK    3  A    between atoms: C2_5  and  C3_6 
REMARK    4  A    between atoms: C3_6  and  C4_7 
REMARK    5  A    between atoms: C5_8  and  C7_10 
REMARK    6  A    between atoms: C7_10  and  C8_11 
REMARK    7  A    between atoms: C8_11  and  C9_12 
REMARK    8  A    between atoms: C10_13  and  C12_15 
REMARK    9  A    between atoms: C12_15  and  C13_16 
REMARK   10  A    between atoms: C22_31  and  O7_32 
ROOT
HETATM    1  C2  UNL     1       9.868  16.101  21.007  1.00  0.00     0.225 C 
HETATM    2  O3  UNL     1      10.040  15.477  22.223  1.00  0.00    -0.320 OA
HETATM    3  C14 UNL     1      11.252  15.797  22.760  1.00  0.00     0.278 C 
HETATM    4  O4  UNL     1      12.182  14.753  22.689  1.00  0.00    -0.344 OA
HETATM    5  C15 UNL     1      13.362  15.413  22.891  1.00  0.00     0.116 C 
HETATM    6  C16 UNL     1      13.523  16.025  24.248  1.00  0.00     0.052 C 
HETATM    7  C17 UNL     1      14.593  14.644  22.535  1.00  0.00     0.196 C 
HETATM    8  O5  UNL     1      14.325  13.794  21.482  1.00  0.00    -0.345 OA
HETATM    9  C18 UNL     1      15.442  13.762  20.673  1.00  0.00     0.158 C 
HETATM   10  C19 UNL     1      14.974  13.503  19.251  1.00  0.00     0.078 C 
HETATM   11  C20 UNL     1      16.431  12.700  21.035  1.00  0.00     0.078 C 
HETATM   12  O6  UNL     1      16.062  15.000  20.780  1.00  0.00    -0.343 OA
HETATM   13  C21 UNL     1      15.700  15.491  22.057  1.00  0.00     0.212 C 
HETATM   14  C22 UNL     1      15.498  16.951  21.936  1.00  0.00     0.291 C 
HETATM   15  O8  UNL     1      14.221  17.421  22.163  1.00  0.00    -0.349 OA
HETATM   16  C24 UNL     1      13.279  16.503  21.806  1.00  0.00     0.177 C 
HETATM   17  C25 UNL     1      11.865  16.925  21.945  1.00  0.00     0.148 C 
HETATM   18  C26 UNL     1      11.156  16.757  20.669  1.00  0.00     0.196 C 
HETATM   19  O9  UNL     1      11.494  17.066  19.547  1.00  0.00    -0.292 OA
ENDROOT
BRANCH   1  20
HETATM   20  N1  UNL     1       8.861  17.128  21.032  1.00  0.00    -0.238 N 
HETATM   21  C1  UNL     1       8.111  17.254  22.054  1.00  0.00     0.153 C 
BRANCH  20  22
HETATM   22  O1  UNL     1       8.718  17.958  19.968  1.00  0.00    -0.285 OA
ATOM     23  H1  UNL     1       7.856  18.147  19.617  1.00  0.00     0.245 HD
ENDBRANCH  20  22
ENDBRANCH   1  20
BRANCH   1  24
HETATM   24  C3  UNL     1       9.539  15.015  19.994  1.00  0.00     0.099 C 
BRANCH  24  25
HETATM   25  C4  UNL     1       8.610  14.035  20.566  1.00  0.00    -0.019 C 
HETATM   26  C5  UNL     1       7.380  13.783  20.221  1.00  0.00    -0.087 C 
HETATM   27  C6  UNL     1       6.590  12.734  20.935  1.00  0.00     0.043 C 
BRANCH  26  28
HETATM   28  C7  UNL     1       6.681  14.488  19.124  1.00  0.00     0.037 C 
BRANCH  28  29
HETATM   29  C8  UNL     1       6.613  13.654  17.863  1.00  0.00     0.031 C 
BRANCH  29  30
HETATM   30  C9  UNL     1       7.725  14.039  16.927  1.00  0.00    -0.024 C 
HETATM   31  C10 UNL     1       8.746  13.214  16.762  1.00  0.00    -0.079 C 
HETATM   32  C11 UNL     1       8.817  11.916  17.483  1.00  0.00     0.043 C 
BRANCH  31  33
HETATM   33  C12 UNL     1       9.848  13.584  15.844  1.00  0.00     0.133 C 
BRANCH  33  34
HETATM   34  C13 UNL     1      10.839  14.466  16.520  1.00  0.00     0.235 C 
HETATM   35  N2  UNL     1      11.881  13.888  17.252  1.00  0.00    -0.062 NA
HETATM   36  O2  UNL     1      10.776  15.732  16.458  1.00  0.00    -0.277 OA
ENDBRANCH  33  34
ENDBRANCH  31  33
ENDBRANCH  29  30
ENDBRANCH  28  29
ENDBRANCH  26  28
ENDBRANCH  24  25
ENDBRANCH   1  24
BRANCH  14  37
HETATM   37  O7  UNL     1      15.873  17.429  20.686  1.00  0.00    -0.363 OA
HETATM   38  C23 UNL     1      16.430  18.690  20.856  1.00  0.00     0.204 C 
ENDBRANCH  14  37
TORSDOF 10
ENDMDL
MODEL 4
REMARK VINA RESULT: -6.563387509      2.387      4.929
REMARK  10 active torsions:
REMARK  status: ('A' for Active; 'I' for Inactive)
REMARK    1  A    between atoms: N1_2  and  O1_3 
REMARK    2  A    between atoms: N1_2  and  C2_5 
REMARK    3  A    between atoms: C2_5  and  C3_6 
REMARK    4  A    between atoms: C3_6  and  C4_7 
REMARK    5  A    between atoms: C5_8  and  C7_10 
REMARK    6  A    between atoms: C7_10  and  C8_11 
REMARK    7  A    between atoms: C8_11  and  C9_12 
REMARK    8  A    between atoms: C10_13  and  C12_15 
REMARK    9  A    between atoms: C12_15  and  C13_16 
REMARK   10  A    between atoms: C22_31  and  O7_32 
ROOT
HETATM    1  C2  UNL     1      10.519  16.867  20.140  1.00  0.00     0.225 C 
HETATM    2  O3  UNL     1       9.766  17.809  20.804  1.00  0.00    -0.320 OA
HETATM    3  C14 UNL     1       9.968  17.724  22.150  1.00  0.00     0.278 C 
HETATM    4  O4  UNL     1       8.892  17.148  22.836  1.00  0.00    -0.344 OA
HETATM    5  C15 UNL     1       9.468  16.807  24.029  1.00  0.00     0.116 C 
HETATM    6  C16 UNL     1       9.928  17.961  24.864  1.00  0.00     0.052 C 
HETATM    7  C17 UNL     1       8.679  15.858  24.870  1.00  0.00     0.196 C 
HETATM    8  O5  UNL     1       7.956  15.005  24.061  1.00  0.00    -0.345 OA
HETATM    9  C18 UNL     1       7.952  13.761  24.657  1.00  0.00     0.158 C 
HETATM   10  C19 UNL     1       7.864  12.720  23.554  1.00  0.00     0.078 C 
HETATM   11  C20 UNL     1       6.810  13.536  25.597  1.00  0.00     0.078 C 
HETATM   12  O6  UNL     1       9.140  13.642  25.367  1.00  0.00    -0.343 OA
HETATM   13  C21 UNL     1       9.515  14.967  25.695  1.00  0.00     0.212 C 
HETATM   14  C22 UNL     1      10.987  15.054  25.596  1.00  0.00     0.291 C 
HETATM   15  O8  UNL     1      11.494  15.894  24.626  1.00  0.00    -0.349 OA
HETATM   16  C24 UNL     1      10.666  15.969  23.546  1.00  0.00     0.177 C 
HETATM   17  C25 UNL     1      11.142  16.793  22.410  1.00  0.00     0.148 C 
HETATM   18  C26 UNL     1      11.141  16.001  21.172  1.00  0.00     0.196 C 
HETATM   19  O9  UNL     1      11.547  14.877  20.969  1.00  0.00    -0.292 OA
ENDROOT
BRANCH   1  20
HETATM   20  N1  UNL     1      11.588  17.438  19.363  1.00  0.00    -0.238 N 
HETATM   21  C1  UNL     1      11.861  18.677  19.478  1.00  0.00     0.153 C 
BRANCH  20  22
HETATM   22  O1  UNL     1      12.298  16.652  18.514  1.00  0.00    -0.285 OA
ATOM     23  H1  UNL     1      12.609  15.800  18.794  1.00  0.00     0.245 HD
ENDBRANCH  20  22
ENDBRANCH   1  20
BRANCH   1  24
HETATM   24  C3  UNL     1       9.561  16.064  19.274  1.00  0.00     0.099 C 
BRANCH  24  25
HETATM   25  C4  UNL     1       8.265  15.906  19.942  1.00  0.00    -0.019 C 
HETATM   26  C5  UNL     1       7.701  14.815  20.375  1.00  0.00    -0.087 C 
HETATM   27  C6  UNL     1       6.360  14.863  21.036  1.00  0.00     0.043 C 
BRANCH  26  28
HETATM   28  C7  UNL     1       8.319  13.476  20.257  1.00  0.00     0.037 C 
BRANCH  28  29
HETATM   29  C8  UNL     1       7.740  12.681  19.107  1.00  0.00     0.031 C 
BRANCH  29  30
HETATM   30  C9  UNL     1       8.751  12.558  18.002  1.00  0.00    -0.024 C 
HETATM   31  C10 UNL     1       8.601  13.281  16.904  1.00  0.00    -0.079 C 
HETATM   32  C11 UNL     1       7.452  14.210  16.740  1.00  0.00     0.043 C 
BRANCH  31  33
HETATM   33  C12 UNL     1       9.591  13.167  15.808  1.00  0.00     0.133 C 
BRANCH  33  34
HETATM   34  C13 UNL     1      10.586  14.274  15.864  1.00  0.00     0.235 C 
HETATM   35  N2  UNL     1      11.676  14.170  16.733  1.00  0.00    -0.062 NA
HETATM   36  O2  UNL     1      10.483  15.317  15.147  1.00  0.00    -0.277 OA
ENDBRANCH  33  34
ENDBRANCH  31  33
ENDBRANCH  29  30
ENDBRANCH  28  29
ENDBRANCH  26  28
ENDBRANCH  24  25
ENDBRANCH   1  24
BRANCH  14  37
HETATM   37  O7  UNL     1      11.572  13.812  25.382  1.00  0.00    -0.363 OA
HETATM   38  C23 UNL     1      12.838  13.827  25.953  1.00  0.00     0.204 C 
ENDBRANCH  14  37
TORSDOF 10
ENDMDL
MODEL 5
REMARK VINA RESULT: -6.536592558      2.650      5.533
REMARK  10 active torsions:
REMARK  status: ('A' for Active; 'I' for Inactive)
REMARK    1  A    between atoms: N1_2  and  O1_3 
REMARK    2  A    between atoms: N1_2  and  C2_5 
REMARK    3  A    between atoms: C2_5  and  C3_6 
REMARK    4  A    between atoms: C3_6  and  C4_7 
REMARK    5  A    between atoms: C5_8  and  C7_10 
REMARK    6  A    between atoms: C7_10  and  C8_11 
REMARK    7  A    between atoms: C8_11  and  C9_12 
REMARK    8  A    between atoms: C10_13  and  C12_15 
REMARK    9  A    between atoms: C12_15  and  C13_16 
REMARK   10  A    between atoms: C22_31  and  O7_32 
ROOT
HETATM    1  C2  UNL     1       8.174  14.479  20.423  1.00  0.00     0.225 C 
HETATM    2  O3  UNL     1       8.791  13.437  21.078  1.00  0.00    -0.320 OA
HETATM    3  C14 UNL     1       8.244  13.256  22.315  1.00  0.00     0.278 C 
HETATM    4  O4  UNL     1       9.068  13.702  23.355  1.00  0.00    -0.344 OA
HETATM    5  C15 UNL     1       8.183  13.796  24.393  1.00  0.00     0.116 C 
HETATM    6  C16 UNL     1       7.599  12.496  24.850  1.00  0.00     0.052 C 
HETATM    7  C17 UNL     1       8.665  14.576  25.574  1.00  0.00     0.196 C 
HETATM    8  O5  UNL     1       9.514  15.580  25.156  1.00  0.00    -0.345 OA
HETATM    9  C18 UNL     1       9.284  16.683  25.951  1.00  0.00     0.158 C 
HETATM   10  C19 UNL     1       9.584  17.920  25.121  1.00  0.00     0.078 C 
HETATM   11  C20 UNL     1      10.128  16.738  27.184  1.00  0.00     0.078 C 
HETATM   12  O6  UNL     1       7.948  16.645  26.329  1.00  0.00    -0.343 OA
HETATM   13  C21 UNL     1       7.588  15.277  26.297  1.00  0.00     0.212 C 
HETATM   14  C22 UNL     1       6.200  15.188  25.797  1.00  0.00     0.291 C 
HETATM   15  O8  UNL     1       6.016  14.547  24.589  1.00  0.00    -0.349 OA
HETATM   16  C24 UNL     1       7.097  14.695  23.773  1.00  0.00     0.177 C 
HETATM   17  C25 UNL     1       6.985  14.101  22.421  1.00  0.00     0.148 C 
HETATM   18  C26 UNL     1       7.252  15.119  21.394  1.00  0.00     0.196 C 
HETATM   19  O9  UNL     1       6.840  16.255  21.302  1.00  0.00    -0.292 OA
ENDROOT
BRANCH   1  20
HETATM   20  N1  UNL     1       7.382  14.055  19.299  1.00  0.00    -0.238 N 
HETATM   21  C1  UNL     1       7.664  12.966  18.702  1.00  0.00     0.153 C 
BRANCH  20  22
HETATM   22  O1  UNL     1       6.338  14.817  18.885  1.00  0.00    -0.285 OA
ATOM     23  H1  UNL     1       6.134  15.634  19.324  1.00  0.00     0.245 HD
ENDBRANCH  20  22
ENDBRANCH   1  20
BRANCH   1  24
HETATM   24  C3  UNL     1       9.269  15.449  20.005  1.00  0.00     0.099 C 
BRANCH  24  25
HETATM   25  C4  UNL     1      10.384  15.416  20.957  1.00  0.00    -0.019 C 
HETATM   26  C5  UNL     1      11.582  15.909  20.824  1.00  0.00    -0.087 C 
HETATM   27  C6  UNL     1      12.588  15.770  21.921  1.00  0.00     0.043 C 
BRANCH  26  28
HETATM   28  C7  UNL     1      12.035  16.632  19.615  1.00  0.00     0.037 C 
BRANCH  28  29
HETATM   29  C8  UNL     1      12.308  15.692  18.459  1.00  0.00     0.031 C 
BRANCH  29  30
HETATM   30  C9  UNL     1      11.413  16.024  17.299  1.00  0.00    -0.024 C 
HETATM   31  C10 UNL     1      10.826  15.043  16.633  1.00  0.00    -0.079 C 
HETATM   32  C11 UNL     1      11.036  13.620  17.006  1.00  0.00     0.043 C 
BRANCH  31  33
HETATM   33  C12 UNL     1       9.943  15.359  15.487  1.00  0.00     0.133 C 
BRANCH  33  34
HETATM   34  C13 UNL     1       8.511  15.367  15.897  1.00  0.00     0.235 C 
HETATM   35  N2  UNL     1       8.047  16.381  16.740  1.00  0.00    -0.062 NA
HETATM   36  O2  UNL     1       7.687  14.482  15.508  1.00  0.00    -0.277 OA
ENDBRANCH  33  34
ENDBRANCH  31  33
ENDBRANCH  29  30
ENDBRANCH  28  29
ENDBRANCH  26  28
ENDBRANCH  24  25
ENDBRANCH   1  24
BRANCH  14  37
HETATM   37  O7  UNL     1       5.610  16.440  25.667  1.00  0.00    -0.363 OA
HETATM   38  C23 UNL     1       4.235  16.262  25.584  1.00  0.00     0.204 C 
ENDBRANCH  14  37
TORSDOF 10
ENDMDL
