MODEL 1
REMARK VINA RESULT: -6.788639290      0.000      0.000
REMARK  3 active torsions:
REMARK  status: ('A' for Active; 'I' for Inactive)
REMARK    1  A    between atoms: C3_5  and  N2_6 
REMARK    2  A    between atoms: C3_5  and  C6_16 
REMARK    3  A    between atoms: N2_6  and  N3_8 
REMARK       I    between atoms: N3_8  and  C4_10 
ROOT
HETATM    1  C1  UNL     1     -13.039  15.102  34.893  1.00  0.00     0.123 C 
HETATM    2  C2  UNL     1     -13.407  14.030  34.424  1.00  0.00    -0.074 C 
HETATM    3  N1  UNL     1     -13.804  12.805  33.886  1.00  0.00    -0.314 N 
ATOM      4  H1  UNL     1     -13.104  12.187  33.476  1.00  0.00     0.176 HD
HETATM    5  C3  UNL     1     -15.026  12.447  33.898  1.00  0.00     0.107 C 
ENDROOT
BRANCH   5   6
HETATM    6  N2  UNL     1     -15.373  11.196  33.338  1.00  0.00    -0.286 N 
ATOM      7  H2  UNL     1     -15.978  10.573  33.874  1.00  0.00     0.188 HD
BRANCH   6   8
HETATM    8  N3  UNL     1     -14.921  10.773  32.079  1.00  0.00    -0.272 N 
HETATM    9  C4  UNL     1     -15.332   9.572  31.460  1.00  0.00     0.216 C 
HETATM   10  N4  UNL     1     -15.338   9.431  30.048  1.00  0.00    -0.061 NA
HETATM   11  N5  UNL     1     -15.708   8.590  32.182  1.00  0.00    -0.266 N 
HETATM   12  C5  UNL     1     -16.126   7.375  31.620  1.00  0.00     0.184 C 
ATOM     13  H5  UNL     1     -15.705   8.692  33.197  1.00  0.00     0.180 HD
HETATM   14  N6  UNL     1     -16.483   6.376  31.145  1.00  0.00    -0.172 NA
ATOM     15  H3  UNL     1     -14.258  11.368  31.582  1.00  0.00     0.189 HD
ENDBRANCH   6   8
ENDBRANCH   5   6
BRANCH   5  16
HETATM   16  C6  UNL     1     -16.029  13.340  34.487  1.00  0.00     0.055 C 
HETATM   17  C7  UNL     1     -16.702  12.757  35.708  1.00  0.00     0.012 C 
HETATM   18  C8  UNL     1     -18.024  13.486  35.871  1.00  0.00     0.001 C 
HETATM   19  C9  UNL     1     -17.918  14.881  35.292  1.00  0.00     0.000 C 
HETATM   20  C10 UNL     1     -17.783  14.879  33.794  1.00  0.00     0.001 C 
HETATM   21  C11 UNL     1     -17.113  13.550  33.420  1.00  0.00     0.012 C 
ENDBRANCH   5  16
TORSDOF 3
ENDMDL
MODEL 2
REMARK VINA RESULT: -6.687923989      1.538      3.027
REMARK  3 active torsions:
REMARK  status: ('A' for Active; 'I' for Inactive)
REMARK    1  A    between atoms: C3_5  and  N2_6 
REMARK    2  A    between atoms: C3_5  and  C6_16 
REMARK    3  A    between atoms: N2_6  and  N3_8 
REMARK       I    between atoms: N3_8  and  C4_10 
ROOT
HETATM    1  C1  UNL     1     -15.917  12.393  37.852  1.00  0.00     0.123 C 
HETATM    2  C2  UNL     1     -15.966  12.224  36.638  1.00  0.00    -0.074 C 
HETATM    3  N1  UNL     1     -16.035  12.010  35.261  1.00  0.00    -0.314 N 
ATOM      4  H1  UNL     1     -16.481  11.165  34.906  1.00  0.00     0.176 HD
HETATM    5  C3  UNL     1     -15.548  12.854  34.440  1.00  0.00     0.107 C 
ENDROOT
BRANCH   5   6
HETATM    6  N2  UNL     1     -15.644  12.587  33.055  1.00  0.00    -0.286 N 
ATOM      7  H2  UNL     1     -16.427  12.984  32.535  1.00  0.00     0.188 HD
BRANCH   6   8
HETATM    8  N3  UNL     1     -14.710  11.801  32.364  1.00  0.00    -0.272 N 
HETATM    9  C4  UNL     1     -14.969  10.487  31.915  1.00  0.00     0.216 C 
HETATM   10  N4  UNL     1     -14.294   9.942  30.793  1.00  0.00    -0.061 NA
HETATM   11  N5  UNL     1     -15.829   9.772  32.529  1.00  0.00    -0.266 N 
HETATM   12  C5  UNL     1     -16.124   8.462  32.127  1.00  0.00     0.184 C 
ATOM     13  H5  UNL     1     -16.315  10.164  33.335  1.00  0.00     0.180 HD
HETATM   14  N6  UNL     1     -16.373   7.381  31.777  1.00  0.00    -0.172 NA
ATOM     15  H3  UNL     1     -13.791  12.201  32.176  1.00  0.00     0.189 HD
ENDBRANCH   6   8
ENDBRANCH   5   6
BRANCH   5  16
HETATM   16  C6  UNL     1     -14.906  14.067  34.956  1.00  0.00     0.055 C 
HETATM   17  C7  UNL     1     -15.569  15.339  34.483  1.00  0.00     0.012 C 
HETATM   18  C8  UNL     1     -14.539  16.447  34.613  1.00  0.00     0.001 C 
HETATM   19  C9  UNL     1     -13.567  16.118  35.726  1.00  0.00     0.000 C 
HETATM   20  C10 UNL     1     -12.680  14.949  35.394  1.00  0.00     0.001 C 
HETATM   21  C11 UNL     1     -13.468  14.069  34.415  1.00  0.00     0.012 C 
ENDBRANCH   5  16
TORSDOF 3
ENDMDL
MODEL 3
REMARK VINA RESULT: -6.630901115      1.607      1.931
REMARK  3 active torsions:
REMARK  status: ('A' for Active; 'I' for Inactive)
REMARK    1  A    between atoms: C3_5  and  N2_6 
REMARK    2  A    between atoms: C3_5  and  C6_16 
REMARK    3  A    between atoms: N2_6  and  N3_8 
REMARK       I    between atoms: N3_8  and  C4_10 
ROOT
HETATM    1  C1  UNL     1     -15.470  12.554  37.229  1.00  0.00     0.123 C 
HETATM    2  C2  UNL     1     -15.332  12.463  36.013  1.00  0.00    -0.074 C 
HETATM    3  N1  UNL     1     -15.151  12.353  34.634  1.00  0.00    -0.314 N 
ATOM      4  H1  UNL     1     -14.226  12.136  34.264  1.00  0.00     0.176 HD
HETATM    5  C3  UNL     1     -16.124  12.520  33.828  1.00  0.00     0.107 C 
ENDROOT
BRANCH   5   6
HETATM    6  N2  UNL     1     -15.886  12.398  32.440  1.00  0.00    -0.286 N 
ATOM      7  H2  UNL     1     -16.522  12.865  31.794  1.00  0.00     0.188 HD
BRANCH   6   8
HETATM    8  N3  UNL     1     -14.814  11.663  31.914  1.00  0.00    -0.272 N 
HETATM    9  C4  UNL     1     -14.913  10.315  31.504  1.00  0.00     0.216 C 
HETATM   10  N4  UNL     1     -14.059   9.780  30.505  1.00  0.00    -0.061 NA
HETATM   11  N5  UNL     1     -15.788   9.558  32.041  1.00  0.00    -0.266 N 
HETATM   12  C5  UNL     1     -15.929   8.212  31.672  1.00  0.00     0.184 C 
ATOM     13  H5  UNL     1     -16.402   9.942  32.758  1.00  0.00     0.180 HD
HETATM   14  N6  UNL     1     -16.049   7.101  31.350  1.00  0.00    -0.172 NA
ATOM     15  H3  UNL     1     -13.911  12.128  31.822  1.00  0.00     0.189 HD
ENDBRANCH   6   8
ENDBRANCH   5   6
BRANCH   5  16
HETATM   16  C6  UNL     1     -17.453  12.834  34.365  1.00  0.00     0.055 C 
HETATM   17  C7  UNL     1     -18.474  11.753  34.097  1.00  0.00     0.012 C 
HETATM   18  C8  UNL     1     -19.841  12.406  34.194  1.00  0.00     0.001 C 
HETATM   19  C9  UNL     1     -19.782  13.588  35.138  1.00  0.00     0.000 C 
HETATM   20  C10 UNL     1     -18.965  14.727  34.592  1.00  0.00     0.001 C 
HETATM   21  C11 UNL     1     -17.929  14.106  33.647  1.00  0.00     0.012 C 
ENDBRANCH   5  16
TORSDOF 3
ENDMDL
MODEL 4
REMARK VINA RESULT: -6.613002445      2.054      3.710
REMARK  3 active torsions:
REMARK  status: ('A' for Active; 'I' for Inactive)
REMARK    1  A    between atoms: C3_5  and  N2_6 
REMARK    2  A    between atoms: C3_5  and  C6_16 
REMARK    3  A    between atoms: N2_6  and  N3_8 
REMARK       I    between atoms: N3_8  and  C4_10 
ROOT
HETATM    1  C1  UNL     1     -18.982  12.299  37.851  1.00  0.00     0.123 C 
HETATM    2  C2  UNL     1     -19.002  11.875  36.700  1.00  0.00    -0.074 C 
HETATM    3  N1  UNL     1     -19.036  11.372  35.399  1.00  0.00    -0.314 N 
ATOM      4  H1  UNL     1     -19.418  10.441  35.230  1.00  0.00     0.176 HD
HETATM    5  C3  UNL     1     -18.598  12.056  34.418  1.00  0.00     0.107 C 
ENDROOT
BRANCH   5   6
HETATM    6  N2  UNL     1     -18.657  11.499  33.120  1.00  0.00    -0.286 N 
ATOM      7  H2  UNL     1     -18.945  12.096  32.345  1.00  0.00     0.188 HD
BRANCH   6   8
HETATM    8  N3  UNL     1     -18.336  10.160  32.852  1.00  0.00    -0.272 N 
HETATM    9  C4  UNL     1     -17.089   9.738  32.340  1.00  0.00     0.216 C 
HETATM   10  N4  UNL     1     -16.584   8.438  32.598  1.00  0.00    -0.061 NA
HETATM   11  N5  UNL     1     -16.398  10.542  31.631  1.00  0.00    -0.266 N 
HETATM   12  C5  UNL     1     -15.153  10.176  31.097  1.00  0.00     0.184 C 
ATOM     13  H5  UNL     1     -16.760  11.477  31.446  1.00  0.00     0.180 HD
HETATM   14  N6  UNL     1     -14.117   9.868  30.671  1.00  0.00    -0.172 NA
ATOM     15  H3  UNL     1     -19.044   9.449  33.038  1.00  0.00     0.189 HD
ENDBRANCH   6   8
ENDBRANCH   5   6
BRANCH   5  16
HETATM   16  C6  UNL     1     -18.049  13.394  34.666  1.00  0.00     0.055 C 
HETATM   17  C7  UNL     1     -19.046  14.502  34.422  1.00  0.00     0.012 C 
HETATM   18  C8  UNL     1     -18.245  15.769  34.178  1.00  0.00     0.001 C 
HETATM   19  C9  UNL     1     -16.918  15.686  34.903  1.00  0.00     0.000 C 
HETATM   20  C10 UNL     1     -15.997  14.654  34.312  1.00  0.00     0.001 C 
HETATM   21  C11 UNL     1     -16.894  13.586  33.672  1.00  0.00     0.012 C 
ENDBRANCH   5  16
TORSDOF 3
ENDMDL
MODEL 5
REMARK VINA RESULT: -6.520734953      1.040      1.066
REMARK  3 active torsions:
REMARK  status: ('A' for Active; 'I' for Inactive)
REMARK    1  A    between atoms: C3_5  and  N2_6 
REMARK    2  A    between atoms: C3_5  and  C6_16 
REMARK    3  A    between atoms: N2_6  and  N3_8 
REMARK       I    between atoms: N3_8  and  C4_10 
ROOT
HETATM    1  C1  UNL     1     -14.646  15.814  34.976  1.00  0.00     0.123 C 
HETATM    2  C2  UNL     1     -14.701  14.647  34.602  1.00  0.00    -0.074 C 
HETATM    3  N1  UNL     1     -14.738  13.319  34.175  1.00  0.00    -0.314 N 
ATOM      4  H1  UNL     1     -13.874  12.859  33.891  1.00  0.00     0.176 HD
HETATM    5  C3  UNL     1     -15.835  12.673  34.132  1.00  0.00     0.107 C 
ENDROOT
BRANCH   5   6
HETATM    6  N2  UNL     1     -15.816  11.330  33.691  1.00  0.00    -0.286 N 
ATOM      7  H2  UNL     1     -16.375  10.643  34.197  1.00  0.00     0.188 HD
BRANCH   6   8
HETATM    8  N3  UNL     1     -15.063  10.902  32.588  1.00  0.00    -0.272 N 
HETATM    9  C4  UNL     1     -15.332   9.719  31.865  1.00  0.00     0.216 C 
HETATM   10  N4  UNL     1     -14.971   9.588  30.499  1.00  0.00    -0.061 NA
HETATM   11  N5  UNL     1     -15.912   8.745  32.449  1.00  0.00    -0.266 N 
HETATM   12  C5  UNL     1     -16.203   7.547  31.780  1.00  0.00     0.184 C 
ATOM     13  H5  UNL     1     -16.172   8.839  33.430  1.00  0.00     0.180 HD
HETATM   14  N6  UNL     1     -16.452   6.563  31.213  1.00  0.00    -0.172 NA
ATOM     15  H3  UNL     1     -14.275  11.478  32.291  1.00  0.00     0.189 HD
ENDBRANCH   6   8
ENDBRANCH   5   6
BRANCH   5  16
HETATM   16  C6  UNL     1     -17.076  13.341  34.540  1.00  0.00     0.055 C 
HETATM   17  C7  UNL     1     -18.183  12.376  34.896  1.00  0.00     0.012 C 
HETATM   18  C8  UNL     1     -19.490  13.136  34.758  1.00  0.00     0.001 C 
HETATM   19  C9  UNL     1     -19.257  14.611  35.009  1.00  0.00     0.000 C 
HETATM   20  C10 UNL     1     -18.439  15.262  33.928  1.00  0.00     0.001 C 
HETATM   21  C11 UNL     1     -17.551  14.161  33.332  1.00  0.00     0.012 C 
ENDBRANCH   5  16
TORSDOF 3
ENDMDL
