MODEL 1
REMARK VINA RESULT: -6.167493304      0.000      0.000
REMARK  5 active torsions:
REMARK  status: ('A' for Active; 'I' for Inactive)
REMARK    1  A    between atoms: C2_2  and  C3_3 
REMARK    2  A    between atoms: C3_3  and  N1_4 
REMARK       I    between atoms: N1_4  and  C4_6 
REMARK       I    between atoms: C4_6  and  N2_8 
REMARK    3  A    between atoms: N2_8  and  N3_10 
REMARK    4  A    between atoms: N3_10  and  C5_12 
REMARK    5  A    between atoms: C5_12  and  N4_14 
ROOT
HETATM    1  N3  UNL     1     -16.661  12.084  34.605  1.00  0.00    -0.272 N 
ATOM      2  H3  UNL     1     -16.244  11.732  35.467  1.00  0.00     0.189 HD
ENDROOT
BRANCH   1   3
HETATM    3  N2  UNL     1     -17.292  11.189  33.753  1.00  0.00    -0.249 N 
HETATM    4  C4  UNL     1     -16.521  10.279  32.995  1.00  0.00     0.335 C 
HETATM    5  N1  UNL     1     -17.167   9.374  32.141  1.00  0.00    -0.338 N 
HETATM    6  O1  UNL     1     -15.264  10.295  33.098  1.00  0.00    -0.246 OA
ATOM      7  H1  UNL     1     -18.185   9.388  32.080  1.00  0.00     0.164 HD
ATOM      8  H2  UNL     1     -18.309  11.188  33.675  1.00  0.00     0.192 HD
BRANCH   5   9
HETATM    9  C3  UNL     1     -16.430   8.429  31.348  1.00  0.00     0.151 C 
BRANCH   9  10
HETATM   10  C2  UNL     1     -16.415   7.093  31.984  1.00  0.00    -0.018 C 
HETATM   11  C1  UNL     1     -16.433   6.002  31.241  1.00  0.00     0.008 C 
ENDBRANCH   9  10
ENDBRANCH   5   9
ENDBRANCH   1   3
BRANCH   1  12
HETATM   12  C5  UNL     1     -16.574  13.463  34.322  1.00  0.00     0.189 C 
HETATM   13  S1  UNL     1     -17.864  14.342  33.792  1.00  0.00    -0.039 SA
BRANCH  12  14
HETATM   14  N4  UNL     1     -15.326  14.118  34.485  1.00  0.00    -0.353 N 
HETATM   15  C6  UNL     1     -14.066  13.404  34.266  1.00  0.00     0.151 C 
HETATM   16  C7  UNL     1     -13.044  13.959  35.243  1.00  0.00     0.187 C 
HETATM   17  O2  UNL     1     -12.761  15.253  34.865  1.00  0.00    -0.388 OA
HETATM   18  C8  UNL     1     -13.842  16.058  34.589  1.00  0.00     0.187 C 
HETATM   19  C9  UNL     1     -15.188  15.499  34.886  1.00  0.00     0.151 C 
ENDBRANCH  12  14
ENDBRANCH   1  12
TORSDOF 5
ENDMDL
MODEL 2
REMARK VINA RESULT: -6.075552640      0.831      1.480
REMARK  5 active torsions:
REMARK  status: ('A' for Active; 'I' for Inactive)
REMARK    1  A    between atoms: C2_2  and  C3_3 
REMARK    2  A    between atoms: C3_3  and  N1_4 
REMARK       I    between atoms: N1_4  and  C4_6 
REMARK       I    between atoms: C4_6  and  N2_8 
REMARK    3  A    between atoms: N2_8  and  N3_10 
REMARK    4  A    between atoms: N3_10  and  C5_12 
REMARK    5  A    between atoms: C5_12  and  N4_14 
ROOT
HETATM    1  N3  UNL     1     -16.492  12.778  32.489  1.00  0.00    -0.272 N 
ATOM      2  H3  UNL     1     -15.835  13.068  31.765  1.00  0.00     0.189 HD
ENDROOT
BRANCH   1   3
HETATM    3  N2  UNL     1     -17.248  11.632  32.286  1.00  0.00    -0.249 N 
HETATM    4  C4  UNL     1     -16.703  10.367  32.606  1.00  0.00     0.335 C 
HETATM    5  N1  UNL     1     -17.476   9.215  32.403  1.00  0.00    -0.338 N 
HETATM    6  O1  UNL     1     -15.532  10.295  33.067  1.00  0.00    -0.246 OA
ATOM      7  H1  UNL     1     -18.419   9.308  32.027  1.00  0.00     0.164 HD
ATOM      8  H2  UNL     1     -18.192  11.702  31.908  1.00  0.00     0.192 HD
BRANCH   5   9
HETATM    9  C3  UNL     1     -16.971   7.906  32.712  1.00  0.00     0.151 C 
BRANCH   9  10
HETATM   10  C2  UNL     1     -16.369   7.268  31.520  1.00  0.00    -0.018 C 
HETATM   11  C1  UNL     1     -16.432   5.959  31.362  1.00  0.00     0.008 C 
ENDBRANCH   9  10
ENDBRANCH   5   9
ENDBRANCH   1   3
BRANCH   1  12
HETATM   12  C5  UNL     1     -16.600  13.556  33.661  1.00  0.00     0.189 C 
HETATM   13  S1  UNL     1     -18.049  13.892  34.372  1.00  0.00    -0.039 SA
BRANCH  12  14
HETATM   14  N4  UNL     1     -15.419  14.081  34.245  1.00  0.00    -0.353 N 
HETATM   15  C6  UNL     1     -15.409  15.411  34.860  1.00  0.00     0.151 C 
HETATM   16  C7  UNL     1     -14.040  16.022  34.619  1.00  0.00     0.187 C 
HETATM   17  O2  UNL     1     -13.125  15.308  35.360  1.00  0.00    -0.388 OA
HETATM   18  C8  UNL     1     -13.205  13.938  35.272  1.00  0.00     0.187 C 
HETATM   19  C9  UNL     1     -14.154  13.383  34.270  1.00  0.00     0.151 C 
ENDBRANCH  12  14
ENDBRANCH   1  12
TORSDOF 5
ENDMDL
MODEL 3
REMARK VINA RESULT: -6.063484940      1.286      1.625
REMARK  5 active torsions:
REMARK  status: ('A' for Active; 'I' for Inactive)
REMARK    1  A    between atoms: C2_2  and  C3_3 
REMARK    2  A    between atoms: C3_3  and  N1_4 
REMARK       I    between atoms: N1_4  and  C4_6 
REMARK       I    between atoms: C4_6  and  N2_8 
REMARK    3  A    between atoms: N2_8  and  N3_10 
REMARK    4  A    between atoms: N3_10  and  C5_12 
REMARK    5  A    between atoms: C5_12  and  N4_14 
ROOT
HETATM    1  N3  UNL     1     -16.637  12.801  32.578  1.00  0.00    -0.272 N 
ATOM      2  H3  UNL     1     -15.979  13.132  31.872  1.00  0.00     0.189 HD
ENDROOT
BRANCH   1   3
HETATM    3  N2  UNL     1     -17.340  11.629  32.339  1.00  0.00    -0.249 N 
HETATM    4  C4  UNL     1     -16.744  10.381  32.635  1.00  0.00     0.335 C 
HETATM    5  N1  UNL     1     -17.464   9.202  32.397  1.00  0.00    -0.338 N 
HETATM    6  O1  UNL     1     -15.576  10.349  33.107  1.00  0.00    -0.246 OA
ATOM      7  H1  UNL     1     -18.406   9.263  32.013  1.00  0.00     0.164 HD
ATOM      8  H2  UNL     1     -18.283  11.667  31.953  1.00  0.00     0.192 HD
BRANCH   5   9
HETATM    9  C3  UNL     1     -16.905   7.909  32.679  1.00  0.00     0.151 C 
BRANCH   9  10
HETATM   10  C2  UNL     1     -16.375   7.273  31.453  1.00  0.00    -0.018 C 
HETATM   11  C1  UNL     1     -16.389   5.959  31.324  1.00  0.00     0.008 C 
ENDBRANCH   9  10
ENDBRANCH   5   9
ENDBRANCH   1   3
BRANCH   1  12
HETATM   12  C5  UNL     1     -16.799  13.551  33.761  1.00  0.00     0.189 C 
HETATM   13  S1  UNL     1     -18.166  14.414  34.084  1.00  0.00    -0.039 SA
BRANCH  12  14
HETATM   14  N4  UNL     1     -15.741  13.577  34.706  1.00  0.00    -0.353 N 
HETATM   15  C6  UNL     1     -14.678  14.583  34.620  1.00  0.00     0.151 C 
HETATM   16  C7  UNL     1     -13.391  13.936  35.098  1.00  0.00     0.187 C 
HETATM   17  O2  UNL     1     -13.514  13.700  36.449  1.00  0.00    -0.388 OA
HETATM   18  C8  UNL     1     -14.684  13.104  36.859  1.00  0.00     0.187 C 
HETATM   19  C9  UNL     1     -15.609  12.634  35.792  1.00  0.00     0.151 C 
ENDBRANCH  12  14
ENDBRANCH   1  12
TORSDOF 5
ENDMDL
MODEL 4
REMARK VINA RESULT: -6.003717262      1.294      1.403
REMARK  5 active torsions:
REMARK  status: ('A' for Active; 'I' for Inactive)
REMARK    1  A    between atoms: C2_2  and  C3_3 
REMARK    2  A    between atoms: C3_3  and  N1_4 
REMARK       I    between atoms: N1_4  and  C4_6 
REMARK       I    between atoms: C4_6  and  N2_8 
REMARK    3  A    between atoms: N2_8  and  N3_10 
REMARK    4  A    between atoms: N3_10  and  C5_12 
REMARK    5  A    between atoms: C5_12  and  N4_14 
ROOT
HETATM    1  N3  UNL     1     -16.595  12.795  32.545  1.00  0.00    -0.272 N 
ATOM      2  H3  UNL     1     -15.939  13.121  31.835  1.00  0.00     0.189 HD
ENDROOT
BRANCH   1   3
HETATM    3  N2  UNL     1     -17.308  11.628  32.311  1.00  0.00    -0.249 N 
HETATM    4  C4  UNL     1     -16.724  10.377  32.614  1.00  0.00     0.335 C 
HETATM    5  N1  UNL     1     -17.454   9.203  32.380  1.00  0.00    -0.338 N 
HETATM    6  O1  UNL     1     -15.557  10.336  33.088  1.00  0.00    -0.246 OA
ATOM      7  H1  UNL     1     -18.396   9.271  31.994  1.00  0.00     0.164 HD
ATOM      8  H2  UNL     1     -18.250  11.673  31.923  1.00  0.00     0.192 HD
BRANCH   5   9
HETATM    9  C3  UNL     1     -16.907   7.906  32.670  1.00  0.00     0.151 C 
BRANCH   9  10
HETATM   10  C2  UNL     1     -16.380   7.260  31.448  1.00  0.00    -0.018 C 
HETATM   11  C1  UNL     1     -16.408   5.946  31.323  1.00  0.00     0.008 C 
ENDBRANCH   9  10
ENDBRANCH   5   9
ENDBRANCH   1   3
BRANCH   1  12
HETATM   12  C5  UNL     1     -16.743  13.546  33.730  1.00  0.00     0.189 C 
HETATM   13  S1  UNL     1     -18.142  14.328  34.115  1.00  0.00    -0.039 SA
BRANCH  12  14
HETATM   14  N4  UNL     1     -15.643  13.645  34.620  1.00  0.00    -0.353 N 
HETATM   15  C6  UNL     1     -15.412  12.628  35.649  1.00  0.00     0.151 C 
HETATM   16  C7  UNL     1     -14.822  13.324  36.862  1.00  0.00     0.187 C 
HETATM   17  O2  UNL     1     -13.555  13.750  36.529  1.00  0.00    -0.388 OA
HETATM   18  C8  UNL     1     -13.431  14.409  35.328  1.00  0.00     0.187 C 
HETATM   19  C9  UNL     1     -14.690  14.731  34.605  1.00  0.00     0.151 C 
ENDBRANCH  12  14
ENDBRANCH   1  12
TORSDOF 5
ENDMDL
MODEL 5
REMARK VINA RESULT: -5.976678355      1.639      1.849
REMARK  5 active torsions:
REMARK  status: ('A' for Active; 'I' for Inactive)
REMARK    1  A    between atoms: C2_2  and  C3_3 
REMARK    2  A    between atoms: C3_3  and  N1_4 
REMARK       I    between atoms: N1_4  and  C4_6 
REMARK       I    between atoms: C4_6  and  N2_8 
REMARK    3  A    between atoms: N2_8  and  N3_10 
REMARK    4  A    between atoms: N3_10  and  C5_12 
REMARK    5  A    between atoms: C5_12  and  N4_14 
ROOT
HETATM    1  N3  UNL     1     -14.135  12.398  33.131  1.00  0.00    -0.272 N 
ATOM      2  H3  UNL     1     -13.123  12.303  33.221  1.00  0.00     0.189 HD
ENDROOT
BRANCH   1   3
HETATM    3  N2  UNL     1     -14.799  11.626  32.189  1.00  0.00    -0.249 N 
HETATM    4  C4  UNL     1     -15.457  10.441  32.591  1.00  0.00     0.335 C 
HETATM    5  N1  UNL     1     -16.131   9.670  31.633  1.00  0.00    -0.338 N 
HETATM    6  O1  UNL     1     -15.426  10.095  33.803  1.00  0.00    -0.246 OA
ATOM      7  H1  UNL     1     -16.136   9.977  30.661  1.00  0.00     0.164 HD
ATOM      8  H2  UNL     1     -14.814  11.913  31.211  1.00  0.00     0.192 HD
BRANCH   5   9
HETATM    9  C3  UNL     1     -16.814   8.457  31.989  1.00  0.00     0.151 C 
BRANCH   9  10
HETATM   10  C2  UNL     1     -16.433   7.343  31.093  1.00  0.00    -0.018 C 
HETATM   11  C1  UNL     1     -16.464   6.098  31.528  1.00  0.00     0.008 C 
ENDBRANCH   9  10
ENDBRANCH   5   9
ENDBRANCH   1   3
BRANCH   1  12
HETATM   12  C5  UNL     1     -14.808  13.310  33.971  1.00  0.00     0.189 C 
HETATM   13  S1  UNL     1     -16.418  13.631  33.821  1.00  0.00    -0.039 SA
BRANCH  12  14
HETATM   14  N4  UNL     1     -14.071  13.987  34.976  1.00  0.00    -0.353 N 
HETATM   15  C6  UNL     1     -14.238  13.648  36.392  1.00  0.00     0.151 C 
HETATM   16  C7  UNL     1     -14.069  14.924  37.196  1.00  0.00     0.187 C 
HETATM   17  O2  UNL     1     -12.750  15.309  37.102  1.00  0.00    -0.388 OA
HETATM   18  C8  UNL     1     -12.203  15.307  35.840  1.00  0.00     0.187 C 
HETATM   19  C9  UNL     1     -13.131  15.051  34.706  1.00  0.00     0.151 C 
ENDBRANCH  12  14
ENDBRANCH   1  12
TORSDOF 5
ENDMDL
