MODEL 1
REMARK VINA RESULT: -8.282338100      0.000      0.000
REMARK  7 active torsions:
REMARK  status: ('A' for Active; 'I' for Inactive)
REMARK    1  A    between atoms: O1_1  and  C1_3 
REMARK    2  A    between atoms: C1_3  and  N1_4 
REMARK    3  A    between atoms: C1_3  and  C9_20 
REMARK    4  A    between atoms: C4_7  and  N2_8 
REMARK    5  A    between atoms: N2_8  and  S1_10 
REMARK    6  A    between atoms: S1_10  and  N3_13 
REMARK    7  A    between atoms: C9_20  and  C10_21 
ROOT
HETATM    1  N1  UNL     1      46.038  51.208  33.330  1.00  0.00    -0.363 N 
HETATM    2  C2  UNL     1      47.441  51.441  32.888  1.00  0.00     0.127 C 
HETATM    3  C3  UNL     1      48.241  50.926  34.068  1.00  0.00     0.047 C 
HETATM    4  C4  UNL     1      47.262  50.794  35.190  1.00  0.00     0.113 C 
HETATM    5  C8  UNL     1      46.084  51.613  34.687  1.00  0.00     0.150 C 
ENDROOT
BRANCH   1   6
HETATM    6  C1  UNL     1      45.063  50.712  32.488  1.00  0.00     0.122 C 
BRANCH   6   7
HETATM    7  O1  UNL     1      43.890  51.298  32.578  1.00  0.00    -0.349 OA
ATOM      8  H1  UNL     1      43.728  51.985  31.942  1.00  0.00     0.219 HD
ENDBRANCH   6   7
BRANCH   6   9
HETATM    9  C9  UNL     1      45.102  49.626  31.488  1.00  0.00     0.028 C 
HETATM   10  C16 UNL     1      45.709  50.076  30.208  1.00  0.00     0.018 C 
HETATM   11  C17 UNL     1      44.490  49.588  29.412  1.00  0.00     0.002 C 
HETATM   12  C18 UNL     1      43.802  49.494  30.784  1.00  0.00     0.018 C 
BRANCH   9  13
HETATM   13  C10 UNL     1      45.670  48.323  32.048  1.00  0.00     0.002 C 
HETATM   14  C11 UNL     1      47.129  48.164  31.717  1.00  0.00     0.006 C 
HETATM   15  C12 UNL     1      47.746  46.911  32.245  1.00  0.00     0.000 C 
HETATM   16  C13 UNL     1      47.057  46.380  33.483  1.00  0.00     0.000 C 
HETATM   17  C14 UNL     1      46.618  47.606  34.262  1.00  0.00     0.000 C 
HETATM   18  C15 UNL     1      45.398  48.113  33.495  1.00  0.00     0.006 C 
ENDBRANCH   9  13
ENDBRANCH   6   9
ENDBRANCH   1   6
BRANCH   4  19
HETATM   19  N2  UNL     1      47.737  51.160  36.461  1.00  0.00    -0.300 N 
ATOM     20  H2  UNL     1      47.498  52.062  36.874  1.00  0.00     0.173 HD
BRANCH  19  21
HETATM   21  S1  UNL     1      48.715  50.060  37.281  1.00  0.00     0.299 S 
HETATM   22  O2  UNL     1      49.953  49.660  36.538  1.00  0.00    -0.188 OA
HETATM   23  O3  UNL     1      49.180  50.690  38.573  1.00  0.00    -0.188 OA
BRANCH  21  24
HETATM   24  N3  UNL     1      47.794  48.653  37.747  1.00  0.00    -0.182 NA
HETATM   25  C5  UNL     1      46.723  49.057  38.632  1.00  0.00     0.189 C 
HETATM   26  C6  UNL     1      47.378  48.436  39.825  1.00  0.00     0.268 C 
HETATM   27  F1  UNL     1      46.555  47.472  40.384  1.00  0.00    -0.204 F 
HETATM   28  F2  UNL     1      47.846  49.311  40.771  1.00  0.00    -0.204 F 
HETATM   29  C7  UNL     1      48.387  47.917  38.844  1.00  0.00     0.189 C 
ENDBRANCH  21  24
ENDBRANCH  19  21
ENDBRANCH   4  19
TORSDOF 7
ENDMDL
MODEL 2
REMARK VINA RESULT: -7.982137821      1.662      2.799
REMARK  7 active torsions:
REMARK  status: ('A' for Active; 'I' for Inactive)
REMARK    1  A    between atoms: O1_1  and  C1_3 
REMARK    2  A    between atoms: C1_3  and  N1_4 
REMARK    3  A    between atoms: C1_3  and  C9_20 
REMARK    4  A    between atoms: C4_7  and  N2_8 
REMARK    5  A    between atoms: N2_8  and  S1_10 
REMARK    6  A    between atoms: S1_10  and  N3_13 
REMARK    7  A    between atoms: C9_20  and  C10_21 
ROOT
HETATM    1  N1  UNL     1      47.172  50.824  33.190  1.00  0.00    -0.363 N 
HETATM    2  C2  UNL     1      48.255  50.069  32.499  1.00  0.00     0.127 C 
HETATM    3  C3  UNL     1      48.673  49.066  33.556  1.00  0.00     0.047 C 
HETATM    4  C4  UNL     1      48.076  49.556  34.836  1.00  0.00     0.113 C 
HETATM    5  C8  UNL     1      47.710  50.992  34.490  1.00  0.00     0.150 C 
ENDROOT
BRANCH   1   6
HETATM    6  C1  UNL     1      45.997  51.185  32.561  1.00  0.00     0.122 C 
BRANCH   6   7
HETATM    7  O1  UNL     1      45.814  52.478  32.409  1.00  0.00    -0.349 OA
ATOM      8  H1  UNL     1      46.017  53.009  33.170  1.00  0.00     0.219 HD
ENDBRANCH   6   7
BRANCH   6   9
HETATM    9  C9  UNL     1      44.893  50.368  32.020  1.00  0.00     0.028 C 
HETATM   10  C16 UNL     1      43.568  50.994  32.273  1.00  0.00     0.018 C 
HETATM   11  C17 UNL     1      43.041  49.709  32.928  1.00  0.00     0.002 C 
HETATM   12  C18 UNL     1      44.517  49.281  32.957  1.00  0.00     0.018 C 
BRANCH   9  13
HETATM   13  C10 UNL     1      45.131  49.927  30.577  1.00  0.00     0.002 C 
HETATM   14  C11 UNL     1      45.500  48.470  30.494  1.00  0.00     0.006 C 
HETATM   15  C12 UNL     1      45.739  47.976  29.105  1.00  0.00     0.000 C 
HETATM   16  C13 UNL     1      44.985  48.759  28.053  1.00  0.00     0.000 C 
HETATM   17  C14 UNL     1      43.664  49.138  28.696  1.00  0.00     0.000 C 
HETATM   18  C15 UNL     1      44.029  50.279  29.644  1.00  0.00     0.006 C 
ENDBRANCH   9  13
ENDBRANCH   6   9
ENDBRANCH   1   6
BRANCH   4  19
HETATM   19  N2  UNL     1      48.879  49.411  35.980  1.00  0.00    -0.300 N 
ATOM     20  H2  UNL     1      49.823  49.028  35.917  1.00  0.00     0.173 HD
BRANCH  19  21
HETATM   21  S1  UNL     1      48.232  49.891  37.459  1.00  0.00     0.299 S 
HETATM   22  O2  UNL     1      48.472  51.331  37.801  1.00  0.00    -0.188 OA
HETATM   23  O3  UNL     1      46.732  49.710  37.417  1.00  0.00    -0.188 OA
BRANCH  21  24
HETATM   24  N3  UNL     1      48.797  48.851  38.740  1.00  0.00    -0.182 NA
HETATM   25  C5  UNL     1      47.910  47.714  38.856  1.00  0.00     0.189 C 
HETATM   26  C6  UNL     1      47.337  48.201  40.150  1.00  0.00     0.268 C 
HETATM   27  F1  UNL     1      47.548  47.271  41.155  1.00  0.00    -0.204 F 
HETATM   28  F2  UNL     1      46.030  48.611  40.106  1.00  0.00    -0.204 F 
HETATM   29  C7  UNL     1      48.374  49.281  40.057  1.00  0.00     0.189 C 
ENDBRANCH  21  24
ENDBRANCH  19  21
ENDBRANCH   4  19
TORSDOF 7
ENDMDL
MODEL 3
REMARK VINA RESULT: -7.957310927      1.610      1.998
REMARK  7 active torsions:
REMARK  status: ('A' for Active; 'I' for Inactive)
REMARK    1  A    between atoms: O1_1  and  C1_3 
REMARK    2  A    between atoms: C1_3  and  N1_4 
REMARK    3  A    between atoms: C1_3  and  C9_20 
REMARK    4  A    between atoms: C4_7  and  N2_8 
REMARK    5  A    between atoms: N2_8  and  S1_10 
REMARK    6  A    between atoms: S1_10  and  N3_13 
REMARK    7  A    between atoms: C9_20  and  C10_21 
ROOT
HETATM    1  N1  UNL     1      47.548  50.836  32.341  1.00  0.00    -0.363 N 
HETATM    2  C2  UNL     1      49.029  50.964  32.260  1.00  0.00     0.127 C 
HETATM    3  C3  UNL     1      49.481  50.299  33.545  1.00  0.00     0.047 C 
HETATM    4  C4  UNL     1      48.255  50.186  34.393  1.00  0.00     0.113 C 
HETATM    5  C8  UNL     1      47.297  51.144  33.701  1.00  0.00     0.150 C 
ENDROOT
BRANCH   1   6
HETATM    6  C1  UNL     1      46.768  50.491  31.255  1.00  0.00     0.122 C 
BRANCH   6   7
HETATM    7  O1  UNL     1      46.879  51.278  30.209  1.00  0.00    -0.349 OA
ATOM      8  H1  UNL     1      47.425  50.945  29.506  1.00  0.00     0.219 HD
ENDBRANCH   6   7
BRANCH   6   9
HETATM    9  C9  UNL     1      45.817  49.379  31.055  1.00  0.00     0.028 C 
HETATM   10  C16 UNL     1      44.974  49.585  29.849  1.00  0.00     0.018 C 
HETATM   11  C17 UNL     1      43.688  49.388  30.665  1.00  0.00     0.002 C 
HETATM   12  C18 UNL     1      44.602  49.552  31.889  1.00  0.00     0.018 C 
BRANCH   9  13
HETATM   13  C10 UNL     1      46.480  48.006  31.151  1.00  0.00     0.002 C 
HETATM   14  C11 UNL     1      47.727  47.929  30.314  1.00  0.00     0.006 C 
HETATM   15  C12 UNL     1      48.425  46.610  30.372  1.00  0.00     0.000 C 
HETATM   16  C13 UNL     1      48.179  45.859  31.662  1.00  0.00     0.000 C 
HETATM   17  C14 UNL     1      48.093  46.920  32.742  1.00  0.00     0.000 C 
HETATM   18  C15 UNL     1      46.711  47.538  32.544  1.00  0.00     0.006 C 
ENDBRANCH   9  13
ENDBRANCH   6   9
ENDBRANCH   1   6
BRANCH   4  19
HETATM   19  N2  UNL     1      48.438  50.422  35.766  1.00  0.00    -0.300 N 
ATOM     20  H2  UNL     1      49.067  51.153  36.097  1.00  0.00     0.173 HD
BRANCH  19  21
HETATM   21  S1  UNL     1      47.582  49.455  36.849  1.00  0.00     0.299 S 
HETATM   22  O2  UNL     1      46.355  50.102  37.418  1.00  0.00    -0.188 OA
HETATM   23  O3  UNL     1      47.111  48.214  36.128  1.00  0.00    -0.188 OA
BRANCH  21  24
HETATM   24  N3  UNL     1      48.630  48.892  38.125  1.00  0.00    -0.182 NA
HETATM   25  C5  UNL     1      48.136  47.626  38.621  1.00  0.00     0.189 C 
HETATM   26  C6  UNL     1      47.677  48.228  39.912  1.00  0.00     0.268 C 
HETATM   27  F1  UNL     1      48.311  47.622  40.983  1.00  0.00    -0.204 F 
HETATM   28  F2  UNL     1      46.319  48.284  40.093  1.00  0.00    -0.204 F 
HETATM   29  C7  UNL     1      48.332  49.483  39.413  1.00  0.00     0.189 C 
ENDBRANCH  21  24
ENDBRANCH  19  21
ENDBRANCH   4  19
TORSDOF 7
ENDMDL
MODEL 4
REMARK VINA RESULT: -7.859969241      6.080      7.890
REMARK  7 active torsions:
REMARK  status: ('A' for Active; 'I' for Inactive)
REMARK    1  A    between atoms: O1_1  and  C1_3 
REMARK    2  A    between atoms: C1_3  and  N1_4 
REMARK    3  A    between atoms: C1_3  and  C9_20 
REMARK    4  A    between atoms: C4_7  and  N2_8 
REMARK    5  A    between atoms: N2_8  and  S1_10 
REMARK    6  A    between atoms: S1_10  and  N3_13 
REMARK    7  A    between atoms: C9_20  and  C10_21 
ROOT
HETATM    1  N1  UNL     1      53.132  48.989  35.225  1.00  0.00    -0.363 N 
HETATM    2  C2  UNL     1      53.307  50.468  35.224  1.00  0.00     0.127 C 
HETATM    3  C3  UNL     1      52.038  50.943  35.904  1.00  0.00     0.047 C 
HETATM    4  C4  UNL     1      51.115  49.767  35.900  1.00  0.00     0.113 C 
HETATM    5  C8  UNL     1      51.766  48.850  34.876  1.00  0.00     0.150 C 
ENDROOT
BRANCH   1   6
HETATM    6  C1  UNL     1      54.162  48.117  35.521  1.00  0.00     0.122 C 
BRANCH   6   7
HETATM    7  O1  UNL     1      54.360  47.893  36.800  1.00  0.00    -0.349 OA
ATOM      8  H1  UNL     1      55.093  47.325  37.005  1.00  0.00     0.219 HD
ENDBRANCH   6   7
BRANCH   6   9
HETATM    9  C9  UNL     1      55.093  47.379  34.644  1.00  0.00     0.028 C 
HETATM   10  C16 UNL     1      55.605  48.234  33.541  1.00  0.00     0.018 C 
HETATM   11  C17 UNL     1      55.171  47.204  32.488  1.00  0.00     0.002 C 
HETATM   12  C18 UNL     1      54.360  46.576  33.633  1.00  0.00     0.018 C 
BRANCH   9  13
HETATM   13  C10 UNL     1      56.166  46.619  35.422  1.00  0.00     0.002 C 
HETATM   14  C11 UNL     1      56.035  45.131  35.243  1.00  0.00     0.006 C 
HETATM   15  C12 UNL     1      57.062  44.332  35.974  1.00  0.00     0.000 C 
HETATM   16  C13 UNL     1      58.355  45.084  36.203  1.00  0.00     0.000 C 
HETATM   17  C14 UNL     1      58.545  45.950  34.972  1.00  0.00     0.000 C 
HETATM   18  C15 UNL     1      57.552  47.094  35.167  1.00  0.00     0.006 C 
ENDBRANCH   9  13
ENDBRANCH   6   9
ENDBRANCH   1   6
BRANCH   4  19
HETATM   19  N2  UNL     1      49.760  50.054  35.659  1.00  0.00    -0.300 N 
ATOM     20  H2  UNL     1      49.396  50.119  34.709  1.00  0.00     0.173 HD
BRANCH  19  21
HETATM   21  S1  UNL     1      48.758  50.287  36.993  1.00  0.00     0.299 S 
HETATM   22  O2  UNL     1      49.433  50.930  38.168  1.00  0.00    -0.188 OA
HETATM   23  O3  UNL     1      47.627  51.207  36.599  1.00  0.00    -0.188 OA
BRANCH  21  24
HETATM   24  N3  UNL     1      48.004  48.785  37.461  1.00  0.00    -0.182 NA
HETATM   25  C5  UNL     1      46.869  49.068  38.312  1.00  0.00     0.189 C 
HETATM   26  C6  UNL     1      47.563  48.550  39.532  1.00  0.00     0.268 C 
HETATM   27  F1  UNL     1      46.849  47.501  40.087  1.00  0.00    -0.204 F 
HETATM   28  F2  UNL     1      47.895  49.489  40.473  1.00  0.00    -0.204 F 
HETATM   29  C7  UNL     1      48.653  48.144  38.586  1.00  0.00     0.189 C 
ENDBRANCH  21  24
ENDBRANCH  19  21
ENDBRANCH   4  19
TORSDOF 7
ENDMDL
MODEL 5
REMARK VINA RESULT: -7.690637148      5.631      7.718
REMARK  7 active torsions:
REMARK  status: ('A' for Active; 'I' for Inactive)
REMARK    1  A    between atoms: O1_1  and  C1_3 
REMARK    2  A    between atoms: C1_3  and  N1_4 
REMARK    3  A    between atoms: C1_3  and  C9_20 
REMARK    4  A    between atoms: C4_7  and  N2_8 
REMARK    5  A    between atoms: N2_8  and  S1_10 
REMARK    6  A    between atoms: S1_10  and  N3_13 
REMARK    7  A    between atoms: C9_20  and  C10_21 
ROOT
HETATM    1  N1  UNL     1      52.740  51.098  34.920  1.00  0.00    -0.363 N 
HETATM    2  C2  UNL     1      52.181  50.344  33.764  1.00  0.00     0.127 C 
HETATM    3  C3  UNL     1      50.788  49.997  34.249  1.00  0.00     0.047 C 
HETATM    4  C4  UNL     1      50.800  50.247  35.723  1.00  0.00     0.113 C 
HETATM    5  C8  UNL     1      52.289  50.330  36.022  1.00  0.00     0.150 C 
ENDROOT
BRANCH   1   6
HETATM    6  C1  UNL     1      53.491  52.248  34.768  1.00  0.00     0.122 C 
BRANCH   6   7
HETATM    7  O1  UNL     1      52.890  53.362  35.120  1.00  0.00    -0.349 OA
ATOM      8  H1  UNL     1      53.266  53.807  35.871  1.00  0.00     0.219 HD
ENDBRANCH   6   7
BRANCH   6   9
HETATM    9  C9  UNL     1      54.867  52.452  34.275  1.00  0.00     0.028 C 
HETATM   10  C16 UNL     1      55.349  53.833  34.541  1.00  0.00     0.018 C 
HETATM   11  C17 UNL     1      55.719  54.032  33.064  1.00  0.00     0.002 C 
HETATM   12  C18 UNL     1      54.879  52.767  32.824  1.00  0.00     0.018 C 
BRANCH   9  13
HETATM   13  C10 UNL     1      55.824  51.342  34.705  1.00  0.00     0.002 C 
HETATM   14  C11 UNL     1      56.308  50.536  33.530  1.00  0.00     0.006 C 
HETATM   15  C12 UNL     1      57.254  49.438  33.886  1.00  0.00     0.000 C 
HETATM   16  C13 UNL     1      58.034  49.707  35.155  1.00  0.00     0.000 C 
HETATM   17  C14 UNL     1      58.290  51.202  35.166  1.00  0.00     0.000 C 
HETATM   18  C15 UNL     1      56.945  51.805  35.566  1.00  0.00     0.006 C 
ENDBRANCH   9  13
ENDBRANCH   6   9
ENDBRANCH   1   6
BRANCH   4  19
HETATM   19  N2  UNL     1      50.091  49.321  36.507  1.00  0.00    -0.300 N 
ATOM     20  H2  UNL     1      50.426  48.365  36.626  1.00  0.00     0.173 HD
BRANCH  19  21
HETATM   21  S1  UNL     1      48.669  49.844  37.243  1.00  0.00     0.299 S 
HETATM   22  O2  UNL     1      48.871  50.860  38.327  1.00  0.00    -0.188 OA
HETATM   23  O3  UNL     1      47.793  50.502  36.203  1.00  0.00    -0.188 OA
BRANCH  21  24
HETATM   24  N3  UNL     1      47.753  48.483  37.838  1.00  0.00    -0.182 NA
HETATM   25  C5  UNL     1      46.721  48.959  38.733  1.00  0.00     0.189 C 
HETATM   26  C6  UNL     1      47.415  48.413  39.941  1.00  0.00     0.268 C 
HETATM   27  F1  UNL     1      46.605  47.499  40.594  1.00  0.00    -0.204 F 
HETATM   28  F2  UNL     1      47.927  49.344  40.806  1.00  0.00    -0.204 F 
HETATM   29  C7  UNL     1      48.381  47.816  38.960  1.00  0.00     0.189 C 
ENDBRANCH  21  24
ENDBRANCH  19  21
ENDBRANCH   4  19
TORSDOF 7
ENDMDL
