MODEL 1
REMARK VINA RESULT: -7.237621004      0.000      0.000
REMARK  4 active torsions:
REMARK  status: ('A' for Active; 'I' for Inactive)
REMARK    1  A    between atoms: C1_2  and  C2_3 
REMARK       I    between atoms: C1_2  and  N2_21 
REMARK    2  A    between atoms: C2_3  and  N1_4 
REMARK       I    between atoms: N1_4  and  C3_6 
REMARK    3  A    between atoms: C3_6  and  C4_8 
REMARK    4  A    between atoms: C10_15  and  C11_16 
ROOT
HETATM    1  C4  UNL     1      55.627  47.467  35.082  1.00  0.00     0.045 C 
HETATM    2  C5  UNL     1      57.062  47.818  34.855  1.00  0.00     0.024 C 
HETATM    3  C6  UNL     1      57.882  46.584  34.702  1.00  0.00    -0.009 C 
HETATM    4  C7  UNL     1      57.748  45.668  35.897  1.00  0.00     0.048 C 
HETATM    5  C8  UNL     1      56.299  45.271  36.013  1.00  0.00     0.105 C 
HETATM    6  F1  UNL     1      56.146  44.439  37.119  1.00  0.00    -0.243 F 
HETATM    7  C9  UNL     1      55.801  44.556  34.783  1.00  0.00     0.054 C 
HETATM    8  C10 UNL     1      55.949  45.509  33.615  1.00  0.00    -0.027 C 
HETATM    9  C12 UNL     1      57.412  45.839  33.479  1.00  0.00     0.015 C 
HETATM   10  C13 UNL     1      55.103  46.728  33.884  1.00  0.00     0.029 C 
HETATM   11  C14 UNL     1      55.506  46.512  36.274  1.00  0.00     0.062 C 
ENDROOT
BRANCH   1  12
HETATM   12  C3  UNL     1      54.792  48.661  35.358  1.00  0.00     0.227 C 
HETATM   13  N1  UNL     1      53.388  48.544  35.506  1.00  0.00    -0.352 N 
ATOM     14  H1  UNL     1      52.983  47.612  35.414  1.00  0.00     0.162 HD
HETATM   15  O2  UNL     1      55.385  49.767  35.454  1.00  0.00    -0.273 OA
BRANCH  13  16
HETATM   16  C2  UNL     1      52.498  49.619  35.770  1.00  0.00     0.225 C 
BRANCH  16  17
HETATM   17  C1  UNL     1      51.137  49.434  35.223  1.00  0.00     0.237 C 
HETATM   18  O1  UNL     1      50.877  48.544  34.357  1.00  0.00    -0.272 OA
HETATM   19  N2  UNL     1      50.109  50.273  35.683  1.00  0.00    -0.347 N 
HETATM   20  C15 UNL     1      50.369  51.290  36.661  1.00  0.00     0.152 C 
HETATM   21  C18 UNL     1      48.776  50.118  35.172  1.00  0.00     0.152 C 
HETATM   22  C16 UNL     1      49.393  51.263  37.811  1.00  0.00     0.187 C 
HETATM   23  O3  UNL     1      48.192  50.706  37.425  1.00  0.00    -0.388 OA
HETATM   24  C17 UNL     1      47.867  50.917  36.108  1.00  0.00     0.187 C 
ENDBRANCH  16  17
ENDBRANCH  13  16
ENDBRANCH   1  12
BRANCH   8  25
HETATM   25  C11 UNL     1      55.514  44.853  32.315  1.00  0.00     0.095 C 
HETATM   26 BR1  UNL     1      53.605  44.556  32.289  1.00  0.00    -0.096 Br
ENDBRANCH   8  25
TORSDOF 4
ENDMDL
MODEL 2
REMARK VINA RESULT: -7.213208733      9.590     12.402
REMARK  4 active torsions:
REMARK  status: ('A' for Active; 'I' for Inactive)
REMARK    1  A    between atoms: C1_2  and  C2_3 
REMARK       I    between atoms: C1_2  and  N2_21 
REMARK    2  A    between atoms: C2_3  and  N1_4 
REMARK       I    between atoms: N1_4  and  C3_6 
REMARK    3  A    between atoms: C3_6  and  C4_8 
REMARK    4  A    between atoms: C10_15  and  C11_16 
ROOT
HETATM    1  C4  UNL     1      44.628  49.550  30.528  1.00  0.00     0.045 C 
HETATM    2  C5  UNL     1      43.645  49.602  31.652  1.00  0.00     0.024 C 
HETATM    3  C6  UNL     1      44.352  49.669  32.961  1.00  0.00    -0.009 C 
HETATM    4  C7  UNL     1      45.302  48.508  33.147  1.00  0.00     0.048 C 
HETATM    5  C8  UNL     1      46.326  48.569  32.042  1.00  0.00     0.105 C 
HETATM    6  F1  UNL     1      47.205  47.498  32.182  1.00  0.00    -0.243 F 
HETATM    7  C9  UNL     1      47.110  49.856  32.059  1.00  0.00     0.054 C 
HETATM    8  C10 UNL     1      46.122  50.989  31.865  1.00  0.00    -0.027 C 
HETATM    9  C12 UNL     1      45.151  50.947  33.015  1.00  0.00     0.015 C 
HETATM   10  C13 UNL     1      45.447  50.809  30.529  1.00  0.00     0.029 C 
HETATM   11  C14 UNL     1      45.607  48.391  30.744  1.00  0.00     0.062 C 
ENDROOT
BRANCH   1  12
HETATM   12  C3  UNL     1      43.970  49.363  29.212  1.00  0.00     0.227 C 
HETATM   13  N1  UNL     1      44.712  48.921  28.088  1.00  0.00    -0.352 N 
ATOM     14  H1  UNL     1      45.707  48.741  28.225  1.00  0.00     0.162 HD
HETATM   15  O2  UNL     1      42.738  49.612  29.145  1.00  0.00    -0.273 OA
BRANCH  13  16
HETATM   16  C2  UNL     1      44.183  48.710  26.788  1.00  0.00     0.225 C 
BRANCH  16  17
HETATM   17  C1  UNL     1      43.710  47.332  26.537  1.00  0.00     0.237 C 
HETATM   18  O1  UNL     1      44.493  46.334  26.591  1.00  0.00    -0.272 OA
HETATM   19  N2  UNL     1      42.354  47.132  26.232  1.00  0.00    -0.347 N 
HETATM   20  C15 UNL     1      41.443  48.238  26.162  1.00  0.00     0.152 C 
HETATM   21  C18 UNL     1      41.864  45.805  25.984  1.00  0.00     0.152 C 
HETATM   22  C16 UNL     1      40.184  48.014  26.961  1.00  0.00     0.187 C 
HETATM   23  O3  UNL     1      39.917  46.667  27.094  1.00  0.00    -0.388 OA
HETATM   24  C17 UNL     1      40.337  45.900  26.036  1.00  0.00     0.187 C 
ENDBRANCH  16  17
ENDBRANCH  13  16
ENDBRANCH   1  12
BRANCH   8  25
HETATM   25  C11 UNL     1      46.821  52.338  31.916  1.00  0.00     0.095 C 
HETATM   26 BR1  UNL     1      46.914  53.141  30.161  1.00  0.00    -0.096 Br
ENDBRANCH   8  25
TORSDOF 4
ENDMDL
MODEL 3
REMARK VINA RESULT: -7.186207761      5.686      9.651
REMARK  4 active torsions:
REMARK  status: ('A' for Active; 'I' for Inactive)
REMARK    1  A    between atoms: C1_2  and  C2_3 
REMARK       I    between atoms: C1_2  and  N2_21 
REMARK    2  A    between atoms: C2_3  and  N1_4 
REMARK       I    between atoms: N1_4  and  C3_6 
REMARK    3  A    between atoms: C3_6  and  C4_8 
REMARK    4  A    between atoms: C10_15  and  C11_16 
ROOT
HETATM    1  C4  UNL     1      45.780  49.229  33.220  1.00  0.00     0.045 C 
HETATM    2  C5  UNL     1      44.297  49.184  33.396  1.00  0.00     0.024 C 
HETATM    3  C6  UNL     1      43.616  49.874  32.264  1.00  0.00    -0.009 C 
HETATM    4  C7  UNL     1      44.084  51.302  32.112  1.00  0.00     0.048 C 
HETATM    5  C8  UNL     1      45.566  51.276  31.839  1.00  0.00     0.105 C 
HETATM    6  F1  UNL     1      46.025  52.585  31.712  1.00  0.00    -0.243 F 
HETATM    7  C9  UNL     1      45.903  50.510  30.585  1.00  0.00     0.054 C 
HETATM    8  C10 UNL     1      45.423  49.087  30.782  1.00  0.00    -0.027 C 
HETATM    9  C12 UNL     1      43.931  49.134  30.987  1.00  0.00     0.015 C 
HETATM   10  C13 UNL     1      46.152  48.496  31.963  1.00  0.00     0.029 C 
HETATM   11  C14 UNL     1      46.239  50.679  33.034  1.00  0.00     0.062 C 
ENDROOT
BRANCH   1  12
HETATM   12  C3  UNL     1      46.502  48.660  34.383  1.00  0.00     0.227 C 
HETATM   13  N1  UNL     1      46.889  49.484  35.469  1.00  0.00    -0.352 N 
ATOM     14  H1  UNL     1      46.649  50.474  35.414  1.00  0.00     0.162 HD
HETATM   15  O2  UNL     1      46.751  47.426  34.357  1.00  0.00    -0.273 OA
BRANCH  13  16
HETATM   16  C2  UNL     1      47.581  49.043  36.628  1.00  0.00     0.225 C 
BRANCH  16  17
HETATM   17  C1  UNL     1      48.608  49.985  37.121  1.00  0.00     0.237 C 
HETATM   18  O1  UNL     1      48.537  50.512  38.273  1.00  0.00    -0.272 OA
HETATM   19  N2  UNL     1      49.689  50.298  36.282  1.00  0.00    -0.347 N 
HETATM   20  C15 UNL     1      49.799  49.721  34.973  1.00  0.00     0.152 C 
HETATM   21  C18 UNL     1      50.705  51.209  36.732  1.00  0.00     0.152 C 
HETATM   22  C16 UNL     1      51.159  49.125  34.705  1.00  0.00     0.187 C 
HETATM   23  O3  UNL     1      52.126  49.736  35.476  1.00  0.00    -0.388 OA
HETATM   24  C17 UNL     1      51.874  51.056  35.757  1.00  0.00     0.187 C 
ENDBRANCH  16  17
ENDBRANCH  13  16
ENDBRANCH   1  12
BRANCH   8  25
HETATM   25  C11 UNL     1      45.678  48.247  29.541  1.00  0.00     0.095 C 
HETATM   26 BR1  UNL     1      44.447  48.706  28.124  1.00  0.00    -0.096 Br
ENDBRANCH   8  25
TORSDOF 4
ENDMDL
MODEL 4
REMARK VINA RESULT: -7.096306586      7.235     10.840
REMARK  4 active torsions:
REMARK  status: ('A' for Active; 'I' for Inactive)
REMARK    1  A    between atoms: C1_2  and  C2_3 
REMARK       I    between atoms: C1_2  and  N2_21 
REMARK    2  A    between atoms: C2_3  and  N1_4 
REMARK       I    between atoms: N1_4  and  C3_6 
REMARK    3  A    between atoms: C3_6  and  C4_8 
REMARK    4  A    between atoms: C10_15  and  C11_16 
ROOT
HETATM    1  C4  UNL     1      46.447  48.301  32.453  1.00  0.00     0.045 C 
HETATM    2  C5  UNL     1      45.496  48.238  33.605  1.00  0.00     0.024 C 
HETATM    3  C6  UNL     1      44.681  49.482  33.676  1.00  0.00    -0.009 C 
HETATM    4  C7  UNL     1      45.547  50.717  33.777  1.00  0.00     0.048 C 
HETATM    5  C8  UNL     1      46.410  50.777  32.543  1.00  0.00     0.105 C 
HETATM    6  F1  UNL     1      47.230  51.899  32.620  1.00  0.00    -0.243 F 
HETATM    7  C9  UNL     1      45.594  50.847  31.277  1.00  0.00     0.054 C 
HETATM    8  C10 UNL     1      44.748  49.592  31.214  1.00  0.00    -0.027 C 
HETATM    9  C12 UNL     1      43.849  49.588  32.423  1.00  0.00     0.015 C 
HETATM   10  C13 UNL     1      45.668  48.398  31.173  1.00  0.00     0.029 C 
HETATM   11  C14 UNL     1      47.296  49.573  32.547  1.00  0.00     0.062 C 
ENDROOT
BRANCH   1  12
HETATM   12  C3  UNL     1      47.362  47.134  32.414  1.00  0.00     0.227 C 
HETATM   13  N1  UNL     1      47.741  46.553  31.179  1.00  0.00    -0.352 N 
ATOM     14  H1  UNL     1      47.360  46.970  30.328  1.00  0.00     0.162 HD
HETATM   15  O2  UNL     1      47.778  46.693  33.517  1.00  0.00    -0.273 OA
BRANCH  13  16
HETATM   16  C2  UNL     1      48.608  45.438  31.027  1.00  0.00     0.225 C 
BRANCH  16  17
HETATM   17  C1  UNL     1      48.419  44.684  29.770  1.00  0.00     0.237 C 
HETATM   18  O1  UNL     1      47.428  44.891  29.006  1.00  0.00    -0.272 OA
HETATM   19  N2  UNL     1      49.371  43.713  29.421  1.00  0.00    -0.347 N 
HETATM   20  C15 UNL     1      50.503  43.453  30.263  1.00  0.00     0.152 C 
HETATM   21  C18 UNL     1      49.218  42.964  28.205  1.00  0.00     0.152 C 
HETATM   22  C16 UNL     1      51.810  43.451  29.509  1.00  0.00     0.187 C 
HETATM   23  O3  UNL     1      51.613  43.128  28.183  1.00  0.00    -0.388 OA
HETATM   24  C17 UNL     1      50.561  42.274  27.959  1.00  0.00     0.187 C 
ENDBRANCH  16  17
ENDBRANCH  13  16
ENDBRANCH   1  12
BRANCH   8  25
HETATM   25  C11 UNL     1      43.850  49.598  29.988  1.00  0.00     0.095 C 
HETATM   26 BR1  UNL     1      44.683  48.671  28.511  1.00  0.00    -0.096 Br
ENDBRANCH   8  25
TORSDOF 4
ENDMDL
MODEL 5
REMARK VINA RESULT: -7.076933579      7.030     10.287
REMARK  4 active torsions:
REMARK  status: ('A' for Active; 'I' for Inactive)
REMARK    1  A    between atoms: C1_2  and  C2_3 
REMARK       I    between atoms: C1_2  and  N2_21 
REMARK    2  A    between atoms: C2_3  and  N1_4 
REMARK       I    between atoms: N1_4  and  C3_6 
REMARK    3  A    between atoms: C3_6  and  C4_8 
REMARK    4  A    between atoms: C10_15  and  C11_16 
ROOT
HETATM    1  C4  UNL     1      47.016  48.146  33.088  1.00  0.00     0.045 C 
HETATM    2  C5  UNL     1      48.087  49.022  32.523  1.00  0.00     0.024 C 
HETATM    3  C6  UNL     1      47.625  50.436  32.459  1.00  0.00    -0.009 C 
HETATM    4  C7  UNL     1      46.354  50.576  31.654  1.00  0.00     0.048 C 
HETATM    5  C8  UNL     1      45.288  49.751  32.328  1.00  0.00     0.105 C 
HETATM    6  F1  UNL     1      44.109  49.851  31.594  1.00  0.00    -0.243 F 
HETATM    7  C9  UNL     1      45.028  50.199  33.744  1.00  0.00     0.054 C 
HETATM    8  C10 UNL     1      46.323  50.037  34.514  1.00  0.00    -0.027 C 
HETATM    9  C12 UNL     1      47.354  50.921  33.861  1.00  0.00     0.015 C 
HETATM   10  C13 UNL     1      46.711  48.580  34.493  1.00  0.00     0.029 C 
HETATM   11  C14 UNL     1      45.723  48.322  32.285  1.00  0.00     0.062 C 
ENDROOT
BRANCH   1  12
HETATM   12  C3  UNL     1      47.388  46.711  33.060  1.00  0.00     0.227 C 
HETATM   13  N1  UNL     1      48.048  46.157  31.935  1.00  0.00    -0.352 N 
ATOM     14  H1  UNL     1      48.252  46.783  31.155  1.00  0.00     0.162 HD
HETATM   15  O2  UNL     1      47.094  46.021  34.070  1.00  0.00    -0.273 OA
BRANCH  13  16
HETATM   16  C2  UNL     1      48.448  44.801  31.804  1.00  0.00     0.225 C 
BRANCH  16  17
HETATM   17  C1  UNL     1      49.847  44.617  31.363  1.00  0.00     0.237 C 
HETATM   18  O1  UNL     1      50.830  44.860  32.129  1.00  0.00    -0.272 OA
HETATM   19  N2  UNL     1      50.085  44.159  30.058  1.00  0.00    -0.347 N 
HETATM   20  C15 UNL     1      48.998  43.875  29.165  1.00  0.00     0.152 C 
HETATM   21  C18 UNL     1      51.433  43.969  29.600  1.00  0.00     0.152 C 
HETATM   22  C16 UNL     1      49.115  42.524  28.505  1.00  0.00     0.187 C 
HETATM   23  O3  UNL     1      50.433  42.122  28.434  1.00  0.00    -0.388 OA
HETATM   24  C17 UNL     1      51.332  43.153  28.309  1.00  0.00     0.187 C 
ENDBRANCH  16  17
ENDBRANCH  13  16
ENDBRANCH   1  12
BRANCH   8  25
HETATM   25  C11 UNL     1      46.169  50.513  35.949  1.00  0.00     0.095 C 
HETATM   26 BR1  UNL     1      47.232  49.441  37.156  1.00  0.00    -0.096 Br
ENDBRANCH   8  25
TORSDOF 4
ENDMDL
