MODEL 1
REMARK VINA RESULT: -7.667507593      0.000      0.000
REMARK  4 active torsions:
REMARK  status: ('A' for Active; 'I' for Inactive)
REMARK    1  A    between atoms: C7_7  and  N1_8 
REMARK       I    between atoms: N1_8  and  C8_10 
REMARK    2  A    between atoms: C8_10  and  C9_12 
REMARK    3  A    between atoms: N2_15  and  S1_16 
REMARK    4  A    between atoms: S1_16  and  N3_19 
ROOT
HETATM    1  C9  UNL     1      53.021  48.918  35.652  1.00  0.00     0.087 C 
HETATM    2  C10 UNL     1      52.501  48.757  34.248  1.00  0.00     0.060 C 
HETATM    3  C11 UNL     1      51.058  49.092  34.216  1.00  0.00     0.083 C 
HETATM    4  N2  UNL     1      50.597  50.128  35.025  1.00  0.00    -0.257 N 
HETATM    5  C17 UNL     1      51.432  50.848  35.872  1.00  0.00     0.083 C 
HETATM    6  C18 UNL     1      52.800  50.327  36.122  1.00  0.00     0.060 C 
ENDROOT
BRANCH   1   7
HETATM    7  C8  UNL     1      54.451  48.528  35.702  1.00  0.00     0.222 C 
HETATM    8  N1  UNL     1      54.866  47.228  35.297  1.00  0.00    -0.356 N 
ATOM      9  H1  UNL     1      54.154  46.574  34.972  1.00  0.00     0.162 HD
HETATM   10  O1  UNL     1      55.277  49.378  36.111  1.00  0.00    -0.273 OA
BRANCH   8  11
HETATM   11  C7  UNL     1      56.231  46.789  35.321  1.00  0.00     0.088 C 
HETATM   12  C2  UNL     1      56.305  45.277  35.210  1.00  0.00     0.004 C 
HETATM   13  C1  UNL     1      56.204  44.677  36.611  1.00  0.00     0.012 C 
HETATM   14  C3  UNL     1      57.585  44.828  34.539  1.00  0.00     0.006 C 
HETATM   15  C4  UNL     1      58.771  45.671  34.953  1.00  0.00     0.001 C 
HETATM   16  C5  UNL     1      58.553  47.140  34.667  1.00  0.00     0.002 C 
HETATM   17  C6  UNL     1      57.095  47.403  34.272  1.00  0.00     0.025 C 
ENDBRANCH   8  11
ENDBRANCH   1   7
BRANCH   4  18
HETATM   18  S1  UNL     1      48.924  50.227  35.271  1.00  0.00     0.308 S 
HETATM   19  O2  UNL     1      48.554  51.498  35.955  1.00  0.00    -0.188 OA
HETATM   20  O3  UNL     1      48.531  49.105  36.215  1.00  0.00    -0.188 OA
BRANCH  18  21
HETATM   21  N3  UNL     1      48.043  49.982  33.820  1.00  0.00    -0.187 NA
HETATM   22  C12 UNL     1      47.257  51.120  33.453  1.00  0.00     0.109 C 
HETATM   23  C13 UNL     1      46.002  51.199  34.254  1.00  0.00     0.021 C 
HETATM   24  C14 UNL     1      45.254  49.911  34.308  1.00  0.00     0.081 C 
HETATM   25  C15 UNL     1      45.902  48.815  33.493  1.00  0.00     0.256 C 
HETATM   26  F1  UNL     1      45.336  47.619  33.890  1.00  0.00    -0.205 F 
HETATM   27  F2  UNL     1      45.587  48.974  32.143  1.00  0.00    -0.205 F 
HETATM   28  C16 UNL     1      47.382  48.722  33.732  1.00  0.00     0.188 C 
ENDBRANCH  18  21
ENDBRANCH   4  18
TORSDOF 4
ENDMDL
MODEL 2
REMARK VINA RESULT: -7.613831210      2.290      2.954
REMARK  4 active torsions:
REMARK  status: ('A' for Active; 'I' for Inactive)
REMARK    1  A    between atoms: C7_7  and  N1_8 
REMARK       I    between atoms: N1_8  and  C8_10 
REMARK    2  A    between atoms: C8_10  and  C9_12 
REMARK    3  A    between atoms: N2_15  and  S1_16 
REMARK    4  A    between atoms: S1_16  and  N3_19 
ROOT
HETATM    1  C9  UNL     1      53.662  50.912  36.070  1.00  0.00     0.087 C 
HETATM    2  C10 UNL     1      53.417  49.466  35.728  1.00  0.00     0.060 C 
HETATM    3  C11 UNL     1      51.968  49.175  35.828  1.00  0.00     0.083 C 
HETATM    4  N2  UNL     1      51.063  50.156  35.430  1.00  0.00    -0.257 N 
HETATM    5  C17 UNL     1      51.464  51.402  34.961  1.00  0.00     0.083 C 
HETATM    6  C18 UNL     1      52.885  51.797  35.138  1.00  0.00     0.060 C 
ENDROOT
BRANCH   1   7
HETATM    7  C8  UNL     1      55.116  51.195  36.029  1.00  0.00     0.222 C 
HETATM    8  N1  UNL     1      56.006  50.337  35.326  1.00  0.00    -0.356 N 
ATOM      9  H1  UNL     1      55.616  49.522  34.851  1.00  0.00     0.162 HD
HETATM   10  O1  UNL     1      55.533  52.212  36.633  1.00  0.00    -0.273 OA
BRANCH   8  11
HETATM   11  C7  UNL     1      57.422  50.554  35.248  1.00  0.00     0.088 C 
HETATM   12  C2  UNL     1      58.086  49.448  34.449  1.00  0.00     0.004 C 
HETATM   13  C1  UNL     1      58.427  48.297  35.393  1.00  0.00     0.012 C 
HETATM   14  C3  UNL     1      59.335  49.938  33.748  1.00  0.00     0.006 C 
HETATM   15  C4  UNL     1      60.122  50.910  34.600  1.00  0.00     0.001 C 
HETATM   16  C5  UNL     1      59.291  52.102  35.018  1.00  0.00     0.002 C 
HETATM   17  C6  UNL     1      57.813  51.875  34.680  1.00  0.00     0.025 C 
ENDBRANCH   8  11
ENDBRANCH   1   7
BRANCH   4  18
HETATM   18  S1  UNL     1      49.452  49.962  35.917  1.00  0.00     0.308 S 
HETATM   19  O2  UNL     1      48.840  51.268  36.290  1.00  0.00    -0.188 OA
HETATM   20  O3  UNL     1      49.452  49.116  37.178  1.00  0.00    -0.188 OA
BRANCH  18  21
HETATM   21  N3  UNL     1      48.525  49.111  34.752  1.00  0.00    -0.187 NA
HETATM   22  C12 UNL     1      48.883  49.448  33.409  1.00  0.00     0.109 C 
HETATM   23  C13 UNL     1      48.289  50.752  32.995  1.00  0.00     0.021 C 
HETATM   24  C14 UNL     1      46.834  50.863  33.303  1.00  0.00     0.081 C 
HETATM   25  C15 UNL     1      46.263  49.606  33.920  1.00  0.00     0.256 C 
HETATM   26  F1  UNL     1      45.039  49.939  34.466  1.00  0.00    -0.205 F 
HETATM   27  F2  UNL     1      46.010  48.659  32.927  1.00  0.00    -0.205 F 
HETATM   28  C16 UNL     1      47.126  49.066  35.024  1.00  0.00     0.188 C 
ENDBRANCH  18  21
ENDBRANCH   4  18
TORSDOF 4
ENDMDL
MODEL 3
REMARK VINA RESULT: -7.562192826      5.035      9.534
REMARK  4 active torsions:
REMARK  status: ('A' for Active; 'I' for Inactive)
REMARK    1  A    between atoms: C7_7  and  N1_8 
REMARK       I    between atoms: N1_8  and  C8_10 
REMARK    2  A    between atoms: C8_10  and  C9_12 
REMARK    3  A    between atoms: N2_15  and  S1_16 
REMARK    4  A    between atoms: S1_16  and  N3_19 
ROOT
HETATM    1  C9  UNL     1      51.474  50.681  35.441  1.00  0.00     0.087 C 
HETATM    2  C10 UNL     1      51.905  50.938  34.022  1.00  0.00     0.060 C 
HETATM    3  C11 UNL     1      53.167  51.714  34.023  1.00  0.00     0.083 C 
HETATM    4  N2  UNL     1      54.113  51.446  35.010  1.00  0.00    -0.257 N 
HETATM    5  C17 UNL     1      53.913  50.493  36.002  1.00  0.00     0.083 C 
HETATM    6  C18 UNL     1      52.548  49.932  36.176  1.00  0.00     0.060 C 
ENDROOT
BRANCH   1   7
HETATM    7  C8  UNL     1      50.181  49.956  35.447  1.00  0.00     0.222 C 
HETATM    8  N1  UNL     1      49.267  50.087  34.364  1.00  0.00    -0.356 N 
ATOM      9  H1  UNL     1      49.527  50.693  33.585  1.00  0.00     0.162 HD
HETATM   10  O1  UNL     1      49.922  49.226  36.433  1.00  0.00    -0.273 OA
BRANCH   8  11
HETATM   11  C7  UNL     1      48.003  49.413  34.307  1.00  0.00     0.088 C 
HETATM   12  C2  UNL     1      46.864  50.417  34.310  1.00  0.00     0.004 C 
HETATM   13  C1  UNL     1      46.501  50.742  35.758  1.00  0.00     0.012 C 
HETATM   14  C3  UNL     1      45.653  49.890  33.571  1.00  0.00     0.006 C 
HETATM   15  C4  UNL     1      45.434  48.413  33.816  1.00  0.00     0.001 C 
HETATM   16  C5  UNL     1      46.643  47.588  33.434  1.00  0.00     0.002 C 
HETATM   17  C6  UNL     1      47.845  48.493  33.145  1.00  0.00     0.025 C 
ENDBRANCH   8  11
ENDBRANCH   1   7
BRANCH   4  18
HETATM   18  S1  UNL     1      55.341  52.591  35.232  1.00  0.00     0.308 S 
HETATM   19  O2  UNL     1      55.839  52.583  36.636  1.00  0.00    -0.188 OA
HETATM   20  O3  UNL     1      54.735  53.965  35.003  1.00  0.00    -0.188 OA
BRANCH  18  21
HETATM   21  N3  UNL     1      56.604  52.412  34.086  1.00  0.00    -0.187 NA
HETATM   22  C12 UNL     1      56.737  51.067  33.618  1.00  0.00     0.109 C 
HETATM   23  C13 UNL     1      57.454  50.211  34.608  1.00  0.00     0.021 C 
HETATM   24  C14 UNL     1      58.712  50.826  35.118  1.00  0.00     0.081 C 
HETATM   25  C15 UNL     1      59.020  52.161  34.479  1.00  0.00     0.256 C 
HETATM   26  F1  UNL     1      59.983  52.775  35.257  1.00  0.00    -0.205 F 
HETATM   27  F2  UNL     1      59.590  51.969  33.220  1.00  0.00    -0.205 F 
HETATM   28  C16 UNL     1      57.821  53.066  34.437  1.00  0.00     0.188 C 
ENDBRANCH  18  21
ENDBRANCH   4  18
TORSDOF 4
ENDMDL
MODEL 4
REMARK VINA RESULT: -7.551485110      1.627      2.022
REMARK  4 active torsions:
REMARK  status: ('A' for Active; 'I' for Inactive)
REMARK    1  A    between atoms: C7_7  and  N1_8 
REMARK       I    between atoms: N1_8  and  C8_10 
REMARK    2  A    between atoms: C8_10  and  C9_12 
REMARK    3  A    between atoms: N2_15  and  S1_16 
REMARK    4  A    between atoms: S1_16  and  N3_19 
ROOT
HETATM    1  C9  UNL     1      54.149  48.498  35.145  1.00  0.00     0.087 C 
HETATM    2  C10 UNL     1      53.131  48.403  34.040  1.00  0.00     0.060 C 
HETATM    3  C11 UNL     1      51.820  48.885  34.535  1.00  0.00     0.083 C 
HETATM    4  N2  UNL     1      51.798  49.957  35.424  1.00  0.00    -0.257 N 
HETATM    5  C17 UNL     1      52.954  50.580  35.878  1.00  0.00     0.083 C 
HETATM    6  C18 UNL     1      54.259  49.919  35.619  1.00  0.00     0.060 C 
ENDROOT
BRANCH   1   7
HETATM    7  C8  UNL     1      55.449  47.962  34.674  1.00  0.00     0.222 C 
HETATM    8  N1  UNL     1      55.864  46.647  35.022  1.00  0.00    -0.356 N 
ATOM      9  H1  UNL     1      55.243  46.084  35.604  1.00  0.00     0.162 HD
HETATM   10  O1  UNL     1      56.166  48.705  33.961  1.00  0.00    -0.273 OA
BRANCH   8  11
HETATM   11  C7  UNL     1      57.107  46.070  34.600  1.00  0.00     0.088 C 
HETATM   12  C2  UNL     1      58.075  45.981  35.765  1.00  0.00     0.004 C 
HETATM   13  C1  UNL     1      58.847  47.296  35.862  1.00  0.00     0.012 C 
HETATM   14  C3  UNL     1      59.035  44.822  35.607  1.00  0.00     0.006 C 
HETATM   15  C4  UNL     1      59.473  44.635  34.171  1.00  0.00     0.001 C 
HETATM   16  C5  UNL     1      58.298  44.435  33.240  1.00  0.00     0.002 C 
HETATM   17  C6  UNL     1      56.979  44.728  33.963  1.00  0.00     0.025 C 
ENDBRANCH   8  11
ENDBRANCH   1   7
BRANCH   4  18
HETATM   18  S1  UNL     1      50.354  50.227  36.269  1.00  0.00     0.308 S 
HETATM   19  O2  UNL     1      50.550  51.212  37.369  1.00  0.00    -0.188 OA
HETATM   20  O3  UNL     1      49.960  48.919  36.933  1.00  0.00    -0.188 OA
BRANCH  18  21
HETATM   21  N3  UNL     1      49.066  50.658  35.223  1.00  0.00    -0.187 NA
HETATM   22  C12 UNL     1      47.919  51.139  35.930  1.00  0.00     0.109 C 
HETATM   23  C13 UNL     1      47.128  50.019  36.517  1.00  0.00     0.021 C 
HETATM   24  C14 UNL     1      46.852  48.921  35.548  1.00  0.00     0.081 C 
HETATM   25  C15 UNL     1      47.388  49.204  34.163  1.00  0.00     0.256 C 
HETATM   26  F1  UNL     1      47.383  48.009  33.470  1.00  0.00    -0.205 F 
HETATM   27  F2  UNL     1      46.522  50.061  33.482  1.00  0.00    -0.205 F 
HETATM   28  C16 UNL     1      48.800  49.714  34.188  1.00  0.00     0.188 C 
ENDBRANCH  18  21
ENDBRANCH   4  18
TORSDOF 4
ENDMDL
MODEL 5
REMARK VINA RESULT: -7.447055129      3.727      9.132
REMARK  4 active torsions:
REMARK  status: ('A' for Active; 'I' for Inactive)
REMARK    1  A    between atoms: C7_7  and  N1_8 
REMARK       I    between atoms: N1_8  and  C8_10 
REMARK    2  A    between atoms: C8_10  and  C9_12 
REMARK    3  A    between atoms: N2_15  and  S1_16 
REMARK    4  A    between atoms: S1_16  and  N3_19 
ROOT
HETATM    1  C9  UNL     1      52.430  49.517  35.583  1.00  0.00     0.087 C 
HETATM    2  C10 UNL     1      53.447  50.414  36.238  1.00  0.00     0.060 C 
HETATM    3  C11 UNL     1      54.806  49.878  35.992  1.00  0.00     0.083 C 
HETATM    4  N2  UNL     1      55.076  49.286  34.760  1.00  0.00    -0.257 N 
HETATM    5  C17 UNL     1      54.119  49.163  33.760  1.00  0.00     0.083 C 
HETATM    6  C18 UNL     1      52.699  49.428  34.108  1.00  0.00     0.060 C 
ENDROOT
BRANCH   1   7
HETATM    7  C8  UNL     1      51.064  50.016  35.875  1.00  0.00     0.222 C 
HETATM    8  N1  UNL     1      49.956  49.613  35.078  1.00  0.00    -0.356 N 
ATOM      9  H1  UNL     1      50.128  48.972  34.303  1.00  0.00     0.162 HD
HETATM   10  O1  UNL     1      50.920  50.801  36.842  1.00  0.00    -0.273 OA
BRANCH   8  11
HETATM   11  C7  UNL     1      48.612  50.057  35.306  1.00  0.00     0.088 C 
HETATM   12  C2  UNL     1      47.776  49.889  34.051  1.00  0.00     0.004 C 
HETATM   13  C1  UNL     1      47.926  51.142  33.190  1.00  0.00     0.012 C 
HETATM   14  C3  UNL     1      46.318  49.651  34.379  1.00  0.00     0.006 C 
HETATM   15  C4  UNL     1      45.856  50.480  35.558  1.00  0.00     0.001 C 
HETATM   16  C5  UNL     1      46.689  50.224  36.795  1.00  0.00     0.002 C 
HETATM   17  C6  UNL     1      47.926  49.389  36.449  1.00  0.00     0.025 C 
ENDBRANCH   8  11
ENDBRANCH   1   7
BRANCH   4  18
HETATM   18  S1  UNL     1      56.480  48.343  34.650  1.00  0.00     0.308 S 
HETATM   19  O2  UNL     1      57.672  49.093  35.134  1.00  0.00    -0.188 OA
HETATM   20  O3  UNL     1      56.726  48.057  33.179  1.00  0.00    -0.188 OA
BRANCH  18  21
HETATM   21  N3  UNL     1      56.299  46.825  35.425  1.00  0.00    -0.187 NA
HETATM   22  C12 UNL     1      57.551  46.244  35.800  1.00  0.00     0.109 C 
HETATM   23  C13 UNL     1      58.235  45.616  34.632  1.00  0.00     0.021 C 
HETATM   24  C14 UNL     1      57.343  44.726  33.835  1.00  0.00     0.081 C 
HETATM   25  C15 UNL     1      55.952  44.609  34.415  1.00  0.00     0.256 C 
HETATM   26  F1  UNL     1      55.145  44.062  33.436  1.00  0.00    -0.205 F 
HETATM   27  F2  UNL     1      55.953  43.704  35.478  1.00  0.00    -0.205 F 
HETATM   28  C16 UNL     1      55.374  45.942  34.794  1.00  0.00     0.188 C 
ENDBRANCH  18  21
ENDBRANCH   4  18
TORSDOF 4
ENDMDL
