MODEL 1
REMARK VINA RESULT: -7.204288836      0.000      0.000
REMARK  5 active torsions:
REMARK  status: ('A' for Active; 'I' for Inactive)
REMARK    1  A    between atoms: O1_2  and  C2_3 
REMARK    2  A    between atoms: C2_3  and  C3_5 
REMARK    3  A    between atoms: C3_5  and  C4_6 
REMARK    4  A    between atoms: C5_7  and  C6_8 
REMARK       I    between atoms: C6_8  and  N1_10 
REMARK    5  A    between atoms: N1_10  and  C7_12 
ROOT
HETATM    1  C3  UNL     1      22.560 -47.164 -74.650  1.00  0.00     0.397 A 
HETATM    2  N2  UNL     1      22.212 -45.809 -75.037  1.00  0.00     0.026 N 
ATOM      3  H21 UNL     1      21.304 -45.606 -75.455  1.00  0.00     0.285 HD
ATOM      4  H22 UNL     1      22.665 -45.366 -75.837  1.00  0.00     0.285 HD
HETATM    5  C11 UNL     1      22.512 -45.387 -73.705  1.00  0.00     0.452 A 
HETATM    6  N3  UNL     1      22.806 -46.741 -73.302  1.00  0.00     0.026 N 
ATOM      7  H31 UNL     1      23.689 -46.963 -72.842  1.00  0.00     0.285 HD
ATOM      8  H32 UNL     1      22.304 -47.171 -72.525  1.00  0.00     0.285 HD
HETATM    9  C12 UNL     1      23.682 -44.479 -73.628  1.00  0.00     0.301 C 
HETATM   10  O4  UNL     1      24.461 -44.343 -74.605  1.00  0.00    -0.268 OA
HETATM   11  N4  UNL     1      23.890 -43.771 -72.414  1.00  0.00    -0.275 N 
ATOM     12  H4  UNL     1      24.819 -43.408 -72.196  1.00  0.00     0.173 HD
HETATM   13  C13 UNL     1      22.820 -43.559 -71.494  1.00  0.00     0.329 C 
HETATM   14  O5  UNL     1      23.008 -42.939 -70.433  1.00  0.00    -0.247 OA
HETATM   15  N5  UNL     1      21.535 -44.085 -71.838  1.00  0.00    -0.275 N 
ATOM     16  H5  UNL     1      20.755 -43.947 -71.195  1.00  0.00     0.173 HD
HETATM   17  C14 UNL     1      21.311 -44.796 -73.051  1.00  0.00     0.301 C 
HETATM   18  O6  UNL     1      20.147 -44.908 -73.530  1.00  0.00    -0.268 OA
ENDROOT
BRANCH   1  19
HETATM   19  C2  UNL     1      21.440 -48.142 -74.811  1.00  0.00     0.328 C 
HETATM   20  O2  UNL     1      21.391 -49.243 -74.244  1.00  0.00    -0.260 OA
BRANCH  19  21
HETATM   21  O1  UNL     1      20.401 -47.770 -75.652  1.00  0.00    -0.323 OA
HETATM   22  C1  UNL     1      19.040 -47.755 -75.192  1.00  0.00     0.213 C 
ENDBRANCH  19  21
ENDBRANCH   1  19
BRANCH   1  23
HETATM   23  C4  UNL     1      23.759 -47.619 -75.402  1.00  0.00     0.058 C 
HETATM   24  C5  UNL     1      23.758 -47.715 -76.720  1.00  0.00     0.075 C 
BRANCH  24  25
HETATM   25  C6  UNL     1      24.938 -48.160 -77.423  1.00  0.00     0.241 C 
HETATM   26  O3  UNL     1      25.643 -49.064 -76.937  1.00  0.00    -0.269 OA
HETATM   27  N1  UNL     1      25.303 -47.583 -78.657  1.00  0.00    -0.350 N 
ATOM     28  H1  UNL     1      24.725 -46.842 -79.055  1.00  0.00     0.163 HD
BRANCH  27  29
HETATM   29  C7  UNL     1      26.486 -48.026 -79.368  1.00  0.00     0.022 C 
HETATM   30  C8  UNL     1      26.402 -47.671 -80.835  1.00  0.00     0.037 C 
HETATM   31  C9  UNL     1      27.658 -47.242 -78.782  1.00  0.00     0.037 C 
HETATM   32  C10 UNL     1      26.706 -49.510 -79.236  1.00  0.00     0.037 C 
ENDBRANCH  27  29
ENDBRANCH  24  25
ENDBRANCH   1  23
TORSDOF 5
ENDMDL
MODEL 2
REMARK VINA RESULT: -7.064680973      1.042      1.457
REMARK  5 active torsions:
REMARK  status: ('A' for Active; 'I' for Inactive)
REMARK    1  A    between atoms: O1_2  and  C2_3 
REMARK    2  A    between atoms: C2_3  and  C3_5 
REMARK    3  A    between atoms: C3_5  and  C4_6 
REMARK    4  A    between atoms: C5_7  and  C6_8 
REMARK       I    between atoms: C6_8  and  N1_10 
REMARK    5  A    between atoms: N1_10  and  C7_12 
ROOT
HETATM    1  C3  UNL     1      22.125 -46.472 -74.549  1.00  0.00     0.397 A 
HETATM    2  N2  UNL     1      21.626 -45.116 -74.688  1.00  0.00     0.026 N 
ATOM      3  H21 UNL     1      20.629 -44.941 -74.814  1.00  0.00     0.285 HD
ATOM      4  H22 UNL     1      21.814 -44.578 -75.533  1.00  0.00     0.285 HD
HETATM    5  C11 UNL     1      22.273 -44.788 -73.456  1.00  0.00     0.452 A 
HETATM    6  N3  UNL     1      22.725 -46.148 -73.288  1.00  0.00     0.026 N 
ATOM      7  H31 UNL     1      23.710 -46.348 -73.117  1.00  0.00     0.285 HD
ATOM      8  H32 UNL     1      22.483 -46.674 -72.448  1.00  0.00     0.285 HD
HETATM    9  C12 UNL     1      23.379 -43.812 -73.618  1.00  0.00     0.301 C 
HETATM   10  O4  UNL     1      23.842 -43.543 -74.755  1.00  0.00    -0.268 OA
HETATM   11  N4  UNL     1      23.893 -43.196 -72.446  1.00  0.00    -0.275 N 
ATOM     12  H4  UNL     1      24.829 -42.790 -72.461  1.00  0.00     0.173 HD
HETATM   13  C13 UNL     1      23.120 -43.135 -71.249  1.00  0.00     0.329 C 
HETATM   14  O5  UNL     1      23.575 -42.594 -70.225  1.00  0.00    -0.247 OA
HETATM   15  N5  UNL     1      21.812 -43.716 -71.272  1.00  0.00    -0.275 N 
ATOM     16  H5  UNL     1      21.242 -43.685 -70.426  1.00  0.00     0.173 HD
HETATM   17  C14 UNL     1      21.284 -44.336 -72.439  1.00  0.00     0.301 C 
HETATM   18  O6  UNL     1      20.037 -44.487 -72.583  1.00  0.00    -0.268 OA
ENDROOT
BRANCH   1  19
HETATM   19  C2  UNL     1      21.046 -47.507 -74.488  1.00  0.00     0.328 C 
HETATM   20  O2  UNL     1      20.611 -48.116 -75.475  1.00  0.00    -0.260 OA
BRANCH  19  21
HETATM   21  O1  UNL     1      20.516 -47.784 -73.236  1.00  0.00    -0.323 OA
HETATM   22  C1  UNL     1      19.109 -48.008 -73.057  1.00  0.00     0.213 C 
ENDBRANCH  19  21
ENDBRANCH   1  19
BRANCH   1  23
HETATM   23  C4  UNL     1      23.079 -46.781 -75.646  1.00  0.00     0.058 C 
HETATM   24  C5  UNL     1      24.040 -47.676 -75.502  1.00  0.00     0.075 C 
BRANCH  24  25
HETATM   25  C6  UNL     1      24.952 -47.955 -76.586  1.00  0.00     0.241 C 
HETATM   26  O3  UNL     1      25.261 -49.132 -76.847  1.00  0.00    -0.269 OA
HETATM   27  N1  UNL     1      25.498 -46.907 -77.356  1.00  0.00    -0.350 N 
ATOM     28  H1  UNL     1      25.244 -45.942 -77.142  1.00  0.00     0.163 HD
BRANCH  27  29
HETATM   29  C7  UNL     1      26.413 -47.180 -78.447  1.00  0.00     0.022 C 
HETATM   30  C8  UNL     1      26.829 -48.633 -78.456  1.00  0.00     0.037 C 
HETATM   31  C9  UNL     1      25.633 -46.927 -79.735  1.00  0.00     0.037 C 
HETATM   32  C10 UNL     1      27.646 -46.318 -78.382  1.00  0.00     0.037 C 
ENDBRANCH  27  29
ENDBRANCH  24  25
ENDBRANCH   1  23
TORSDOF 5
ENDMDL
MODEL 3
REMARK VINA RESULT: -7.063100839      3.178      6.180
REMARK  5 active torsions:
REMARK  status: ('A' for Active; 'I' for Inactive)
REMARK    1  A    between atoms: O1_2  and  C2_3 
REMARK    2  A    between atoms: C2_3  and  C3_5 
REMARK    3  A    between atoms: C3_5  and  C4_6 
REMARK    4  A    between atoms: C5_7  and  C6_8 
REMARK       I    between atoms: C6_8  and  N1_10 
REMARK    5  A    between atoms: N1_10  and  C7_12 
ROOT
HETATM    1  C3  UNL     1      21.522 -47.498 -74.730  1.00  0.00     0.397 A 
HETATM    2  N2  UNL     1      21.721 -47.263 -73.312  1.00  0.00     0.026 N 
ATOM      3  H21 UNL     1      22.295 -47.898 -72.756  1.00  0.00     0.285 HD
ATOM      4  H22 UNL     1      20.956 -47.397 -72.651  1.00  0.00     0.285 HD
HETATM    5  C11 UNL     1      22.186 -45.949 -73.629  1.00  0.00     0.452 A 
HETATM    6  N3  UNL     1      22.041 -46.199 -75.043  1.00  0.00     0.026 N 
ATOM      7  H31 UNL     1      21.509 -45.556 -75.629  1.00  0.00     0.285 HD
ATOM      8  H32 UNL     1      22.838 -46.097 -75.671  1.00  0.00     0.285 HD
HETATM    9  C12 UNL     1      21.297 -44.875 -73.123  1.00  0.00     0.301 C 
HETATM   10  O4  UNL     1      20.138 -45.136 -72.712  1.00  0.00    -0.268 OA
HETATM   11  N4  UNL     1      21.801 -43.547 -73.120  1.00  0.00    -0.275 N 
ATOM     12  H4  UNL     1      21.149 -42.762 -73.099  1.00  0.00     0.173 HD
HETATM   13  C13 UNL     1      23.205 -43.294 -73.146  1.00  0.00     0.329 C 
HETATM   14  O5  UNL     1      23.640 -42.128 -73.143  1.00  0.00    -0.247 OA
HETATM   15  N5  UNL     1      24.083 -44.423 -73.175  1.00  0.00    -0.275 N 
ATOM     16  H5  UNL     1      25.091 -44.266 -73.195  1.00  0.00     0.173 HD
HETATM   17  C14 UNL     1      23.592 -45.759 -73.177  1.00  0.00     0.301 C 
HETATM   18  O6  UNL     1      24.329 -46.719 -72.813  1.00  0.00    -0.268 OA
ENDROOT
BRANCH   1  19
HETATM   19  C2  UNL     1      22.320 -48.644 -75.267  1.00  0.00     0.328 C 
HETATM   20  O2  UNL     1      22.865 -48.650 -76.380  1.00  0.00    -0.260 OA
BRANCH  19  21
HETATM   21  O1  UNL     1      22.444 -49.758 -74.449  1.00  0.00    -0.323 OA
HETATM   22  C1  UNL     1      23.710 -50.412 -74.271  1.00  0.00     0.213 C 
ENDBRANCH  19  21
ENDBRANCH   1  19
BRANCH   1  23
HETATM   23  C4  UNL     1      20.076 -47.691 -75.018  1.00  0.00     0.058 C 
HETATM   24  C5  UNL     1      19.254 -48.222 -74.129  1.00  0.00     0.075 C 
BRANCH  24  25
HETATM   25  C6  UNL     1      17.855 -48.397 -74.439  1.00  0.00     0.241 C 
HETATM   26  O3  UNL     1      16.996 -48.177 -73.564  1.00  0.00    -0.269 OA
HETATM   27  N1  UNL     1      17.447 -48.816 -75.722  1.00  0.00    -0.350 N 
ATOM     28  H1  UNL     1      18.151 -48.997 -76.438  1.00  0.00     0.163 HD
BRANCH  27  29
HETATM   29  C7  UNL     1      16.044 -48.994 -76.039  1.00  0.00     0.022 C 
HETATM   30  C8  UNL     1      15.299 -47.680 -75.962  1.00  0.00     0.037 C 
HETATM   31  C9  UNL     1      15.987 -49.458 -77.493  1.00  0.00     0.037 C 
HETATM   32  C10 UNL     1      15.377 -49.989 -75.127  1.00  0.00     0.037 C 
ENDBRANCH  27  29
ENDBRANCH  24  25
ENDBRANCH   1  23
TORSDOF 5
ENDMDL
MODEL 4
REMARK VINA RESULT: -7.040584395      2.806      4.186
REMARK  5 active torsions:
REMARK  status: ('A' for Active; 'I' for Inactive)
REMARK    1  A    between atoms: O1_2  and  C2_3 
REMARK    2  A    between atoms: C2_3  and  C3_5 
REMARK    3  A    between atoms: C3_5  and  C4_6 
REMARK    4  A    between atoms: C5_7  and  C6_8 
REMARK       I    between atoms: C6_8  and  N1_10 
REMARK    5  A    between atoms: N1_10  and  C7_12 
ROOT
HETATM    1  C3  UNL     1      21.760 -47.308 -74.318  1.00  0.00     0.397 A 
HETATM    2  N2  UNL     1      20.538 -47.776 -74.945  1.00  0.00     0.026 N 
ATOM      3  H21 UNL     1      20.341 -48.775 -75.017  1.00  0.00     0.285 HD
ATOM      4  H22 UNL     1      20.406 -47.690 -75.952  1.00  0.00     0.285 HD
HETATM    5  C11 UNL     1      19.799 -46.952 -74.041  1.00  0.00     0.452 A 
HETATM    6  N3  UNL     1      21.009 -46.527 -73.380  1.00  0.00     0.026 N 
ATOM      7  H31 UNL     1      21.209 -45.534 -73.255  1.00  0.00     0.285 HD
ATOM      8  H32 UNL     1      21.127 -46.667 -72.377  1.00  0.00     0.285 HD
HETATM    9  C12 UNL     1      19.074 -45.847 -74.716  1.00  0.00     0.301 C 
HETATM   10  O4  UNL     1      19.329 -45.540 -75.907  1.00  0.00    -0.268 OA
HETATM   11  N4  UNL     1      18.084 -45.153 -73.969  1.00  0.00    -0.275 N 
ATOM     12  H4  UNL     1      17.803 -44.215 -74.256  1.00  0.00     0.173 HD
HETATM   13  C13 UNL     1      17.477 -45.749 -72.823  1.00  0.00     0.329 C 
HETATM   14  O5  UNL     1      16.611 -45.136 -72.173  1.00  0.00    -0.247 OA
HETATM   15  N5  UNL     1      17.900 -47.065 -72.455  1.00  0.00    -0.275 N 
ATOM     16  H5  UNL     1      17.480 -47.510 -71.639  1.00  0.00     0.173 HD
HETATM   17  C14 UNL     1      18.889 -47.773 -73.195  1.00  0.00     0.301 C 
HETATM   18  O6  UNL     1      18.974 -49.031 -73.120  1.00  0.00    -0.268 OA
ENDROOT
BRANCH   1  19
HETATM   19  C2  UNL     1      22.583 -48.403 -73.713  1.00  0.00     0.328 C 
HETATM   20  O2  UNL     1      23.313 -48.257 -72.723  1.00  0.00    -0.260 OA
BRANCH  19  21
HETATM   21  O1  UNL     1      22.505 -49.650 -74.316  1.00  0.00    -0.323 OA
HETATM   22  C1  UNL     1      23.689 -50.387 -74.656  1.00  0.00     0.213 C 
ENDBRANCH  19  21
ENDBRANCH   1  19
BRANCH   1  23
HETATM   23  C4  UNL     1      22.569 -46.529 -75.292  1.00  0.00     0.058 C 
HETATM   24  C5  UNL     1      23.555 -45.739 -74.903  1.00  0.00     0.075 C 
BRANCH  24  25
HETATM   25  C6  UNL     1      24.323 -44.994 -75.873  1.00  0.00     0.241 C 
HETATM   26  O3  UNL     1      24.084 -43.785 -76.054  1.00  0.00    -0.269 OA
HETATM   27  N1  UNL     1      25.342 -45.620 -76.619  1.00  0.00    -0.350 N 
ATOM     28  H1  UNL     1      25.538 -46.610 -76.471  1.00  0.00     0.163 HD
BRANCH  27  29
HETATM   29  C7  UNL     1      26.118 -44.878 -77.594  1.00  0.00     0.022 C 
HETATM   30  C8  UNL     1      26.895 -43.762 -76.934  1.00  0.00     0.037 C 
HETATM   31  C9  UNL     1      27.138 -45.858 -78.168  1.00  0.00     0.037 C 
HETATM   32  C10 UNL     1      25.254 -44.296 -78.682  1.00  0.00     0.037 C 
ENDBRANCH  27  29
ENDBRANCH  24  25
ENDBRANCH   1  23
TORSDOF 5
ENDMDL
MODEL 5
REMARK VINA RESULT: -7.032980919      1.151      1.725
REMARK  5 active torsions:
REMARK  status: ('A' for Active; 'I' for Inactive)
REMARK    1  A    between atoms: O1_2  and  C2_3 
REMARK    2  A    between atoms: C2_3  and  C3_5 
REMARK    3  A    between atoms: C3_5  and  C4_6 
REMARK    4  A    between atoms: C5_7  and  C6_8 
REMARK       I    between atoms: C6_8  and  N1_10 
REMARK    5  A    between atoms: N1_10  and  C7_12 
ROOT
HETATM    1  C3  UNL     1      22.889 -46.716 -74.709  1.00  0.00     0.397 A 
HETATM    2  N2  UNL     1      22.228 -45.442 -74.926  1.00  0.00     0.026 N 
ATOM      3  H21 UNL     1      21.234 -45.406 -75.154  1.00  0.00     0.285 HD
ATOM      4  H22 UNL     1      22.427 -44.891 -75.760  1.00  0.00     0.285 HD
HETATM    5  C11 UNL     1      22.697 -45.018 -73.644  1.00  0.00     0.452 A 
HETATM    6  N3  UNL     1      23.309 -46.302 -73.402  1.00  0.00     0.026 N 
ATOM      7  H31 UNL     1      24.290 -46.365 -73.129  1.00  0.00     0.285 HD
ATOM      8  H32 UNL     1      23.056 -46.849 -72.579  1.00  0.00     0.285 HD
HETATM    9  C12 UNL     1      23.672 -43.903 -73.718  1.00  0.00     0.301 C 
HETATM   10  O4  UNL     1      24.207 -43.582 -74.809  1.00  0.00    -0.268 OA
HETATM   11  N4  UNL     1      23.977 -43.212 -72.514  1.00  0.00    -0.275 N 
ATOM     12  H4  UNL     1      24.847 -42.682 -72.444  1.00  0.00     0.173 HD
HETATM   13  C13 UNL     1      23.086 -43.247 -71.401  1.00  0.00     0.329 C 
HETATM   14  O5  UNL     1      23.358 -42.640 -70.349  1.00  0.00    -0.247 OA
HETATM   15  N5  UNL     1      21.878 -44.001 -71.540  1.00  0.00    -0.275 N 
ATOM     16  H5  UNL     1      21.226 -44.041 -70.756  1.00  0.00     0.173 HD
HETATM   17  C14 UNL     1      21.559 -44.697 -72.740  1.00  0.00     0.301 C 
HETATM   18  O6  UNL     1      20.365 -45.017 -73.003  1.00  0.00    -0.268 OA
ENDROOT
BRANCH   1  19
HETATM   19  C2  UNL     1      21.959 -47.887 -74.732  1.00  0.00     0.328 C 
HETATM   20  O2  UNL     1      20.952 -47.962 -75.451  1.00  0.00    -0.260 OA
BRANCH  19  21
HETATM   21  O1  UNL     1      22.264 -48.946 -73.888  1.00  0.00    -0.323 OA
HETATM   22  C1  UNL     1      23.200 -49.962 -74.277  1.00  0.00     0.213 C 
ENDBRANCH  19  21
ENDBRANCH   1  19
BRANCH   1  23
HETATM   23  C4  UNL     1      23.982 -46.901 -75.699  1.00  0.00     0.058 C 
HETATM   24  C5  UNL     1      23.883 -46.448 -76.937  1.00  0.00     0.075 C 
BRANCH  24  25
HETATM   25  C6  UNL     1      24.961 -46.643 -77.877  1.00  0.00     0.241 C 
HETATM   26  O3  UNL     1      25.538 -45.655 -78.370  1.00  0.00    -0.269 OA
HETATM   27  N1  UNL     1      25.371 -47.941 -78.244  1.00  0.00    -0.350 N 
ATOM     28  H1  UNL     1      24.899 -48.750 -77.840  1.00  0.00     0.163 HD
BRANCH  27  29
HETATM   29  C7  UNL     1      26.454 -48.143 -79.187  1.00  0.00     0.022 C 
HETATM   30  C8  UNL     1      27.664 -47.320 -78.810  1.00  0.00     0.037 C 
HETATM   31  C9  UNL     1      26.856 -49.612 -79.071  1.00  0.00     0.037 C 
HETATM   32  C10 UNL     1      26.051 -47.802 -80.597  1.00  0.00     0.037 C 
ENDBRANCH  27  29
ENDBRANCH  24  25
ENDBRANCH   1  23
TORSDOF 5
ENDMDL
