MODEL 1
REMARK VINA RESULT: -7.128154965      0.000      0.000
REMARK  8 active torsions:
REMARK  status: ('A' for Active; 'I' for Inactive)
REMARK    1  A    between atoms: C4_4  and  C5_5 
REMARK    2  A    between atoms: C5_5  and  O1_6 
REMARK    3  A    between atoms: C9_12  and  O3_13 
REMARK    4  A    between atoms: C11_16  and  C12_17 
REMARK    5  A    between atoms: C12_17  and  C13_18 
REMARK    6  A    between atoms: C15_22  and  O6_23 
REMARK    7  A    between atoms: C16_25  and  O7_26 
REMARK    8  A    between atoms: C17_28  and  O8_29 
ROOT
HETATM    1  C1  UNL     1      23.306 -46.012 -77.323  1.00  0.00     0.012 C 
HETATM    2  C2  UNL     1      22.369 -45.891 -76.107  1.00  0.00     0.014 C 
HETATM    3  C3  UNL     1      21.420 -47.045 -76.112  1.00  0.00     0.021 C 
HETATM    4  C4  UNL     1      20.881 -47.424 -74.754  1.00  0.00     0.018 C 
HETATM    5  C6  UNL     1      21.143 -46.203 -73.934  1.00  0.00     0.164 C 
HETATM    6  O2  UNL     1      20.166 -46.259 -72.974  1.00  0.00    -0.373 OA
HETATM    7  C7  UNL     1      19.063 -46.237 -73.880  1.00  0.00     0.166 C 
HETATM    8  C8  UNL     1      19.395 -47.544 -74.644  1.00  0.00     0.060 C 
HETATM    9  C9  UNL     1      18.859 -48.484 -73.632  1.00  0.00     0.135 C 
HETATM   10  C10 UNL     1      17.557 -47.940 -73.161  1.00  0.00     0.083 C 
HETATM   11  C11 UNL     1      16.355 -48.116 -73.930  1.00  0.00     0.137 C 
HETATM   12  O5  UNL     1      16.014 -46.882 -74.539  1.00  0.00    -0.382 OA
HETATM   13  C14 UNL     1      16.582 -45.897 -73.761  1.00  0.00     0.209 C 
HETATM   14  C15 UNL     1      17.818 -46.470 -73.129  1.00  0.00     0.114 C 
HETATM   15  C16 UNL     1      22.524 -45.902 -73.586  1.00  0.00     0.177 C 
HETATM   16  C17 UNL     1      23.237 -45.683 -74.928  1.00  0.00     0.153 C 
ENDROOT
BRANCH   4  17
HETATM   17  C5  UNL     1      21.592 -48.658 -74.350  1.00  0.00     0.176 C 
BRANCH  17  18
HETATM   18  O1  UNL     1      22.261 -49.187 -75.474  1.00  0.00    -0.400 OA
ATOM     19  H1  UNL     1      23.193 -49.024 -75.381  1.00  0.00     0.209 HD
ENDBRANCH  17  18
ENDBRANCH   4  17
BRANCH  15  20
HETATM   20  O7  UNL     1      23.193 -46.788 -72.770  1.00  0.00    -0.390 OA
ATOM     21  H7  UNL     1      24.088 -46.581 -72.526  1.00  0.00     0.210 HD
ENDBRANCH  15  20
BRANCH   9  22
HETATM   22  O3  UNL     1      18.837 -49.822 -73.928  1.00  0.00    -0.394 OA
ATOM     23  H3  UNL     1      18.365 -50.407 -73.348  1.00  0.00     0.210 HD
ENDBRANCH   9  22
BRANCH  16  24
HETATM   24  O8  UNL     1      24.465 -46.337 -74.977  1.00  0.00    -0.393 OA
ATOM     25  H8  UNL     1      25.158 -45.931 -74.469  1.00  0.00     0.210 HD
ENDBRANCH  16  24
BRANCH  14  26
HETATM   26  O6  UNL     1      17.971 -45.971 -71.823  1.00  0.00    -0.384 OA
ATOM     27  H6  UNL     1      17.445 -45.186 -71.728  1.00  0.00     0.210 HD
ENDBRANCH  14  26
BRANCH  11  28
HETATM   28  C12 UNL     1      16.266 -49.130 -74.989  1.00  0.00     0.102 C 
BRANCH  28  29
HETATM   29  C13 UNL     1      14.926 -49.830 -74.893  1.00  0.00     0.233 C 
HETATM   30  O4  UNL     1      13.878 -49.228 -74.991  1.00  0.00    -0.307 OA
ENDBRANCH  28  29
ENDBRANCH  11  28
TORSDOF 8
ENDMDL
MODEL 2
REMARK VINA RESULT: -6.748827649      2.760      6.382
REMARK  8 active torsions:
REMARK  status: ('A' for Active; 'I' for Inactive)
REMARK    1  A    between atoms: C4_4  and  C5_5 
REMARK    2  A    between atoms: C5_5  and  O1_6 
REMARK    3  A    between atoms: C9_12  and  O3_13 
REMARK    4  A    between atoms: C11_16  and  C12_17 
REMARK    5  A    between atoms: C12_17  and  C13_18 
REMARK    6  A    between atoms: C15_22  and  O6_23 
REMARK    7  A    between atoms: C16_25  and  O7_26 
REMARK    8  A    between atoms: C17_28  and  O8_29 
ROOT
HETATM    1  C1  UNL     1      16.639 -40.552 -74.659  1.00  0.00     0.012 C 
HETATM    2  C2  UNL     1      16.254 -42.016 -74.938  1.00  0.00     0.014 C 
HETATM    3  C3  UNL     1      17.147 -42.910 -74.141  1.00  0.00     0.021 C 
HETATM    4  C4  UNL     1      16.556 -44.260 -73.809  1.00  0.00     0.018 C 
HETATM    5  C6  UNL     1      15.444 -44.393 -74.797  1.00  0.00     0.164 C 
HETATM    6  O2  UNL     1      15.324 -45.750 -74.947  1.00  0.00    -0.373 OA
HETATM    7  C7  UNL     1      16.659 -45.970 -75.403  1.00  0.00     0.166 C 
HETATM    8  C8  UNL     1      17.397 -45.449 -74.145  1.00  0.00     0.060 C 
HETATM    9  C9  UNL     1      17.221 -46.665 -73.317  1.00  0.00     0.135 C 
HETATM   10  C10 UNL     1      17.495 -47.841 -74.186  1.00  0.00     0.083 C 
HETATM   11  C11 UNL     1      18.842 -48.257 -74.471  1.00  0.00     0.137 C 
HETATM   12  O5  UNL     1      19.160 -47.901 -75.806  1.00  0.00    -0.382 OA
HETATM   13  C14 UNL     1      17.961 -47.821 -76.481  1.00  0.00     0.209 C 
HETATM   14  C15 UNL     1      16.906 -47.418 -75.491  1.00  0.00     0.114 C 
HETATM   15  C16 UNL     1      14.271 -43.549 -74.618  1.00  0.00     0.177 C 
HETATM   16  C17 UNL     1      14.791 -42.109 -74.743  1.00  0.00     0.153 C 
ENDROOT
BRANCH   4  17
HETATM   17  C5  UNL     1      16.171 -44.208 -72.381  1.00  0.00     0.176 C 
BRANCH  17  18
HETATM   18  O1  UNL     1      16.846 -43.133 -71.765  1.00  0.00    -0.400 OA
ATOM     19  H1  UNL     1      16.205 -42.559 -71.363  1.00  0.00     0.209 HD
ENDBRANCH  17  18
ENDBRANCH   4  17
BRANCH  15  20
HETATM   20  O7  UNL     1      13.505 -43.739 -73.489  1.00  0.00    -0.390 OA
ATOM     21  H7  UNL     1      12.559 -43.741 -73.587  1.00  0.00     0.210 HD
ENDBRANCH  15  20
BRANCH   9  22
HETATM   22  O3  UNL     1      17.829 -46.716 -72.090  1.00  0.00    -0.394 OA
ATOM     23  H3  UNL     1      18.770 -46.842 -72.055  1.00  0.00     0.210 HD
ENDBRANCH   9  22
BRANCH  16  24
HETATM   24  O8  UNL     1      14.274 -41.282 -73.750  1.00  0.00    -0.393 OA
ATOM     25  H8  UNL     1      13.367 -41.448 -73.520  1.00  0.00     0.210 HD
ENDBRANCH  16  24
BRANCH  14  26
HETATM   26  O6  UNL     1      15.695 -48.073 -75.780  1.00  0.00    -0.384 OA
ATOM     27  H6  UNL     1      14.998 -47.429 -75.822  1.00  0.00     0.210 HD
ENDBRANCH  14  26
BRANCH  11  28
HETATM   28  C12 UNL     1      19.973 -47.805 -73.650  1.00  0.00     0.102 C 
BRANCH  28  29
HETATM   29  C13 UNL     1      21.268 -48.224 -74.314  1.00  0.00     0.233 C 
HETATM   30  O4  UNL     1      21.653 -49.374 -74.303  1.00  0.00    -0.307 OA
ENDBRANCH  28  29
ENDBRANCH  11  28
TORSDOF 8
ENDMDL
MODEL 3
REMARK VINA RESULT: -6.717725491      3.857      6.956
REMARK  8 active torsions:
REMARK  status: ('A' for Active; 'I' for Inactive)
REMARK    1  A    between atoms: C4_4  and  C5_5 
REMARK    2  A    between atoms: C5_5  and  O1_6 
REMARK    3  A    between atoms: C9_12  and  O3_13 
REMARK    4  A    between atoms: C11_16  and  C12_17 
REMARK    5  A    between atoms: C12_17  and  C13_18 
REMARK    6  A    between atoms: C15_22  and  O6_23 
REMARK    7  A    between atoms: C16_25  and  O7_26 
REMARK    8  A    between atoms: C17_28  and  O8_29 
ROOT
HETATM    1  C1  UNL     1      23.335 -42.399 -72.376  1.00  0.00     0.012 C 
HETATM    2  C2  UNL     1      22.789 -43.324 -73.479  1.00  0.00     0.014 C 
HETATM    3  C3  UNL     1      23.884 -44.235 -73.930  1.00  0.00     0.021 C 
HETATM    4  C4  UNL     1      23.415 -45.548 -74.510  1.00  0.00     0.018 C 
HETATM    5  C6  UNL     1      21.985 -45.275 -74.847  1.00  0.00     0.164 C 
HETATM    6  O2  UNL     1      21.739 -46.142 -75.880  1.00  0.00    -0.373 OA
HETATM    7  C7  UNL     1      22.745 -45.627 -76.751  1.00  0.00     0.166 C 
HETATM    8  C8  UNL     1      23.971 -45.915 -75.848  1.00  0.00     0.060 C 
HETATM    9  C9  UNL     1      24.092 -47.356 -76.165  1.00  0.00     0.135 C 
HETATM   10  C10 UNL     1      23.912 -47.509 -77.634  1.00  0.00     0.083 C 
HETATM   11  C11 UNL     1      24.990 -47.240 -78.547  1.00  0.00     0.137 C 
HETATM   12  O5  UNL     1      24.738 -46.011 -79.208  1.00  0.00    -0.382 OA
HETATM   13  C14 UNL     1      23.372 -45.826 -79.170  1.00  0.00     0.209 C 
HETATM   14  C15 UNL     1      22.854 -46.499 -77.932  1.00  0.00     0.114 C 
HETATM   15  C16 UNL     1      21.043 -45.131 -73.745  1.00  0.00     0.177 C 
HETATM   16  C17 UNL     1      21.540 -43.914 -72.951  1.00  0.00     0.153 C 
ENDROOT
BRANCH   4  17
HETATM   17  C5  UNL     1      23.668 -46.577 -73.476  1.00  0.00     0.176 C 
BRANCH  17  18
HETATM   18  O1  UNL     1      24.994 -46.444 -73.017  1.00  0.00    -0.400 OA
ATOM     19  H1  UNL     1      25.287 -47.282 -72.677  1.00  0.00     0.209 HD
ENDBRANCH  17  18
ENDBRANCH   4  17
BRANCH  15  20
HETATM   20  O7  UNL     1      20.812 -46.228 -72.944  1.00  0.00    -0.390 OA
ATOM     21  H7  UNL     1      20.301 -46.102 -72.153  1.00  0.00     0.210 HD
ENDBRANCH  15  20
BRANCH   9  22
HETATM   22  O3  UNL     1      25.155 -48.053 -75.652  1.00  0.00    -0.394 OA
ATOM     23  H3  UNL     1      25.064 -48.453 -74.795  1.00  0.00     0.210 HD
ENDBRANCH   9  22
BRANCH  16  24
HETATM   24  O8  UNL     1      21.533 -44.152 -71.579  1.00  0.00    -0.393 OA
ATOM     25  H8  UNL     1      21.883 -43.447 -71.047  1.00  0.00     0.210 HD
ENDBRANCH  16  24
BRANCH  14  26
HETATM   26  O6  UNL     1      21.600 -47.083 -78.186  1.00  0.00    -0.384 OA
ATOM     27  H6  UNL     1      21.106 -46.515 -78.766  1.00  0.00     0.210 HD
ENDBRANCH  14  26
BRANCH  11  28
HETATM   28  C12 UNL     1      26.384 -47.175 -78.088  1.00  0.00     0.102 C 
BRANCH  28  29
HETATM   29  C13 UNL     1      27.228 -48.110 -78.930  1.00  0.00     0.233 C 
HETATM   30  O4  UNL     1      27.261 -49.305 -78.725  1.00  0.00    -0.307 OA
ENDBRANCH  28  29
ENDBRANCH  11  28
TORSDOF 8
ENDMDL
MODEL 4
REMARK VINA RESULT: -6.705585400      2.036      6.108
REMARK  8 active torsions:
REMARK  status: ('A' for Active; 'I' for Inactive)
REMARK    1  A    between atoms: C4_4  and  C5_5 
REMARK    2  A    between atoms: C5_5  and  O1_6 
REMARK    3  A    between atoms: C9_12  and  O3_13 
REMARK    4  A    between atoms: C11_16  and  C12_17 
REMARK    5  A    between atoms: C12_17  and  C13_18 
REMARK    6  A    between atoms: C15_22  and  O6_23 
REMARK    7  A    between atoms: C16_25  and  O7_26 
REMARK    8  A    between atoms: C17_28  and  O8_29 
ROOT
HETATM    1  C1  UNL     1      13.910 -46.845 -77.232  1.00  0.00     0.012 C 
HETATM    2  C2  UNL     1      15.370 -47.276 -77.002  1.00  0.00     0.014 C 
HETATM    3  C3  UNL     1      15.828 -46.743 -75.684  1.00  0.00     0.021 C 
HETATM    4  C4  UNL     1      16.938 -47.535 -75.034  1.00  0.00     0.018 C 
HETATM    5  C6  UNL     1      17.501 -48.322 -76.172  1.00  0.00     0.164 C 
HETATM    6  O2  UNL     1      18.802 -48.527 -75.793  1.00  0.00    -0.373 OA
HETATM    7  C7  UNL     1      19.149 -47.146 -75.694  1.00  0.00     0.166 C 
HETATM    8  C8  UNL     1      18.134 -46.755 -74.592  1.00  0.00     0.060 C 
HETATM    9  C9  UNL     1      18.905 -47.282 -73.442  1.00  0.00     0.135 C 
HETATM   10  C10 UNL     1      20.326 -46.886 -73.637  1.00  0.00     0.083 C 
HETATM   11  C11 UNL     1      20.781 -45.562 -73.308  1.00  0.00     0.137 C 
HETATM   12  O5  UNL     1      20.998 -44.838 -74.508  1.00  0.00    -0.382 OA
HETATM   13  C14 UNL     1      21.240 -45.778 -75.487  1.00  0.00     0.209 C 
HETATM   14  C15 UNL     1      20.497 -47.028 -75.113  1.00  0.00     0.114 C 
HETATM   15  C16 UNL     1      16.694 -49.408 -76.712  1.00  0.00     0.177 C 
HETATM   16  C17 UNL     1      15.419 -48.735 -77.241  1.00  0.00     0.153 C 
ENDROOT
BRANCH   4  17
HETATM   17  C5  UNL     1      16.314 -48.309 -73.938  1.00  0.00     0.176 C 
BRANCH  17  18
HETATM   18  O1  UNL     1      15.640 -47.418 -73.077  1.00  0.00    -0.400 OA
ATOM     19  H1  UNL     1      15.346 -47.896 -72.310  1.00  0.00     0.209 HD
ENDBRANCH  17  18
ENDBRANCH   4  17
BRANCH  15  20
HETATM   20  O7  UNL     1      16.425 -50.482 -75.893  1.00  0.00    -0.390 OA
ATOM     21  H7  UNL     1      17.151 -50.879 -75.426  1.00  0.00     0.210 HD
ENDBRANCH  15  20
BRANCH   9  22
HETATM   22  O3  UNL     1      18.427 -47.062 -72.176  1.00  0.00    -0.394 OA
ATOM     23  H3  UNL     1      19.022 -47.161 -71.443  1.00  0.00     0.210 HD
ENDBRANCH   9  22
BRANCH  16  24
HETATM   24  O8  UNL     1      14.273 -49.432 -76.871  1.00  0.00    -0.393 OA
ATOM     25  H8  UNL     1      14.036 -49.362 -75.954  1.00  0.00     0.210 HD
ENDBRANCH  16  24
BRANCH  14  26
HETATM   26  O6  UNL     1      21.249 -48.163 -75.468  1.00  0.00    -0.384 OA
ATOM     27  H6  UNL     1      21.021 -48.879 -74.886  1.00  0.00     0.210 HD
ENDBRANCH  14  26
BRANCH  11  28
HETATM   28  C12 UNL     1      19.995 -44.677 -72.436  1.00  0.00     0.102 C 
BRANCH  28  29
HETATM   29  C13 UNL     1      19.447 -43.529 -73.258  1.00  0.00     0.233 C 
HETATM   30  O4  UNL     1      18.257 -43.314 -73.348  1.00  0.00    -0.307 OA
ENDBRANCH  28  29
ENDBRANCH  11  28
TORSDOF 8
ENDMDL
MODEL 5
REMARK VINA RESULT: -6.640113485      3.299      5.542
REMARK  8 active torsions:
REMARK  status: ('A' for Active; 'I' for Inactive)
REMARK    1  A    between atoms: C4_4  and  C5_5 
REMARK    2  A    between atoms: C5_5  and  O1_6 
REMARK    3  A    between atoms: C9_12  and  O3_13 
REMARK    4  A    between atoms: C11_16  and  C12_17 
REMARK    5  A    between atoms: C12_17  and  C13_18 
REMARK    6  A    between atoms: C15_22  and  O6_23 
REMARK    7  A    between atoms: C16_25  and  O7_26 
REMARK    8  A    between atoms: C17_28  and  O8_29 
ROOT
HETATM    1  C1  UNL     1      15.089 -48.544 -77.709  1.00  0.00     0.012 C 
HETATM    2  C2  UNL     1      16.042 -47.494 -77.110  1.00  0.00     0.014 C 
HETATM    3  C3  UNL     1      15.529 -47.087 -75.767  1.00  0.00     0.021 C 
HETATM    4  C4  UNL     1      16.585 -46.579 -74.815  1.00  0.00     0.018 C 
HETATM    5  C6  UNL     1      17.720 -46.235 -75.724  1.00  0.00     0.164 C 
HETATM    6  O2  UNL     1      18.380 -45.249 -75.035  1.00  0.00    -0.373 OA
HETATM    7  C7  UNL     1      17.275 -44.349 -74.966  1.00  0.00     0.166 C 
HETATM    8  C8  UNL     1      16.311 -45.261 -74.167  1.00  0.00     0.060 C 
HETATM    9  C9  UNL     1      16.903 -45.020 -72.831  1.00  0.00     0.135 C 
HETATM   10  C10 UNL     1      17.176 -43.563 -72.718  1.00  0.00     0.083 C 
HETATM   11  C11 UNL     1      16.127 -42.632 -72.397  1.00  0.00     0.137 C 
HETATM   12  O5  UNL     1      15.780 -41.908 -73.565  1.00  0.00    -0.382 OA
HETATM   13  C14 UNL     1      16.890 -41.941 -74.383  1.00  0.00     0.209 C 
HETATM   14  C15 UNL     1      17.631 -43.215 -74.097  1.00  0.00     0.114 C 
HETATM   15  C16 UNL     1      18.446 -47.330 -76.350  1.00  0.00     0.177 C 
HETATM   16  C17 UNL     1      17.406 -48.057 -77.215  1.00  0.00     0.153 C 
ENDROOT
BRANCH   4  17
HETATM   17  C5  UNL     1      16.826 -47.665 -73.838  1.00  0.00     0.176 C 
BRANCH  17  18
HETATM   18  O1  UNL     1      15.584 -48.118 -73.346  1.00  0.00    -0.400 OA
ATOM     19  H1  UNL     1      15.078 -48.472 -74.069  1.00  0.00     0.209 HD
ENDBRANCH  17  18
ENDBRANCH   4  17
BRANCH  15  20
HETATM   20  O7  UNL     1      19.150 -48.189 -75.535  1.00  0.00    -0.390 OA
ATOM     21  H7  UNL     1      20.094 -48.227 -75.638  1.00  0.00     0.210 HD
ENDBRANCH  15  20
BRANCH   9  22
HETATM   22  O3  UNL     1      16.288 -45.566 -71.734  1.00  0.00    -0.394 OA
ATOM     23  H3  UNL     1      16.613 -45.338 -70.872  1.00  0.00     0.210 HD
ENDBRANCH   9  22
BRANCH  16  24
HETATM   24  O8  UNL     1      17.486 -49.440 -77.071  1.00  0.00    -0.393 OA
ATOM     25  H8  UNL     1      17.068 -49.941 -77.761  1.00  0.00     0.210 HD
ENDBRANCH  16  24
BRANCH  14  26
HETATM   26  O6  UNL     1      19.018 -42.997 -74.174  1.00  0.00    -0.384 OA
ATOM     27  H6  UNL     1      19.453 -43.826 -74.331  1.00  0.00     0.210 HD
ENDBRANCH  14  26
BRANCH  11  28
HETATM   28  C12 UNL     1      14.859 -43.082 -71.806  1.00  0.00     0.102 C 
BRANCH  28  29
HETATM   29  C13 UNL     1      13.755 -42.938 -72.832  1.00  0.00     0.233 C 
HETATM   30  O4  UNL     1      12.583 -42.940 -72.520  1.00  0.00    -0.307 OA
ENDBRANCH  28  29
ENDBRANCH  11  28
TORSDOF 8
ENDMDL
