MODEL 1
REMARK VINA RESULT: -6.123308414      0.000      0.000
REMARK  4 active torsions:
REMARK  status: ('A' for Active; 'I' for Inactive)
REMARK    1  A    between atoms: C2_2  and  N1_3 
REMARK    2  A    between atoms: N4_16  and  C9_17 
REMARK    3  A    between atoms: C9_17  and  C10_18 
REMARK    4  A    between atoms: C10_18  and  N5_19 
ROOT
HETATM    1  N1  UNL     1      14.913 -43.152 -74.198  1.00  0.00     0.091 N 
HETATM    2  C3  UNL     1      15.171 -41.755 -74.559  1.00  0.00     0.299 C 
HETATM    3  C4  UNL     1      16.561 -41.526 -75.041  1.00  0.00     0.262 C 
HETATM    4  N2  UNL     1      17.104 -40.276 -74.495  1.00  0.00    -0.072 N 
ATOM      5  H21 UNL     1      16.398 -39.760 -73.971  1.00  0.00     0.277 HD
ATOM      6  H22 UNL     1      17.284 -39.595 -75.233  1.00  0.00     0.277 HD
HETATM    7  C5  UNL     1      18.284 -40.512 -73.696  1.00  0.00     0.259 C 
HETATM    8  C6  UNL     1      19.542 -40.385 -74.555  1.00  0.00     0.259 C 
HETATM    9  N3  UNL     1      20.173 -41.653 -74.769  1.00  0.00    -0.072 N 
ATOM     10  H31 UNL     1      20.556 -41.723 -75.711  1.00  0.00     0.277 HD
ATOM     11  H32 UNL     1      19.487 -42.406 -74.818  1.00  0.00     0.277 HD
HETATM   12  C7  UNL     1      21.196 -41.928 -73.755  1.00  0.00     0.251 C 
HETATM   13  C8  UNL     1      22.315 -42.773 -74.324  1.00  0.00     0.144 C 
HETATM   14  N4  UNL     1      22.305 -44.062 -73.726  1.00  0.00    -0.408 N 
HETATM   15  C11 UNL     1      22.564 -45.171 -74.573  1.00  0.00     0.136 C 
HETATM   16  C12 UNL     1      21.314 -46.051 -74.711  1.00  0.00     0.133 C 
HETATM   17  N6  UNL     1      21.169 -46.762 -73.479  1.00  0.00    -0.418 N 
ATOM     18  H6  UNL     1      21.806 -46.629 -72.693  1.00  0.00     0.153 HD
HETATM   19  C13 UNL     1      20.069 -47.671 -73.427  1.00  0.00     0.140 C 
HETATM   20  C14 UNL     1      18.778 -47.052 -72.955  1.00  0.00     0.189 C 
HETATM   21  O1  UNL     1      17.856 -46.901 -74.014  1.00  0.00    -0.363 OA
HETATM   22  C15 UNL     1      16.681 -46.429 -73.442  1.00  0.00     0.399 C 
HETATM   23  N7  UNL     1      15.679 -46.150 -74.445  1.00  0.00    -0.053 N 
ATOM     24  H71 UNL     1      14.763 -45.999 -74.021  1.00  0.00     0.279 HD
ATOM     25  H72 UNL     1      15.467 -46.982 -74.996  1.00  0.00     0.279 HD
HETATM   26  C16 UNL     1      16.051 -45.041 -75.294  1.00  0.00     0.265 C 
HETATM   27  C17 UNL     1      15.008 -43.970 -75.371  1.00  0.00     0.300 C 
ENDROOT
BRANCH  14  28
HETATM   28  C9  UNL     1      22.733 -44.149 -72.377  1.00  0.00     0.144 C 
BRANCH  28  29
HETATM   29  C10 UNL     1      23.970 -43.352 -72.046  1.00  0.00     0.248 C 
BRANCH  29  30
HETATM   30  N5  UNL     1      23.646 -42.488 -70.905  1.00  0.00    -0.078 N 
ATOM     31  H53 UNL     1      23.726 -41.495 -71.124  1.00  0.00     0.274 HD
ATOM     32  H52 UNL     1      22.653 -42.493 -70.671  1.00  0.00     0.274 HD
ATOM     33  H51 UNL     1      24.239 -42.772 -70.125  1.00  0.00     0.274 HD
ENDBRANCH  29  30
ENDBRANCH  28  29
ENDBRANCH  14  28
BRANCH   1  34
HETATM   34  C2  UNL     1      13.500 -43.179 -73.785  1.00  0.00     0.268 C 
HETATM   35  C1  UNL     1      13.351 -42.972 -72.303  1.00  0.00     0.037 C 
ENDBRANCH   1  34
TORSDOF 4
ENDMDL
MODEL 2
REMARK VINA RESULT: -5.934552947      2.371      5.193
REMARK  4 active torsions:
REMARK  status: ('A' for Active; 'I' for Inactive)
REMARK    1  A    between atoms: C2_2  and  N1_3 
REMARK    2  A    between atoms: N4_16  and  C9_17 
REMARK    3  A    between atoms: C9_17  and  C10_18 
REMARK    4  A    between atoms: C10_18  and  N5_19 
ROOT
HETATM    1  N1  UNL     1      16.532 -43.369 -74.093  1.00  0.00     0.091 N 
HETATM    2  C3  UNL     1      15.863 -44.535 -73.507  1.00  0.00     0.299 C 
HETATM    3  C4  UNL     1      16.814 -45.516 -72.917  1.00  0.00     0.262 C 
HETATM    4  N2  UNL     1      16.410 -46.892 -73.232  1.00  0.00    -0.072 N 
ATOM      5  H21 UNL     1      15.509 -46.915 -73.710  1.00  0.00     0.277 HD
ATOM      6  H22 UNL     1      16.155 -47.407 -72.389  1.00  0.00     0.277 HD
HETATM    7  C5  UNL     1      17.426 -47.586 -73.988  1.00  0.00     0.259 C 
HETATM    8  C6  UNL     1      18.360 -48.347 -73.049  1.00  0.00     0.259 C 
HETATM    9  N3  UNL     1      19.664 -47.754 -72.996  1.00  0.00    -0.072 N 
ATOM     10  H31 UNL     1      20.054 -47.798 -72.055  1.00  0.00     0.277 HD
ATOM     11  H32 UNL     1      19.616 -46.741 -73.103  1.00  0.00     0.277 HD
HETATM   12  C7  UNL     1      20.573 -48.353 -73.980  1.00  0.00     0.251 C 
HETATM   13  C8  UNL     1      22.002 -48.335 -73.483  1.00  0.00     0.144 C 
HETATM   14  N4  UNL     1      22.780 -47.446 -74.272  1.00  0.00    -0.408 N 
HETATM   15  C11 UNL     1      23.730 -46.639 -73.592  1.00  0.00     0.136 C 
HETATM   16  C12 UNL     1      23.332 -45.158 -73.662  1.00  0.00     0.133 C 
HETATM   17  N6  UNL     1      23.606 -44.719 -74.995  1.00  0.00    -0.418 N 
ATOM     18  H6  UNL     1      23.970 -45.345 -75.714  1.00  0.00     0.153 HD
HETATM   19  C13 UNL     1      23.333 -43.340 -75.250  1.00  0.00     0.140 C 
HETATM   20  C14 UNL     1      21.920 -43.062 -75.695  1.00  0.00     0.189 C 
HETATM   21  O1  UNL     1      21.171 -42.427 -74.680  1.00  0.00    -0.363 OA
HETATM   22  C15 UNL     1      19.934 -42.128 -75.240  1.00  0.00     0.399 C 
HETATM   23  N7  UNL     1      19.039 -41.548 -74.266  1.00  0.00    -0.053 N 
ATOM     24  H71 UNL     1      18.215 -41.147 -74.713  1.00  0.00     0.279 HD
ATOM     25  H72 UNL     1      19.433 -40.698 -73.862  1.00  0.00     0.279 HD
HETATM   26  C16 UNL     1      18.667 -42.492 -73.236  1.00  0.00     0.265 C 
HETATM   27  C17 UNL     1      17.187 -42.628 -73.056  1.00  0.00     0.300 C 
ENDROOT
BRANCH  14  28
HETATM   28  C9  UNL     1      23.093 -47.860 -75.591  1.00  0.00     0.144 C 
BRANCH  28  29
HETATM   29  C10 UNL     1      24.387 -48.622 -75.731  1.00  0.00     0.248 C 
BRANCH  29  30
HETATM   30  N5  UNL     1      25.280 -47.824 -76.580  1.00  0.00    -0.078 N 
ATOM     31  H53 UNL     1      24.778 -47.274 -77.277  1.00  0.00     0.274 HD
ATOM     32  H52 UNL     1      25.712 -47.046 -76.082  1.00  0.00     0.274 HD
ATOM     33  H51 UNL     1      25.963 -48.461 -76.992  1.00  0.00     0.274 HD
ENDBRANCH  29  30
ENDBRANCH  28  29
ENDBRANCH  14  28
BRANCH   1  34
HETATM   34  C2  UNL     1      15.438 -42.516 -74.586  1.00  0.00     0.268 C 
HETATM   35  C1  UNL     1      14.490 -42.137 -73.483  1.00  0.00     0.037 C 
ENDBRANCH   1  34
TORSDOF 4
ENDMDL
MODEL 3
REMARK VINA RESULT: -5.772101502      3.546      6.629
REMARK  4 active torsions:
REMARK  status: ('A' for Active; 'I' for Inactive)
REMARK    1  A    between atoms: C2_2  and  N1_3 
REMARK    2  A    between atoms: N4_16  and  C9_17 
REMARK    3  A    between atoms: C9_17  and  C10_18 
REMARK    4  A    between atoms: C10_18  and  N5_19 
ROOT
HETATM    1  N1  UNL     1      11.867 -45.162 -77.973  1.00  0.00     0.091 N 
HETATM    2  C3  UNL     1      11.640 -46.609 -78.017  1.00  0.00     0.299 C 
HETATM    3  C4  UNL     1      12.313 -47.338 -76.907  1.00  0.00     0.262 C 
HETATM    4  N2  UNL     1      12.918 -48.586 -77.391  1.00  0.00    -0.072 N 
ATOM      5  H21 UNL     1      12.681 -48.760 -78.368  1.00  0.00     0.277 HD
ATOM      6  H22 UNL     1      12.474 -49.402 -76.972  1.00  0.00     0.277 HD
HETATM    7  C5  UNL     1      14.348 -48.599 -77.186  1.00  0.00     0.259 C 
HETATM    8  C6  UNL     1      14.686 -49.255 -75.847  1.00  0.00     0.259 C 
HETATM    9  N3  UNL     1      15.169 -48.301 -74.893  1.00  0.00    -0.072 N 
ATOM     10  H31 UNL     1      14.833 -48.513 -73.954  1.00  0.00     0.277 HD
ATOM     11  H32 UNL     1      14.727 -47.391 -75.020  1.00  0.00     0.277 HD
HETATM   12  C7  UNL     1      16.631 -48.193 -74.925  1.00  0.00     0.251 C 
HETATM   13  C8  UNL     1      17.183 -47.848 -73.559  1.00  0.00     0.144 C 
HETATM   14  N4  UNL     1      17.737 -46.539 -73.574  1.00  0.00    -0.408 N 
HETATM   15  C11 UNL     1      17.504 -45.725 -72.436  1.00  0.00     0.136 C 
HETATM   16  C12 UNL     1      16.604 -44.535 -72.795  1.00  0.00     0.133 C 
HETATM   17  N6  UNL     1      17.407 -43.619 -73.544  1.00  0.00    -0.418 N 
ATOM     18  H6  UNL     1      18.381 -43.810 -73.777  1.00  0.00     0.153 HD
HETATM   19  C13 UNL     1      16.747 -42.416 -73.941  1.00  0.00     0.140 C 
HETATM   20  C14 UNL     1      16.032 -42.513 -75.266  1.00  0.00     0.189 C 
HETATM   21  O1  UNL     1      14.630 -42.543 -75.098  1.00  0.00    -0.363 OA
HETATM   22  C15 UNL     1      14.086 -42.522 -76.377  1.00  0.00     0.399 C 
HETATM   23  N7  UNL     1      12.646 -42.639 -76.341  1.00  0.00    -0.053 N 
ATOM     24  H71 UNL     1      12.235 -42.424 -77.250  1.00  0.00     0.279 HD
ATOM     25  H72 UNL     1      12.229 -41.887 -75.793  1.00  0.00     0.279 HD
HETATM   26  C16 UNL     1      12.215 -43.934 -75.867  1.00  0.00     0.265 C 
HETATM   27  C17 UNL     1      11.261 -44.623 -76.792  1.00  0.00     0.300 C 
ENDROOT
BRANCH  14  28
HETATM   28  C9  UNL     1      18.960 -46.366 -74.269  1.00  0.00     0.144 C 
BRANCH  28  29
HETATM   29  C10 UNL     1      20.151 -46.056 -73.399  1.00  0.00     0.248 C 
BRANCH  29  30
HETATM   30  N5  UNL     1      20.797 -47.330 -73.063  1.00  0.00    -0.078 N 
ATOM     31  H53 UNL     1      21.124 -47.839 -73.885  1.00  0.00     0.274 HD
ATOM     32  H52 UNL     1      21.704 -47.210 -72.612  1.00  0.00     0.274 HD
ATOM     33  H51 UNL     1      20.140 -47.868 -72.498  1.00  0.00     0.274 HD
ENDBRANCH  29  30
ENDBRANCH  28  29
ENDBRANCH  14  28
BRANCH   1  34
HETATM   34  C2  UNL     1      11.106 -44.626 -79.113  1.00  0.00     0.268 C 
HETATM   35  C1  UNL     1      10.225 -45.675 -79.733  1.00  0.00     0.037 C 
ENDBRANCH   1  34
TORSDOF 4
ENDMDL
MODEL 4
REMARK VINA RESULT: -5.731854020      2.120      7.472
REMARK  4 active torsions:
REMARK  status: ('A' for Active; 'I' for Inactive)
REMARK    1  A    between atoms: C2_2  and  N1_3 
REMARK    2  A    between atoms: N4_16  and  C9_17 
REMARK    3  A    between atoms: C9_17  and  C10_18 
REMARK    4  A    between atoms: C10_18  and  N5_19 
ROOT
HETATM    1  N1  UNL     1      21.855 -42.883 -73.056  1.00  0.00     0.091 N 
HETATM    2  C3  UNL     1      22.831 -43.928 -73.375  1.00  0.00     0.299 C 
HETATM    3  C4  UNL     1      22.305 -44.946 -74.325  1.00  0.00     0.262 C 
HETATM    4  N2  UNL     1      22.719 -46.297 -73.927  1.00  0.00    -0.072 N 
ATOM      5  H21 UNL     1      23.362 -46.272 -73.136  1.00  0.00     0.277 HD
ATOM      6  H22 UNL     1      23.337 -46.717 -74.621  1.00  0.00     0.277 HD
HETATM    7  C5  UNL     1      21.581 -47.144 -73.654  1.00  0.00     0.259 C 
HETATM    8  C6  UNL     1      21.177 -47.914 -74.911  1.00  0.00     0.259 C 
HETATM    9  N3  UNL     1      19.934 -47.447 -75.447  1.00  0.00    -0.072 N 
ATOM     10  H31 UNL     1      19.943 -47.453 -76.467  1.00  0.00     0.277 HD
ATOM     11  H32 UNL     1      19.815 -46.446 -75.294  1.00  0.00     0.277 HD
HETATM   12  C7  UNL     1      18.795 -48.207 -74.919  1.00  0.00     0.251 C 
HETATM   13  C8  UNL     1      17.676 -48.287 -75.934  1.00  0.00     0.144 C 
HETATM   14  N4  UNL     1      16.554 -47.543 -75.481  1.00  0.00    -0.408 N 
HETATM   15  C11 UNL     1      15.849 -46.779 -76.448  1.00  0.00     0.136 C 
HETATM   16  C12 UNL     1      16.009 -45.277 -76.175  1.00  0.00     0.133 C 
HETATM   17  N6  UNL     1      15.193 -44.974 -75.040  1.00  0.00    -0.418 N 
ATOM     18  H6  UNL     1      14.659 -45.688 -74.544  1.00  0.00     0.153 HD
HETATM   19  C13 UNL     1      15.180 -43.600 -74.649  1.00  0.00     0.140 C 
HETATM   20  C14 UNL     1      16.270 -43.224 -73.677  1.00  0.00     0.189 C 
HETATM   21  O1  UNL     1      17.270 -42.441 -74.295  1.00  0.00    -0.363 OA
HETATM   22  C15 UNL     1      18.150 -42.070 -73.286  1.00  0.00     0.399 C 
HETATM   23  N7  UNL     1      19.275 -41.330 -73.811  1.00  0.00    -0.053 N 
ATOM     24  H71 UNL     1      19.810 -40.889 -73.063  1.00  0.00     0.279 HD
ATOM     25  H72 UNL     1      18.968 -40.493 -74.306  1.00  0.00     0.279 HD
HETATM   26  C16 UNL     1      20.124 -42.150 -74.647  1.00  0.00     0.265 C 
HETATM   27  C17 UNL     1      21.564 -42.128 -74.239  1.00  0.00     0.300 C 
ENDROOT
BRANCH  14  28
HETATM   28  C9  UNL     1      15.810 -48.089 -74.405  1.00  0.00     0.144 C 
BRANCH  28  29
HETATM   29  C10 UNL     1      15.200 -49.442 -74.672  1.00  0.00     0.248 C 
BRANCH  29  30
HETATM   30  N5  UNL     1      13.795 -49.230 -75.037  1.00  0.00    -0.078 N 
ATOM     31  H53 UNL     1      13.145 -49.670 -74.386  1.00  0.00     0.274 HD
ATOM     32  H52 UNL     1      13.489 -48.267 -74.899  1.00  0.00     0.274 HD
ATOM     33  H51 UNL     1      13.675 -49.551 -75.998  1.00  0.00     0.274 HD
ENDBRANCH  29  30
ENDBRANCH  28  29
ENDBRANCH  14  28
BRANCH   1  34
HETATM   34  C2  UNL     1      22.564 -41.971 -72.144  1.00  0.00     0.268 C 
HETATM   35  C1  UNL     1      23.159 -42.706 -70.976  1.00  0.00     0.037 C 
ENDBRANCH   1  34
TORSDOF 4
ENDMDL
MODEL 5
REMARK VINA RESULT: -5.724141949      2.191      4.922
REMARK  4 active torsions:
REMARK  status: ('A' for Active; 'I' for Inactive)
REMARK    1  A    between atoms: C2_2  and  N1_3 
REMARK    2  A    between atoms: N4_16  and  C9_17 
REMARK    3  A    between atoms: C9_17  and  C10_18 
REMARK    4  A    between atoms: C10_18  and  N5_19 
ROOT
HETATM    1  N1  UNL     1      16.148 -44.877 -74.836  1.00  0.00     0.091 N 
HETATM    2  C3  UNL     1      16.273 -46.336 -74.773  1.00  0.00     0.299 C 
HETATM    3  C4  UNL     1      17.495 -46.785 -74.051  1.00  0.00     0.262 C 
HETATM    4  N2  UNL     1      18.125 -47.918 -74.740  1.00  0.00    -0.072 N 
ATOM      5  H21 UNL     1      17.556 -48.240 -75.523  1.00  0.00     0.277 HD
ATOM      6  H22 UNL     1      18.100 -48.762 -74.168  1.00  0.00     0.277 HD
HETATM    7  C5  UNL     1      19.470 -47.605 -75.160  1.00  0.00     0.259 C 
HETATM    8  C6  UNL     1      20.474 -48.029 -74.089  1.00  0.00     0.259 C 
HETATM    9  N3  UNL     1      21.065 -46.900 -73.434  1.00  0.00    -0.072 N 
ATOM     10  H31 UNL     1      21.206 -47.079 -72.440  1.00  0.00     0.277 HD
ATOM     11  H32 UNL     1      20.408 -46.124 -73.365  1.00  0.00     0.277 HD
HETATM   12  C7  UNL     1      22.313 -46.487 -74.084  1.00  0.00     0.251 C 
HETATM   13  C8  UNL     1      23.279 -45.891 -73.082  1.00  0.00     0.144 C 
HETATM   14  N4  UNL     1      23.449 -44.504 -73.337  1.00  0.00    -0.408 N 
HETATM   15  C11 UNL     1      23.519 -43.643 -72.211  1.00  0.00     0.136 C 
HETATM   16  C12 UNL     1      22.296 -42.716 -72.159  1.00  0.00     0.133 C 
HETATM   17  N6  UNL     1      22.477 -41.734 -73.182  1.00  0.00    -0.418 N 
ATOM     18  H6  UNL     1      23.285 -41.736 -73.806  1.00  0.00     0.153 HD
HETATM   19  C13 UNL     1      21.447 -40.747 -73.267  1.00  0.00     0.140 C 
HETATM   20  C14 UNL     1      20.297 -41.133 -74.163  1.00  0.00     0.189 C 
HETATM   21  O1  UNL     1      19.139 -41.444 -73.417  1.00  0.00    -0.363 OA
HETATM   22  C15 UNL     1      18.130 -41.673 -74.344  1.00  0.00     0.399 C 
HETATM   23  N7  UNL     1      16.905 -42.089 -73.700  1.00  0.00    -0.053 N 
ATOM     24  H71 UNL     1      16.118 -42.063 -74.350  1.00  0.00     0.279 HD
ATOM     25  H72 UNL     1      16.585 -41.390 -73.030  1.00  0.00     0.279 HD
HETATM   26  C16 UNL     1      17.028 -43.390 -73.081  1.00  0.00     0.265 C 
HETATM   27  C17 UNL     1      15.971 -44.359 -73.511  1.00  0.00     0.300 C 
ENDROOT
BRANCH  14  28
HETATM   28  C9  UNL     1      24.198 -44.147 -74.486  1.00  0.00     0.144 C 
BRANCH  28  29
HETATM   29  C10 UNL     1      25.543 -43.525 -74.205  1.00  0.00     0.248 C 
BRANCH  29  30
HETATM   30  N5  UNL     1      26.407 -43.801 -75.358  1.00  0.00    -0.078 N 
ATOM     31  H53 UNL     1      25.907 -43.766 -76.247  1.00  0.00     0.274 HD
ATOM     32  H52 UNL     1      27.069 -43.048 -75.548  1.00  0.00     0.274 HD
ATOM     33  H51 UNL     1      26.863 -44.698 -75.193  1.00  0.00     0.274 HD
ENDBRANCH  29  30
ENDBRANCH  28  29
ENDBRANCH  14  28
BRANCH   1  34
HETATM   34  C2  UNL     1      14.881 -44.638 -75.548  1.00  0.00     0.268 C 
HETATM   35  C1  UNL     1      14.662 -45.645 -76.643  1.00  0.00     0.037 C 
ENDBRANCH   1  34
TORSDOF 4
ENDMDL
