MODEL 1
REMARK VINA RESULT: -6.852291028      0.000      0.000
REMARK  7 active torsions:
REMARK  status: ('A' for Active; 'I' for Inactive)
REMARK    1  A    between atoms: N1_2  and  C2_4 
REMARK    2  A    between atoms: N2_9  and  C7_10 
REMARK    3  A    between atoms: C7_10  and  C8_11 
REMARK    4  A    between atoms: C15_19  and  O2_20 
REMARK    5  A    between atoms: C16_22  and  O3_23 
REMARK    6  A    between atoms: C17_25  and  O4_26 
REMARK    7  A    between atoms: C18_28  and  O5_29 
ROOT
HETATM    1  C2  UNL     1      22.230 -45.467 -73.437  1.00  0.00     0.112 C 
HETATM    2  C3  UNL     1      22.518 -45.133 -74.858  1.00  0.00     0.019 C 
HETATM    3  C4  UNL     1      23.907 -44.528 -75.032  1.00  0.00     0.012 C 
HETATM    4  C5  UNL     1      24.369 -44.521 -76.441  1.00  0.00     0.045 C 
HETATM    5  C6  UNL     1      25.114 -45.706 -76.918  1.00  0.00     0.058 C 
HETATM    6  N2  UNL     1      24.540 -46.980 -76.770  1.00  0.00    -0.385 N 
HETATM    7  C11 UNL     1      23.743 -47.216 -75.615  1.00  0.00     0.131 C 
HETATM    8  C12 UNL     1      22.508 -46.310 -75.759  1.00  0.00     0.050 C 
HETATM    9  C13 UNL     1      21.380 -47.271 -75.497  1.00  0.00     0.169 C 
HETATM   10  O1  UNL     1      21.896 -48.383 -76.178  1.00  0.00    -0.363 OA
HETATM   11  C14 UNL     1      23.112 -48.506 -75.446  1.00  0.00     0.147 A 
HETATM   12  C15 UNL     1      23.234 -49.671 -74.701  1.00  0.00     0.199 A 
HETATM   13  C16 UNL     1      22.638 -48.626 -73.949  1.00  0.00     0.158 A 
HETATM   14  C17 UNL     1      21.452 -47.795 -74.093  1.00  0.00     0.148 C 
HETATM   15  C18 UNL     1      21.365 -46.631 -73.154  1.00  0.00     0.181 C 
ENDROOT
BRANCH   6  16
HETATM   16  C7  UNL     1      25.346 -48.084 -77.186  1.00  0.00     0.127 C 
BRANCH  16  17
HETATM   17  C8  UNL     1      25.863 -47.948 -78.580  1.00  0.00     0.003 A 
HETATM   18  C9  UNL     1      27.334 -47.826 -78.818  1.00  0.00     0.007 A 
HETATM   19  C10 UNL     1      26.614 -49.041 -79.209  1.00  0.00     0.007 A 
ENDBRANCH  16  17
ENDBRANCH   6  16
BRANCH  12  20
HETATM   20  O2  UNL     1      24.489 -50.168 -74.346  1.00  0.00    -0.389 OA
ATOM     21  H2  UNL     1      24.924 -49.875 -73.554  1.00  0.00     0.210 HD
ENDBRANCH  12  20
BRANCH  13  22
HETATM   22  O3  UNL     1      23.525 -48.088 -72.978  1.00  0.00    -0.380 OA
ATOM     23  H3  UNL     1      23.125 -47.539 -72.315  1.00  0.00     0.211 HD
ENDBRANCH  13  22
BRANCH   1  24
HETATM   24  N1  UNL     1      21.748 -44.372 -72.648  1.00  0.00    -0.418 N 
HETATM   25  C1  UNL     1      22.588 -43.735 -71.748  1.00  0.00     0.140 C 
ATOM     26  H1  UNL     1      20.782 -44.059 -72.749  1.00  0.00     0.153 HD
ENDBRANCH   1  24
BRANCH  14  27
HETATM   27  O4  UNL     1      20.303 -48.577 -73.892  1.00  0.00    -0.381 OA
ATOM     28  H4  UNL     1      20.167 -49.075 -74.689  1.00  0.00     0.211 HD
ENDBRANCH  14  27
BRANCH  15  29
HETATM   29  O5  UNL     1      20.037 -46.280 -72.913  1.00  0.00    -0.390 OA
ATOM     30  H5  UNL     1      19.419 -46.781 -73.432  1.00  0.00     0.210 HD
ENDBRANCH  15  29
TORSDOF 7
ENDMDL
MODEL 2
REMARK VINA RESULT: -6.788284894      1.252      1.435
REMARK  7 active torsions:
REMARK  status: ('A' for Active; 'I' for Inactive)
REMARK    1  A    between atoms: N1_2  and  C2_4 
REMARK    2  A    between atoms: N2_9  and  C7_10 
REMARK    3  A    between atoms: C7_10  and  C8_11 
REMARK    4  A    between atoms: C15_19  and  O2_20 
REMARK    5  A    between atoms: C16_22  and  O3_23 
REMARK    6  A    between atoms: C17_25  and  O4_26 
REMARK    7  A    between atoms: C18_28  and  O5_29 
ROOT
HETATM    1  C2  UNL     1      22.437 -45.387 -73.704  1.00  0.00     0.112 C 
HETATM    2  C3  UNL     1      22.225 -44.877 -75.087  1.00  0.00     0.019 C 
HETATM    3  C4  UNL     1      23.260 -43.825 -75.471  1.00  0.00     0.012 C 
HETATM    4  C5  UNL     1      23.313 -43.563 -76.930  1.00  0.00     0.045 C 
HETATM    5  C6  UNL     1      24.239 -44.388 -77.736  1.00  0.00     0.058 C 
HETATM    6  N2  UNL     1      24.151 -45.788 -77.659  1.00  0.00    -0.385 N 
HETATM    7  C11 UNL     1      23.797 -46.361 -76.404  1.00  0.00     0.131 C 
HETATM    8  C12 UNL     1      22.349 -45.921 -76.130  1.00  0.00     0.050 C 
HETATM    9  C13 UNL     1      21.687 -47.225 -75.774  1.00  0.00     0.169 C 
HETATM   10  O1  UNL     1      22.328 -48.044 -76.713  1.00  0.00    -0.363 OA
HETATM   11  C14 UNL     1      23.668 -47.797 -76.298  1.00  0.00     0.147 A 
HETATM   12  C15 UNL     1      24.338 -48.899 -75.785  1.00  0.00     0.199 A 
HETATM   13  C16 UNL     1      23.663 -48.174 -74.769  1.00  0.00     0.158 A 
HETATM   14  C17 UNL     1      22.282 -47.789 -74.517  1.00  0.00     0.148 C 
HETATM   15  C18 UNL     1      22.084 -46.792 -73.416  1.00  0.00     0.181 C 
ENDROOT
BRANCH   6  16
HETATM   16  C7  UNL     1      25.124 -46.520 -78.406  1.00  0.00     0.127 C 
BRANCH  16  17
HETATM   17  C8  UNL     1      26.530 -46.125 -78.094  1.00  0.00     0.003 A 
HETATM   18  C9  UNL     1      27.665 -46.936 -78.632  1.00  0.00     0.007 A 
HETATM   19  C10 UNL     1      27.406 -45.587 -79.142  1.00  0.00     0.007 A 
ENDBRANCH  16  17
ENDBRANCH   6  16
BRANCH  12  20
HETATM   20  O2  UNL     1      25.732 -48.963 -75.797  1.00  0.00    -0.389 OA
ATOM     21  H2  UNL     1      26.238 -48.737 -75.026  1.00  0.00     0.210 HD
ENDBRANCH  12  20
BRANCH  13  22
HETATM   22  O3  UNL     1      24.558 -47.436 -73.950  1.00  0.00    -0.380 OA
ATOM     23  H3  UNL     1      24.438 -46.493 -73.954  1.00  0.00     0.211 HD
ENDBRANCH  13  22
BRANCH   1  24
HETATM   24  N1  UNL     1      21.860 -44.579 -72.671  1.00  0.00    -0.418 N 
HETATM   25  C1  UNL     1      22.657 -43.725 -71.924  1.00  0.00     0.140 C 
ATOM     26  H1  UNL     1      20.858 -44.632 -72.484  1.00  0.00     0.153 HD
ENDBRANCH   1  24
BRANCH  14  27
HETATM   27  O4  UNL     1      21.529 -48.927 -74.186  1.00  0.00    -0.381 OA
ATOM     28  H4  UNL     1      21.901 -49.654 -74.672  1.00  0.00     0.211 HD
ENDBRANCH  14  27
BRANCH  15  29
HETATM   29  O5  UNL     1      20.824 -46.932 -72.836  1.00  0.00    -0.390 OA
ATOM     30  H5  UNL     1      20.112 -46.761 -73.441  1.00  0.00     0.210 HD
ENDBRANCH  15  29
TORSDOF 7
ENDMDL
MODEL 3
REMARK VINA RESULT: -6.563041485      3.462      4.943
REMARK  7 active torsions:
REMARK  status: ('A' for Active; 'I' for Inactive)
REMARK    1  A    between atoms: N1_2  and  C2_4 
REMARK    2  A    between atoms: N2_9  and  C7_10 
REMARK    3  A    between atoms: C7_10  and  C8_11 
REMARK    4  A    between atoms: C15_19  and  O2_20 
REMARK    5  A    between atoms: C16_22  and  O3_23 
REMARK    6  A    between atoms: C17_25  and  O4_26 
REMARK    7  A    between atoms: C18_28  and  O5_29 
ROOT
HETATM    1  C2  UNL     1      17.518 -44.893 -72.638  1.00  0.00     0.112 C 
HETATM    2  C3  UNL     1      18.703 -44.532 -73.464  1.00  0.00     0.019 C 
HETATM    3  C4  UNL     1      19.994 -44.568 -72.655  1.00  0.00     0.012 C 
HETATM    4  C5  UNL     1      21.213 -44.575 -73.499  1.00  0.00     0.045 C 
HETATM    5  C6  UNL     1      21.746 -45.891 -73.913  1.00  0.00     0.058 C 
HETATM    6  N2  UNL     1      20.894 -46.800 -74.562  1.00  0.00    -0.385 N 
HETATM    7  C11 UNL     1      19.525 -46.819 -74.171  1.00  0.00     0.131 C 
HETATM    8  C12 UNL     1      18.944 -45.459 -74.594  1.00  0.00     0.050 C 
HETATM    9  C13 UNL     1      17.696 -45.866 -75.330  1.00  0.00     0.169 C 
HETATM   10  O1  UNL     1      18.206 -46.991 -75.993  1.00  0.00    -0.363 OA
HETATM   11  C14 UNL     1      18.615 -47.722 -74.840  1.00  0.00     0.147 A 
HETATM   12  C15 UNL     1      17.934 -48.912 -74.627  1.00  0.00     0.199 A 
HETATM   13  C16 UNL     1      17.303 -47.822 -73.974  1.00  0.00     0.158 A 
HETATM   14  C17 UNL     1      16.737 -46.549 -74.400  1.00  0.00     0.148 C 
HETATM   15  C18 UNL     1      16.397 -45.597 -73.295  1.00  0.00     0.181 C 
ENDROOT
BRANCH   6  16
HETATM   16  C7  UNL     1      21.455 -48.079 -74.867  1.00  0.00     0.127 C 
BRANCH  16  17
HETATM   17  C8  UNL     1      22.745 -48.343 -74.161  1.00  0.00     0.003 A 
HETATM   18  C9  UNL     1      23.299 -49.731 -74.122  1.00  0.00     0.007 A 
HETATM   19  C10 UNL     1      23.954 -48.688 -74.917  1.00  0.00     0.007 A 
ENDBRANCH  16  17
ENDBRANCH   6  16
BRANCH  12  20
HETATM   20  O2  UNL     1      18.507 -49.943 -73.881  1.00  0.00    -0.389 OA
ATOM     21  H2  UNL     1      17.979 -50.474 -73.296  1.00  0.00     0.210 HD
ENDBRANCH  12  20
BRANCH  13  22
HETATM   22  O3  UNL     1      17.495 -47.852 -72.567  1.00  0.00    -0.380 OA
ATOM     23  H3  UNL     1      18.062 -47.176 -72.215  1.00  0.00     0.211 HD
ENDBRANCH  13  22
BRANCH   1  24
HETATM   24  N1  UNL     1      16.961 -43.812 -71.881  1.00  0.00    -0.418 N 
HETATM   25  C1  UNL     1      17.108 -42.504 -72.318  1.00  0.00     0.140 C 
ATOM     26  H1  UNL     1      16.455 -44.004 -71.016  1.00  0.00     0.153 HD
ENDBRANCH   1  24
BRANCH  14  27
HETATM   27  O4  UNL     1      15.558 -46.779 -75.128  1.00  0.00    -0.381 OA
ATOM     28  H4  UNL     1      14.994 -46.029 -74.980  1.00  0.00     0.211 HD
ENDBRANCH  14  27
BRANCH  15  29
HETATM   29  O5  UNL     1      15.361 -44.743 -73.672  1.00  0.00    -0.390 OA
ATOM     30  H5  UNL     1      14.872 -45.058 -74.424  1.00  0.00     0.210 HD
ENDBRANCH  15  29
TORSDOF 7
ENDMDL
MODEL 4
REMARK VINA RESULT: -6.545646781      2.608      6.047
REMARK  7 active torsions:
REMARK  status: ('A' for Active; 'I' for Inactive)
REMARK    1  A    between atoms: N1_2  and  C2_4 
REMARK    2  A    between atoms: N2_9  and  C7_10 
REMARK    3  A    between atoms: C7_10  and  C8_11 
REMARK    4  A    between atoms: C15_19  and  O2_20 
REMARK    5  A    between atoms: C16_22  and  O3_23 
REMARK    6  A    between atoms: C17_25  and  O4_26 
REMARK    7  A    between atoms: C18_28  and  O5_29 
ROOT
HETATM    1  C2  UNL     1      23.044 -48.231 -74.689  1.00  0.00     0.112 C 
HETATM    2  C3  UNL     1      21.675 -47.814 -75.099  1.00  0.00     0.019 C 
HETATM    3  C4  UNL     1      20.601 -48.435 -74.213  1.00  0.00     0.012 C 
HETATM    4  C5  UNL     1      19.279 -47.775 -74.347  1.00  0.00     0.045 C 
HETATM    5  C6  UNL     1      18.993 -46.638 -73.447  1.00  0.00     0.058 C 
HETATM    6  N2  UNL     1      19.892 -45.559 -73.400  1.00  0.00    -0.385 N 
HETATM    7  C11 UNL     1      21.277 -45.846 -73.558  1.00  0.00     0.131 C 
HETATM    8  C12 UNL     1      21.444 -46.354 -75.000  1.00  0.00     0.050 C 
HETATM    9  C13 UNL     1      22.591 -45.517 -75.498  1.00  0.00     0.169 C 
HETATM   10  O1  UNL     1      22.235 -44.302 -74.895  1.00  0.00    -0.363 OA
HETATM   11  C14 UNL     1      22.227 -44.756 -73.544  1.00  0.00     0.147 A 
HETATM   12  C15 UNL     1      23.189 -44.181 -72.725  1.00  0.00     0.199 A 
HETATM   13  C16 UNL     1      23.666 -45.365 -73.344  1.00  0.00     0.158 A 
HETATM   14  C17 UNL     1      23.837 -45.817 -74.718  1.00  0.00     0.148 C 
HETATM   15  C18 UNL     1      24.152 -47.273 -74.880  1.00  0.00     0.181 C 
ENDROOT
BRANCH   6  16
HETATM   16  C7  UNL     1      19.590 -44.531 -72.454  1.00  0.00     0.127 C 
BRANCH  16  17
HETATM   17  C8  UNL     1      18.757 -43.430 -73.023  1.00  0.00     0.003 A 
HETATM   18  C9  UNL     1      19.420 -42.228 -73.616  1.00  0.00     0.007 A 
HETATM   19  C10 UNL     1      18.720 -43.191 -74.470  1.00  0.00     0.007 A 
ENDBRANCH  16  17
ENDBRANCH   6  16
BRANCH  12  20
HETATM   20  O2  UNL     1      23.017 -44.130 -71.342  1.00  0.00    -0.389 OA
ATOM     21  H2  UNL     1      22.297 -44.587 -70.922  1.00  0.00     0.210 HD
ENDBRANCH  12  20
BRANCH  13  22
HETATM   22  O3  UNL     1      23.753 -46.451 -72.433  1.00  0.00    -0.380 OA
ATOM     23  H3  UNL     1      23.049 -47.088 -72.483  1.00  0.00     0.211 HD
ENDBRANCH  13  22
BRANCH   1  24
HETATM   24  N1  UNL     1      23.471 -49.492 -75.218  1.00  0.00    -0.418 N 
HETATM   25  C1  UNL     1      23.894 -50.500 -74.365  1.00  0.00     0.140 C 
ATOM     26  H1  UNL     1      23.465 -49.650 -76.225  1.00  0.00     0.153 HD
ENDBRANCH   1  24
BRANCH  14  27
HETATM   27  O4  UNL     1      24.879 -45.096 -75.324  1.00  0.00    -0.381 OA
ATOM     28  H4  UNL     1      25.662 -45.628 -75.244  1.00  0.00     0.211 HD
ENDBRANCH  14  27
BRANCH  15  29
HETATM   29  O5  UNL     1      24.877 -47.500 -76.050  1.00  0.00    -0.390 OA
ATOM     30  H5  UNL     1      25.014 -46.712 -76.563  1.00  0.00     0.210 HD
ENDBRANCH  15  29
TORSDOF 7
ENDMDL
MODEL 5
REMARK VINA RESULT: -6.325291405      5.748      7.963
REMARK  7 active torsions:
REMARK  status: ('A' for Active; 'I' for Inactive)
REMARK    1  A    between atoms: N1_2  and  C2_4 
REMARK    2  A    between atoms: N2_9  and  C7_10 
REMARK    3  A    between atoms: C7_10  and  C8_11 
REMARK    4  A    between atoms: C15_19  and  O2_20 
REMARK    5  A    between atoms: C16_22  and  O3_23 
REMARK    6  A    between atoms: C17_25  and  O4_26 
REMARK    7  A    between atoms: C18_28  and  O5_29 
ROOT
HETATM    1  C2  UNL     1      15.331 -48.306 -76.037  1.00  0.00     0.112 C 
HETATM    2  C3  UNL     1      16.036 -47.291 -76.866  1.00  0.00     0.019 C 
HETATM    3  C4  UNL     1      15.240 -45.996 -76.981  1.00  0.00     0.012 C 
HETATM    4  C5  UNL     1      16.048 -44.855 -77.476  1.00  0.00     0.045 C 
HETATM    5  C6  UNL     1      16.745 -44.028 -76.468  1.00  0.00     0.058 C 
HETATM    6  N2  UNL     1      17.596 -44.652 -75.541  1.00  0.00    -0.385 N 
HETATM    7  C11 UNL     1      17.237 -45.952 -75.084  1.00  0.00     0.131 C 
HETATM    8  C12 UNL     1      17.345 -46.876 -76.309  1.00  0.00     0.050 C 
HETATM    9  C13 UNL     1      18.171 -48.014 -75.772  1.00  0.00     0.169 C 
HETATM   10  O1  UNL     1      19.067 -47.268 -74.994  1.00  0.00    -0.363 OA
HETATM   11  C14 UNL     1      18.107 -46.635 -74.153  1.00  0.00     0.147 A 
HETATM   12  C15 UNL     1      18.180 -46.983 -72.811  1.00  0.00     0.199 A 
HETATM   13  C16 UNL     1      17.303 -47.838 -73.529  1.00  0.00     0.158 A 
HETATM   14  C17 UNL     1      17.434 -48.725 -74.675  1.00  0.00     0.148 C 
HETATM   15  C18 UNL     1      16.145 -49.243 -75.236  1.00  0.00     0.181 C 
ENDROOT
BRANCH   6  16
HETATM   16  C7  UNL     1      18.177 -43.801 -74.551  1.00  0.00     0.127 C 
BRANCH  16  17
HETATM   17  C8  UNL     1      17.221 -42.796 -73.998  1.00  0.00     0.003 A 
HETATM   18  C9  UNL     1      17.071 -42.650 -72.518  1.00  0.00     0.007 A 
HETATM   19  C10 UNL     1      17.712 -41.597 -73.309  1.00  0.00     0.007 A 
ENDBRANCH  16  17
ENDBRANCH   6  16
BRANCH  12  20
HETATM   20  O2  UNL     1      17.682 -46.135 -71.821  1.00  0.00    -0.389 OA
ATOM     21  H2  UNL     1      17.978 -45.235 -71.755  1.00  0.00     0.210 HD
ENDBRANCH  12  20
BRANCH  13  22
HETATM   22  O3  UNL     1      15.938 -47.579 -73.234  1.00  0.00    -0.380 OA
ATOM     23  H3  UNL     1      15.617 -47.944 -72.417  1.00  0.00     0.211 HD
ENDBRANCH  13  22
BRANCH   1  24
HETATM   24  N1  UNL     1      14.353 -49.082 -76.742  1.00  0.00    -0.418 N 
HETATM   25  C1  UNL     1      13.047 -48.630 -76.849  1.00  0.00     0.140 C 
ATOM     26  H1  UNL     1      14.619 -49.970 -77.167  1.00  0.00     0.153 HD
ENDBRANCH   1  24
BRANCH  14  27
HETATM   27  O4  UNL     1      18.210 -49.841 -74.321  1.00  0.00    -0.381 OA
ATOM     28  H4  UNL     1      17.606 -50.555 -74.158  1.00  0.00     0.211 HD
ENDBRANCH  14  27
BRANCH  15  29
HETATM   29  O5  UNL     1      16.330 -50.478 -75.858  1.00  0.00    -0.390 OA
ATOM     30  H5  UNL     1      16.714 -51.131 -75.285  1.00  0.00     0.210 HD
ENDBRANCH  15  29
TORSDOF 7
ENDMDL
