MODEL 1
REMARK VINA RESULT: -6.031035903      0.000      0.000
REMARK  4 active torsions:
REMARK  status: ('A' for Active; 'I' for Inactive)
REMARK    1  A    between atoms: C4_5  and  C5_6 
REMARK    2  A    between atoms: C5_6  and  C6_7 
REMARK    3  A    between atoms: C9_13  and  N1_14 
REMARK    4  A    between atoms: N1_14  and  C10_17 
ROOT
HETATM    1  C1  UNL     1      30.685  11.134  54.799  1.00  0.00     0.029 C 
HETATM    2  C2  UNL     1      29.200  11.416  54.703  1.00  0.00     0.030 C 
HETATM    3  C3  UNL     1      28.776  10.928  53.310  1.00  0.00     0.029 C 
HETATM    4  S1  UNL     1      28.374  10.347  55.893  1.00  0.00    -0.145 SA
HETATM    5  C4  UNL     1      26.877  11.107  56.573  1.00  0.00     0.127 C 
HETATM    6  C7  UNL     1      27.180  12.581  56.633  1.00  0.00     0.143 C 
HETATM    7  O3  UNL     1      27.129  13.132  57.691  1.00  0.00    -0.297 OA
HETATM    8  C8  UNL     1      27.519  13.197  55.322  1.00  0.00     0.114 C 
HETATM    9  C9  UNL     1      28.915  12.870  54.857  1.00  0.00     0.211 C 
ENDROOT
BRANCH   9  10
HETATM   10  N1  UNL     1      29.945  13.481  55.649  1.00  0.00    -0.065 N 
ATOM     11  H12 UNL     1      29.681  13.480  56.634  1.00  0.00     0.278 HD
ATOM     12  H11 UNL     1      30.767  12.879  55.686  1.00  0.00     0.278 HD
BRANCH  10  13
HETATM   13  C10 UNL     1      30.318  14.808  55.233  1.00  0.00     0.186 C 
HETATM   14  C11 UNL     1      29.963  15.753  56.371  1.00  0.00     0.033 C 
HETATM   15  C12 UNL     1      31.127  16.564  56.847  1.00  0.00     0.002 C 
HETATM   16  C13 UNL     1      31.847  17.282  55.727  1.00  0.00     0.000 C 
HETATM   17  C14 UNL     1      32.087  16.360  54.570  1.00  0.00     0.002 C 
HETATM   18  C15 UNL     1      31.815  14.940  55.032  1.00  0.00     0.033 C 
ENDBRANCH  10  13
ENDBRANCH   9  10
BRANCH   5  19
HETATM   19  C5  UNL     1      26.555  10.520  57.906  1.00  0.00     0.135 C 
BRANCH  19  20
HETATM   20  C6  UNL     1      26.549   9.041  57.902  1.00  0.00     0.174 C 
HETATM   21  O1  UNL     1      25.481   8.379  57.777  1.00  0.00    -0.648 OA
HETATM   22  O2  UNL     1      27.719   8.314  58.036  1.00  0.00    -0.648 OA
ENDBRANCH  19  20
ENDBRANCH   5  19
TORSDOF 4
ENDMDL
MODEL 2
REMARK VINA RESULT: -5.888878180      4.031      6.451
REMARK  4 active torsions:
REMARK  status: ('A' for Active; 'I' for Inactive)
REMARK    1  A    between atoms: C4_5  and  C5_6 
REMARK    2  A    between atoms: C5_6  and  C6_7 
REMARK    3  A    between atoms: C9_13  and  N1_14 
REMARK    4  A    between atoms: N1_14  and  C10_17 
ROOT
HETATM    1  C1  UNL     1      27.575   9.806  52.544  1.00  0.00     0.029 C 
HETATM    2  C2  UNL     1      28.974  10.039  53.079  1.00  0.00     0.030 C 
HETATM    3  C3  UNL     1      29.463   8.668  53.568  1.00  0.00     0.029 C 
HETATM    4  S1  UNL     1      30.014  10.483  51.679  1.00  0.00    -0.145 SA
HETATM    5  C4  UNL     1      31.343  11.622  52.148  1.00  0.00     0.127 C 
HETATM    6  C7  UNL     1      30.755  12.481  53.237  1.00  0.00     0.143 C 
HETATM    7  O3  UNL     1      30.714  13.662  53.073  1.00  0.00    -0.297 OA
HETATM    8  C8  UNL     1      30.280  11.728  54.428  1.00  0.00     0.114 C 
HETATM    9  C9  UNL     1      28.968  11.021  54.199  1.00  0.00     0.211 C 
ENDROOT
BRANCH   9  10
HETATM   10  N1  UNL     1      27.851  11.911  54.052  1.00  0.00    -0.065 N 
ATOM     11  H12 UNL     1      28.169  12.831  53.747  1.00  0.00     0.278 HD
ATOM     12  H11 UNL     1      27.288  11.643  53.244  1.00  0.00     0.278 HD
BRANCH  10  13
HETATM   13  C10 UNL     1      27.019  12.032  55.220  1.00  0.00     0.186 C 
HETATM   14  C11 UNL     1      27.149  10.733  56.002  1.00  0.00     0.033 C 
HETATM   15  C12 UNL     1      27.591  10.939  57.416  1.00  0.00     0.002 C 
HETATM   16  C13 UNL     1      26.751  11.957  58.158  1.00  0.00     0.000 C 
HETATM   17  C14 UNL     1      26.542  13.184  57.323  1.00  0.00     0.002 C 
HETATM   18  C15 UNL     1      27.503  13.128  56.150  1.00  0.00     0.033 C 
ENDBRANCH  10  13
ENDBRANCH   9  10
BRANCH   5  19
HETATM   19  C5  UNL     1      31.797  12.408  50.963  1.00  0.00     0.135 C 
BRANCH  19  20
HETATM   20  C6  UNL     1      33.261  12.616  50.932  1.00  0.00     0.174 C 
HETATM   21  O1  UNL     1      33.814  13.557  51.568  1.00  0.00    -0.648 OA
HETATM   22  O2  UNL     1      34.094  11.786  50.202  1.00  0.00    -0.648 OA
ENDBRANCH  19  20
ENDBRANCH   5  19
TORSDOF 4
ENDMDL
MODEL 3
REMARK VINA RESULT: -5.886589371      3.720      7.045
REMARK  4 active torsions:
REMARK  status: ('A' for Active; 'I' for Inactive)
REMARK    1  A    between atoms: C4_5  and  C5_6 
REMARK    2  A    between atoms: C5_6  and  C6_7 
REMARK    3  A    between atoms: C9_13  and  N1_14 
REMARK    4  A    between atoms: N1_14  and  C10_17 
ROOT
HETATM    1  C1  UNL     1      28.499  14.497  55.918  1.00  0.00     0.029 C 
HETATM    2  C2  UNL     1      29.342  14.024  54.752  1.00  0.00     0.030 C 
HETATM    3  C3  UNL     1      28.634  14.543  53.493  1.00  0.00     0.029 C 
HETATM    4  S1  UNL     1      30.918  14.888  54.846  1.00  0.00    -0.145 SA
HETATM    5  C4  UNL     1      32.287  13.889  54.205  1.00  0.00     0.127 C 
HETATM    6  C7  UNL     1      31.932  12.468  54.558  1.00  0.00     0.143 C 
HETATM    7  O3  UNL     1      32.684  11.846  55.244  1.00  0.00    -0.297 OA
HETATM    8  C8  UNL     1      30.641  11.995  53.992  1.00  0.00     0.114 C 
HETATM    9  C9  UNL     1      29.439  12.537  54.722  1.00  0.00     0.211 C 
ENDROOT
BRANCH   9  10
HETATM   10  N1  UNL     1      29.288  12.019  56.052  1.00  0.00    -0.065 N 
ATOM     11  H12 UNL     1      30.110  11.476  56.316  1.00  0.00     0.278 HD
ATOM     12  H11 UNL     1      29.348  12.774  56.735  1.00  0.00     0.278 HD
BRANCH  10  13
HETATM   13  C10 UNL     1      28.091  11.248  56.266  1.00  0.00     0.186 C 
HETATM   14  C11 UNL     1      28.465   9.782  56.106  1.00  0.00     0.033 C 
HETATM   15  C12 UNL     1      28.117   8.953  57.302  1.00  0.00     0.002 C 
HETATM   16  C13 UNL     1      26.679   9.118  57.741  1.00  0.00     0.000 C 
HETATM   17  C14 UNL     1      26.298  10.568  57.783  1.00  0.00     0.002 C 
HETATM   18  C15 UNL     1      27.567  11.393  57.682  1.00  0.00     0.033 C 
ENDBRANCH  10  13
ENDBRANCH   9  10
BRANCH   5  19
HETATM   19  C5  UNL     1      33.581  14.335  54.801  1.00  0.00     0.135 C 
BRANCH  19  20
HETATM   20  C6  UNL     1      34.420  15.101  53.855  1.00  0.00     0.174 C 
HETATM   21  O1  UNL     1      34.025  16.184  53.339  1.00  0.00    -0.648 OA
HETATM   22  O2  UNL     1      35.682  14.663  53.489  1.00  0.00    -0.648 OA
ENDBRANCH  19  20
ENDBRANCH   5  19
TORSDOF 4
ENDMDL
MODEL 4
REMARK VINA RESULT: -5.778835613      3.745      6.681
REMARK  4 active torsions:
REMARK  status: ('A' for Active; 'I' for Inactive)
REMARK    1  A    between atoms: C4_5  and  C5_6 
REMARK    2  A    between atoms: C5_6  and  C6_7 
REMARK    3  A    between atoms: C9_13  and  N1_14 
REMARK    4  A    between atoms: N1_14  and  C10_17 
ROOT
HETATM    1  C1  UNL     1      29.769  14.016  55.582  1.00  0.00     0.029 C 
HETATM    2  C2  UNL     1      29.153  13.226  54.446  1.00  0.00     0.030 C 
HETATM    3  C3  UNL     1      27.935  14.041  53.989  1.00  0.00     0.029 C 
HETATM    4  S1  UNL     1      30.326  13.249  53.081  1.00  0.00    -0.145 SA
HETATM    5  C4  UNL     1      30.248  11.737  52.085  1.00  0.00     0.127 C 
HETATM    6  C7  UNL     1      29.912  10.642  53.063  1.00  0.00     0.143 C 
HETATM    7  O3  UNL     1      30.669   9.726  53.177  1.00  0.00    -0.297 OA
HETATM    8  C8  UNL     1      28.635  10.840  53.798  1.00  0.00     0.114 C 
HETATM    9  C9  UNL     1      28.735  11.868  54.896  1.00  0.00     0.211 C 
ENDROOT
BRANCH   9  10
HETATM   10  N1  UNL     1      29.552  11.455  56.002  1.00  0.00    -0.065 N 
ATOM     11  H12 UNL     1      30.339  10.898  55.671  1.00  0.00     0.278 HD
ATOM     12  H11 UNL     1      30.053  12.255  56.390  1.00  0.00     0.278 HD
BRANCH  10  13
HETATM   13  C10 UNL     1      28.847  10.755  57.043  1.00  0.00     0.186 C 
HETATM   14  C11 UNL     1      27.624  11.588  57.398  1.00  0.00     0.033 C 
HETATM   15  C12 UNL     1      26.340  10.829  57.277  1.00  0.00     0.002 C 
HETATM   16  C13 UNL     1      26.356   9.513  58.024  1.00  0.00     0.000 C 
HETATM   17  C14 UNL     1      27.622   8.759  57.746  1.00  0.00     0.002 C 
HETATM   18  C15 UNL     1      28.316   9.416  56.568  1.00  0.00     0.033 C 
ENDBRANCH  10  13
ENDBRANCH   9  10
BRANCH   5  19
HETATM   19  C5  UNL     1      31.542  11.514  51.376  1.00  0.00     0.135 C 
BRANCH  19  20
HETATM   20  C6  UNL     1      31.964  12.673  50.561  1.00  0.00     0.174 C 
HETATM   21  O1  UNL     1      33.100  13.208  50.699  1.00  0.00    -0.648 OA
HETATM   22  O2  UNL     1      31.129  13.228  49.607  1.00  0.00    -0.648 OA
ENDBRANCH  19  20
ENDBRANCH   5  19
TORSDOF 4
ENDMDL
MODEL 5
REMARK VINA RESULT: -5.762198813      4.068      6.137
REMARK  4 active torsions:
REMARK  status: ('A' for Active; 'I' for Inactive)
REMARK    1  A    between atoms: C4_5  and  C5_6 
REMARK    2  A    between atoms: C5_6  and  C6_7 
REMARK    3  A    between atoms: C9_13  and  N1_14 
REMARK    4  A    between atoms: N1_14  and  C10_17 
ROOT
HETATM    1  C1  UNL     1      30.644   9.065  55.348  1.00  0.00     0.029 C 
HETATM    2  C2  UNL     1      30.382   9.715  54.005  1.00  0.00     0.030 C 
HETATM    3  C3  UNL     1      31.627  10.564  53.708  1.00  0.00     0.029 C 
HETATM    4  S1  UNL     1      30.352   8.403  52.773  1.00  0.00    -0.145 SA
HETATM    5  C4  UNL     1      29.224   8.775  51.405  1.00  0.00     0.127 C 
HETATM    6  C7  UNL     1      28.095   9.552  52.030  1.00  0.00     0.143 C 
HETATM    7  O3  UNL     1      26.986   9.120  51.940  1.00  0.00    -0.297 OA
HETATM    8  C8  UNL     1      28.511  10.808  52.708  1.00  0.00     0.114 C 
HETATM    9  C9  UNL     1      29.164  10.571  54.046  1.00  0.00     0.211 C 
ENDROOT
BRANCH   9  10
HETATM   10  N1  UNL     1      28.263  10.078  55.050  1.00  0.00    -0.065 N 
ATOM     11  H12 UNL     1      27.745   9.273  54.695  1.00  0.00     0.278 HD
ATOM     12  H11 UNL     1      28.784   9.633  55.805  1.00  0.00     0.278 HD
BRANCH  10  13
HETATM   13  C10 UNL     1      27.356  11.061  55.581  1.00  0.00     0.186 C 
HETATM   14  C11 UNL     1      26.708  10.455  56.816  1.00  0.00     0.033 C 
HETATM   15  C12 UNL     1      26.887  11.291  58.045  1.00  0.00     0.002 C 
HETATM   16  C13 UNL     1      26.475  12.733  57.847  1.00  0.00     0.000 C 
HETATM   17  C14 UNL     1      27.034  13.276  56.566  1.00  0.00     0.002 C 
HETATM   18  C15 UNL     1      28.083  12.304  56.058  1.00  0.00     0.033 C 
ENDBRANCH  10  13
ENDBRANCH   9  10
BRANCH   5  19
HETATM   19  C5  UNL     1      28.773   7.515  50.745  1.00  0.00     0.135 C 
BRANCH  19  20
HETATM   20  C6  UNL     1      29.021   7.503  49.287  1.00  0.00     0.174 C 
HETATM   21  O1  UNL     1      29.410   8.534  48.669  1.00  0.00    -0.648 OA
HETATM   22  O2  UNL     1      28.836   6.359  48.531  1.00  0.00    -0.648 OA
ENDBRANCH  19  20
ENDBRANCH   5  19
TORSDOF 4
ENDMDL
