MODEL 1
REMARK VINA RESULT: -7.887294955      0.000      0.000
REMARK  11 active torsions:
REMARK  status: ('A' for Active; 'I' for Inactive)
REMARK    1  A    between atoms: C2_2  and  C3_3 
REMARK    2  A    between atoms: C2_2  and  C4_6 
REMARK    3  A    between atoms: C3_3  and  O1_4 
REMARK    4  A    between atoms: C4_6  and  O2_7 
REMARK    5  A    between atoms: C4_6  and  C5_9 
REMARK    6  A    between atoms: C5_9  and  C6_10 
REMARK    7  A    between atoms: C6_10  and  C7_11 
REMARK    8  A    between atoms: C7_11  and  C9_13 
REMARK    9  A    between atoms: C12_16  and  C13_17 
REMARK   10  A    between atoms: C13_17  and  C15_19 
REMARK   11  A    between atoms: C15_19  and  C16_20 
ROOT
HETATM    1  C16 UNL     1      20.673  -4.876  21.339  1.00  0.00    -0.036 C 
HETATM    2  C17 UNL     1      20.875  -6.299  20.784  1.00  0.00     0.016 C 
HETATM    3  C18 UNL     1      19.341  -4.458  20.814  1.00  0.00     0.010 C 
HETATM    4  C19 UNL     1      18.399  -4.781  22.009  1.00  0.00     0.007 C 
HETATM    5  C20 UNL     1      19.260  -4.200  23.043  1.00  0.00     0.005 C 
HETATM    6  C21 UNL     1      18.700  -3.985  24.409  1.00  0.00    -0.013 C 
HETATM    7  C22 UNL     1      18.166  -5.212  24.997  1.00  0.00     0.018 C 
HETATM    8  C23 UNL     1      17.677  -2.884  24.251  1.00  0.00     0.019 C 
HETATM    9  C24 UNL     1      16.685  -2.735  25.334  1.00  0.00     0.080 C 
HETATM   10  C25 UNL     1      17.209  -2.225  26.607  1.00  0.00     0.137 C 
HETATM   11  O3  UNL     1      17.101  -1.014  26.677  1.00  0.00    -0.297 OA
HETATM   12  C26 UNL     1      17.845  -2.732  27.867  1.00  0.00     0.035 C 
HETATM   13  C27 UNL     1      18.102  -1.617  28.828  1.00  0.00     0.025 C 
HETATM   14  C28 UNL     1      16.972  -3.768  28.555  1.00  0.00     0.025 C 
HETATM   15  C29 UNL     1      19.158  -3.396  27.409  1.00  0.00     0.184 C 
HETATM   16  O4  UNL     1      19.586  -2.754  26.321  1.00  0.00    -0.384 OA
HETATM   17  C30 UNL     1      19.862  -3.335  25.157  1.00  0.00     0.130 C 
HETATM   18  C31 UNL     1      21.123  -4.161  25.100  1.00  0.00     0.033 C 
HETATM   19  C32 UNL     1      21.595  -4.310  23.649  1.00  0.00     0.013 C 
HETATM   20  C33 UNL     1      20.506  -4.967  22.878  1.00  0.00    -0.032 C 
HETATM   21  C34 UNL     1      20.493  -6.402  23.292  1.00  0.00     0.016 C 
ENDROOT
BRANCH   1  22
HETATM   22  C15 UNL     1      21.847  -4.023  21.053  1.00  0.00     0.014 C 
BRANCH  22  23
HETATM   23  C13 UNL     1      21.632  -2.640  20.572  1.00  0.00    -0.014 C 
HETATM   24  C14 UNL     1      22.518  -1.642  21.327  1.00  0.00     0.010 C 
BRANCH  23  25
HETATM   25  C12 UNL     1      22.023  -2.491  19.092  1.00  0.00    -0.010 C 
HETATM   26  C11 UNL     1      20.879  -2.856  18.158  1.00  0.00     0.005 C 
HETATM   27  C10 UNL     1      19.898  -1.689  18.318  1.00  0.00     0.005 C 
HETATM   28  C9  UNL     1      20.720  -0.514  18.732  1.00  0.00    -0.007 C 
HETATM   29  C35 UNL     1      22.147  -1.006  18.715  1.00  0.00     0.010 C 
BRANCH  28  30
HETATM   30  C7  UNL     1      20.520   0.712  17.829  1.00  0.00     0.008 C 
HETATM   31  C8  UNL     1      19.419   1.578  18.325  1.00  0.00     0.014 C 
BRANCH  30  32
HETATM   32  C6  UNL     1      20.545   0.355  16.416  1.00  0.00    -0.020 C 
BRANCH  32  33
HETATM   33  C5  UNL     1      19.813   0.956  15.326  1.00  0.00     0.029 C 
BRANCH  33  34
HETATM   34  C4  UNL     1      18.600   0.561  14.660  1.00  0.00     0.049 C 
BRANCH  34  35
HETATM   35  C2  UNL     1      17.354   1.336  14.626  1.00  0.00     0.062 C 
HETATM   36  C1  UNL     1      16.979   1.478  13.109  1.00  0.00     0.019 C 
BRANCH  35  37
HETATM   37  C3  UNL     1      17.528   2.760  15.100  1.00  0.00     0.175 C 
BRANCH  37  38
HETATM   38  O1  UNL     1      17.039   2.887  16.419  1.00  0.00    -0.400 OA
ATOM     39  H1  UNL     1      17.724   3.226  16.984  1.00  0.00     0.209 HD
ENDBRANCH  37  38
ENDBRANCH  35  37
ENDBRANCH  34  35
BRANCH  34  40
HETATM   40  O2  UNL     1      18.283  -0.809  14.912  1.00  0.00    -0.365 OA
ATOM     41  H2  UNL     1      18.171  -0.930  15.848  1.00  0.00     0.217 HD
ENDBRANCH  34  40
ENDBRANCH  33  34
ENDBRANCH  32  33
ENDBRANCH  30  32
ENDBRANCH  28  30
ENDBRANCH  23  25
ENDBRANCH  22  23
ENDBRANCH   1  22
TORSDOF 11
ENDMDL
MODEL 2
REMARK VINA RESULT: -7.863313383      6.162     15.063
REMARK  11 active torsions:
REMARK  status: ('A' for Active; 'I' for Inactive)
REMARK    1  A    between atoms: C2_2  and  C3_3 
REMARK    2  A    between atoms: C2_2  and  C4_6 
REMARK    3  A    between atoms: C3_3  and  O1_4 
REMARK    4  A    between atoms: C4_6  and  O2_7 
REMARK    5  A    between atoms: C4_6  and  C5_9 
REMARK    6  A    between atoms: C5_9  and  C6_10 
REMARK    7  A    between atoms: C6_10  and  C7_11 
REMARK    8  A    between atoms: C7_11  and  C9_13 
REMARK    9  A    between atoms: C12_16  and  C13_17 
REMARK   10  A    between atoms: C13_17  and  C15_19 
REMARK   11  A    between atoms: C15_19  and  C16_20 
ROOT
HETATM    1  C16 UNL     1      17.417   3.252  10.767  1.00  0.00    -0.036 C 
HETATM    2  C17 UNL     1      18.894   2.839  10.629  1.00  0.00     0.016 C 
HETATM    3  C18 UNL     1      17.456   4.737  10.898  1.00  0.00     0.010 C 
HETATM    4  C19 UNL     1      17.184   5.205   9.439  1.00  0.00     0.007 C 
HETATM    5  C20 UNL     1      16.073   4.282   9.189  1.00  0.00     0.005 C 
HETATM    6  C21 UNL     1      15.223   4.492   7.981  1.00  0.00    -0.013 C 
HETATM    7  C22 UNL     1      15.999   4.506   6.743  1.00  0.00     0.018 C 
HETATM    8  C23 UNL     1      14.464   5.773   8.246  1.00  0.00     0.019 C 
HETATM    9  C24 UNL     1      13.856   6.440   7.077  1.00  0.00     0.080 C 
HETATM   10  C25 UNL     1      12.709   5.748   6.478  1.00  0.00     0.137 C 
HETATM   11  O3  UNL     1      11.658   6.148   6.943  1.00  0.00    -0.297 OA
HETATM   12  C26 UNL     1      12.420   4.687   5.458  1.00  0.00     0.035 C 
HETATM   13  C27 UNL     1      10.949   4.486   5.293  1.00  0.00     0.025 C 
HETATM   14  C28 UNL     1      13.011   5.039   4.103  1.00  0.00     0.025 C 
HETATM   15  C29 UNL     1      13.107   3.419   6.000  1.00  0.00     0.184 C 
HETATM   16  O4  UNL     1      13.097   3.483   7.332  1.00  0.00    -0.384 OA
HETATM   17  C30 UNL     1      14.176   3.386   8.103  1.00  0.00     0.130 C 
HETATM   18  C31 UNL     1      14.794   2.015   8.227  1.00  0.00     0.033 C 
HETATM   19  C32 UNL     1      15.642   1.927   9.501  1.00  0.00     0.013 C 
HETATM   20  C33 UNL     1      16.698   2.970   9.421  1.00  0.00    -0.032 C 
HETATM   21  C34 UNL     1      17.696   2.493   8.417  1.00  0.00     0.016 C 
ENDROOT
BRANCH   1  22
HETATM   22  C15 UNL     1      16.741   2.466  11.822  1.00  0.00     0.014 C 
BRANCH  22  23
HETATM   23  C13 UNL     1      17.540   1.941  12.953  1.00  0.00    -0.014 C 
HETATM   24  C14 UNL     1      17.134   2.600  14.277  1.00  0.00     0.010 C 
BRANCH  23  25
HETATM   25  C12 UNL     1      17.304   0.436  13.158  1.00  0.00    -0.010 C 
HETATM   26  C11 UNL     1      17.912  -0.397  12.040  1.00  0.00     0.005 C 
HETATM   27  C10 UNL     1      19.420  -0.302  12.299  1.00  0.00     0.005 C 
HETATM   28  C9  UNL     1      19.571  -0.048  13.762  1.00  0.00    -0.007 C 
HETATM   29  C35 UNL     1      18.168  -0.091  14.316  1.00  0.00     0.010 C 
BRANCH  28  30
HETATM   30  C7  UNL     1      20.499  -1.055  14.458  1.00  0.00     0.008 C 
HETATM   31  C8  UNL     1      21.261  -1.862  13.472  1.00  0.00     0.014 C 
BRANCH  30  32
HETATM   32  C6  UNL     1      19.827  -1.743  15.554  1.00  0.00    -0.020 C 
BRANCH  32  33
HETATM   33  C5  UNL     1      19.924  -1.480  16.971  1.00  0.00     0.029 C 
BRANCH  33  34
HETATM   34  C4  UNL     1      19.755  -0.268  17.730  1.00  0.00     0.049 C 
BRANCH  34  35
HETATM   35  C2  UNL     1      20.652   0.893  17.695  1.00  0.00     0.062 C 
HETATM   36  C1  UNL     1      21.327   0.955  19.110  1.00  0.00     0.019 C 
BRANCH  35  37
HETATM   37  C3  UNL     1      19.916   2.207  17.576  1.00  0.00     0.175 C 
BRANCH  37  38
HETATM   38  O1  UNL     1      19.319   2.534  18.812  1.00  0.00    -0.400 OA
ATOM     39  H1  UNL     1      18.879   1.771  19.168  1.00  0.00     0.209 HD
ENDBRANCH  37  38
ENDBRANCH  35  37
ENDBRANCH  34  35
BRANCH  34  40
HETATM   40  O2  UNL     1      19.410  -0.543  19.089  1.00  0.00    -0.365 OA
ATOM     41  H2  UNL     1      19.261  -1.476  19.184  1.00  0.00     0.217 HD
ENDBRANCH  34  40
ENDBRANCH  33  34
ENDBRANCH  32  33
ENDBRANCH  30  32
ENDBRANCH  28  30
ENDBRANCH  23  25
ENDBRANCH  22  23
ENDBRANCH   1  22
TORSDOF 11
ENDMDL
MODEL 3
REMARK VINA RESULT: -7.599072454      7.151     15.003
REMARK  11 active torsions:
REMARK  status: ('A' for Active; 'I' for Inactive)
REMARK    1  A    between atoms: C2_2  and  C3_3 
REMARK    2  A    between atoms: C2_2  and  C4_6 
REMARK    3  A    between atoms: C3_3  and  O1_4 
REMARK    4  A    between atoms: C4_6  and  O2_7 
REMARK    5  A    between atoms: C4_6  and  C5_9 
REMARK    6  A    between atoms: C5_9  and  C6_10 
REMARK    7  A    between atoms: C6_10  and  C7_11 
REMARK    8  A    between atoms: C7_11  and  C9_13 
REMARK    9  A    between atoms: C12_16  and  C13_17 
REMARK   10  A    between atoms: C13_17  and  C15_19 
REMARK   11  A    between atoms: C15_19  and  C16_20 
ROOT
HETATM    1  C16 UNL     1      17.375   2.716  11.199  1.00  0.00    -0.036 C 
HETATM    2  C17 UNL     1      18.741   2.014  11.309  1.00  0.00     0.016 C 
HETATM    3  C18 UNL     1      17.644   4.121  11.622  1.00  0.00     0.010 C 
HETATM    4  C19 UNL     1      17.837   4.845  10.258  1.00  0.00     0.007 C 
HETATM    5  C20 UNL     1      16.679   4.236   9.597  1.00  0.00     0.005 C 
HETATM    6  C21 UNL     1      16.214   4.801   8.298  1.00  0.00    -0.013 C 
HETATM    7  C22 UNL     1      17.267   4.826   7.285  1.00  0.00     0.018 C 
HETATM    8  C23 UNL     1      15.653   6.164   8.635  1.00  0.00     0.019 C 
HETATM    9  C24 UNL     1      15.489   7.112   7.515  1.00  0.00     0.080 C 
HETATM   10  C25 UNL     1      14.427   6.784   6.557  1.00  0.00     0.137 C 
HETATM   11  O3  UNL     1      13.380   7.332   6.850  1.00  0.00    -0.297 OA
HETATM   12  C26 UNL     1      14.221   5.973   5.312  1.00  0.00     0.035 C 
HETATM   13  C27 UNL     1      12.828   6.125   4.794  1.00  0.00     0.025 C 
HETATM   14  C28 UNL     1      15.189   6.381   4.214  1.00  0.00     0.025 C 
HETATM   15  C29 UNL     1      14.512   4.520   5.733  1.00  0.00     0.184 C 
HETATM   16  O4  UNL     1      14.177   4.389   7.017  1.00  0.00    -0.384 OA
HETATM   17  C30 UNL     1      14.991   3.946   7.971  1.00  0.00     0.130 C 
HETATM   18  C31 UNL     1      15.303   2.470   7.957  1.00  0.00     0.033 C 
HETATM   19  C32 UNL     1      15.772   2.013   9.344  1.00  0.00     0.013 C 
HETATM   20  C33 UNL     1      16.982   2.799   9.700  1.00  0.00    -0.032 C 
HETATM   21  C34 UNL     1      18.100   2.267   8.865  1.00  0.00     0.016 C 
ENDROOT
BRANCH   1  22
HETATM   22  C15 UNL     1      16.326   1.951  11.908  1.00  0.00     0.014 C 
BRANCH  22  23
HETATM   23  C13 UNL     1      16.726   0.940  12.912  1.00  0.00    -0.014 C 
HETATM   24  C14 UNL     1      16.392   1.403  14.335  1.00  0.00     0.010 C 
BRANCH  23  25
HETATM   25  C12 UNL     1      15.956  -0.377  12.722  1.00  0.00    -0.010 C 
HETATM   26  C11 UNL     1      16.487  -1.187  11.548  1.00  0.00     0.005 C 
HETATM   27  C10 UNL     1      17.837  -1.711  12.055  1.00  0.00     0.005 C 
HETATM   28  C9  UNL     1      17.723  -1.770  13.541  1.00  0.00    -0.007 C 
HETATM   29  C35 UNL     1      16.301  -1.370  13.845  1.00  0.00     0.010 C 
BRANCH  28  30
HETATM   30  C7  UNL     1      18.071  -3.150  14.119  1.00  0.00     0.008 C 
HETATM   31  C8  UNL     1      16.868  -4.015  14.223  1.00  0.00     0.014 C 
BRANCH  30  32
HETATM   32  C6  UNL     1      18.959  -3.047  15.271  1.00  0.00    -0.020 C 
BRANCH  32  33
HETATM   33  C5  UNL     1      20.051  -2.125  15.481  1.00  0.00     0.029 C 
BRANCH  33  34
HETATM   34  C4  UNL     1      20.147  -0.925  16.272  1.00  0.00     0.049 C 
BRANCH  34  35
HETATM   35  C2  UNL     1      19.387   0.309  16.046  1.00  0.00     0.062 C 
HETATM   36  C1  UNL     1      20.026   0.980  14.780  1.00  0.00     0.019 C 
BRANCH  35  37
HETATM   37  C3  UNL     1      19.576   1.331  17.142  1.00  0.00     0.175 C 
BRANCH  37  38
HETATM   38  O1  UNL     1      18.449   2.179  17.205  1.00  0.00    -0.400 OA
ATOM     39  H1  UNL     1      18.704   3.069  16.994  1.00  0.00     0.209 HD
ENDBRANCH  37  38
ENDBRANCH  35  37
ENDBRANCH  34  35
BRANCH  34  40
HETATM   40  O2  UNL     1      21.507  -0.584  16.548  1.00  0.00    -0.365 OA
ATOM     41  H2  UNL     1      21.691  -0.775  17.460  1.00  0.00     0.217 HD
ENDBRANCH  34  40
ENDBRANCH  33  34
ENDBRANCH  32  33
ENDBRANCH  30  32
ENDBRANCH  28  30
ENDBRANCH  23  25
ENDBRANCH  22  23
ENDBRANCH   1  22
TORSDOF 11
ENDMDL
MODEL 4
REMARK VINA RESULT: -7.464001063      3.970     12.254
REMARK  11 active torsions:
REMARK  status: ('A' for Active; 'I' for Inactive)
REMARK    1  A    between atoms: C2_2  and  C3_3 
REMARK    2  A    between atoms: C2_2  and  C4_6 
REMARK    3  A    between atoms: C3_3  and  O1_4 
REMARK    4  A    between atoms: C4_6  and  O2_7 
REMARK    5  A    between atoms: C4_6  and  C5_9 
REMARK    6  A    between atoms: C5_9  and  C6_10 
REMARK    7  A    between atoms: C6_10  and  C7_11 
REMARK    8  A    between atoms: C7_11  and  C9_13 
REMARK    9  A    between atoms: C12_16  and  C13_17 
REMARK   10  A    between atoms: C13_17  and  C15_19 
REMARK   11  A    between atoms: C15_19  and  C16_20 
ROOT
HETATM    1  C16 UNL     1      19.391  -0.246  14.861  1.00  0.00    -0.036 C 
HETATM    2  C17 UNL     1      19.395  -1.732  15.267  1.00  0.00     0.016 C 
HETATM    3  C18 UNL     1      20.670  -0.061  14.116  1.00  0.00     0.010 C 
HETATM    4  C19 UNL     1      20.214  -0.201  12.636  1.00  0.00     0.007 C 
HETATM    5  C20 UNL     1      19.030   0.656  12.760  1.00  0.00     0.005 C 
HETATM    6  C21 UNL     1      18.336   1.107  11.519  1.00  0.00    -0.013 C 
HETATM    7  C22 UNL     1      17.918  -0.008  10.672  1.00  0.00     0.018 C 
HETATM    8  C23 UNL     1      19.298   2.061  10.850  1.00  0.00     0.019 C 
HETATM    9  C24 UNL     1      19.061   2.353   9.421  1.00  0.00     0.080 C 
HETATM   10  C25 UNL     1      17.873   3.162   9.129  1.00  0.00     0.137 C 
HETATM   11  O3  UNL     1      18.147   4.347   9.071  1.00  0.00    -0.297 OA
HETATM   12  C26 UNL     1      16.405   2.987   8.875  1.00  0.00     0.035 C 
HETATM   13  C27 UNL     1      15.749   4.298   8.584  1.00  0.00     0.025 C 
HETATM   14  C28 UNL     1      16.148   2.052   7.705  1.00  0.00     0.025 C 
HETATM   15  C29 UNL     1      15.852   2.353  10.165  1.00  0.00     0.184 C 
HETATM   16  O4  UNL     1      16.594   2.784  11.186  1.00  0.00    -0.384 OA
HETATM   17  C30 UNL     1      17.216   1.995  12.058  1.00  0.00     0.130 C 
HETATM   18  C31 UNL     1      16.344   1.284  13.062  1.00  0.00     0.033 C 
HETATM   19  C32 UNL     1      17.171   0.870  14.286  1.00  0.00     0.013 C 
HETATM   20  C33 UNL     1      18.265  -0.023  13.818  1.00  0.00    -0.032 C 
HETATM   21  C34 UNL     1      17.633  -1.333  13.482  1.00  0.00     0.016 C 
ENDROOT
BRANCH   1  22
HETATM   22  C15 UNL     1      19.118   0.622  16.027  1.00  0.00     0.014 C 
BRANCH  22  23
HETATM   23  C13 UNL     1      20.237   1.363  16.652  1.00  0.00    -0.014 C 
HETATM   24  C14 UNL     1      20.202   2.849  16.275  1.00  0.00     0.010 C 
BRANCH  23  25
HETATM   25  C12 UNL     1      20.146   1.331  18.187  1.00  0.00    -0.010 C 
HETATM   26  C11 UNL     1      19.219   0.231  18.682  1.00  0.00     0.005 C 
HETATM   27  C10 UNL     1      20.010  -1.055  18.412  1.00  0.00     0.005 C 
HETATM   28  C9  UNL     1      21.449  -0.664  18.429  1.00  0.00    -0.007 C 
HETATM   29  C35 UNL     1      21.456   0.801  18.792  1.00  0.00     0.010 C 
BRANCH  28  30
HETATM   30  C7  UNL     1      22.293  -1.504  19.399  1.00  0.00     0.008 C 
HETATM   31  C8  UNL     1      21.978  -2.951  19.279  1.00  0.00     0.014 C 
BRANCH  30  32
HETATM   32  C6  UNL     1      22.343  -0.908  20.728  1.00  0.00    -0.020 C 
BRANCH  32  33
HETATM   33  C5  UNL     1      22.675  -1.542  21.983  1.00  0.00     0.029 C 
BRANCH  33  34
HETATM   34  C4  UNL     1      23.938  -1.946  22.543  1.00  0.00     0.049 C 
BRANCH  34  35
HETATM   35  C2  UNL     1      24.203  -3.221  23.219  1.00  0.00     0.062 C 
HETATM   36  C1  UNL     1      22.844  -4.005  23.204  1.00  0.00     0.019 C 
BRANCH  35  37
HETATM   37  C3  UNL     1      24.523  -3.059  24.687  1.00  0.00     0.175 C 
BRANCH  37  38
HETATM   38  O1  UNL     1      23.402  -2.532  25.364  1.00  0.00    -0.400 OA
ATOM     39  H1  UNL     1      23.690  -1.987  26.087  1.00  0.00     0.209 HD
ENDBRANCH  37  38
ENDBRANCH  35  37
ENDBRANCH  34  35
BRANCH  34  40
HETATM   40  O2  UNL     1      24.541  -0.892  23.296  1.00  0.00    -0.365 OA
ATOM     41  H2  UNL     1      23.967  -0.666  24.019  1.00  0.00     0.217 HD
ENDBRANCH  34  40
ENDBRANCH  33  34
ENDBRANCH  32  33
ENDBRANCH  30  32
ENDBRANCH  28  30
ENDBRANCH  23  25
ENDBRANCH  22  23
ENDBRANCH   1  22
TORSDOF 11
ENDMDL
MODEL 5
REMARK VINA RESULT: -7.374196918      1.665      9.327
REMARK  11 active torsions:
REMARK  status: ('A' for Active; 'I' for Inactive)
REMARK    1  A    between atoms: C2_2  and  C3_3 
REMARK    2  A    between atoms: C2_2  and  C4_6 
REMARK    3  A    between atoms: C3_3  and  O1_4 
REMARK    4  A    between atoms: C4_6  and  O2_7 
REMARK    5  A    between atoms: C4_6  and  C5_9 
REMARK    6  A    between atoms: C5_9  and  C6_10 
REMARK    7  A    between atoms: C6_10  and  C7_11 
REMARK    8  A    between atoms: C7_11  and  C9_13 
REMARK    9  A    between atoms: C12_16  and  C13_17 
REMARK   10  A    between atoms: C13_17  and  C15_19 
REMARK   11  A    between atoms: C15_19  and  C16_20 
ROOT
HETATM    1  C16 UNL     1      22.051  -3.800  21.549  1.00  0.00    -0.036 C 
HETATM    2  C17 UNL     1      23.105  -4.907  21.362  1.00  0.00     0.016 C 
HETATM    3  C18 UNL     1      22.817  -2.645  22.098  1.00  0.00     0.010 C 
HETATM    4  C19 UNL     1      23.103  -1.801  20.823  1.00  0.00     0.007 C 
HETATM    5  C20 UNL     1      21.747  -1.892  20.273  1.00  0.00     0.005 C 
HETATM    6  C21 UNL     1      21.369  -0.999  19.140  1.00  0.00    -0.013 C 
HETATM    7  C22 UNL     1      22.262  -1.140  17.991  1.00  0.00     0.018 C 
HETATM    8  C23 UNL     1      21.336   0.394  19.725  1.00  0.00     0.019 C 
HETATM    9  C24 UNL     1      21.387   1.519  18.770  1.00  0.00     0.080 C 
HETATM   10  C25 UNL     1      20.185   1.710  17.950  1.00  0.00     0.137 C 
HETATM   11  O3  UNL     1      19.419   2.504  18.464  1.00  0.00    -0.297 OA
HETATM   12  C26 UNL     1      19.595   1.227  16.659  1.00  0.00     0.035 C 
HETATM   13  C27 UNL     1      18.289   1.897  16.380  1.00  0.00     0.025 C 
HETATM   14  C28 UNL     1      20.526   1.486  15.487  1.00  0.00     0.025 C 
HETATM   15  C29 UNL     1      19.421  -0.292  16.846  1.00  0.00     0.184 C 
HETATM   16  O4  UNL     1      19.194  -0.525  18.139  1.00  0.00    -0.384 OA
HETATM   17  C30 UNL     1      19.904  -1.356  18.896  1.00  0.00     0.130 C 
HETATM   18  C31 UNL     1      19.700  -2.830  18.651  1.00  0.00     0.033 C 
HETATM   19  C32 UNL     1      20.125  -3.638  19.883  1.00  0.00     0.013 C 
HETATM   20  C33 UNL     1      21.559  -3.347  20.149  1.00  0.00    -0.032 C 
HETATM   21  C34 UNL     1      22.342  -4.057  19.094  1.00  0.00     0.016 C 
ENDROOT
BRANCH   1  22
HETATM   22  C15 UNL     1      20.883  -4.301  22.306  1.00  0.00     0.014 C 
BRANCH  22  23
HETATM   23  C13 UNL     1      20.591  -3.730  23.640  1.00  0.00    -0.014 C 
HETATM   24  C14 UNL     1      19.083  -3.554  23.854  1.00  0.00     0.010 C 
BRANCH  23  25
HETATM   25  C12 UNL     1      21.055  -4.668  24.768  1.00  0.00    -0.010 C 
HETATM   26  C11 UNL     1      22.532  -4.494  25.086  1.00  0.00     0.005 C 
HETATM   27  C10 UNL     1      22.589  -3.136  25.796  1.00  0.00     0.005 C 
HETATM   28  C9  UNL     1      21.244  -2.936  26.411  1.00  0.00    -0.007 C 
HETATM   29  C35 UNL     1      20.484  -4.207  26.119  1.00  0.00     0.010 C 
BRANCH  28  30
HETATM   30  C7  UNL     1      21.307  -2.632  27.916  1.00  0.00     0.008 C 
HETATM   31  C8  UNL     1      22.460  -3.311  28.559  1.00  0.00     0.014 C 
BRANCH  30  32
HETATM   32  C6  UNL     1      19.995  -2.737  28.544  1.00  0.00    -0.020 C 
BRANCH  32  33
HETATM   33  C5  UNL     1      18.803  -1.971  28.262  1.00  0.00     0.029 C 
BRANCH  33  34
HETATM   34  C4  UNL     1      17.590  -2.317  27.568  1.00  0.00     0.049 C 
BRANCH  34  35
HETATM   35  C2  UNL     1      17.107  -3.680  27.320  1.00  0.00     0.062 C 
HETATM   36  C1  UNL     1      16.278  -3.605  25.990  1.00  0.00     0.019 C 
BRANCH  35  37
HETATM   37  C3  UNL     1      16.111  -4.153  28.352  1.00  0.00     0.175 C 
BRANCH  37  38
HETATM   38  O1  UNL     1      15.111  -4.930  27.730  1.00  0.00    -0.400 OA
ATOM     39  H1  UNL     1      15.503  -5.491  27.071  1.00  0.00     0.209 HD
ENDBRANCH  37  38
ENDBRANCH  35  37
ENDBRANCH  34  35
BRANCH  34  40
HETATM   40  O2  UNL     1      17.430  -1.548  26.374  1.00  0.00    -0.365 OA
ATOM     41  H2  UNL     1      17.416  -0.626  26.604  1.00  0.00     0.217 HD
ENDBRANCH  34  40
ENDBRANCH  33  34
ENDBRANCH  32  33
ENDBRANCH  30  32
ENDBRANCH  28  30
ENDBRANCH  23  25
ENDBRANCH  22  23
ENDBRANCH   1  22
TORSDOF 11
ENDMDL
