MODEL 1
REMARK VINA RESULT: -6.537639746      0.000      0.000
REMARK  11 active torsions:
REMARK  status: ('A' for Active; 'I' for Inactive)
REMARK    1  A    between atoms: N1_2  and  C2_4 
REMARK    2  A    between atoms: C2_4  and  C3_5 
REMARK    3  A    between atoms: C3_5  and  C4_6 
REMARK    4  A    between atoms: C4_6  and  O1_7 
REMARK    5  A    between atoms: C4_6  and  C5_9 
REMARK    6  A    between atoms: C5_9  and  C6_10 
REMARK    7  A    between atoms: C6_10  and  C7_11 
REMARK    8  A    between atoms: C7_11  and  O2_12 
REMARK    9  A    between atoms: C24_31  and  C26_33 
REMARK   10  A    between atoms: C26_33  and  C27_34 
REMARK   11  A    between atoms: C27_34  and  C28_35 
ROOT
HETATM    1  C5  UNL     1      19.775  -1.456  14.672  1.00  0.00     0.019 C 
HETATM    2  C8  UNL     1      18.333  -1.326  14.246  1.00  0.00     0.026 C 
HETATM    3  C9  UNL     1      17.843  -0.843  12.969  1.00  0.00    -0.025 C 
HETATM    4  C10 UNL     1      18.046  -1.137  11.610  1.00  0.00     0.013 C 
HETATM    5  C11 UNL     1      18.875  -2.164  10.942  1.00  0.00     0.036 C 
HETATM    6  C12 UNL     1      18.999  -3.280  11.911  1.00  0.00     0.156 C 
HETATM    7  O3  UNL     1      19.583  -2.772  12.924  1.00  0.00    -0.371 OA
HETATM    8  C13 UNL     1      20.322  -1.739  13.261  1.00  0.00     0.068 C 
HETATM    9  C14 UNL     1      21.737  -2.362  13.382  1.00  0.00     0.047 C 
HETATM   10  C15 UNL     1      20.541  -0.442  12.676  1.00  0.00     0.039 C 
HETATM   11  C16 UNL     1      19.649   0.678  12.446  1.00  0.00     0.009 C 
HETATM   12  C17 UNL     1      18.240   0.648  13.029  1.00  0.00     0.006 C 
HETATM   13  C18 UNL     1      17.349   1.650  12.442  1.00  0.00    -0.026 C 
HETATM   14  C19 UNL     1      17.267   2.923  13.369  1.00  0.00     0.019 C 
HETATM   15  C20 UNL     1      17.759   2.308  11.148  1.00  0.00     0.019 C 
HETATM   16  C21 UNL     1      15.918   1.301  12.385  1.00  0.00    -0.021 C 
HETATM   17  C22 UNL     1      15.528   0.116  12.750  1.00  0.00    -0.022 C 
HETATM   18  C23 UNL     1      16.316  -1.013  13.238  1.00  0.00     0.051 C 
HETATM   19  C24 UNL     1      15.811  -2.397  12.901  1.00  0.00     0.066 C 
HETATM   20  C25 UNL     1      15.410  -3.046  14.275  1.00  0.00     0.047 C 
HETATM   21  O4  UNL     1      16.592  -3.211  12.284  1.00  0.00    -0.367 OA
HETATM   22  C32 UNL     1      17.576  -3.861  11.923  1.00  0.00     0.081 C 
HETATM   23  C33 UNL     1      17.354  -4.184  10.400  1.00  0.00     0.048 C 
HETATM   24  C34 UNL     1      17.592  -5.333  12.399  1.00  0.00     0.048 C 
ENDROOT
BRANCH   1  25
HETATM   25  C4  UNL     1      20.324  -0.373  15.444  1.00  0.00     0.131 C 
BRANCH  25  26
HETATM   26  C3  UNL     1      19.558   0.637  16.168  1.00  0.00     0.052 C 
BRANCH  26  27
HETATM   27  C2  UNL     1      19.837   2.081  16.082  1.00  0.00     0.120 C 
BRANCH  27  28
HETATM   28  N1  UNL     1      19.649   2.577  17.469  1.00  0.00    -0.408 N 
HETATM   29  C1  UNL     1      19.631   1.654  18.380  1.00  0.00     0.112 C 
ATOM     30  H1  UNL     1      19.543   3.567  17.688  1.00  0.00     0.157 HD
ENDBRANCH  27  28
ENDBRANCH  26  27
ENDBRANCH  25  26
BRANCH  25  31
HETATM   31  O1  UNL     1      21.281  -0.868  16.394  1.00  0.00    -0.395 OA
ATOM     32  H1  UNL     1      21.965  -1.268  15.870  1.00  0.00     0.210 HD
ENDBRANCH  25  31
ENDBRANCH   1  25
BRANCH   1  33
HETATM   33  C6  UNL     1      19.973  -2.635  15.612  1.00  0.00     0.041 C 
BRANCH  33  34
HETATM   34  C7  UNL     1      18.943  -3.579  15.942  1.00  0.00     0.165 C 
BRANCH  34  35
HETATM   35  O2  UNL     1      18.713  -3.401  17.342  1.00  0.00    -0.401 OA
ATOM     36  H2  UNL     1      17.912  -2.892  17.397  1.00  0.00     0.209 HD
ENDBRANCH  34  35
ENDBRANCH  33  34
ENDBRANCH   1  33
BRANCH  19  37
HETATM   37  C26 UNL     1      14.470  -2.440  12.204  1.00  0.00     0.042 C 
BRANCH  37  38
HETATM   38  C27 UNL     1      13.189  -2.635  12.818  1.00  0.00     0.030 C 
BRANCH  38  39
HETATM   39  C28 UNL     1      12.378  -1.419  12.455  1.00  0.00    -0.025 C 
HETATM   40  C29 UNL     1      11.107  -1.583  12.138  1.00  0.00    -0.091 C 
HETATM   41  C30 UNL     1      10.305  -0.369  11.778  1.00  0.00     0.042 C 
HETATM   42  C31 UNL     1      10.436  -2.890  12.119  1.00  0.00     0.042 C 
ENDBRANCH  38  39
ENDBRANCH  37  38
ENDBRANCH  19  37
TORSDOF 11
ENDMDL
MODEL 2
REMARK VINA RESULT: -6.293931063      2.283      3.973
REMARK  11 active torsions:
REMARK  status: ('A' for Active; 'I' for Inactive)
REMARK    1  A    between atoms: N1_2  and  C2_4 
REMARK    2  A    between atoms: C2_4  and  C3_5 
REMARK    3  A    between atoms: C3_5  and  C4_6 
REMARK    4  A    between atoms: C4_6  and  O1_7 
REMARK    5  A    between atoms: C4_6  and  C5_9 
REMARK    6  A    between atoms: C5_9  and  C6_10 
REMARK    7  A    between atoms: C6_10  and  C7_11 
REMARK    8  A    between atoms: C7_11  and  O2_12 
REMARK    9  A    between atoms: C24_31  and  C26_33 
REMARK   10  A    between atoms: C26_33  and  C27_34 
REMARK   11  A    between atoms: C27_34  and  C28_35 
ROOT
HETATM    1  C5  UNL     1      19.723  -2.831  14.688  1.00  0.00     0.019 C 
HETATM    2  C8  UNL     1      18.629  -1.810  14.493  1.00  0.00     0.026 C 
HETATM    3  C9  UNL     1      18.796  -0.411  14.147  1.00  0.00    -0.025 C 
HETATM    4  C10 UNL     1      19.441   0.332  13.144  1.00  0.00     0.013 C 
HETATM    5  C11 UNL     1      20.213  -0.090  11.955  1.00  0.00     0.036 C 
HETATM    6  C12 UNL     1      19.699  -1.432  11.591  1.00  0.00     0.156 C 
HETATM    7  O3  UNL     1      19.939  -2.162  12.607  1.00  0.00    -0.371 OA
HETATM    8  C13 UNL     1      20.699  -2.198  13.679  1.00  0.00     0.068 C 
HETATM    9  C14 UNL     1      21.778  -3.243  13.294  1.00  0.00     0.047 C 
HETATM   10  C15 UNL     1      21.410  -1.194  14.425  1.00  0.00     0.039 C 
HETATM   11  C16 UNL     1      20.952  -0.043  15.179  1.00  0.00     0.009 C 
HETATM   12  C17 UNL     1      19.459   0.147  15.425  1.00  0.00     0.006 C 
HETATM   13  C18 UNL     1      19.114   1.495  15.880  1.00  0.00    -0.026 C 
HETATM   14  C19 UNL     1      18.963   1.523  17.450  1.00  0.00     0.019 C 
HETATM   15  C20 UNL     1      20.131   2.595  15.706  1.00  0.00     0.019 C 
HETATM   16  C21 UNL     1      17.780   1.993  15.501  1.00  0.00    -0.021 C 
HETATM   17  C22 UNL     1      17.025   1.283  14.716  1.00  0.00    -0.022 C 
HETATM   18  C23 UNL     1      17.288  -0.014  14.096  1.00  0.00     0.051 C 
HETATM   19  C24 UNL     1      16.660  -0.266  12.744  1.00  0.00     0.066 C 
HETATM   20  C25 UNL     1      15.623  -1.424  12.972  1.00  0.00     0.047 C 
HETATM   21  O4  UNL     1      17.418  -0.592  11.757  1.00  0.00    -0.367 OA
HETATM   22  C32 UNL     1      18.293  -1.108  11.060  1.00  0.00     0.081 C 
HETATM   23  C33 UNL     1      18.617  -0.071   9.922  1.00  0.00     0.048 C 
HETATM   24  C34 UNL     1      17.795  -2.230  10.118  1.00  0.00     0.048 C 
ENDROOT
BRANCH   1  25
HETATM   25  C4  UNL     1      20.154  -3.071  16.040  1.00  0.00     0.131 C 
BRANCH  25  26
HETATM   26  C3  UNL     1      19.327  -2.946  17.237  1.00  0.00     0.052 C 
BRANCH  26  27
HETATM   27  C2  UNL     1      19.646  -2.033  18.348  1.00  0.00     0.120 C 
BRANCH  27  28
HETATM   28  N1  UNL     1      21.130  -2.005  18.389  1.00  0.00    -0.408 N 
HETATM   29  C1  UNL     1      21.643  -0.890  18.811  1.00  0.00     0.112 C 
ATOM     30  H1  UNL     1      21.702  -2.800  18.108  1.00  0.00     0.157 HD
ENDBRANCH  27  28
ENDBRANCH  26  27
ENDBRANCH  25  26
BRANCH  25  31
HETATM   31  O1  UNL     1      20.774  -4.363  16.147  1.00  0.00    -0.395 OA
ATOM     32  H1  UNL     1      21.615  -4.269  15.716  1.00  0.00     0.210 HD
ENDBRANCH  25  31
ENDBRANCH   1  25
BRANCH   1  33
HETATM   33  C6  UNL     1      19.271  -4.218  14.258  1.00  0.00     0.041 C 
BRANCH  33  34
HETATM   34  C7  UNL     1      17.912  -4.676  14.324  1.00  0.00     0.165 C 
BRANCH  34  35
HETATM   35  O2  UNL     1      17.904  -5.660  15.362  1.00  0.00    -0.401 OA
ATOM     36  H2  UNL     1      17.377  -5.280  16.056  1.00  0.00     0.209 HD
ENDBRANCH  34  35
ENDBRANCH  33  34
ENDBRANCH   1  33
BRANCH  19  37
HETATM   37  C26 UNL     1      15.724   0.817  12.258  1.00  0.00     0.042 C 
BRANCH  37  38
HETATM   38  C27 UNL     1      15.845   1.578  11.048  1.00  0.00     0.030 C 
BRANCH  38  39
HETATM   39  C28 UNL     1      16.726   2.749  11.395  1.00  0.00    -0.025 C 
HETATM   40  C29 UNL     1      16.942   3.668  10.471  1.00  0.00    -0.091 C 
HETATM   41  C30 UNL     1      17.819   4.831  10.823  1.00  0.00     0.042 C 
HETATM   42  C31 UNL     1      16.370   3.611   9.120  1.00  0.00     0.042 C 
ENDBRANCH  38  39
ENDBRANCH  37  38
ENDBRANCH  19  37
TORSDOF 11
ENDMDL
MODEL 3
REMARK VINA RESULT: -6.274265200      8.355     12.079
REMARK  11 active torsions:
REMARK  status: ('A' for Active; 'I' for Inactive)
REMARK    1  A    between atoms: N1_2  and  C2_4 
REMARK    2  A    between atoms: C2_4  and  C3_5 
REMARK    3  A    between atoms: C3_5  and  C4_6 
REMARK    4  A    between atoms: C4_6  and  O1_7 
REMARK    5  A    between atoms: C4_6  and  C5_9 
REMARK    6  A    between atoms: C5_9  and  C6_10 
REMARK    7  A    between atoms: C6_10  and  C7_11 
REMARK    8  A    between atoms: C7_11  and  O2_12 
REMARK    9  A    between atoms: C24_31  and  C26_33 
REMARK   10  A    between atoms: C26_33  and  C27_34 
REMARK   11  A    between atoms: C27_34  and  C28_35 
ROOT
HETATM    1  C5  UNL     1      22.947  -2.772  23.069  1.00  0.00     0.019 C 
HETATM    2  C8  UNL     1      21.484  -3.087  23.260  1.00  0.00     0.026 C 
HETATM    3  C9  UNL     1      20.806  -4.321  22.909  1.00  0.00    -0.025 C 
HETATM    4  C10 UNL     1      20.965  -5.693  23.169  1.00  0.00     0.013 C 
HETATM    5  C11 UNL     1      21.945  -6.426  24.000  1.00  0.00     0.036 C 
HETATM    6  C12 UNL     1      22.381  -5.475  25.050  1.00  0.00     0.156 C 
HETATM    7  O3  UNL     1      22.915  -4.507  24.416  1.00  0.00    -0.371 OA
HETATM    8  C13 UNL     1      23.435  -4.222  23.244  1.00  0.00     0.068 C 
HETATM    9  C14 UNL     1      24.957  -4.212  23.544  1.00  0.00     0.047 C 
HETATM   10  C15 UNL     1      23.324  -4.816  21.937  1.00  0.00     0.039 C 
HETATM   11  C16 UNL     1      22.195  -4.972  21.040  1.00  0.00     0.009 C 
HETATM   12  C17 UNL     1      20.874  -4.284  21.367  1.00  0.00     0.006 C 
HETATM   13  C18 UNL     1      19.746  -4.797  20.589  1.00  0.00    -0.026 C 
HETATM   14  C19 UNL     1      19.460  -3.860  19.353  1.00  0.00     0.019 C 
HETATM   15  C20 UNL     1      19.905  -6.115  19.873  1.00  0.00     0.019 C 
HETATM   16  C21 UNL     1      18.424  -4.747  21.240  1.00  0.00    -0.021 C 
HETATM   17  C22 UNL     1      18.329  -4.359  22.477  1.00  0.00    -0.022 C 
HETATM   18  C23 UNL     1      19.377  -3.937  23.402  1.00  0.00     0.051 C 
HETATM   19  C24 UNL     1      19.160  -4.242  24.867  1.00  0.00     0.066 C 
HETATM   20  C25 UNL     1      19.014  -2.845  25.571  1.00  0.00     0.047 C 
HETATM   21  O4  UNL     1      20.051  -4.921  25.500  1.00  0.00    -0.367 OA
HETATM   22  C32 UNL     1      21.122  -5.358  25.925  1.00  0.00     0.081 C 
HETATM   23  C33 UNL     1      20.862  -6.862  26.307  1.00  0.00     0.048 C 
HETATM   24  C34 UNL     1      21.492  -4.892  27.353  1.00  0.00     0.048 C 
ENDROOT
BRANCH   1  25
HETATM   25  C4  UNL     1      23.305  -2.039  21.884  1.00  0.00     0.131 C 
BRANCH  25  26
HETATM   26  C3  UNL     1      22.394  -1.254  21.055  1.00  0.00     0.052 C 
BRANCH  26  27
HETATM   27  C2  UNL     1      22.206  -1.490  19.613  1.00  0.00     0.120 C 
BRANCH  27  28
HETATM   28  N1  UNL     1      22.197  -0.131  19.015  1.00  0.00    -0.408 N 
HETATM   29  C1  UNL     1      21.279   0.662  19.476  1.00  0.00     0.112 C 
ATOM     30  H1  UNL     1      22.860   0.157  18.296  1.00  0.00     0.157 HD
ENDBRANCH  27  28
ENDBRANCH  26  27
ENDBRANCH  25  26
BRANCH  25  31
HETATM   31  O1  UNL     1      24.415  -1.166  22.149  1.00  0.00    -0.395 OA
ATOM     32  H1  UNL     1      24.756  -1.448  22.989  1.00  0.00     0.210 HD
ENDBRANCH  25  31
ENDBRANCH   1  25
BRANCH   1  33
HETATM   33  C6  UNL     1      23.466  -1.856  24.167  1.00  0.00     0.041 C 
BRANCH  33  34
HETATM   34  C7  UNL     1      22.677  -1.412  25.281  1.00  0.00     0.165 C 
BRANCH  34  35
HETATM   35  O2  UNL     1      23.113  -2.212  26.384  1.00  0.00    -0.401 OA
ATOM     36  H2  UNL     1      22.969  -1.671  27.152  1.00  0.00     0.209 HD
ENDBRANCH  34  35
ENDBRANCH  33  34
ENDBRANCH   1  33
BRANCH  19  37
HETATM   37  C26 UNL     1      17.812  -4.836  25.208  1.00  0.00     0.042 C 
BRANCH  37  38
HETATM   38  C27 UNL     1      17.027  -4.570  26.378  1.00  0.00     0.030 C 
BRANCH  38  39
HETATM   39  C28 UNL     1      17.284  -5.726  27.308  1.00  0.00    -0.025 C 
HETATM   40  C29 UNL     1      17.843  -5.479  28.479  1.00  0.00    -0.091 C 
HETATM   41  C30 UNL     1      18.096  -6.634  29.400  1.00  0.00     0.042 C 
HETATM   42  C31 UNL     1      18.230  -4.135  28.927  1.00  0.00     0.042 C 
ENDBRANCH  38  39
ENDBRANCH  37  38
ENDBRANCH  19  37
TORSDOF 11
ENDMDL
MODEL 4
REMARK VINA RESULT: -6.257104298      1.280      1.707
REMARK  11 active torsions:
REMARK  status: ('A' for Active; 'I' for Inactive)
REMARK    1  A    between atoms: N1_2  and  C2_4 
REMARK    2  A    between atoms: C2_4  and  C3_5 
REMARK    3  A    between atoms: C3_5  and  C4_6 
REMARK    4  A    between atoms: C4_6  and  O1_7 
REMARK    5  A    between atoms: C4_6  and  C5_9 
REMARK    6  A    between atoms: C5_9  and  C6_10 
REMARK    7  A    between atoms: C6_10  and  C7_11 
REMARK    8  A    between atoms: C7_11  and  O2_12 
REMARK    9  A    between atoms: C24_31  and  C26_33 
REMARK   10  A    between atoms: C26_33  and  C27_34 
REMARK   11  A    between atoms: C27_34  and  C28_35 
ROOT
HETATM    1  C5  UNL     1      19.816  -1.400  14.519  1.00  0.00     0.019 C 
HETATM    2  C8  UNL     1      18.391  -1.301  14.033  1.00  0.00     0.026 C 
HETATM    3  C9  UNL     1      17.936  -0.718  12.785  1.00  0.00    -0.025 C 
HETATM    4  C10 UNL     1      18.218  -0.865  11.416  1.00  0.00     0.013 C 
HETATM    5  C11 UNL     1      19.134  -1.777  10.697  1.00  0.00     0.036 C 
HETATM    6  C12 UNL     1      19.275  -2.975  11.558  1.00  0.00     0.156 C 
HETATM    7  O3  UNL     1      19.781  -2.542  12.644  1.00  0.00    -0.371 OA
HETATM    8  C13 UNL     1      20.444  -1.512  13.118  1.00  0.00     0.068 C 
HETATM    9  C14 UNL     1      21.885  -2.071  13.252  1.00  0.00     0.047 C 
HETATM   10  C15 UNL     1      20.618  -0.154  12.675  1.00  0.00     0.039 C 
HETATM   11  C16 UNL     1      19.677   0.936  12.508  1.00  0.00     0.009 C 
HETATM   12  C17 UNL     1      18.246   0.777  13.010  1.00  0.00     0.006 C 
HETATM   13  C18 UNL     1      17.329   1.786  12.478  1.00  0.00    -0.026 C 
HETATM   14  C19 UNL     1      17.133   2.955  13.519  1.00  0.00     0.019 C 
HETATM   15  C20 UNL     1      17.763   2.590  11.277  1.00  0.00     0.019 C 
HETATM   16  C21 UNL     1      15.924   1.373  12.312  1.00  0.00    -0.021 C 
HETATM   17  C22 UNL     1      15.584   0.139  12.539  1.00  0.00    -0.022 C 
HETATM   18  C23 UNL     1      16.410  -0.992  12.956  1.00  0.00     0.051 C 
HETATM   19  C24 UNL     1      15.999  -2.359  12.460  1.00  0.00     0.066 C 
HETATM   20  C25 UNL     1      15.570  -3.161  13.742  1.00  0.00     0.047 C 
HETATM   21  O4  UNL     1      16.853  -3.067  11.808  1.00  0.00    -0.367 OA
HETATM   22  C32 UNL     1      17.887  -3.626  11.438  1.00  0.00     0.081 C 
HETATM   23  C33 UNL     1      17.756  -3.807   9.881  1.00  0.00     0.048 C 
HETATM   24  C34 UNL     1      17.962  -5.136  11.769  1.00  0.00     0.048 C 
ENDROOT
BRANCH   1  25
HETATM   25  C4  UNL     1      20.267  -0.372  15.421  1.00  0.00     0.131 C 
BRANCH  25  26
HETATM   26  C3  UNL     1      19.416   0.459  16.267  1.00  0.00     0.052 C 
BRANCH  26  27
HETATM   27  C2  UNL     1      19.519   1.927  16.325  1.00  0.00     0.120 C 
BRANCH  27  28
HETATM   28  N1  UNL     1      19.136   2.269  17.719  1.00  0.00    -0.408 N 
HETATM   29  C1  UNL     1      19.664   1.513  18.631  1.00  0.00     0.112 C 
ATOM     30  H1  UNL     1      18.507   3.039  17.942  1.00  0.00     0.157 HD
ENDBRANCH  27  28
ENDBRANCH  26  27
ENDBRANCH  25  26
BRANCH  25  31
HETATM   31  O1  UNL     1      21.280  -0.885  16.301  1.00  0.00    -0.395 OA
ATOM     32  H1  UNL     1      22.104  -0.596  15.925  1.00  0.00     0.210 HD
ENDBRANCH  25  31
ENDBRANCH   1  25
BRANCH   1  33
HETATM   33  C6  UNL     1      20.035  -2.655  15.350  1.00  0.00     0.041 C 
BRANCH  33  34
HETATM   34  C7  UNL     1      18.995  -3.587  15.684  1.00  0.00     0.165 C 
BRANCH  34  35
HETATM   35  O2  UNL     1      18.704  -3.337  17.062  1.00  0.00    -0.401 OA
ATOM     36  H2  UNL     1      17.981  -3.918  17.270  1.00  0.00     0.209 HD
ENDBRANCH  34  35
ENDBRANCH  33  34
ENDBRANCH   1  33
BRANCH  19  37
HETATM   37  C26 UNL     1      14.697  -2.400  11.692  1.00  0.00     0.042 C 
BRANCH  37  38
HETATM   38  C27 UNL     1      14.541  -2.493  10.270  1.00  0.00     0.030 C 
BRANCH  38  39
HETATM   39  C28 UNL     1      13.815  -1.239   9.861  1.00  0.00    -0.025 C 
HETATM   40  C29 UNL     1      14.476  -0.327   9.171  1.00  0.00    -0.091 C 
HETATM   41  C30 UNL     1      13.749   0.919   8.767  1.00  0.00     0.042 C 
HETATM   42  C31 UNL     1      15.885  -0.468   8.779  1.00  0.00     0.042 C 
ENDBRANCH  38  39
ENDBRANCH  37  38
ENDBRANCH  19  37
TORSDOF 11
ENDMDL
MODEL 5
REMARK VINA RESULT: -6.081017569      7.907     11.579
REMARK  11 active torsions:
REMARK  status: ('A' for Active; 'I' for Inactive)
REMARK    1  A    between atoms: N1_2  and  C2_4 
REMARK    2  A    between atoms: C2_4  and  C3_5 
REMARK    3  A    between atoms: C3_5  and  C4_6 
REMARK    4  A    between atoms: C4_6  and  O1_7 
REMARK    5  A    between atoms: C4_6  and  C5_9 
REMARK    6  A    between atoms: C5_9  and  C6_10 
REMARK    7  A    between atoms: C6_10  and  C7_11 
REMARK    8  A    between atoms: C7_11  and  O2_12 
REMARK    9  A    between atoms: C24_31  and  C26_33 
REMARK   10  A    between atoms: C26_33  and  C27_34 
REMARK   11  A    between atoms: C27_34  and  C28_35 
ROOT
HETATM    1  C5  UNL     1      23.203  -3.027  22.955  1.00  0.00     0.019 C 
HETATM    2  C8  UNL     1      21.806  -3.513  23.251  1.00  0.00     0.026 C 
HETATM    3  C9  UNL     1      21.177  -4.718  22.743  1.00  0.00    -0.025 C 
HETATM    4  C10 UNL     1      21.469  -6.092  22.701  1.00  0.00     0.013 C 
HETATM    5  C11 UNL     1      22.603  -6.871  23.245  1.00  0.00     0.036 C 
HETATM    6  C12 UNL     1      23.108  -6.098  24.405  1.00  0.00     0.156 C 
HETATM    7  O3  UNL     1      23.479  -4.981  23.919  1.00  0.00    -0.371 OA
HETATM    8  C13 UNL     1      23.814  -4.429  22.775  1.00  0.00     0.068 C 
HETATM    9  C14 UNL     1      25.357  -4.327  22.887  1.00  0.00     0.047 C 
HETATM   10  C15 UNL     1      23.568  -4.771  21.398  1.00  0.00     0.039 C 
HETATM   11  C16 UNL     1      22.343  -4.863  20.629  1.00  0.00     0.009 C 
HETATM   12  C17 UNL     1      21.032  -4.382  21.243  1.00  0.00     0.006 C 
HETATM   13  C18 UNL     1      19.848  -4.846  20.518  1.00  0.00    -0.026 C 
HETATM   14  C19 UNL     1      19.330  -3.724  19.539  1.00  0.00     0.019 C 
HETATM   15  C20 UNL     1      20.003  -5.983  19.538  1.00  0.00     0.019 C 
HETATM   16  C21 UNL     1      18.627  -5.050  21.318  1.00  0.00    -0.021 C 
HETATM   17  C22 UNL     1      18.674  -4.915  22.611  1.00  0.00    -0.022 C 
HETATM   18  C23 UNL     1      19.805  -4.577  23.470  1.00  0.00     0.051 C 
HETATM   19  C24 UNL     1      19.812  -5.174  24.860  1.00  0.00     0.066 C 
HETATM   20  C25 UNL     1      19.662  -3.956  25.842  1.00  0.00     0.047 C 
HETATM   21  O4  UNL     1      20.827  -5.870  25.232  1.00  0.00    -0.367 OA
HETATM   22  C32 UNL     1      21.975  -6.273  25.430  1.00  0.00     0.081 C 
HETATM   23  C33 UNL     1      21.879  -7.840  25.530  1.00  0.00     0.048 C 
HETATM   24  C34 UNL     1      22.502  -6.053  26.868  1.00  0.00     0.048 C 
ENDROOT
BRANCH   1  25
HETATM   25  C4  UNL     1      23.342  -2.050  21.907  1.00  0.00     0.131 C 
BRANCH  25  26
HETATM   26  C3  UNL     1      22.274  -1.212  21.371  1.00  0.00     0.052 C 
BRANCH  26  27
HETATM   27  C2  UNL     1      22.035  -1.028  19.928  1.00  0.00     0.120 C 
BRANCH  27  28
HETATM   28  N1  UNL     1      21.927   0.443  19.756  1.00  0.00    -0.408 N 
HETATM   29  C1  UNL     1      21.048   0.827  18.883  1.00  0.00     0.112 C 
ATOM     30  H1  UNL     1      22.500   1.101  20.284  1.00  0.00     0.157 HD
ENDBRANCH  27  28
ENDBRANCH  26  27
ENDBRANCH  25  26
BRANCH  25  31
HETATM   31  O1  UNL     1      24.415  -1.142  22.205  1.00  0.00    -0.395 OA
ATOM     32  H1  UNL     1      25.097  -1.683  22.585  1.00  0.00     0.210 HD
ENDBRANCH  25  31
ENDBRANCH   1  25
BRANCH   1  33
HETATM   33  C6  UNL     1      23.799  -2.289  24.144  1.00  0.00     0.041 C 
BRANCH  33  34
HETATM   34  C7  UNL     1      23.065  -1.958  25.333  1.00  0.00     0.165 C 
BRANCH  34  35
HETATM   35  O2  UNL     1      23.460  -2.938  26.296  1.00  0.00    -0.401 OA
ATOM     36  H2  UNL     1      22.713  -3.028  26.876  1.00  0.00     0.209 HD
ENDBRANCH  34  35
ENDBRANCH  33  34
ENDBRANCH   1  33
BRANCH  19  37
HETATM   37  C26 UNL     1      18.569  -5.950  25.232  1.00  0.00     0.042 C 
BRANCH  37  38
HETATM   38  C27 UNL     1      18.461  -7.371  25.397  1.00  0.00     0.030 C 
BRANCH  38  39
HETATM   39  C28 UNL     1      17.468  -7.823  24.360  1.00  0.00    -0.025 C 
HETATM   40  C29 UNL     1      17.910  -8.516  23.327  1.00  0.00    -0.091 C 
HETATM   41  C30 UNL     1      16.916  -8.964  22.298  1.00  0.00     0.042 C 
HETATM   42  C31 UNL     1      19.322  -8.871  23.131  1.00  0.00     0.042 C 
ENDBRANCH  38  39
ENDBRANCH  37  38
ENDBRANCH  19  37
TORSDOF 11
ENDMDL
