MODEL 1
REMARK VINA RESULT: -6.485798872      0.000      0.000
REMARK  9 active torsions:
REMARK  status: ('A' for Active; 'I' for Inactive)
REMARK    1  A    between atoms: C2_2  and  O1_4 
REMARK    2  A    between atoms: O1_4  and  C4_5 
REMARK    3  A    between atoms: N1_8  and  C6_9 
REMARK    4  A    between atoms: C6_9  and  C7_10 
REMARK    5  A    between atoms: C6_9  and  C11_19 
REMARK       I    between atoms: C7_10  and  N2_12 
REMARK    6  A    between atoms: N2_12  and  C8_14 
REMARK    7  A    between atoms: C8_14  and  C10_16 
REMARK    8  A    between atoms: C16_24  and  N3_25 
REMARK       I    between atoms: N3_25  and  C17_27 
REMARK       I    between atoms: C17_27  and  N4_29 
REMARK    9  A    between atoms: N4_29  and  C18_31 
ROOT
HETATM    1  C4  UNL     1     -40.776  59.543   2.740  1.00  0.00     0.236 C 
HETATM    2  C5  UNL     1     -40.447  60.998   2.618  1.00  0.00     0.251 C 
HETATM    3  O2  UNL     1     -40.548  61.623   1.532  1.00  0.00    -0.270 OA
HETATM    4  N1  UNL     1     -40.003  61.664   3.822  1.00  0.00    -0.336 N 
HETATM    5  C14 UNL     1     -39.220  60.893   4.758  1.00  0.00     0.129 C 
HETATM    6  C15 UNL     1     -38.649  59.719   3.936  1.00  0.00     0.048 C 
HETATM    7  C16 UNL     1     -39.746  58.796   3.523  1.00  0.00     0.126 C 
ENDROOT
BRANCH   4   8
HETATM    8  C6  UNL     1     -40.366  63.029   4.029  1.00  0.00     0.182 C 
BRANCH   8   9
HETATM    9  C7  UNL     1     -39.231  63.899   3.580  1.00  0.00     0.241 C 
HETATM   10  O3  UNL     1     -39.480  64.731   2.673  1.00  0.00    -0.271 OA
HETATM   11  N2  UNL     1     -37.922  63.852   4.091  1.00  0.00    -0.345 N 
ATOM     12  H2  UNL     1     -37.683  63.186   4.826  1.00  0.00     0.163 HD
BRANCH  11  13
HETATM   13  C8  UNL     1     -36.915  64.754   3.571  1.00  0.00     0.181 C 
HETATM   14  C9  UNL     1     -36.123  65.386   4.709  1.00  0.00     0.043 C 
BRANCH  13  15
HETATM   15  C10 UNL     1     -35.999  64.042   2.656  1.00  0.00     0.196 C 
HETATM   16  O4  UNL     1     -34.981  64.619   2.233  1.00  0.00    -0.646 OA
HETATM   17  O5  UNL     1     -36.267  62.748   2.276  1.00  0.00    -0.646 OA
ENDBRANCH  13  15
ENDBRANCH  11  13
ENDBRANCH   8   9
BRANCH   8  18
HETATM   18  C11 UNL     1     -40.739  63.417   5.420  1.00  0.00     0.009 C 
HETATM   19  C12 UNL     1     -40.756  64.868   5.733  1.00  0.00     0.012 C 
HETATM   20  C13 UNL     1     -42.055  62.760   5.798  1.00  0.00     0.012 C 
ENDBRANCH   8  18
ENDBRANCH   4   8
BRANCH   1  21
HETATM   21  O1  UNL     1     -42.008  59.370   3.383  1.00  0.00    -0.370 OA
BRANCH  21  22
HETATM   22  C2  UNL     1     -43.059  59.295   2.502  1.00  0.00     0.114 C 
HETATM   23  C1  UNL     1     -42.730  58.674   1.182  1.00  0.00     0.039 C 
HETATM   24  C3  UNL     1     -44.178  58.483   3.137  1.00  0.00     0.039 C 
ENDBRANCH  21  22
ENDBRANCH   1  21
BRANCH   7  25
HETATM   25  N3  UNL     1     -39.172  57.740   2.711  1.00  0.00    -0.335 N 
HETATM   26  C17 UNL     1     -39.149  56.369   3.116  1.00  0.00     0.316 C 
HETATM   27  O6  UNL     1     -39.628  55.987   4.210  1.00  0.00    -0.247 OA
HETATM   28  N4  UNL     1     -38.569  55.395   2.267  1.00  0.00    -0.339 N 
ATOM     29  H4  UNL     1     -38.172  55.678   1.371  1.00  0.00     0.164 HD
ATOM     30  H3  UNL     1     -38.767  57.987   1.808  1.00  0.00     0.164 HD
BRANCH  28  31
HETATM   31  C18 UNL     1     -38.536  54.013   2.653  1.00  0.00     0.086 C 
HETATM   32  C19 UNL     1     -39.718  53.306   2.052  1.00  0.00     0.025 C 
HETATM   33  C20 UNL     1     -39.599  53.209   0.543  1.00  0.00     0.002 C 
HETATM   34  C21 UNL     1     -38.356  52.406   0.232  1.00  0.00     0.000 C 
HETATM   35  C22 UNL     1     -37.139  53.142   0.768  1.00  0.00     0.002 C 
HETATM   36  C23 UNL     1     -37.236  53.340   2.264  1.00  0.00     0.025 C 
ENDBRANCH  28  31
ENDBRANCH   7  25
TORSDOF 9
ENDMDL
MODEL 2
REMARK VINA RESULT: -6.355788796      1.282      1.591
REMARK  9 active torsions:
REMARK  status: ('A' for Active; 'I' for Inactive)
REMARK    1  A    between atoms: C2_2  and  O1_4 
REMARK    2  A    between atoms: O1_4  and  C4_5 
REMARK    3  A    between atoms: N1_8  and  C6_9 
REMARK    4  A    between atoms: C6_9  and  C7_10 
REMARK    5  A    between atoms: C6_9  and  C11_19 
REMARK       I    between atoms: C7_10  and  N2_12 
REMARK    6  A    between atoms: N2_12  and  C8_14 
REMARK    7  A    between atoms: C8_14  and  C10_16 
REMARK    8  A    between atoms: C16_24  and  N3_25 
REMARK       I    between atoms: N3_25  and  C17_27 
REMARK       I    between atoms: C17_27  and  N4_29 
REMARK    9  A    between atoms: N4_29  and  C18_31 
ROOT
HETATM    1  C4  UNL     1     -40.296  59.792   2.644  1.00  0.00     0.236 C 
HETATM    2  C5  UNL     1     -39.735  61.178   2.710  1.00  0.00     0.251 C 
HETATM    3  O2  UNL     1     -39.554  61.881   1.684  1.00  0.00    -0.270 OA
HETATM    4  N1  UNL     1     -39.405  61.680   4.025  1.00  0.00    -0.336 N 
HETATM    5  C14 UNL     1     -38.918  60.730   4.997  1.00  0.00     0.129 C 
HETATM    6  C15 UNL     1     -38.400  59.536   4.170  1.00  0.00     0.048 C 
HETATM    7  C16 UNL     1     -39.538  58.835   3.507  1.00  0.00     0.126 C 
ENDROOT
BRANCH   4   8
HETATM    8  C6  UNL     1     -39.587  63.069   4.298  1.00  0.00     0.182 C 
BRANCH   8   9
HETATM    9  C7  UNL     1     -38.239  63.716   4.406  1.00  0.00     0.241 C 
HETATM   10  O3  UNL     1     -37.839  64.361   3.406  1.00  0.00    -0.271 OA
HETATM   11  N2  UNL     1     -37.399  63.654   5.531  1.00  0.00    -0.345 N 
ATOM     12  H2  UNL     1     -37.690  63.136   6.360  1.00  0.00     0.163 HD
BRANCH  11  13
HETATM   13  C8  UNL     1     -36.117  64.329   5.508  1.00  0.00     0.181 C 
HETATM   14  C9  UNL     1     -36.074  65.431   6.559  1.00  0.00     0.043 C 
BRANCH  13  15
HETATM   15  C10 UNL     1     -35.017  63.370   5.741  1.00  0.00     0.196 C 
HETATM   16  O4  UNL     1     -35.236  62.148   5.650  1.00  0.00    -0.646 OA
HETATM   17  O5  UNL     1     -33.757  63.823   6.055  1.00  0.00    -0.646 OA
ENDBRANCH  13  15
ENDBRANCH  11  13
ENDBRANCH   8   9
BRANCH   8  18
HETATM   18  C11 UNL     1     -40.377  63.413   5.515  1.00  0.00     0.009 C 
HETATM   19  C12 UNL     1     -40.540  64.855   5.829  1.00  0.00     0.012 C 
HETATM   20  C13 UNL     1     -41.721  62.708   5.469  1.00  0.00     0.012 C 
ENDBRANCH   8  18
ENDBRANCH   4   8
BRANCH   1  21
HETATM   21  O1  UNL     1     -41.631  59.781   3.067  1.00  0.00    -0.370 OA
BRANCH  21  22
HETATM   22  C2  UNL     1     -42.385  58.834   2.418  1.00  0.00     0.114 C 
HETATM   23  C1  UNL     1     -43.806  58.741   2.874  1.00  0.00     0.039 C 
HETATM   24  C3  UNL     1     -42.388  59.144   0.928  1.00  0.00     0.039 C 
ENDBRANCH  21  22
ENDBRANCH   1  21
BRANCH   7  25
HETATM   25  N3  UNL     1     -39.002  57.755   2.700  1.00  0.00    -0.335 N 
HETATM   26  C17 UNL     1     -39.057  56.383   3.098  1.00  0.00     0.316 C 
HETATM   27  O6  UNL     1     -39.578  56.020   4.179  1.00  0.00    -0.247 OA
HETATM   28  N4  UNL     1     -38.509  55.385   2.254  1.00  0.00    -0.339 N 
ATOM     29  H4  UNL     1     -38.079  55.652   1.369  1.00  0.00     0.164 HD
ATOM     30  H3  UNL     1     -38.566  57.986   1.807  1.00  0.00     0.164 HD
BRANCH  28  31
HETATM   31  C18 UNL     1     -38.554  54.001   2.634  1.00  0.00     0.086 C 
HETATM   32  C19 UNL     1     -39.719  53.342   1.949  1.00  0.00     0.025 C 
HETATM   33  C20 UNL     1     -39.502  53.247   0.452  1.00  0.00     0.002 C 
HETATM   34  C21 UNL     1     -38.272  52.398   0.220  1.00  0.00     0.000 C 
HETATM   35  C22 UNL     1     -37.067  53.086   0.841  1.00  0.00     0.002 C 
HETATM   36  C23 UNL     1     -37.257  53.281   2.328  1.00  0.00     0.025 C 
ENDBRANCH  28  31
ENDBRANCH   7  25
TORSDOF 9
ENDMDL
MODEL 3
REMARK VINA RESULT: -6.289548566      1.991      3.899
REMARK  9 active torsions:
REMARK  status: ('A' for Active; 'I' for Inactive)
REMARK    1  A    between atoms: C2_2  and  O1_4 
REMARK    2  A    between atoms: O1_4  and  C4_5 
REMARK    3  A    between atoms: N1_8  and  C6_9 
REMARK    4  A    between atoms: C6_9  and  C7_10 
REMARK    5  A    between atoms: C6_9  and  C11_19 
REMARK       I    between atoms: C7_10  and  N2_12 
REMARK    6  A    between atoms: N2_12  and  C8_14 
REMARK    7  A    between atoms: C8_14  and  C10_16 
REMARK    8  A    between atoms: C16_24  and  N3_25 
REMARK       I    between atoms: N3_25  and  C17_27 
REMARK       I    between atoms: C17_27  and  N4_29 
REMARK    9  A    between atoms: N4_29  and  C18_31 
ROOT
HETATM    1  C4  UNL     1     -40.738  59.365   2.597  1.00  0.00     0.236 C 
HETATM    2  C5  UNL     1     -40.509  60.831   2.400  1.00  0.00     0.251 C 
HETATM    3  O2  UNL     1     -40.637  61.388   1.280  1.00  0.00    -0.270 OA
HETATM    4  N1  UNL     1     -40.128  61.590   3.570  1.00  0.00    -0.336 N 
HETATM    5  C14 UNL     1     -39.307  60.926   4.554  1.00  0.00     0.129 C 
HETATM    6  C15 UNL     1     -38.645  59.752   3.803  1.00  0.00     0.048 C 
HETATM    7  C16 UNL     1     -39.670  58.734   3.430  1.00  0.00     0.126 C 
ENDROOT
BRANCH   4   8
HETATM    8  C6  UNL     1     -40.587  62.935   3.699  1.00  0.00     0.182 C 
BRANCH   8   9
HETATM    9  C7  UNL     1     -42.073  62.954   3.499  1.00  0.00     0.241 C 
HETATM   10  O3  UNL     1     -42.780  62.654   4.492  1.00  0.00    -0.271 OA
HETATM   11  N2  UNL     1     -42.725  63.279   2.297  1.00  0.00    -0.345 N 
ATOM     12  H2  UNL     1     -42.182  63.524   1.470  1.00  0.00     0.163 HD
BRANCH  11  13
HETATM   13  C8  UNL     1     -44.173  63.263   2.239  1.00  0.00     0.181 C 
HETATM   14  C9  UNL     1     -44.704  64.609   1.763  1.00  0.00     0.043 C 
BRANCH  13  15
HETATM   15  C10 UNL     1     -44.648  62.190   1.340  1.00  0.00     0.196 C 
HETATM   16  O4  UNL     1     -45.717  61.606   1.590  1.00  0.00    -0.646 OA
HETATM   17  O5  UNL     1     -43.913  61.839   0.232  1.00  0.00    -0.646 OA
ENDBRANCH  13  15
ENDBRANCH  11  13
ENDBRANCH   8   9
BRANCH   8  18
HETATM   18  C11 UNL     1     -39.974  63.940   2.784  1.00  0.00     0.009 C 
HETATM   19  C12 UNL     1     -40.334  65.363   3.006  1.00  0.00     0.012 C 
HETATM   20  C13 UNL     1     -38.467  63.755   2.758  1.00  0.00     0.012 C 
ENDBRANCH   8  18
ENDBRANCH   4   8
BRANCH   1  21
HETATM   21  O1  UNL     1     -41.965  59.142   3.236  1.00  0.00    -0.370 OA
BRANCH  21  22
HETATM   22  C2  UNL     1     -43.029  59.182   2.369  1.00  0.00     0.114 C 
HETATM   23  C1  UNL     1     -42.796  58.504   1.056  1.00  0.00     0.039 C 
HETATM   24  C3  UNL     1     -44.230  58.523   3.032  1.00  0.00     0.039 C 
ENDBRANCH  21  22
ENDBRANCH   1  21
BRANCH   7  25
HETATM   25  N3  UNL     1     -39.015  57.679   2.682  1.00  0.00    -0.335 N 
HETATM   26  C17 UNL     1     -39.082  56.301   3.056  1.00  0.00     0.316 C 
HETATM   27  O6  UNL     1     -39.719  55.911   4.063  1.00  0.00    -0.247 OA
HETATM   28  N4  UNL     1     -38.413  55.327   2.273  1.00  0.00    -0.339 N 
ATOM     29  H4  UNL     1     -37.887  55.616   1.449  1.00  0.00     0.164 HD
ATOM     30  H3  UNL     1     -38.481  57.932   1.850  1.00  0.00     0.164 HD
BRANCH  28  31
HETATM   31  C18 UNL     1     -38.467  53.938   2.630  1.00  0.00     0.086 C 
HETATM   32  C19 UNL     1     -39.645  53.301   1.945  1.00  0.00     0.025 C 
HETATM   33  C20 UNL     1     -39.442  53.229   0.444  1.00  0.00     0.002 C 
HETATM   34  C21 UNL     1     -38.222  52.373   0.187  1.00  0.00     0.000 C 
HETATM   35  C22 UNL     1     -37.005  53.038   0.808  1.00  0.00     0.002 C 
HETATM   36  C23 UNL     1     -37.180  53.210   2.300  1.00  0.00     0.025 C 
ENDBRANCH  28  31
ENDBRANCH   7  25
TORSDOF 9
ENDMDL
MODEL 4
REMARK VINA RESULT: -6.225306561      2.230      2.819
REMARK  9 active torsions:
REMARK  status: ('A' for Active; 'I' for Inactive)
REMARK    1  A    between atoms: C2_2  and  O1_4 
REMARK    2  A    between atoms: O1_4  and  C4_5 
REMARK    3  A    between atoms: N1_8  and  C6_9 
REMARK    4  A    between atoms: C6_9  and  C7_10 
REMARK    5  A    between atoms: C6_9  and  C11_19 
REMARK       I    between atoms: C7_10  and  N2_12 
REMARK    6  A    between atoms: N2_12  and  C8_14 
REMARK    7  A    between atoms: C8_14  and  C10_16 
REMARK    8  A    between atoms: C16_24  and  N3_25 
REMARK       I    between atoms: N3_25  and  C17_27 
REMARK       I    between atoms: C17_27  and  N4_29 
REMARK    9  A    between atoms: N4_29  and  C18_31 
ROOT
HETATM    1  C4  UNL     1     -39.229  59.810   3.438  1.00  0.00     0.236 C 
HETATM    2  C5  UNL     1     -38.208  60.810   3.884  1.00  0.00     0.251 C 
HETATM    3  O2  UNL     1     -37.667  61.620   3.089  1.00  0.00    -0.270 OA
HETATM    4  N1  UNL     1     -37.866  60.803   5.288  1.00  0.00    -0.336 N 
HETATM    5  C14 UNL     1     -37.876  59.530   5.969  1.00  0.00     0.129 C 
HETATM    6  C15 UNL     1     -37.746  58.474   4.852  1.00  0.00     0.048 C 
HETATM    7  C16 UNL     1     -38.980  58.454   4.014  1.00  0.00     0.126 C 
ENDROOT
BRANCH   4   8
HETATM    8  C6  UNL     1     -37.553  62.040   5.927  1.00  0.00     0.182 C 
BRANCH   8   9
HETATM    9  C7  UNL     1     -36.178  62.463   5.502  1.00  0.00     0.241 C 
HETATM   10  O3  UNL     1     -35.265  61.608   5.610  1.00  0.00    -0.271 OA
HETATM   11  N2  UNL     1     -35.840  63.731   5.000  1.00  0.00    -0.345 N 
ATOM     12  H2  UNL     1     -36.555  64.451   4.903  1.00  0.00     0.163 HD
BRANCH  11  13
HETATM   13  C8  UNL     1     -34.470  64.011   4.621  1.00  0.00     0.181 C 
HETATM   14  C9  UNL     1     -34.421  65.104   3.560  1.00  0.00     0.043 C 
BRANCH  13  15
HETATM   15  C10 UNL     1     -33.675  64.418   5.798  1.00  0.00     0.196 C 
HETATM   16  O4  UNL     1     -33.924  65.496   6.367  1.00  0.00    -0.646 OA
HETATM   17  O5  UNL     1     -32.665  63.610   6.266  1.00  0.00    -0.646 OA
ENDBRANCH  13  15
ENDBRANCH  11  13
ENDBRANCH   8   9
BRANCH   8  18
HETATM   18  C11 UNL     1     -37.614  62.056   7.417  1.00  0.00     0.009 C 
HETATM   19  C12 UNL     1     -36.711  63.003   8.119  1.00  0.00     0.012 C 
HETATM   20  C13 UNL     1     -39.053  62.238   7.867  1.00  0.00     0.012 C 
ENDBRANCH   8  18
ENDBRANCH   4   8
BRANCH   1  21
HETATM   21  O1  UNL     1     -40.513  60.211   3.831  1.00  0.00    -0.370 OA
BRANCH  21  22
HETATM   22  C2  UNL     1     -41.396  60.266   2.780  1.00  0.00     0.114 C 
HETATM   23  C1  UNL     1     -40.762  60.253   1.426  1.00  0.00     0.039 C 
HETATM   24  C3  UNL     1     -42.342  59.078   2.869  1.00  0.00     0.039 C 
ENDBRANCH  21  22
ENDBRANCH   1  21
BRANCH   7  25
HETATM   25  N3  UNL     1     -38.793  57.488   2.948  1.00  0.00    -0.335 N 
HETATM   26  C17 UNL     1     -39.052  56.091   3.107  1.00  0.00     0.316 C 
HETATM   27  O6  UNL     1     -39.463  55.606   4.188  1.00  0.00    -0.247 OA
HETATM   28  N4  UNL     1     -38.844  55.209   2.018  1.00  0.00    -0.339 N 
ATOM     29  H4  UNL     1     -38.509  55.577   1.127  1.00  0.00     0.164 HD
ATOM     30  H3  UNL     1     -38.461  57.821   2.043  1.00  0.00     0.164 HD
BRANCH  28  31
HETATM   31  C18 UNL     1     -39.098  53.804   2.155  1.00  0.00     0.086 C 
HETATM   32  C19 UNL     1     -39.464  53.237   0.812  1.00  0.00     0.025 C 
HETATM   33  C20 UNL     1     -38.280  53.247  -0.136  1.00  0.00     0.002 C 
HETATM   34  C21 UNL     1     -37.201  52.378   0.470  1.00  0.00     0.000 C 
HETATM   35  C22 UNL     1     -36.764  52.975   1.797  1.00  0.00     0.002 C 
HETATM   36  C23 UNL     1     -37.923  53.065   2.763  1.00  0.00     0.025 C 
ENDBRANCH  28  31
ENDBRANCH   7  25
TORSDOF 9
ENDMDL
MODEL 5
REMARK VINA RESULT: -6.134826062      8.102     12.908
REMARK  9 active torsions:
REMARK  status: ('A' for Active; 'I' for Inactive)
REMARK    1  A    between atoms: C2_2  and  O1_4 
REMARK    2  A    between atoms: O1_4  and  C4_5 
REMARK    3  A    between atoms: N1_8  and  C6_9 
REMARK    4  A    between atoms: C6_9  and  C7_10 
REMARK    5  A    between atoms: C6_9  and  C11_19 
REMARK       I    between atoms: C7_10  and  N2_12 
REMARK    6  A    between atoms: N2_12  and  C8_14 
REMARK    7  A    between atoms: C8_14  and  C10_16 
REMARK    8  A    between atoms: C16_24  and  N3_25 
REMARK       I    between atoms: N3_25  and  C17_27 
REMARK       I    between atoms: C17_27  and  N4_29 
REMARK    9  A    between atoms: N4_29  and  C18_31 
ROOT
HETATM    1  C4  UNL     1     -40.601  51.718   7.896  1.00  0.00     0.236 C 
HETATM    2  C5  UNL     1     -41.215  50.574   8.641  1.00  0.00     0.251 C 
HETATM    3  O2  UNL     1     -40.545  49.581   9.021  1.00  0.00    -0.270 OA
HETATM    4  N1  UNL     1     -42.633  50.663   8.909  1.00  0.00    -0.336 N 
HETATM    5  C14 UNL     1     -43.456  51.317   7.920  1.00  0.00     0.129 C 
HETATM    6  C15 UNL     1     -42.636  51.269   6.615  1.00  0.00     0.048 C 
HETATM    7  C16 UNL     1     -41.431  52.142   6.729  1.00  0.00     0.126 C 
ENDROOT
BRANCH   4   8
HETATM    8  C6  UNL     1     -43.140  50.119  10.127  1.00  0.00     0.182 C 
BRANCH   8   9
HETATM    9  C7  UNL     1     -43.524  48.689   9.889  1.00  0.00     0.241 C 
HETATM   10  O3  UNL     1     -44.636  48.486   9.343  1.00  0.00    -0.271 OA
HETATM   11  N2  UNL     1     -42.741  47.573  10.229  1.00  0.00    -0.345 N 
ATOM     12  H2  UNL     1     -41.834  47.701  10.677  1.00  0.00     0.163 HD
BRANCH  11  13
HETATM   13  C8  UNL     1     -43.228  46.239   9.940  1.00  0.00     0.181 C 
HETATM   14  C9  UNL     1     -42.099  45.358   9.419  1.00  0.00     0.043 C 
BRANCH  13  15
HETATM   15  C10 UNL     1     -43.826  45.629  11.145  1.00  0.00     0.196 C 
HETATM   16  O4  UNL     1     -45.041  45.359  11.160  1.00  0.00    -0.646 OA
HETATM   17  O5  UNL     1     -43.046  45.359  12.245  1.00  0.00    -0.646 OA
ENDBRANCH  13  15
ENDBRANCH  11  13
ENDBRANCH   8   9
BRANCH   8  18
HETATM   18  C11 UNL     1     -44.301  50.825  10.741  1.00  0.00     0.009 C 
HETATM   19  C12 UNL     1     -44.964  50.160  11.891  1.00  0.00     0.012 C 
HETATM   20  C13 UNL     1     -43.907  52.250  11.087  1.00  0.00     0.012 C 
ENDBRANCH   8  18
ENDBRANCH   4   8
BRANCH   1  21
HETATM   21  O1  UNL     1     -40.450  52.828   8.738  1.00  0.00    -0.370 OA
BRANCH  21  22
HETATM   22  C2  UNL     1     -39.548  52.608   9.749  1.00  0.00     0.114 C 
HETATM   23  C1  UNL     1     -38.298  53.424   9.665  1.00  0.00     0.039 C 
HETATM   24  C3  UNL     1     -40.218  52.909  11.082  1.00  0.00     0.039 C 
ENDBRANCH  21  22
ENDBRANCH   1  21
BRANCH   7  25
HETATM   25  N3  UNL     1     -40.663  52.024   5.503  1.00  0.00    -0.335 N 
HETATM   26  C17 UNL     1     -40.120  53.151   4.813  1.00  0.00     0.316 C 
HETATM   27  O6  UNL     1     -40.271  54.325   5.225  1.00  0.00    -0.247 OA
HETATM   28  N4  UNL     1     -39.381  52.954   3.620  1.00  0.00    -0.339 N 
ATOM     29  H4  UNL     1     -39.243  52.009   3.261  1.00  0.00     0.164 HD
ATOM     30  H3  UNL     1     -40.505  51.093   5.117  1.00  0.00     0.164 HD
BRANCH  28  31
HETATM   31  C18 UNL     1     -38.825  54.071   2.910  1.00  0.00     0.086 C 
HETATM   32  C19 UNL     1     -37.329  53.928   2.864  1.00  0.00     0.025 C 
HETATM   33  C20 UNL     1     -36.910  52.764   1.988  1.00  0.00     0.002 C 
HETATM   34  C21 UNL     1     -37.404  53.044   0.586  1.00  0.00     0.000 C 
HETATM   35  C22 UNL     1     -38.922  53.118   0.598  1.00  0.00     0.002 C 
HETATM   36  C23 UNL     1     -39.407  54.214   1.519  1.00  0.00     0.025 C 
ENDBRANCH  28  31
ENDBRANCH   7  25
TORSDOF 9
ENDMDL
