MODEL 1
REMARK VINA RESULT: -7.340716727      0.000      0.000
REMARK  9 active torsions:
REMARK  status: ('A' for Active; 'I' for Inactive)
REMARK    1  A    between atoms: C2_2  and  C4_4 
REMARK    2  A    between atoms: C4_4  and  C5_6 
REMARK    3  A    between atoms: C5_6  and  N1_7 
REMARK    4  A    between atoms: C5_6  and  C11_18 
REMARK       I    between atoms: N1_7  and  C6_9 
REMARK    5  A    between atoms: C6_9  and  C7_11 
REMARK    6  A    between atoms: C11_18  and  C12_20 
REMARK    7  A    between atoms: C12_20  and  C13_21 
REMARK       I    between atoms: C13_21  and  N3_23 
REMARK    8  A    between atoms: C17_27  and  C18_28 
REMARK       I    between atoms: C18_28  and  N4_30 
REMARK    9  A    between atoms: N4_30  and  C19_32 
ROOT
HETATM    1  C11 UNL     1     -39.688  59.728   5.248  1.00  0.00     0.097 C 
HETATM    2  S1  UNL     1     -40.720  61.221   5.433  1.00  0.00    -0.089 SA
ENDROOT
BRANCH   1   3
HETATM    3  C5  UNL     1     -39.169  59.637   3.830  1.00  0.00     0.169 C 
BRANCH   3   4
HETATM    4  C4  UNL     1     -38.146  60.649   3.511  1.00  0.00     0.154 C 
HETATM    5  O1  UNL     1     -37.113  60.590   4.192  1.00  0.00    -0.295 OA
BRANCH   4   6
HETATM    6  C2  UNL     1     -38.254  61.698   2.487  1.00  0.00     0.049 C 
HETATM    7  C1  UNL     1     -37.203  62.777   2.747  1.00  0.00     0.017 C 
HETATM    8  C3  UNL     1     -38.092  61.240   1.069  1.00  0.00     0.017 C 
ENDBRANCH   4   6
ENDBRANCH   3   4
BRANCH   3   9
HETATM    9  N1  UNL     1     -40.395  59.969   3.036  1.00  0.00    -0.347 N 
HETATM   10  C6  UNL     1     -41.120  59.001   2.329  1.00  0.00     0.249 C 
HETATM   11  O2  UNL     1     -40.798  57.783   2.308  1.00  0.00    -0.271 OA
ATOM     12  H1  UNL     1     -40.714  60.937   3.009  1.00  0.00     0.163 HD
BRANCH  10  13
HETATM   13  C7  UNL     1     -42.321  59.409   1.568  1.00  0.00     0.277 C 
HETATM   14  C8  UNL     1     -42.427  60.921   1.405  1.00  0.00     0.044 C 
HETATM   15  C9  UNL     1     -43.496  60.975   0.308  1.00  0.00     0.030 C 
HETATM   16  C10 UNL     1     -43.424  59.653  -0.399  1.00  0.00     0.233 C 
HETATM   17  N2  UNL     1     -42.299  58.987   0.198  1.00  0.00    -0.062 N 
ATOM     18  H22 UNL     1     -41.412  59.159  -0.277  1.00  0.00     0.278 HD
ATOM     19  H21 UNL     1     -42.299  57.975   0.074  1.00  0.00     0.278 HD
ENDBRANCH  10  13
ENDBRANCH   3   9
ENDBRANCH   1   3
BRANCH   1  20
HETATM   20  C12 UNL     1     -40.455  58.556   5.752  1.00  0.00     0.121 C 
BRANCH  20  21
HETATM   21  C13 UNL     1     -39.561  57.769   6.678  1.00  0.00     0.221 C 
HETATM   22  O3  UNL     1     -39.790  57.859   7.904  1.00  0.00    -0.273 OA
HETATM   23  N3  UNL     1     -38.527  56.984   6.121  1.00  0.00    -0.339 N 
HETATM   24  C14 UNL     1     -37.575  56.184   6.830  1.00  0.00     0.127 C 
HETATM   25  C17 UNL     1     -38.243  56.847   4.724  1.00  0.00     0.179 C 
HETATM   26  C15 UNL     1     -36.284  56.513   6.069  1.00  0.00     0.022 C 
HETATM   27  C16 UNL     1     -36.733  56.893   4.680  1.00  0.00     0.037 C 
BRANCH  25  28
HETATM   28  C18 UNL     1     -38.653  55.549   4.149  1.00  0.00     0.241 C 
HETATM   29  O4  UNL     1     -39.563  54.887   4.693  1.00  0.00    -0.271 OA
HETATM   30  N4  UNL     1     -38.038  55.041   2.997  1.00  0.00    -0.355 N 
ATOM     31  H4  UNL     1     -37.300  55.601   2.571  1.00  0.00     0.162 HD
BRANCH  30  32
HETATM   32  C19 UNL     1     -38.370  53.786   2.370  1.00  0.00     0.084 C 
HETATM   33  C20 UNL     1     -39.649  53.898   1.553  1.00  0.00     0.025 C 
HETATM   34  C21 UNL     1     -39.588  52.627   0.727  1.00  0.00     0.002 C 
HETATM   35  C22 UNL     1     -38.141  52.658   0.246  1.00  0.00     0.002 C 
HETATM   36  C23 UNL     1     -37.365  53.263   1.413  1.00  0.00     0.025 C 
ENDBRANCH  30  32
ENDBRANCH  25  28
ENDBRANCH  20  21
ENDBRANCH   1  20
TORSDOF 9
ENDMDL
MODEL 2
REMARK VINA RESULT: -7.100599194      2.487      7.491
REMARK  9 active torsions:
REMARK  status: ('A' for Active; 'I' for Inactive)
REMARK    1  A    between atoms: C2_2  and  C4_4 
REMARK    2  A    between atoms: C4_4  and  C5_6 
REMARK    3  A    between atoms: C5_6  and  N1_7 
REMARK    4  A    between atoms: C5_6  and  C11_18 
REMARK       I    between atoms: N1_7  and  C6_9 
REMARK    5  A    between atoms: C6_9  and  C7_11 
REMARK    6  A    between atoms: C11_18  and  C12_20 
REMARK    7  A    between atoms: C12_20  and  C13_21 
REMARK       I    between atoms: C13_21  and  N3_23 
REMARK    8  A    between atoms: C17_27  and  C18_28 
REMARK       I    between atoms: C18_28  and  N4_30 
REMARK    9  A    between atoms: N4_30  and  C19_32 
ROOT
HETATM    1  C11 UNL     1     -39.834  57.215   5.369  1.00  0.00     0.097 C 
HETATM    2  S1  UNL     1     -40.874  57.243   6.868  1.00  0.00    -0.089 SA
ENDROOT
BRANCH   1   3
HETATM    3  C5  UNL     1     -38.637  56.316   5.593  1.00  0.00     0.169 C 
BRANCH   3   4
HETATM    4  C4  UNL     1     -37.453  57.030   6.104  1.00  0.00     0.154 C 
HETATM    5  O1  UNL     1     -37.536  57.423   7.276  1.00  0.00    -0.295 OA
BRANCH   4   6
HETATM    6  C2  UNL     1     -36.221  57.313   5.355  1.00  0.00     0.049 C 
HETATM    7  C1  UNL     1     -35.852  58.788   5.514  1.00  0.00     0.017 C 
HETATM    8  C3  UNL     1     -35.022  56.502   5.744  1.00  0.00     0.017 C 
ENDBRANCH   4   6
ENDBRANCH   3   4
BRANCH   3   9
HETATM    9  N1  UNL     1     -38.327  55.871   4.197  1.00  0.00    -0.347 N 
HETATM   10  C6  UNL     1     -38.884  54.715   3.634  1.00  0.00     0.249 C 
HETATM   11  O2  UNL     1     -39.683  53.966   4.257  1.00  0.00    -0.271 OA
ATOM     12  H1  UNL     1     -37.687  56.431   3.634  1.00  0.00     0.163 HD
BRANCH  10  13
HETATM   13  C7  UNL     1     -38.528  54.341   2.248  1.00  0.00     0.277 C 
HETATM   14  C8  UNL     1     -37.385  53.334   2.187  1.00  0.00     0.044 C 
HETATM   15  C9  UNL     1     -37.525  52.893   0.725  1.00  0.00     0.030 C 
HETATM   16  C10 UNL     1     -38.949  53.179   0.346  1.00  0.00     0.233 C 
HETATM   17  N2  UNL     1     -39.564  53.621   1.567  1.00  0.00    -0.062 N 
ATOM     18  H22 UNL     1     -39.983  52.871   2.119  1.00  0.00     0.278 HD
ATOM     19  H21 UNL     1     -40.423  54.155   1.432  1.00  0.00     0.278 HD
ENDBRANCH  10  13
ENDBRANCH   3   9
ENDBRANCH   1   3
BRANCH   1  20
HETATM   20  C12 UNL     1     -39.546  58.618   4.966  1.00  0.00     0.121 C 
BRANCH  20  21
HETATM   21  C13 UNL     1     -39.902  58.773   3.507  1.00  0.00     0.221 C 
HETATM   22  O3  UNL     1     -40.455  57.799   2.950  1.00  0.00    -0.273 OA
HETATM   23  N3  UNL     1     -39.596  59.988   2.857  1.00  0.00    -0.339 N 
HETATM   24  C14 UNL     1     -39.840  60.318   1.486  1.00  0.00     0.127 C 
HETATM   25  C17 UNL     1     -38.974  61.127   3.464  1.00  0.00     0.179 C 
HETATM   26  C15 UNL     1     -38.529  61.019   1.109  1.00  0.00     0.022 C 
HETATM   27  C16 UNL     1     -38.002  61.588   2.403  1.00  0.00     0.037 C 
BRANCH  25  28
HETATM   28  C18 UNL     1     -39.897  62.251   3.725  1.00  0.00     0.241 C 
HETATM   29  O4  UNL     1     -40.829  62.113   4.546  1.00  0.00    -0.271 OA
HETATM   30  N4  UNL     1     -39.748  63.477   3.065  1.00  0.00    -0.355 N 
ATOM     31  H4  UNL     1     -38.978  63.565   2.401  1.00  0.00     0.162 HD
BRANCH  30  32
HETATM   32  C19 UNL     1     -40.601  64.624   3.252  1.00  0.00     0.084 C 
HETATM   33  C20 UNL     1     -39.860  65.918   2.951  1.00  0.00     0.025 C 
HETATM   34  C21 UNL     1     -41.009  66.905   2.854  1.00  0.00     0.002 C 
HETATM   35  C22 UNL     1     -41.985  66.134   1.970  1.00  0.00     0.002 C 
HETATM   36  C23 UNL     1     -41.804  64.676   2.385  1.00  0.00     0.025 C 
ENDBRANCH  30  32
ENDBRANCH  25  28
ENDBRANCH  20  21
ENDBRANCH   1  20
TORSDOF 9
ENDMDL
MODEL 3
REMARK VINA RESULT: -7.096038701      2.812      7.749
REMARK  9 active torsions:
REMARK  status: ('A' for Active; 'I' for Inactive)
REMARK    1  A    between atoms: C2_2  and  C4_4 
REMARK    2  A    between atoms: C4_4  and  C5_6 
REMARK    3  A    between atoms: C5_6  and  N1_7 
REMARK    4  A    between atoms: C5_6  and  C11_18 
REMARK       I    between atoms: N1_7  and  C6_9 
REMARK    5  A    between atoms: C6_9  and  C7_11 
REMARK    6  A    between atoms: C11_18  and  C12_20 
REMARK    7  A    between atoms: C12_20  and  C13_21 
REMARK       I    between atoms: C13_21  and  N3_23 
REMARK    8  A    between atoms: C17_27  and  C18_28 
REMARK       I    between atoms: C18_28  and  N4_30 
REMARK    9  A    between atoms: N4_30  and  C19_32 
ROOT
HETATM    1  C11 UNL     1     -39.848  58.933   2.929  1.00  0.00     0.097 C 
HETATM    2  S1  UNL     1     -41.592  58.883   2.397  1.00  0.00    -0.089 SA
ENDROOT
BRANCH   1   3
HETATM    3  C5  UNL     1     -39.528  57.705   3.753  1.00  0.00     0.169 C 
BRANCH   3   4
HETATM    4  C4  UNL     1     -38.495  57.938   4.779  1.00  0.00     0.154 C 
HETATM    5  O1  UNL     1     -38.921  58.144   5.923  1.00  0.00    -0.295 OA
BRANCH   4   6
HETATM    6  C2  UNL     1     -37.042  57.953   4.557  1.00  0.00     0.049 C 
HETATM    7  C1  UNL     1     -36.435  59.189   5.222  1.00  0.00     0.017 C 
HETATM    8  C3  UNL     1     -36.295  56.755   5.062  1.00  0.00     0.017 C 
ENDBRANCH   4   6
ENDBRANCH   3   4
BRANCH   3   9
HETATM    9  N1  UNL     1     -38.942  56.792   2.721  1.00  0.00    -0.347 N 
HETATM   10  C6  UNL     1     -38.990  55.396   2.836  1.00  0.00     0.249 C 
HETATM   11  O2  UNL     1     -39.528  54.807   3.812  1.00  0.00    -0.271 OA
ATOM     12  H1  UNL     1     -38.491  57.201   1.904  1.00  0.00     0.163 HD
BRANCH  10  13
HETATM   13  C7  UNL     1     -38.387  54.561   1.774  1.00  0.00     0.277 C 
HETATM   14  C8  UNL     1     -37.524  53.435   2.333  1.00  0.00     0.044 C 
HETATM   15  C9  UNL     1     -37.384  52.583   1.065  1.00  0.00     0.030 C 
HETATM   16  C10 UNL     1     -38.562  52.933   0.205  1.00  0.00     0.233 C 
HETATM   17  N2  UNL     1     -39.351  53.817   1.018  1.00  0.00    -0.062 N 
ATOM     18  H22 UNL     1     -40.054  53.345   1.587  1.00  0.00     0.278 HD
ATOM     19  H21 UNL     1     -40.004  54.397   0.490  1.00  0.00     0.278 HD
ENDBRANCH  10  13
ENDBRANCH   3   9
ENDBRANCH   1   3
BRANCH   1  20
HETATM   20  C12 UNL     1     -39.584  60.251   3.569  1.00  0.00     0.121 C 
BRANCH  20  21
HETATM   21  C13 UNL     1     -38.456  60.921   2.824  1.00  0.00     0.221 C 
HETATM   22  O3  UNL     1     -38.103  60.404   1.741  1.00  0.00    -0.273 OA
HETATM   23  N3  UNL     1     -37.867  62.078   3.378  1.00  0.00    -0.339 N 
HETATM   24  C14 UNL     1     -36.785  62.841   2.833  1.00  0.00     0.127 C 
HETATM   25  C17 UNL     1     -38.252  62.705   4.608  1.00  0.00     0.179 C 
HETATM   26  C15 UNL     1     -35.944  63.107   4.088  1.00  0.00     0.022 C 
HETATM   27  C16 UNL     1     -36.925  63.067   5.234  1.00  0.00     0.037 C 
BRANCH  25  28
HETATM   28  C18 UNL     1     -39.007  63.963   4.433  1.00  0.00     0.241 C 
HETATM   29  O4  UNL     1     -38.721  64.962   5.126  1.00  0.00    -0.271 OA
HETATM   30  N4  UNL     1     -40.047  64.059   3.499  1.00  0.00    -0.355 N 
ATOM     31  H4  UNL     1     -40.260  63.230   2.944  1.00  0.00     0.162 HD
BRANCH  30  32
HETATM   32  C19 UNL     1     -40.838  65.241   3.264  1.00  0.00     0.084 C 
HETATM   33  C20 UNL     1     -40.256  66.079   2.135  1.00  0.00     0.025 C 
HETATM   34  C21 UNL     1     -41.409  67.019   1.836  1.00  0.00     0.002 C 
HETATM   35  C22 UNL     1     -42.581  66.042   1.795  1.00  0.00     0.002 C 
HETATM   36  C23 UNL     1     -42.244  65.000   2.858  1.00  0.00     0.025 C 
ENDBRANCH  30  32
ENDBRANCH  25  28
ENDBRANCH  20  21
ENDBRANCH   1  20
TORSDOF 9
ENDMDL
MODEL 4
REMARK VINA RESULT: -7.019146121      1.970      7.198
REMARK  9 active torsions:
REMARK  status: ('A' for Active; 'I' for Inactive)
REMARK    1  A    between atoms: C2_2  and  C4_4 
REMARK    2  A    between atoms: C4_4  and  C5_6 
REMARK    3  A    between atoms: C5_6  and  N1_7 
REMARK    4  A    between atoms: C5_6  and  C11_18 
REMARK       I    between atoms: N1_7  and  C6_9 
REMARK    5  A    between atoms: C6_9  and  C7_11 
REMARK    6  A    between atoms: C11_18  and  C12_20 
REMARK    7  A    between atoms: C12_20  and  C13_21 
REMARK       I    between atoms: C13_21  and  N3_23 
REMARK    8  A    between atoms: C17_27  and  C18_28 
REMARK       I    between atoms: C18_28  and  N4_30 
REMARK    9  A    between atoms: N4_30  and  C19_32 
ROOT
HETATM    1  C11 UNL     1     -39.611  56.947   5.102  1.00  0.00     0.097 C 
HETATM    2  S1  UNL     1     -39.692  58.273   6.353  1.00  0.00    -0.089 SA
ENDROOT
BRANCH   1   3
HETATM    3  C5  UNL     1     -38.689  55.846   5.580  1.00  0.00     0.169 C 
BRANCH   3   4
HETATM    4  C4  UNL     1     -37.398  56.341   6.090  1.00  0.00     0.154 C 
HETATM    5  O1  UNL     1     -37.306  56.408   7.323  1.00  0.00    -0.295 OA
BRANCH   4   6
HETATM    6  C2  UNL     1     -36.247  56.758   5.277  1.00  0.00     0.049 C 
HETATM    7  C1  UNL     1     -36.121  58.281   5.309  1.00  0.00     0.017 C 
HETATM    8  C3  UNL     1     -34.922  56.186   5.684  1.00  0.00     0.017 C 
ENDBRANCH   4   6
ENDBRANCH   3   4
BRANCH   3   9
HETATM    9  N1  UNL     1     -38.418  55.105   4.308  1.00  0.00    -0.347 N 
HETATM   10  C6  UNL     1     -39.123  53.950   3.944  1.00  0.00     0.249 C 
HETATM   11  O2  UNL     1     -40.035  53.450   4.656  1.00  0.00    -0.271 OA
ATOM     12  H1  UNL     1     -37.692  55.454   3.682  1.00  0.00     0.163 HD
BRANCH  10  13
HETATM   13  C7  UNL     1     -38.796  53.273   2.670  1.00  0.00     0.277 C 
HETATM   14  C8  UNL     1     -39.560  53.854   1.484  1.00  0.00     0.044 C 
HETATM   15  C9  UNL     1     -38.747  53.232   0.342  1.00  0.00     0.030 C 
HETATM   16  C10 UNL     1     -37.395  52.930   0.919  1.00  0.00     0.233 C 
HETATM   17  N2  UNL     1     -37.441  53.476   2.248  1.00  0.00    -0.062 N 
ATOM     18  H22 UNL     1     -37.124  54.444   2.312  1.00  0.00     0.278 HD
ATOM     19  H21 UNL     1     -36.744  53.086   2.883  1.00  0.00     0.278 HD
ENDBRANCH  10  13
ENDBRANCH   3   9
ENDBRANCH   1   3
BRANCH   1  20
HETATM   20  C12 UNL     1     -39.289  57.558   3.784  1.00  0.00     0.121 C 
BRANCH  20  21
HETATM   21  C13 UNL     1     -40.330  58.608   3.483  1.00  0.00     0.221 C 
HETATM   22  O3  UNL     1     -41.526  58.293   3.669  1.00  0.00    -0.273 OA
HETATM   23  N3  UNL     1     -39.907  59.871   3.012  1.00  0.00    -0.339 N 
HETATM   24  C14 UNL     1     -40.738  60.982   2.662  1.00  0.00     0.127 C 
HETATM   25  C17 UNL     1     -38.548  60.270   2.798  1.00  0.00     0.179 C 
HETATM   26  C15 UNL     1     -40.064  61.463   1.370  1.00  0.00     0.022 C 
HETATM   27  C16 UNL     1     -38.622  61.036   1.498  1.00  0.00     0.037 C 
BRANCH  25  28
HETATM   28  C18 UNL     1     -38.024  61.199   3.820  1.00  0.00     0.241 C 
HETATM   29  O4  UNL     1     -38.419  61.111   5.002  1.00  0.00    -0.271 OA
HETATM   30  N4  UNL     1     -37.086  62.185   3.488  1.00  0.00    -0.355 N 
ATOM     31  H4  UNL     1     -36.778  62.235   2.517  1.00  0.00     0.162 HD
BRANCH  30  32
HETATM   32  C19 UNL     1     -36.524  63.135   4.416  1.00  0.00     0.084 C 
HETATM   33  C20 UNL     1     -35.254  62.596   5.056  1.00  0.00     0.025 C 
HETATM   34  C21 UNL     1     -34.672  63.854   5.671  1.00  0.00     0.002 C 
HETATM   35  C22 UNL     1     -34.815  64.840   4.515  1.00  0.00     0.002 C 
HETATM   36  C23 UNL     1     -36.119  64.437   3.832  1.00  0.00     0.025 C 
ENDBRANCH  30  32
ENDBRANCH  25  28
ENDBRANCH  20  21
ENDBRANCH   1  20
TORSDOF 9
ENDMDL
MODEL 5
REMARK VINA RESULT: -6.956638498      2.142      3.065
REMARK  9 active torsions:
REMARK  status: ('A' for Active; 'I' for Inactive)
REMARK    1  A    between atoms: C2_2  and  C4_4 
REMARK    2  A    between atoms: C4_4  and  C5_6 
REMARK    3  A    between atoms: C5_6  and  N1_7 
REMARK    4  A    between atoms: C5_6  and  C11_18 
REMARK       I    between atoms: N1_7  and  C6_9 
REMARK    5  A    between atoms: C6_9  and  C7_11 
REMARK    6  A    between atoms: C11_18  and  C12_20 
REMARK    7  A    between atoms: C12_20  and  C13_21 
REMARK       I    between atoms: C13_21  and  N3_23 
REMARK    8  A    between atoms: C17_27  and  C18_28 
REMARK       I    between atoms: C18_28  and  N4_30 
REMARK    9  A    between atoms: N4_30  and  C19_32 
ROOT
HETATM    1  C11 UNL     1     -37.047  61.509   5.325  1.00  0.00     0.097 C 
HETATM    2  S1  UNL     1     -38.706  60.783   5.549  1.00  0.00    -0.089 SA
ENDROOT
BRANCH   1   3
HETATM    3  C5  UNL     1     -37.009  62.317   4.046  1.00  0.00     0.169 C 
BRANCH   3   4
HETATM    4  C4  UNL     1     -37.074  63.773   4.267  1.00  0.00     0.154 C 
HETATM    5  O1  UNL     1     -37.761  64.132   5.233  1.00  0.00    -0.295 OA
BRANCH   4   6
HETATM    6  C2  UNL     1     -36.416  64.803   3.452  1.00  0.00     0.049 C 
HETATM    7  C1  UNL     1     -35.206  64.199   2.741  1.00  0.00     0.017 C 
HETATM    8  C3  UNL     1     -37.276  65.453   2.409  1.00  0.00     0.017 C 
ENDBRANCH   4   6
ENDBRANCH   3   4
BRANCH   3   9
HETATM    9  N1  UNL     1     -38.290  61.903   3.389  1.00  0.00    -0.347 N 
HETATM   10  C6  UNL     1     -38.384  61.652   2.014  1.00  0.00     0.249 C 
HETATM   11  O2  UNL     1     -37.404  61.755   1.229  1.00  0.00    -0.271 OA
ATOM     12  H1  UNL     1     -39.126  61.800   3.965  1.00  0.00     0.163 HD
BRANCH  10  13
HETATM   13  C7  UNL     1     -39.686  61.247   1.439  1.00  0.00     0.277 C 
HETATM   14  C8  UNL     1     -40.068  59.816   1.802  1.00  0.00     0.044 C 
HETATM   15  C9  UNL     1     -41.549  59.850   1.405  1.00  0.00     0.030 C 
HETATM   16  C10 UNL     1     -41.954  61.294   1.459  1.00  0.00     0.233 C 
HETATM   17  N2  UNL     1     -40.798  61.973   1.979  1.00  0.00    -0.062 N 
ATOM     18  H22 UNL     1     -40.787  62.058   2.996  1.00  0.00     0.278 HD
ATOM     19  H21 UNL     1     -40.779  62.973   1.782  1.00  0.00     0.278 HD
ENDBRANCH  10  13
ENDBRANCH   3   9
ENDBRANCH   1   3
BRANCH   1  20
HETATM   20  C12 UNL     1     -36.034  60.427   5.457  1.00  0.00     0.121 C 
BRANCH  20  21
HETATM   21  C13 UNL     1     -36.443  59.534   6.604  1.00  0.00     0.221 C 
HETATM   22  O3  UNL     1     -36.706  60.091   7.692  1.00  0.00    -0.273 OA
HETATM   23  N3  UNL     1     -36.506  58.140   6.392  1.00  0.00    -0.339 N 
HETATM   24  C14 UNL     1     -36.857  57.137   7.352  1.00  0.00     0.127 C 
HETATM   25  C17 UNL     1     -36.223  57.469   5.159  1.00  0.00     0.179 C 
HETATM   26  C15 UNL     1     -35.805  56.060   7.056  1.00  0.00     0.022 C 
HETATM   27  C16 UNL     1     -35.440  56.256   5.605  1.00  0.00     0.037 C 
BRANCH  25  28
HETATM   28  C18 UNL     1     -37.423  56.974   4.452  1.00  0.00     0.241 C 
HETATM   29  O4  UNL     1     -38.350  57.764   4.171  1.00  0.00    -0.271 OA
HETATM   30  N4  UNL     1     -37.546  55.627   4.089  1.00  0.00    -0.355 N 
ATOM     31  H4  UNL     1     -36.775  55.002   4.328  1.00  0.00     0.162 HD
BRANCH  30  32
HETATM   32  C19 UNL     1     -38.678  55.056   3.404  1.00  0.00     0.084 C 
HETATM   33  C20 UNL     1     -38.280  54.504   2.044  1.00  0.00     0.025 C 
HETATM   34  C21 UNL     1     -39.493  53.662   1.695  1.00  0.00     0.002 C 
HETATM   35  C22 UNL     1     -39.715  52.910   3.005  1.00  0.00     0.002 C 
HETATM   36  C23 UNL     1     -39.333  53.915   4.089  1.00  0.00     0.025 C 
ENDBRANCH  30  32
ENDBRANCH  25  28
ENDBRANCH  20  21
ENDBRANCH   1  20
TORSDOF 9
ENDMDL
