MODEL 1
REMARK VINA RESULT: -6.833431210      0.000      0.000
REMARK  12 active torsions:
REMARK  status: ('A' for Active; 'I' for Inactive)
REMARK    1  A    between atoms: C2_2  and  C3_3 
REMARK    2  A    between atoms: C3_3  and  O1_4 
REMARK    3  A    between atoms: C3_3  and  C4_6 
REMARK    4  A    between atoms: C4_6  and  C5_7 
REMARK    5  A    between atoms: C5_7  and  N1_8 
REMARK    6  A    between atoms: C5_7  and  C22_33 
REMARK       I    between atoms: N1_8  and  C6_10 
REMARK    7  A    between atoms: C6_10  and  C7_12 
REMARK       I    between atoms: N2_17  and  C12_18 
REMARK    8  A    between atoms: C12_18  and  C13_20 
REMARK    9  A    between atoms: C13_20  and  N3_21 
REMARK   10  A    between atoms: C13_20  and  C19_30 
REMARK       I    between atoms: N3_21  and  C14_23 
REMARK   11  A    between atoms: C14_23  and  O5_25 
REMARK   12  A    between atoms: O5_25  and  C15_26 
REMARK       I    between atoms: C22_33  and  N4_35 
ROOT
HETATM    1  C7  UNL     1     -36.941  58.342   4.563  1.00  0.00     0.179 C 
HETATM    2  C8  UNL     1     -35.900  58.648   5.578  1.00  0.00     0.035 C 
HETATM    3  C9  UNL     1     -36.442  58.769   6.976  1.00  0.00     0.004 C 
HETATM    4  C10 UNL     1     -37.640  59.692   7.040  1.00  0.00     0.020 C 
HETATM    5  C11 UNL     1     -38.689  59.285   6.025  1.00  0.00     0.127 C 
HETATM    6  N2  UNL     1     -38.136  59.177   4.695  1.00  0.00    -0.337 N 
HETATM    7  C12 UNL     1     -38.710  59.807   3.543  1.00  0.00     0.243 C 
HETATM    8  O3  UNL     1     -38.117  59.546   2.432  1.00  0.00    -0.271 OA
ENDROOT
BRANCH   1   9
HETATM    9  C6  UNL     1     -37.244  56.916   4.408  1.00  0.00     0.241 C 
HETATM   10  N1  UNL     1     -38.415  56.363   3.856  1.00  0.00    -0.346 N 
ATOM     11  H1  UNL     1     -39.136  57.004   3.522  1.00  0.00     0.163 HD
HETATM   12  O2  UNL     1     -36.360  56.110   4.814  1.00  0.00    -0.271 OA
BRANCH  10  13
HETATM   13  C5  UNL     1     -38.660  54.943   3.733  1.00  0.00     0.179 C 
BRANCH  13  14
HETATM   14  C4  UNL     1     -39.392  54.562   2.493  1.00  0.00     0.070 C 
BRANCH  14  15
HETATM   15  C3  UNL     1     -39.011  53.237   1.910  1.00  0.00     0.142 C 
BRANCH  15  16
HETATM   16  C2  UNL     1     -38.851  53.256   0.444  1.00  0.00    -0.006 C 
HETATM   17  C1  UNL     1     -37.740  52.832  -0.118  1.00  0.00     0.009 C 
ENDBRANCH  15  16
BRANCH  15  18
HETATM   18  O1  UNL     1     -39.892  52.213   2.319  1.00  0.00    -0.392 OA
ATOM     19  H1  UNL     1     -40.060  52.252   3.254  1.00  0.00     0.210 HD
ENDBRANCH  15  18
ENDBRANCH  14  15
ENDBRANCH  13  14
BRANCH  13  20
HETATM   20  C22 UNL     1     -39.579  54.578   4.880  1.00  0.00     0.240 C 
HETATM   21  O6  UNL     1     -39.929  55.416   5.745  1.00  0.00    -0.271 OA
HETATM   22  N4  UNL     1     -40.078  53.260   5.015  1.00  0.00    -0.364 N 
HETATM   23  C23 UNL     1     -40.951  52.917   6.108  1.00  0.00     0.149 C 
ATOM     24  H4  UNL     1     -39.817  52.547   4.333  1.00  0.00     0.161 HD
ENDBRANCH  13  20
ENDBRANCH  10  13
ENDBRANCH   1   9
BRANCH   7  25
HETATM   25  C13 UNL     1     -39.875  60.688   3.529  1.00  0.00     0.182 C 
BRANCH  25  26
HETATM   26  N3  UNL     1     -40.655  60.319   2.318  1.00  0.00    -0.323 N 
HETATM   27  C14 UNL     1     -41.522  59.187   2.330  1.00  0.00     0.362 C 
HETATM   28  O4  UNL     1     -41.632  58.492   3.365  1.00  0.00    -0.238 OA
ATOM     29  H3  UNL     1     -40.569  60.880   1.471  1.00  0.00     0.165 HD
BRANCH  27  30
HETATM   30  O5  UNL     1     -42.261  58.812   1.232  1.00  0.00    -0.294 OA
BRANCH  30  31
HETATM   31  C15 UNL     1     -43.518  59.276   0.862  1.00  0.00     0.061 C 
HETATM   32  C16 UNL     1     -43.470  59.479  -0.659  1.00  0.00     0.046 C 
HETATM   33  C17 UNL     1     -43.914  60.594   1.464  1.00  0.00     0.046 C 
HETATM   34  C18 UNL     1     -44.632  58.276   1.122  1.00  0.00     0.046 C 
ENDBRANCH  30  31
ENDBRANCH  27  30
ENDBRANCH  25  26
BRANCH  25  35
HETATM   35  C19 UNL     1     -39.549  62.160   3.363  1.00  0.00     0.009 C 
HETATM   36  C20 UNL     1     -39.238  62.862   4.645  1.00  0.00     0.012 C 
HETATM   37  C21 UNL     1     -40.642  62.939   2.679  1.00  0.00     0.012 C 
ENDBRANCH  25  35
ENDBRANCH   7  25
TORSDOF 12
ENDMDL
MODEL 2
REMARK VINA RESULT: -6.502812210      2.243      5.413
REMARK  12 active torsions:
REMARK  status: ('A' for Active; 'I' for Inactive)
REMARK    1  A    between atoms: C2_2  and  C3_3 
REMARK    2  A    between atoms: C3_3  and  O1_4 
REMARK    3  A    between atoms: C3_3  and  C4_6 
REMARK    4  A    between atoms: C4_6  and  C5_7 
REMARK    5  A    between atoms: C5_7  and  N1_8 
REMARK    6  A    between atoms: C5_7  and  C22_33 
REMARK       I    between atoms: N1_8  and  C6_10 
REMARK    7  A    between atoms: C6_10  and  C7_12 
REMARK       I    between atoms: N2_17  and  C12_18 
REMARK    8  A    between atoms: C12_18  and  C13_20 
REMARK    9  A    between atoms: C13_20  and  N3_21 
REMARK   10  A    between atoms: C13_20  and  C19_30 
REMARK       I    between atoms: N3_21  and  C14_23 
REMARK   11  A    between atoms: C14_23  and  O5_25 
REMARK   12  A    between atoms: O5_25  and  C15_26 
REMARK       I    between atoms: C22_33  and  N4_35 
ROOT
HETATM    1  C7  UNL     1     -40.843  59.201   3.184  1.00  0.00     0.179 C 
HETATM    2  C8  UNL     1     -42.205  58.700   2.860  1.00  0.00     0.035 C 
HETATM    3  C9  UNL     1     -42.543  58.786   1.397  1.00  0.00     0.004 C 
HETATM    4  C10 UNL     1     -42.251  60.158   0.829  1.00  0.00     0.020 C 
HETATM    5  C11 UNL     1     -40.828  60.578   1.139  1.00  0.00     0.127 C 
HETATM    6  N2  UNL     1     -40.536  60.484   2.551  1.00  0.00    -0.337 N 
HETATM    7  C12 UNL     1     -39.952  61.547   3.313  1.00  0.00     0.243 C 
HETATM    8  O3  UNL     1     -39.705  61.257   4.542  1.00  0.00    -0.271 OA
ENDROOT
BRANCH   1   9
HETATM    9  C6  UNL     1     -39.775  58.208   3.033  1.00  0.00     0.241 C 
HETATM   10  N1  UNL     1     -39.929  56.808   3.013  1.00  0.00    -0.346 N 
ATOM     11  H1  UNL     1     -40.872  56.429   3.109  1.00  0.00     0.163 HD
HETATM   12  O2  UNL     1     -38.603  58.662   2.910  1.00  0.00    -0.271 OA
BRANCH  10  13
HETATM   13  C5  UNL     1     -38.834  55.875   2.865  1.00  0.00     0.179 C 
BRANCH  13  14
HETATM   14  C4  UNL     1     -39.264  54.486   2.543  1.00  0.00     0.070 C 
BRANCH  14  15
HETATM   15  C3  UNL     1     -38.216  53.626   1.908  1.00  0.00     0.142 C 
BRANCH  15  16
HETATM   16  C2  UNL     1     -38.550  53.195   0.538  1.00  0.00    -0.006 C 
HETATM   17  C1  UNL     1     -37.607  52.817  -0.298  1.00  0.00     0.009 C 
ENDBRANCH  15  16
BRANCH  15  18
HETATM   18  O1  UNL     1     -37.876  52.527   2.726  1.00  0.00    -0.392 OA
ATOM     19  H1  UNL     1     -38.286  52.590   3.581  1.00  0.00     0.210 HD
ENDBRANCH  15  18
ENDBRANCH  14  15
ENDBRANCH  13  14
BRANCH  13  20
HETATM   20  C22 UNL     1     -38.170  55.794   4.223  1.00  0.00     0.240 C 
HETATM   21  O6  UNL     1     -38.697  55.188   5.187  1.00  0.00    -0.271 OA
HETATM   22  N4  UNL     1     -36.915  56.409   4.452  1.00  0.00    -0.364 N 
HETATM   23  C23 UNL     1     -36.287  56.330   5.746  1.00  0.00     0.149 C 
ATOM     24  H4  UNL     1     -36.452  56.912   3.695  1.00  0.00     0.161 HD
ENDBRANCH  13  20
ENDBRANCH  10  13
ENDBRANCH   1   9
BRANCH   7  25
HETATM   25  C13 UNL     1     -39.623  62.883   2.825  1.00  0.00     0.182 C 
BRANCH  25  26
HETATM   26  N3  UNL     1     -38.391  63.294   3.549  1.00  0.00    -0.323 N 
HETATM   27  C14 UNL     1     -37.104  62.946   3.048  1.00  0.00     0.362 C 
HETATM   28  O4  UNL     1     -36.999  62.286   1.990  1.00  0.00    -0.238 OA
ATOM     29  H3  UNL     1     -38.469  63.831   4.413  1.00  0.00     0.165 HD
BRANCH  27  30
HETATM   30  O5  UNL     1     -35.940  63.307   3.688  1.00  0.00    -0.294 OA
BRANCH  30  31
HETATM   31  C15 UNL     1     -35.562  62.998   4.989  1.00  0.00     0.061 C 
HETATM   32  C16 UNL     1     -34.035  63.140   5.039  1.00  0.00     0.046 C 
HETATM   33  C17 UNL     1     -35.883  61.599   5.432  1.00  0.00     0.046 C 
HETATM   34  C18 UNL     1     -36.112  63.967   6.023  1.00  0.00     0.046 C 
ENDBRANCH  30  31
ENDBRANCH  27  30
ENDBRANCH  25  26
BRANCH  25  35
HETATM   35  C19 UNL     1     -40.655  63.945   3.152  1.00  0.00     0.009 C 
HETATM   36  C20 UNL     1     -41.944  63.789   2.413  1.00  0.00     0.012 C 
HETATM   37  C21 UNL     1     -40.165  65.348   2.908  1.00  0.00     0.012 C 
ENDBRANCH  25  35
ENDBRANCH   7  25
TORSDOF 12
ENDMDL
MODEL 3
REMARK VINA RESULT: -6.363452656      1.994      6.883
REMARK  12 active torsions:
REMARK  status: ('A' for Active; 'I' for Inactive)
REMARK    1  A    between atoms: C2_2  and  C3_3 
REMARK    2  A    between atoms: C3_3  and  O1_4 
REMARK    3  A    between atoms: C3_3  and  C4_6 
REMARK    4  A    between atoms: C4_6  and  C5_7 
REMARK    5  A    between atoms: C5_7  and  N1_8 
REMARK    6  A    between atoms: C5_7  and  C22_33 
REMARK       I    between atoms: N1_8  and  C6_10 
REMARK    7  A    between atoms: C6_10  and  C7_12 
REMARK       I    between atoms: N2_17  and  C12_18 
REMARK    8  A    between atoms: C12_18  and  C13_20 
REMARK    9  A    between atoms: C13_20  and  N3_21 
REMARK   10  A    between atoms: C13_20  and  C19_30 
REMARK       I    between atoms: N3_21  and  C14_23 
REMARK   11  A    between atoms: C14_23  and  O5_25 
REMARK   12  A    between atoms: O5_25  and  C15_26 
REMARK       I    between atoms: C22_33  and  N4_35 
ROOT
HETATM    1  C7  UNL     1     -39.730  61.042   5.147  1.00  0.00     0.179 C 
HETATM    2  C8  UNL     1     -39.220  62.395   5.493  1.00  0.00     0.035 C 
HETATM    3  C9  UNL     1     -38.377  63.013   4.412  1.00  0.00     0.004 C 
HETATM    4  C10 UNL     1     -37.301  62.067   3.925  1.00  0.00     0.020 C 
HETATM    5  C11 UNL     1     -37.896  60.731   3.528  1.00  0.00     0.127 C 
HETATM    6  N2  UNL     1     -38.700  60.166   4.587  1.00  0.00    -0.337 N 
HETATM    7  C12 UNL     1     -38.552  58.824   5.067  1.00  0.00     0.243 C 
HETATM    8  O3  UNL     1     -39.400  58.476   5.969  1.00  0.00    -0.271 OA
ENDROOT
BRANCH   1   9
HETATM    9  C6  UNL     1     -40.978  61.038   4.379  1.00  0.00     0.241 C 
HETATM   10  N1  UNL     1     -41.208  61.687   3.151  1.00  0.00    -0.346 N 
ATOM     11  H1  UNL     1     -40.440  62.216   2.737  1.00  0.00     0.163 HD
HETATM   12  O2  UNL     1     -41.938  60.384   4.876  1.00  0.00    -0.271 OA
BRANCH  10  13
HETATM   13  C5  UNL     1     -42.467  61.650   2.438  1.00  0.00     0.179 C 
BRANCH  13  14
HETATM   14  C4  UNL     1     -42.380  61.019   1.092  1.00  0.00     0.070 C 
BRANCH  14  15
HETATM   15  C3  UNL     1     -42.246  59.528   1.095  1.00  0.00     0.142 C 
BRANCH  15  16
HETATM   16  C2  UNL     1     -43.285  58.838   1.882  1.00  0.00    -0.006 C 
HETATM   17  C1  UNL     1     -44.433  58.505   1.335  1.00  0.00     0.009 C 
ENDBRANCH  15  16
BRANCH  15  18
HETATM   18  O1  UNL     1     -40.951  59.120   1.481  1.00  0.00    -0.392 OA
ATOM     19  H1  UNL     1     -40.522  59.781   2.014  1.00  0.00     0.210 HD
ENDBRANCH  15  18
ENDBRANCH  14  15
ENDBRANCH  13  14
BRANCH  13  20
HETATM   20  C22 UNL     1     -42.847  63.095   2.191  1.00  0.00     0.240 C 
HETATM   21  O6  UNL     1     -43.968  63.418   1.729  1.00  0.00    -0.271 OA
HETATM   22  N4  UNL     1     -41.937  64.141   2.476  1.00  0.00    -0.364 N 
HETATM   23  C23 UNL     1     -42.303  65.513   2.239  1.00  0.00     0.149 C 
ATOM     24  H4  UNL     1     -41.015  63.921   2.853  1.00  0.00     0.161 HD
ENDBRANCH  13  20
ENDBRANCH  10  13
ENDBRANCH   1   9
BRANCH   7  25
HETATM   25  C13 UNL     1     -37.555  57.853   4.625  1.00  0.00     0.182 C 
BRANCH  25  26
HETATM   26  N3  UNL     1     -38.278  56.564   4.466  1.00  0.00    -0.323 N 
HETATM   27  C14 UNL     1     -38.953  56.255   3.249  1.00  0.00     0.362 C 
HETATM   28  O4  UNL     1     -38.942  57.072   2.301  1.00  0.00    -0.238 OA
ATOM     29  H3  UNL     1     -38.292  55.893   5.235  1.00  0.00     0.165 HD
BRANCH  27  30
HETATM   30  O5  UNL     1     -39.633  55.074   3.061  1.00  0.00    -0.294 OA
BRANCH  30  31
HETATM   31  C15 UNL     1     -39.128  53.879   2.561  1.00  0.00     0.061 C 
HETATM   32  C16 UNL     1     -39.624  52.775   3.504  1.00  0.00     0.046 C 
HETATM   33  C17 UNL     1     -37.629  53.784   2.530  1.00  0.00     0.046 C 
HETATM   34  C18 UNL     1     -39.659  53.530   1.180  1.00  0.00     0.046 C 
ENDBRANCH  30  31
ENDBRANCH  27  30
ENDBRANCH  25  26
BRANCH  25  35
HETATM   35  C19 UNL     1     -36.457  57.575   5.634  1.00  0.00     0.009 C 
HETATM   36  C20 UNL     1     -35.464  58.683   5.773  1.00  0.00     0.012 C 
HETATM   37  C21 UNL     1     -35.685  56.315   5.344  1.00  0.00     0.012 C 
ENDBRANCH  25  35
ENDBRANCH   7  25
TORSDOF 12
ENDMDL
MODEL 4
REMARK VINA RESULT: -6.183508457      1.914      7.040
REMARK  12 active torsions:
REMARK  status: ('A' for Active; 'I' for Inactive)
REMARK    1  A    between atoms: C2_2  and  C3_3 
REMARK    2  A    between atoms: C3_3  and  O1_4 
REMARK    3  A    between atoms: C3_3  and  C4_6 
REMARK    4  A    between atoms: C4_6  and  C5_7 
REMARK    5  A    between atoms: C5_7  and  N1_8 
REMARK    6  A    between atoms: C5_7  and  C22_33 
REMARK       I    between atoms: N1_8  and  C6_10 
REMARK    7  A    between atoms: C6_10  and  C7_12 
REMARK       I    between atoms: N2_17  and  C12_18 
REMARK    8  A    between atoms: C12_18  and  C13_20 
REMARK    9  A    between atoms: C13_20  and  N3_21 
REMARK   10  A    between atoms: C13_20  and  C19_30 
REMARK       I    between atoms: N3_21  and  C14_23 
REMARK   11  A    between atoms: C14_23  and  O5_25 
REMARK   12  A    between atoms: O5_25  and  C15_26 
REMARK       I    between atoms: C22_33  and  N4_35 
ROOT
HETATM    1  C7  UNL     1     -38.308  60.269   5.399  1.00  0.00     0.179 C 
HETATM    2  C8  UNL     1     -37.276  61.120   6.048  1.00  0.00     0.035 C 
HETATM    3  C9  UNL     1     -35.868  60.745   5.672  1.00  0.00     0.004 C 
HETATM    4  C10 UNL     1     -35.617  59.261   5.830  1.00  0.00     0.020 C 
HETATM    5  C11 UNL     1     -36.667  58.455   5.091  1.00  0.00     0.127 C 
HETATM    6  N2  UNL     1     -38.006  58.839   5.474  1.00  0.00    -0.337 N 
HETATM    7  C12 UNL     1     -39.015  57.906   5.878  1.00  0.00     0.243 C 
HETATM    8  O3  UNL     1     -40.167  58.426   6.119  1.00  0.00    -0.271 OA
ENDROOT
BRANCH   1   9
HETATM    9  C6  UNL     1     -38.709  60.709   4.059  1.00  0.00     0.241 C 
HETATM   10  N1  UNL     1     -40.009  60.674   3.520  1.00  0.00    -0.346 N 
ATOM     11  H1  UNL     1     -40.761  60.312   4.107  1.00  0.00     0.163 HD
HETATM   12  O2  UNL     1     -37.789  61.163   3.321  1.00  0.00    -0.271 OA
BRANCH  10  13
HETATM   13  C5  UNL     1     -40.344  61.120   2.185  1.00  0.00     0.179 C 
BRANCH  13  14
HETATM   14  C4  UNL     1     -41.289  62.270   2.152  1.00  0.00     0.070 C 
BRANCH  14  15
HETATM   15  C3  UNL     1     -40.780  63.531   2.779  1.00  0.00     0.142 C 
BRANCH  15  16
HETATM   16  C2  UNL     1     -41.498  64.743   2.345  1.00  0.00    -0.006 C 
HETATM   17  C1  UNL     1     -42.812  64.791   2.366  1.00  0.00     0.009 C 
ENDBRANCH  15  16
BRANCH  15  18
HETATM   18  O1  UNL     1     -39.385  63.671   2.614  1.00  0.00    -0.392 OA
ATOM     19  H1  UNL     1     -38.965  62.829   2.477  1.00  0.00     0.210 HD
ENDBRANCH  15  18
ENDBRANCH  14  15
ENDBRANCH  13  14
BRANCH  13  20
HETATM   20  C22 UNL     1     -41.079  59.966   1.534  1.00  0.00     0.240 C 
HETATM   21  O6  UNL     1     -40.865  58.773   1.857  1.00  0.00    -0.271 OA
HETATM   22  N4  UNL     1     -42.044  60.201   0.525  1.00  0.00    -0.364 N 
HETATM   23  C23 UNL     1     -42.740  59.102  -0.091  1.00  0.00     0.149 C 
ATOM     24  H4  UNL     1     -42.248  61.157   0.232  1.00  0.00     0.161 HD
ENDBRANCH  13  20
ENDBRANCH  10  13
ENDBRANCH   1   9
BRANCH   7  25
HETATM   25  C13 UNL     1     -38.849  56.463   6.027  1.00  0.00     0.182 C 
BRANCH  25  26
HETATM   26  N3  UNL     1     -39.343  55.858   4.761  1.00  0.00    -0.323 N 
HETATM   27  C14 UNL     1     -38.429  55.449   3.747  1.00  0.00     0.362 C 
HETATM   28  O4  UNL     1     -37.198  55.597   3.915  1.00  0.00    -0.238 OA
ATOM     29  H3  UNL     1     -40.345  55.736   4.617  1.00  0.00     0.165 HD
BRANCH  27  30
HETATM   30  O5  UNL     1     -38.844  54.886   2.562  1.00  0.00    -0.294 OA
BRANCH  30  31
HETATM   31  C15 UNL     1     -38.852  53.537   2.226  1.00  0.00     0.061 C 
HETATM   32  C16 UNL     1     -39.740  53.410   0.981  1.00  0.00     0.046 C 
HETATM   33  C17 UNL     1     -39.431  52.623   3.268  1.00  0.00     0.046 C 
HETATM   34  C18 UNL     1     -37.485  53.006   1.829  1.00  0.00     0.046 C 
ENDBRANCH  30  31
ENDBRANCH  27  30
ENDBRANCH  25  26
BRANCH  25  35
HETATM   35  C19 UNL     1     -39.693  55.842   7.124  1.00  0.00     0.009 C 
HETATM   36  C20 UNL     1     -38.953  55.608   8.401  1.00  0.00     0.012 C 
HETATM   37  C21 UNL     1     -40.322  54.533   6.723  1.00  0.00     0.012 C 
ENDBRANCH  25  35
ENDBRANCH   7  25
TORSDOF 12
ENDMDL
MODEL 5
REMARK VINA RESULT: -6.183358682      2.042      6.740
REMARK  12 active torsions:
REMARK  status: ('A' for Active; 'I' for Inactive)
REMARK    1  A    between atoms: C2_2  and  C3_3 
REMARK    2  A    between atoms: C3_3  and  O1_4 
REMARK    3  A    between atoms: C3_3  and  C4_6 
REMARK    4  A    between atoms: C4_6  and  C5_7 
REMARK    5  A    between atoms: C5_7  and  N1_8 
REMARK    6  A    between atoms: C5_7  and  C22_33 
REMARK       I    between atoms: N1_8  and  C6_10 
REMARK    7  A    between atoms: C6_10  and  C7_12 
REMARK       I    between atoms: N2_17  and  C12_18 
REMARK    8  A    between atoms: C12_18  and  C13_20 
REMARK    9  A    between atoms: C13_20  and  N3_21 
REMARK   10  A    between atoms: C13_20  and  C19_30 
REMARK       I    between atoms: N3_21  and  C14_23 
REMARK   11  A    between atoms: C14_23  and  O5_25 
REMARK   12  A    between atoms: O5_25  and  C15_26 
REMARK       I    between atoms: C22_33  and  N4_35 
ROOT
HETATM    1  C7  UNL     1     -39.236  60.007   6.467  1.00  0.00     0.179 C 
HETATM    2  C8  UNL     1     -38.509  60.826   7.471  1.00  0.00     0.035 C 
HETATM    3  C9  UNL     1     -37.013  60.775   7.318  1.00  0.00     0.004 C 
HETATM    4  C10 UNL     1     -36.505  59.353   7.212  1.00  0.00     0.020 C 
HETATM    5  C11 UNL     1     -37.243  58.595   6.127  1.00  0.00     0.127 C 
HETATM    6  N2  UNL     1     -38.676  58.665   6.304  1.00  0.00    -0.337 N 
HETATM    7  C12 UNL     1     -39.534  57.518   6.293  1.00  0.00     0.243 C 
HETATM    8  O3  UNL     1     -40.788  57.781   6.400  1.00  0.00    -0.271 OA
ENDROOT
BRANCH   1   9
HETATM    9  C6  UNL     1     -39.494  60.688   5.194  1.00  0.00     0.241 C 
HETATM   10  N1  UNL     1     -38.775  60.523   3.995  1.00  0.00    -0.346 N 
ATOM     11  H1  UNL     1     -37.995  59.865   3.991  1.00  0.00     0.163 HD
HETATM   12  O2  UNL     1     -40.459  61.504   5.182  1.00  0.00    -0.271 OA
BRANCH  10  13
HETATM   13  C5  UNL     1     -39.074  61.227   2.768  1.00  0.00     0.179 C 
BRANCH  13  14
HETATM   14  C4  UNL     1     -39.372  60.333   1.615  1.00  0.00     0.070 C 
BRANCH  14  15
HETATM   15  C3  UNL     1     -40.730  59.702   1.633  1.00  0.00     0.142 C 
BRANCH  15  16
HETATM   16  C2  UNL     1     -41.808  60.623   2.040  1.00  0.00    -0.006 C 
HETATM   17  C1  UNL     1     -42.461  61.333   1.146  1.00  0.00     0.009 C 
ENDBRANCH  15  16
BRANCH  15  18
HETATM   18  O1  UNL     1     -40.747  58.517   2.400  1.00  0.00    -0.392 OA
ATOM     19  H1  UNL     1     -40.815  57.747   1.847  1.00  0.00     0.210 HD
ENDBRANCH  15  18
ENDBRANCH  14  15
ENDBRANCH  13  14
BRANCH  13  20
HETATM   20  C22 UNL     1     -37.807  61.969   2.394  1.00  0.00     0.240 C 
HETATM   21  O6  UNL     1     -37.330  61.931   1.234  1.00  0.00    -0.271 OA
HETATM   22  N4  UNL     1     -37.110  62.739   3.356  1.00  0.00    -0.364 N 
HETATM   23  C23 UNL     1     -35.906  63.443   2.997  1.00  0.00     0.149 C 
ATOM     24  H4  UNL     1     -37.464  62.797   4.312  1.00  0.00     0.161 HD
ENDBRANCH  13  20
ENDBRANCH  10  13
ENDBRANCH   1   9
BRANCH   7  25
HETATM   25  C13 UNL     1     -39.114  56.125   6.171  1.00  0.00     0.182 C 
BRANCH  25  26
HETATM   26  N3  UNL     1     -39.576  55.671   4.832  1.00  0.00    -0.323 N 
HETATM   27  C14 UNL     1     -38.649  55.499   3.764  1.00  0.00     0.362 C 
HETATM   28  O4  UNL     1     -37.432  55.731   3.945  1.00  0.00    -0.238 OA
ATOM     29  H3  UNL     1     -40.566  55.482   4.677  1.00  0.00     0.165 HD
BRANCH  27  30
HETATM   30  O5  UNL     1     -39.035  55.082   2.511  1.00  0.00    -0.294 OA
BRANCH  30  31
HETATM   31  C15 UNL     1     -38.944  53.799   1.984  1.00  0.00     0.061 C 
HETATM   32  C16 UNL     1     -39.591  52.864   3.014  1.00  0.00     0.046 C 
HETATM   33  C17 UNL     1     -37.546  53.298   1.760  1.00  0.00     0.046 C 
HETATM   34  C18 UNL     1     -39.730  53.619   0.695  1.00  0.00     0.046 C 
ENDBRANCH  30  31
ENDBRANCH  27  30
ENDBRANCH  25  26
BRANCH  25  35
HETATM   35  C19 UNL     1     -39.768  55.180   7.162  1.00  0.00     0.009 C 
HETATM   36  C20 UNL     1     -38.865  54.740   8.268  1.00  0.00     0.012 C 
HETATM   37  C21 UNL     1     -40.331  53.940   6.521  1.00  0.00     0.012 C 
ENDBRANCH  25  35
ENDBRANCH   7  25
TORSDOF 12
ENDMDL
