MODEL 1
REMARK VINA RESULT: -6.518459685      0.000      0.000
REMARK  13 active torsions:
REMARK  status: ('A' for Active; 'I' for Inactive)
REMARK    1  A    between atoms: C3_3  and  C4_4 
REMARK    2  A    between atoms: C4_4  and  C5_5 
REMARK    3  A    between atoms: C5_5  and  C6_6 
REMARK    4  A    between atoms: C6_6  and  N1_7 
REMARK    5  A    between atoms: C6_6  and  C17_24 
REMARK       I    between atoms: N1_7  and  C7_9 
REMARK    6  A    between atoms: C7_9  and  C8_11 
REMARK    7  A    between atoms: C8_11  and  N2_12 
REMARK    8  A    between atoms: C8_11  and  C14_21 
REMARK       I    between atoms: N2_12  and  C9_14 
REMARK    9  A    between atoms: C9_14  and  O3_16 
REMARK   10  A    between atoms: O3_16  and  C10_17 
REMARK       I    between atoms: C17_24  and  N3_26 
REMARK   11  A    between atoms: N3_26  and  S1_28 
REMARK   12  A    between atoms: S1_28  and  N4_31 
REMARK   13  A    between atoms: N4_31  and  C18_33 
ROOT
HETATM    1  C1  UNL     1     -35.253  54.440   9.529  1.00  0.00     0.112 C 
HETATM    2  C2  UNL     1     -34.925  55.108   8.264  1.00  0.00    -0.111 C 
HETATM    3  C3  UNL     1     -34.638  55.673   7.232  1.00  0.00    -0.107 C 
ENDROOT
BRANCH   3   4
HETATM    4  C4  UNL     1     -34.252  56.362   5.976  1.00  0.00     0.096 C 
BRANCH   4   5
HETATM    5  C5  UNL     1     -34.850  57.724   5.991  1.00  0.00     0.047 C 
BRANCH   5   6
HETATM    6  C6  UNL     1     -36.232  57.840   6.510  1.00  0.00     0.178 C 
BRANCH   6   7
HETATM    7  N1  UNL     1     -37.197  57.111   5.708  1.00  0.00    -0.343 N 
HETATM    8  C7  UNL     1     -38.166  56.275   6.325  1.00  0.00     0.265 C 
HETATM    9  O1  UNL     1     -38.173  56.211   7.590  1.00  0.00    -0.266 OA
ATOM     10  H1  UNL     1     -37.180  57.200   4.692  1.00  0.00     0.163 HD
BRANCH   8  11
HETATM   11  C8  UNL     1     -39.186  55.457   5.637  1.00  0.00     0.085 C 
BRANCH  11  12
HETATM   12  N2  UNL     1     -38.770  54.947   4.360  1.00  0.00    -0.301 N 
HETATM   13  C9  UNL     1     -39.141  55.506   3.098  1.00  0.00     0.365 C 
HETATM   14  O2  UNL     1     -39.871  56.525   3.036  1.00  0.00    -0.238 OA
ATOM     15  H2  UNL     1     -38.165  54.126   4.354  1.00  0.00     0.171 HD
BRANCH  13  16
HETATM   16  O3  UNL     1     -38.712  54.948   1.907  1.00  0.00    -0.294 OA
BRANCH  16  17
HETATM   17  C10 UNL     1     -38.581  53.582   1.641  1.00  0.00     0.061 C 
HETATM   18  C11 UNL     1     -37.322  52.965   2.183  1.00  0.00     0.046 C 
HETATM   19  C12 UNL     1     -38.525  53.472   0.100  1.00  0.00     0.046 C 
HETATM   20  C13 UNL     1     -39.826  52.832   2.084  1.00  0.00     0.046 C 
ENDBRANCH  16  17
ENDBRANCH  13  16
ENDBRANCH  11  12
BRANCH  11  21
HETATM   21  C14 UNL     1     -39.997  54.560   6.488  1.00  0.00     0.033 C 
HETATM   22  C15 UNL     1     -41.238  55.283   6.999  1.00  0.00     0.016 C 
HETATM   23  C16 UNL     1     -40.465  53.313   5.761  1.00  0.00     0.016 C 
ENDBRANCH  11  21
ENDBRANCH   8  11
ENDBRANCH   6   7
BRANCH   6  24
HETATM   24  C17 UNL     1     -36.585  59.308   6.444  1.00  0.00     0.255 C 
HETATM   25  O4  UNL     1     -37.577  59.694   7.085  1.00  0.00    -0.270 OA
HETATM   26  N3  UNL     1     -35.805  60.197   5.685  1.00  0.00    -0.236 N 
ATOM     27  H3  UNL     1     -35.000  59.844   5.167  1.00  0.00     0.183 HD
BRANCH  26  28
HETATM   28  S1  UNL     1     -36.187  61.861   5.618  1.00  0.00     0.322 S 
HETATM   29  O5  UNL     1     -35.983  62.464   7.007  1.00  0.00    -0.182 OA
HETATM   30  O6  UNL     1     -35.221  62.595   4.710  1.00  0.00    -0.182 OA
BRANCH  28  31
HETATM   31  N4  UNL     1     -37.811  62.141   5.185  1.00  0.00    -0.294 N 
ATOM     32  H4  UNL     1     -38.513  62.431   5.865  1.00  0.00     0.174 HD
BRANCH  31  33
HETATM   33  C18 UNL     1     -38.124  61.942   3.806  1.00  0.00     0.031 C 
HETATM   34  C19 UNL     1     -38.167  60.472   3.419  1.00  0.00     0.038 C 
HETATM   35  C20 UNL     1     -37.164  62.626   2.849  1.00  0.00     0.038 C 
HETATM   36  C21 UNL     1     -39.502  62.490   3.526  1.00  0.00     0.038 C 
ENDBRANCH  31  33
ENDBRANCH  28  31
ENDBRANCH  26  28
ENDBRANCH   6  24
ENDBRANCH   5   6
ENDBRANCH   4   5
ENDBRANCH   3   4
TORSDOF 13
ENDMDL
MODEL 2
REMARK VINA RESULT: -6.499403956      3.439      7.035
REMARK  13 active torsions:
REMARK  status: ('A' for Active; 'I' for Inactive)
REMARK    1  A    between atoms: C3_3  and  C4_4 
REMARK    2  A    between atoms: C4_4  and  C5_5 
REMARK    3  A    between atoms: C5_5  and  C6_6 
REMARK    4  A    between atoms: C6_6  and  N1_7 
REMARK    5  A    between atoms: C6_6  and  C17_24 
REMARK       I    between atoms: N1_7  and  C7_9 
REMARK    6  A    between atoms: C7_9  and  C8_11 
REMARK    7  A    between atoms: C8_11  and  N2_12 
REMARK    8  A    between atoms: C8_11  and  C14_21 
REMARK       I    between atoms: N2_12  and  C9_14 
REMARK    9  A    between atoms: C9_14  and  O3_16 
REMARK   10  A    between atoms: O3_16  and  C10_17 
REMARK       I    between atoms: C17_24  and  N3_26 
REMARK   11  A    between atoms: N3_26  and  S1_28 
REMARK   12  A    between atoms: S1_28  and  N4_31 
REMARK   13  A    between atoms: N4_31  and  C18_33 
ROOT
HETATM    1  C1  UNL     1     -36.705  52.789  -0.931  1.00  0.00     0.112 C 
HETATM    2  C2  UNL     1     -37.639  53.206   0.122  1.00  0.00    -0.111 C 
HETATM    3  C3  UNL     1     -38.392  53.550   1.007  1.00  0.00    -0.107 C 
ENDROOT
BRANCH   3   4
HETATM    4  C4  UNL     1     -39.289  53.994   2.102  1.00  0.00     0.096 C 
BRANCH   4   5
HETATM    5  C5  UNL     1     -38.444  54.499   3.217  1.00  0.00     0.047 C 
BRANCH   5   6
HETATM    6  C6  UNL     1     -38.844  55.788   3.826  1.00  0.00     0.178 C 
BRANCH   6   7
HETATM    7  N1  UNL     1     -38.941  56.864   2.856  1.00  0.00    -0.343 N 
HETATM    8  C7  UNL     1     -39.831  57.950   3.065  1.00  0.00     0.265 C 
HETATM    9  O1  UNL     1     -40.512  57.959   4.134  1.00  0.00    -0.266 OA
ATOM     10  H1  UNL     1     -38.363  56.839   2.015  1.00  0.00     0.163 HD
BRANCH   8  11
HETATM   11  C8  UNL     1     -40.052  59.093   2.156  1.00  0.00     0.085 C 
BRANCH  11  12
HETATM   12  N2  UNL     1     -41.375  59.650   2.221  1.00  0.00    -0.301 N 
HETATM   13  C9  UNL     1     -42.445  59.316   1.334  1.00  0.00     0.365 C 
HETATM   14  O2  UNL     1     -42.283  58.470   0.421  1.00  0.00    -0.238 OA
ATOM     15  H2  UNL     1     -41.564  60.334   2.953  1.00  0.00     0.171 HD
BRANCH  13  16
HETATM   16  O3  UNL     1     -43.691  59.907   1.449  1.00  0.00    -0.294 OA
BRANCH  16  17
HETATM   17  C10 UNL     1     -44.818  59.334   2.045  1.00  0.00     0.061 C 
HETATM   18  C11 UNL     1     -45.718  58.603   1.088  1.00  0.00     0.046 C 
HETATM   19  C12 UNL     1     -45.623  60.523   2.618  1.00  0.00     0.046 C 
HETATM   20  C13 UNL     1     -44.416  58.473   3.228  1.00  0.00     0.046 C 
ENDBRANCH  16  17
ENDBRANCH  13  16
ENDBRANCH  11  12
BRANCH  11  21
HETATM   21  C14 UNL     1     -38.929  60.042   2.003  1.00  0.00     0.033 C 
HETATM   22  C15 UNL     1     -39.432  61.393   1.507  1.00  0.00     0.016 C 
HETATM   23  C16 UNL     1     -38.177  60.285   3.299  1.00  0.00     0.016 C 
ENDBRANCH  11  21
ENDBRANCH   8  11
ENDBRANCH   6   7
BRANCH   6  24
HETATM   24  C17 UNL     1     -37.755  56.145   4.811  1.00  0.00     0.255 C 
HETATM   25  O4  UNL     1     -36.601  55.757   4.564  1.00  0.00    -0.270 OA
HETATM   26  N3  UNL     1     -38.050  56.897   5.961  1.00  0.00    -0.236 N 
ATOM     27  H3  UNL     1     -39.009  57.195   6.135  1.00  0.00     0.183 HD
BRANCH  26  28
HETATM   28  S1  UNL     1     -36.822  57.319   7.071  1.00  0.00     0.322 S 
HETATM   29  O5  UNL     1     -35.869  58.303   6.393  1.00  0.00    -0.182 OA
HETATM   30  O6  UNL     1     -37.404  58.067   8.254  1.00  0.00    -0.182 OA
BRANCH  28  31
HETATM   31  N4  UNL     1     -35.891  55.977   7.558  1.00  0.00    -0.294 N 
ATOM     32  H4  UNL     1     -35.115  55.622   7.000  1.00  0.00     0.174 HD
BRANCH  31  33
HETATM   33  C18 UNL     1     -36.271  55.381   8.799  1.00  0.00     0.031 C 
HETATM   34  C19 UNL     1     -37.711  54.892   8.801  1.00  0.00     0.038 C 
HETATM   35  C20 UNL     1     -36.111  56.298   9.999  1.00  0.00     0.038 C 
HETATM   36  C21 UNL     1     -35.414  54.164   9.047  1.00  0.00     0.038 C 
ENDBRANCH  31  33
ENDBRANCH  28  31
ENDBRANCH  26  28
ENDBRANCH   6  24
ENDBRANCH   5   6
ENDBRANCH   4   5
ENDBRANCH   3   4
TORSDOF 13
ENDMDL
MODEL 3
REMARK VINA RESULT: -6.496408041      3.356      7.003
REMARK  13 active torsions:
REMARK  status: ('A' for Active; 'I' for Inactive)
REMARK    1  A    between atoms: C3_3  and  C4_4 
REMARK    2  A    between atoms: C4_4  and  C5_5 
REMARK    3  A    between atoms: C5_5  and  C6_6 
REMARK    4  A    between atoms: C6_6  and  N1_7 
REMARK    5  A    between atoms: C6_6  and  C17_24 
REMARK       I    between atoms: N1_7  and  C7_9 
REMARK    6  A    between atoms: C7_9  and  C8_11 
REMARK    7  A    between atoms: C8_11  and  N2_12 
REMARK    8  A    between atoms: C8_11  and  C14_21 
REMARK       I    between atoms: N2_12  and  C9_14 
REMARK    9  A    between atoms: C9_14  and  O3_16 
REMARK   10  A    between atoms: O3_16  and  C10_17 
REMARK       I    between atoms: C17_24  and  N3_26 
REMARK   11  A    between atoms: N3_26  and  S1_28 
REMARK   12  A    between atoms: S1_28  and  N4_31 
REMARK   13  A    between atoms: N4_31  and  C18_33 
ROOT
HETATM    1  C1  UNL     1     -36.342  52.842  -1.198  1.00  0.00     0.112 C 
HETATM    2  C2  UNL     1     -37.358  53.164  -0.188  1.00  0.00    -0.111 C 
HETATM    3  C3  UNL     1     -38.186  53.451   0.649  1.00  0.00    -0.107 C 
ENDROOT
BRANCH   3   4
HETATM    4  C4  UNL     1     -39.202  53.834   1.659  1.00  0.00     0.096 C 
BRANCH   4   5
HETATM    5  C5  UNL     1     -38.489  54.306   2.877  1.00  0.00     0.047 C 
BRANCH   5   6
HETATM    6  C6  UNL     1     -39.027  55.517   3.538  1.00  0.00     0.178 C 
BRANCH   6   7
HETATM    7  N1  UNL     1     -39.003  56.686   2.677  1.00  0.00    -0.343 N 
HETATM    8  C7  UNL     1     -39.765  57.839   3.000  1.00  0.00     0.265 C 
HETATM    9  O1  UNL     1     -40.440  57.821   4.072  1.00  0.00    -0.266 OA
ATOM     10  H1  UNL     1     -38.432  56.679   1.831  1.00  0.00     0.163 HD
BRANCH   8  11
HETATM   11  C8  UNL     1     -39.857  59.082   2.208  1.00  0.00     0.085 C 
BRANCH  11  12
HETATM   12  N2  UNL     1     -41.147  59.715   2.252  1.00  0.00    -0.301 N 
HETATM   13  C9  UNL     1     -42.190  59.506   1.298  1.00  0.00     0.365 C 
HETATM   14  O2  UNL     1     -42.034  58.712   0.337  1.00  0.00    -0.238 OA
ATOM     15  H2  UNL     1     -41.331  60.361   3.020  1.00  0.00     0.171 HD
BRANCH  13  16
HETATM   16  O3  UNL     1     -43.403  60.164   1.398  1.00  0.00    -0.294 OA
BRANCH  16  17
HETATM   17  C10 UNL     1     -44.552  59.676   2.027  1.00  0.00     0.061 C 
HETATM   18  C11 UNL     1     -44.311  58.492   2.920  1.00  0.00     0.046 C 
HETATM   19  C12 UNL     1     -45.476  59.209   0.879  1.00  0.00     0.046 C 
HETATM   20  C13 UNL     1     -45.284  60.797   2.744  1.00  0.00     0.046 C 
ENDBRANCH  16  17
ENDBRANCH  13  16
ENDBRANCH  11  12
BRANCH  11  21
HETATM   21  C14 UNL     1     -38.673  59.967   2.228  1.00  0.00     0.033 C 
HETATM   22  C15 UNL     1     -38.751  60.993   1.104  1.00  0.00     0.016 C 
HETATM   23  C16 UNL     1     -38.524  60.731   3.531  1.00  0.00     0.016 C 
ENDBRANCH  11  21
ENDBRANCH   8  11
ENDBRANCH   6   7
BRANCH   6  24
HETATM   24  C17 UNL     1     -38.124  55.789   4.719  1.00  0.00     0.255 C 
HETATM   25  O4  UNL     1     -36.897  55.702   4.542  1.00  0.00    -0.270 OA
HETATM   26  N3  UNL     1     -38.666  56.134   5.969  1.00  0.00    -0.236 N 
ATOM     27  H3  UNL     1     -39.679  56.191   6.079  1.00  0.00     0.183 HD
BRANCH  26  28
HETATM   28  S1  UNL     1     -37.653  56.459   7.305  1.00  0.00     0.322 S 
HETATM   29  O5  UNL     1     -38.334  57.502   8.190  1.00  0.00    -0.182 OA
HETATM   30  O6  UNL     1     -37.501  55.226   8.173  1.00  0.00    -0.182 OA
BRANCH  28  31
HETATM   31  N4  UNL     1     -36.146  57.104   6.840  1.00  0.00    -0.294 N 
ATOM     32  H4  UNL     1     -36.038  57.694   6.016  1.00  0.00     0.174 HD
BRANCH  31  33
HETATM   33  C18 UNL     1     -35.044  56.762   7.681  1.00  0.00     0.031 C 
HETATM   34  C19 UNL     1     -35.063  55.304   8.112  1.00  0.00     0.038 C 
HETATM   35  C20 UNL     1     -34.947  57.599   8.944  1.00  0.00     0.038 C 
HETATM   36  C21 UNL     1     -33.757  56.955   6.915  1.00  0.00     0.038 C 
ENDBRANCH  31  33
ENDBRANCH  28  31
ENDBRANCH  26  28
ENDBRANCH   6  24
ENDBRANCH   5   6
ENDBRANCH   4   5
ENDBRANCH   3   4
TORSDOF 13
ENDMDL
MODEL 4
REMARK VINA RESULT: -6.490256998      3.413      6.414
REMARK  13 active torsions:
REMARK  status: ('A' for Active; 'I' for Inactive)
REMARK    1  A    between atoms: C3_3  and  C4_4 
REMARK    2  A    between atoms: C4_4  and  C5_5 
REMARK    3  A    between atoms: C5_5  and  C6_6 
REMARK    4  A    between atoms: C6_6  and  N1_7 
REMARK    5  A    between atoms: C6_6  and  C17_24 
REMARK       I    between atoms: N1_7  and  C7_9 
REMARK    6  A    between atoms: C7_9  and  C8_11 
REMARK    7  A    between atoms: C8_11  and  N2_12 
REMARK    8  A    between atoms: C8_11  and  C14_21 
REMARK       I    between atoms: N2_12  and  C9_14 
REMARK    9  A    between atoms: C9_14  and  O3_16 
REMARK   10  A    between atoms: O3_16  and  C10_17 
REMARK       I    between atoms: C17_24  and  N3_26 
REMARK   11  A    between atoms: N3_26  and  S1_28 
REMARK   12  A    between atoms: S1_28  and  N4_31 
REMARK   13  A    between atoms: N4_31  and  C18_33 
ROOT
HETATM    1  C1  UNL     1     -36.623  52.803  -1.074  1.00  0.00     0.112 C 
HETATM    2  C2  UNL     1     -37.467  53.174   0.068  1.00  0.00    -0.111 C 
HETATM    3  C3  UNL     1     -38.162  53.503   1.004  1.00  0.00    -0.107 C 
ENDROOT
BRANCH   3   4
HETATM    4  C4  UNL     1     -39.033  53.927   2.129  1.00  0.00     0.096 C 
BRANCH   4   5
HETATM    5  C5  UNL     1     -38.221  54.760   3.055  1.00  0.00     0.047 C 
BRANCH   5   6
HETATM    6  C6  UNL     1     -38.906  55.907   3.695  1.00  0.00     0.178 C 
BRANCH   6   7
HETATM    7  N1  UNL     1     -38.924  57.091   2.856  1.00  0.00    -0.343 N 
HETATM    8  C7  UNL     1     -39.894  58.109   3.061  1.00  0.00     0.265 C 
HETATM    9  O1  UNL     1     -40.717  57.958   4.013  1.00  0.00    -0.266 OA
ATOM     10  H1  UNL     1     -38.235  57.194   2.111  1.00  0.00     0.163 HD
BRANCH   8  11
HETATM   11  C8  UNL     1     -40.049  59.348   2.272  1.00  0.00     0.085 C 
BRANCH  11  12
HETATM   12  N2  UNL     1     -41.400  59.830   2.191  1.00  0.00    -0.301 N 
HETATM   13  C9  UNL     1     -42.349  59.433   1.198  1.00  0.00     0.365 C 
HETATM   14  O2  UNL     1     -42.044  58.594   0.316  1.00  0.00    -0.238 OA
ATOM     15  H2  UNL     1     -41.703  60.505   2.892  1.00  0.00     0.171 HD
BRANCH  13  16
HETATM   16  O3  UNL     1     -43.631  59.954   1.176  1.00  0.00    -0.294 OA
BRANCH  16  17
HETATM   17  C10 UNL     1     -44.729  59.461   1.887  1.00  0.00     0.061 C 
HETATM   18  C11 UNL     1     -45.822  58.898   1.023  1.00  0.00     0.046 C 
HETATM   19  C12 UNL     1     -45.311  60.684   2.632  1.00  0.00     0.046 C 
HETATM   20  C13 UNL     1     -44.275  58.479   2.953  1.00  0.00     0.046 C 
ENDBRANCH  16  17
ENDBRANCH  13  16
ENDBRANCH  11  12
BRANCH  11  21
HETATM   21  C14 UNL     1     -38.980  60.359   2.416  1.00  0.00     0.033 C 
HETATM   22  C15 UNL     1     -38.545  60.878   1.050  1.00  0.00     0.016 C 
HETATM   23  C16 UNL     1     -39.406  61.559   3.242  1.00  0.00     0.016 C 
ENDBRANCH  11  21
ENDBRANCH   8  11
ENDBRANCH   6   7
BRANCH   6  24
HETATM   24  C17 UNL     1     -38.112  56.231   4.940  1.00  0.00     0.255 C 
HETATM   25  O4  UNL     1     -38.647  56.012   6.040  1.00  0.00    -0.270 OA
HETATM   26  N3  UNL     1     -36.813  56.756   4.843  1.00  0.00    -0.236 N 
ATOM     27  H3  UNL     1     -36.407  56.928   3.923  1.00  0.00     0.183 HD
BRANCH  26  28
HETATM   28  S1  UNL     1     -35.903  57.109   6.245  1.00  0.00     0.322 S 
HETATM   29  O5  UNL     1     -35.706  55.816   7.036  1.00  0.00    -0.182 OA
HETATM   30  O6  UNL     1     -34.509  57.575   5.875  1.00  0.00    -0.182 OA
BRANCH  28  31
HETATM   31  N4  UNL     1     -36.694  58.211   7.276  1.00  0.00    -0.294 N 
ATOM     32  H4  UNL     1     -36.870  58.005   8.259  1.00  0.00     0.174 HD
BRANCH  31  33
HETATM   33  C18 UNL     1     -37.092  59.442   6.673  1.00  0.00     0.031 C 
HETATM   34  C19 UNL     1     -38.590  59.515   6.419  1.00  0.00     0.038 C 
HETATM   35  C20 UNL     1     -36.402  59.735   5.352  1.00  0.00     0.038 C 
HETATM   36  C21 UNL     1     -36.769  60.581   7.610  1.00  0.00     0.038 C 
ENDBRANCH  31  33
ENDBRANCH  28  31
ENDBRANCH  26  28
ENDBRANCH   6  24
ENDBRANCH   5   6
ENDBRANCH   4   5
ENDBRANCH   3   4
TORSDOF 13
ENDMDL
MODEL 5
REMARK VINA RESULT: -6.441780041      2.651      3.836
REMARK  13 active torsions:
REMARK  status: ('A' for Active; 'I' for Inactive)
REMARK    1  A    between atoms: C3_3  and  C4_4 
REMARK    2  A    between atoms: C4_4  and  C5_5 
REMARK    3  A    between atoms: C5_5  and  C6_6 
REMARK    4  A    between atoms: C6_6  and  N1_7 
REMARK    5  A    between atoms: C6_6  and  C17_24 
REMARK       I    between atoms: N1_7  and  C7_9 
REMARK    6  A    between atoms: C7_9  and  C8_11 
REMARK    7  A    between atoms: C8_11  and  N2_12 
REMARK    8  A    between atoms: C8_11  and  C14_21 
REMARK       I    between atoms: N2_12  and  C9_14 
REMARK    9  A    between atoms: C9_14  and  O3_16 
REMARK   10  A    between atoms: O3_16  and  C10_17 
REMARK       I    between atoms: C17_24  and  N3_26 
REMARK   11  A    between atoms: N3_26  and  S1_28 
REMARK   12  A    between atoms: S1_28  and  N4_31 
REMARK   13  A    between atoms: N4_31  and  C18_33 
ROOT
HETATM    1  C1  UNL     1     -35.567  55.061   9.599  1.00  0.00     0.112 C 
HETATM    2  C2  UNL     1     -35.292  55.493   8.223  1.00  0.00    -0.111 C 
HETATM    3  C3  UNL     1     -35.068  55.827   7.080  1.00  0.00    -0.107 C 
ENDROOT
BRANCH   3   4
HETATM    4  C4  UNL     1     -34.820  56.217   5.671  1.00  0.00     0.096 C 
BRANCH   4   5
HETATM    5  C5  UNL     1     -35.705  57.368   5.346  1.00  0.00     0.047 C 
BRANCH   5   6
HETATM    6  C6  UNL     1     -37.063  57.047   4.851  1.00  0.00     0.178 C 
BRANCH   6   7
HETATM    7  N1  UNL     1     -37.069  55.961   3.887  1.00  0.00    -0.343 N 
HETATM    8  C7  UNL     1     -38.237  55.179   3.684  1.00  0.00     0.265 C 
HETATM    9  O1  UNL     1     -39.272  55.478   4.351  1.00  0.00    -0.266 OA
ATOM     10  H1  UNL     1     -36.226  55.759   3.349  1.00  0.00     0.163 HD
BRANCH   8  11
HETATM   11  C8  UNL     1     -38.379  54.034   2.762  1.00  0.00     0.085 C 
BRANCH  11  12
HETATM   12  N2  UNL     1     -37.171  53.279   2.570  1.00  0.00    -0.301 N 
HETATM   13  C9  UNL     1     -36.677  52.841   1.303  1.00  0.00     0.365 C 
HETATM   14  O2  UNL     1     -37.291  53.117   0.243  1.00  0.00    -0.238 OA
ATOM     15  H2  UNL     1     -36.627  53.039   3.399  1.00  0.00     0.171 HD
BRANCH  13  16
HETATM   16  O3  UNL     1     -35.511  52.103   1.198  1.00  0.00    -0.294 OA
BRANCH  16  17
HETATM   17  C10 UNL     1     -34.394  52.440   0.429  1.00  0.00     0.061 C 
HETATM   18  C11 UNL     1     -34.672  53.436  -0.662  1.00  0.00     0.046 C 
HETATM   19  C12 UNL     1     -33.956  51.122  -0.249  1.00  0.00     0.046 C 
HETATM   20  C13 UNL     1     -33.243  52.871   1.321  1.00  0.00     0.046 C 
ENDBRANCH  16  17
ENDBRANCH  13  16
ENDBRANCH  11  12
BRANCH  11  21
HETATM   21  C14 UNL     1     -39.643  53.271   2.847  1.00  0.00     0.033 C 
HETATM   22  C15 UNL     1     -40.022  52.709   1.482  1.00  0.00     0.016 C 
HETATM   23  C16 UNL     1     -39.568  52.103   3.814  1.00  0.00     0.016 C 
ENDBRANCH  11  21
ENDBRANCH   8  11
ENDBRANCH   6   7
BRANCH   6  24
HETATM   24  C17 UNL     1     -37.564  58.291   4.155  1.00  0.00     0.255 C 
HETATM   25  O4  UNL     1     -36.983  59.363   4.397  1.00  0.00    -0.270 OA
HETATM   26  N3  UNL     1     -38.648  58.224   3.264  1.00  0.00    -0.236 N 
ATOM     27  H3  UNL     1     -39.105  57.328   3.094  1.00  0.00     0.183 HD
BRANCH  26  28
HETATM   28  S1  UNL     1     -39.210  59.623   2.461  1.00  0.00     0.322 S 
HETATM   29  O5  UNL     1     -38.129  60.095   1.489  1.00  0.00    -0.182 OA
HETATM   30  O6  UNL     1     -40.415  59.298   1.600  1.00  0.00    -0.182 OA
BRANCH  28  31
HETATM   31  N4  UNL     1     -39.518  60.912   3.532  1.00  0.00    -0.294 N 
ATOM     32  H4  UNL     1     -38.854  61.188   4.255  1.00  0.00     0.174 HD
BRANCH  31  33
HETATM   33  C18 UNL     1     -40.767  61.580   3.349  1.00  0.00     0.031 C 
HETATM   34  C19 UNL     1     -41.957  60.725   3.754  1.00  0.00     0.038 C 
HETATM   35  C20 UNL     1     -41.017  62.045   1.925  1.00  0.00     0.038 C 
HETATM   36  C21 UNL     1     -40.809  62.803   4.233  1.00  0.00     0.038 C 
ENDBRANCH  31  33
ENDBRANCH  28  31
ENDBRANCH  26  28
ENDBRANCH   6  24
ENDBRANCH   5   6
ENDBRANCH   4   5
ENDBRANCH   3   4
TORSDOF 13
ENDMDL
