MODEL 1
REMARK VINA RESULT: -5.678075520      0.000      0.000
REMARK  1 active torsions:
REMARK  status: ('A' for Active; 'I' for Inactive)
REMARK    1  A    between atoms: C2_2  and  N1_3 
ROOT
HETATM    1  N1  UNL     1      16.411   0.545  13.151  1.00  0.00    -0.370 N 
HETATM    2  C3  UNL     1      16.688   1.850  12.721  1.00  0.00     0.096 C 
HETATM    3  C4  UNL     1      15.979   2.929  13.500  1.00  0.00     0.225 C 
HETATM    4  C5  UNL     1      16.711   3.412  14.702  1.00  0.00     0.041 C 
HETATM    5  C6  UNL     1      16.380   2.419  15.789  1.00  0.00     0.042 C 
HETATM    6  C7  UNL     1      15.382   1.521  15.141  1.00  0.00     0.139 C 
HETATM    7  C8  UNL     1      14.295   1.032  16.066  1.00  0.00     0.048 C 
HETATM    8  C9  UNL     1      16.113   0.349  14.520  1.00  0.00     0.165 C 
HETATM    9  N2  UNL     1      14.785   2.331  14.073  1.00  0.00    -0.056 N 
ATOM     10  H21 UNL     1      14.185   1.828  13.418  1.00  0.00     0.279 HD
ATOM     11  H22 UNL     1      14.059   2.986  14.366  1.00  0.00     0.279 HD
ENDROOT
BRANCH   1  12
HETATM   12  C2  UNL     1      16.705  -0.554  12.341  1.00  0.00     0.059 C 
HETATM   13  C1  UNL     1      16.350  -0.238  10.896  1.00  0.00     0.055 C 
ENDBRANCH   1  12
TORSDOF 1
ENDMDL
MODEL 2
REMARK VINA RESULT: -5.417986489      1.292      2.440
REMARK  1 active torsions:
REMARK  status: ('A' for Active; 'I' for Inactive)
REMARK    1  A    between atoms: C2_2  and  N1_3 
ROOT
HETATM    1  N1  UNL     1      16.183   1.148  13.457  1.00  0.00    -0.370 N 
HETATM    2  C3  UNL     1      16.310   0.311  14.575  1.00  0.00     0.096 C 
HETATM    3  C4  UNL     1      16.587   1.035  15.869  1.00  0.00     0.225 C 
HETATM    4  C5  UNL     1      15.372   1.466  16.612  1.00  0.00     0.041 C 
HETATM    5  C6  UNL     1      14.966   2.774  15.977  1.00  0.00     0.042 C 
HETATM    6  C7  UNL     1      16.064   3.037  15.003  1.00  0.00     0.139 C 
HETATM    7  C8  UNL     1      16.427   4.494  14.856  1.00  0.00     0.048 C 
HETATM    8  C9  UNL     1      15.675   2.453  13.662  1.00  0.00     0.165 C 
HETATM    9  N2  UNL     1      17.218   2.298  15.528  1.00  0.00    -0.056 N 
ATOM     10  H21 UNL     1      18.025   2.235  14.906  1.00  0.00     0.279 HD
ATOM     11  H22 UNL     1      17.730   2.755  16.284  1.00  0.00     0.279 HD
ENDROOT
BRANCH   1  12
HETATM   12  C2  UNL     1      16.268   0.633  12.162  1.00  0.00     0.059 C 
HETATM   13  C1  UNL     1      16.827  -0.783  12.207  1.00  0.00     0.055 C 
ENDBRANCH   1  12
TORSDOF 1
ENDMDL
MODEL 3
REMARK VINA RESULT: -5.313161371      1.630      3.573
REMARK  1 active torsions:
REMARK  status: ('A' for Active; 'I' for Inactive)
REMARK    1  A    between atoms: C2_2  and  N1_3 
ROOT
HETATM    1  N1  UNL     1      15.497   3.568  14.211  1.00  0.00    -0.370 N 
HETATM    2  C3  UNL     1      14.716   3.522  15.375  1.00  0.00     0.096 C 
HETATM    3  C4  UNL     1      14.476   2.133  15.912  1.00  0.00     0.225 C 
HETATM    4  C5  UNL     1      15.513   1.646  16.860  1.00  0.00     0.041 C 
HETATM    5  C6  UNL     1      16.622   1.108  15.988  1.00  0.00     0.042 C 
HETATM    6  C7  UNL     1      16.061   1.224  14.612  1.00  0.00     0.139 C 
HETATM    7  C8  UNL     1      16.457   0.102  13.684  1.00  0.00     0.048 C 
HETATM    8  C9  UNL     1      16.473   2.559  14.030  1.00  0.00     0.165 C 
HETATM    9  N2  UNL     1      14.605   1.212  14.796  1.00  0.00    -0.056 N 
ATOM     10  H21 UNL     1      14.052   1.439  13.969  1.00  0.00     0.279 HD
ATOM     11  H22 UNL     1      14.183   0.293  14.930  1.00  0.00     0.279 HD
ENDROOT
BRANCH   1  12
HETATM   12  C2  UNL     1      15.525   4.712  13.411  1.00  0.00     0.059 C 
HETATM   13  C1  UNL     1      14.350   5.614  13.763  1.00  0.00     0.055 C 
ENDBRANCH   1  12
TORSDOF 1
ENDMDL
MODEL 4
REMARK VINA RESULT: -5.269796971      2.107      3.690
REMARK  1 active torsions:
REMARK  status: ('A' for Active; 'I' for Inactive)
REMARK    1  A    between atoms: C2_2  and  N1_3 
ROOT
HETATM    1  N1  UNL     1      14.794   2.195  15.383  1.00  0.00    -0.370 N 
HETATM    2  C3  UNL     1      16.031   1.801  14.854  1.00  0.00     0.096 C 
HETATM    3  C4  UNL     1      16.604   2.749  13.830  1.00  0.00     0.225 C 
HETATM    4  C5  UNL     1      17.447   3.837  14.394  1.00  0.00     0.041 C 
HETATM    5  C6  UNL     1      16.473   4.905  14.828  1.00  0.00     0.042 C 
HETATM    6  C7  UNL     1      15.159   4.382  14.357  1.00  0.00     0.139 C 
HETATM    7  C8  UNL     1      14.207   5.446  13.867  1.00  0.00     0.048 C 
HETATM    8  C9  UNL     1      14.525   3.581  15.473  1.00  0.00     0.165 C 
HETATM    9  N2  UNL     1      15.489   3.478  13.248  1.00  0.00    -0.056 N 
ATOM     10  H21 UNL     1      14.720   2.905  12.900  1.00  0.00     0.279 HD
ATOM     11  H22 UNL     1      15.674   3.926  12.351  1.00  0.00     0.279 HD
ENDROOT
BRANCH   1  12
HETATM   12  C2  UNL     1      13.983   1.285  16.066  1.00  0.00     0.059 C 
HETATM   13  C1  UNL     1      14.205   1.423  17.565  1.00  0.00     0.055 C 
ENDBRANCH   1  12
TORSDOF 1
ENDMDL
MODEL 5
REMARK VINA RESULT: -5.220717512      1.796      4.039
REMARK  1 active torsions:
REMARK  status: ('A' for Active; 'I' for Inactive)
REMARK    1  A    between atoms: C2_2  and  N1_3 
ROOT
HETATM    1  N1  UNL     1      14.787   3.764  15.541  1.00  0.00    -0.370 N 
HETATM    2  C3  UNL     1      14.069   3.214  16.612  1.00  0.00     0.096 C 
HETATM    3  C4  UNL     1      13.976   1.709  16.596  1.00  0.00     0.225 C 
HETATM    4  C5  UNL     1      15.095   1.011  17.284  1.00  0.00     0.041 C 
HETATM    5  C6  UNL     1      16.205   0.945  16.262  1.00  0.00     0.042 C 
HETATM    6  C7  UNL     1      15.573   1.506  15.034  1.00  0.00     0.139 C 
HETATM    7  C8  UNL     1      16.022   0.851  13.751  1.00  0.00     0.048 C 
HETATM    8  C9  UNL     1      15.838   2.995  14.986  1.00  0.00     0.165 C 
HETATM    9  N2  UNL     1      14.133   1.283  15.216  1.00  0.00    -0.056 N 
ATOM     10  H21 UNL     1      13.525   1.744  14.539  1.00  0.00     0.279 HD
ATOM     11  H22 UNL     1      13.800   0.343  15.002  1.00  0.00     0.279 HD
ENDROOT
BRANCH   1  12
HETATM   12  C2  UNL     1      14.677   5.119  15.224  1.00  0.00     0.059 C 
HETATM   13  C1  UNL     1      14.786   5.305  13.717  1.00  0.00     0.055 C 
ENDBRANCH   1  12
TORSDOF 1
ENDMDL
