MODEL 1
REMARK VINA RESULT: -4.972488708      0.000      0.000
REMARK  2 active torsions:
REMARK  status: ('A' for Active; 'I' for Inactive)
REMARK    1  A    between atoms: C2_2  and  O1_3 
REMARK    2  A    between atoms: N1_8  and  C6_9 
ROOT
HETATM    1  C1  UNL     1      14.916   0.344  17.627  1.00  0.00     0.047 C 
HETATM    2  C2  UNL     1      14.789   1.294  16.473  1.00  0.00     0.070 C 
HETATM    3  C3  UNL     1      14.056   2.525  16.887  1.00  0.00     0.041 C 
HETATM    4  C4  UNL     1      14.179   3.679  15.963  1.00  0.00     0.023 C 
HETATM    5  C5  UNL     1      15.030   3.358  14.726  1.00  0.00     0.123 C 
HETATM    6  N1  UNL     1      16.252   2.818  15.248  1.00  0.00    -0.378 N 
HETATM    7  C7  UNL     1      16.197   1.586  15.979  1.00  0.00     0.160 C 
ENDROOT
BRANCH   2   8
HETATM    8  O1  UNL     1      14.026   0.649  15.487  1.00  0.00    -0.389 OA
ATOM      9  H1  UNL     1      14.482   0.762  14.661  1.00  0.00     0.210 HD
ENDBRANCH   2   8
BRANCH   6  10
HETATM   10  C6  UNL     1      17.462   3.496  15.035  1.00  0.00     0.168 C 
HETATM   11  S1  UNL     1      17.471   4.858  14.140  1.00  0.00    -0.074 SA
ENDBRANCH   6  10
TORSDOF 2
ENDMDL
MODEL 2
REMARK VINA RESULT: -4.777766378      1.500      2.139
REMARK  2 active torsions:
REMARK  status: ('A' for Active; 'I' for Inactive)
REMARK    1  A    between atoms: C2_2  and  O1_3 
REMARK    2  A    between atoms: N1_8  and  C6_9 
ROOT
HETATM    1  C1  UNL     1      16.173   0.212  14.899  1.00  0.00     0.047 C 
HETATM    2  C2  UNL     1      15.154   1.096  15.556  1.00  0.00     0.070 C 
HETATM    3  C3  UNL     1      15.456   1.251  17.008  1.00  0.00     0.041 C 
HETATM    4  C4  UNL     1      14.756   2.370  17.686  1.00  0.00     0.023 C 
HETATM    5  C5  UNL     1      13.818   3.139  16.744  1.00  0.00     0.123 C 
HETATM    6  N1  UNL     1      14.631   3.480  15.612  1.00  0.00    -0.378 N 
HETATM    7  C7  UNL     1      15.162   2.419  14.808  1.00  0.00     0.160 C 
ENDROOT
BRANCH   2   8
HETATM    8  O1  UNL     1      13.912   0.452  15.441  1.00  0.00    -0.389 OA
ATOM      9  H1  UNL     1      13.529   0.424  16.310  1.00  0.00     0.210 HD
ENDBRANCH   2   8
BRANCH   6  10
HETATM   10  C6  UNL     1      14.887   4.828  15.316  1.00  0.00     0.168 C 
HETATM   11  S1  UNL     1      14.967   5.305  13.759  1.00  0.00    -0.074 SA
ENDBRANCH   6  10
TORSDOF 2
ENDMDL
MODEL 3
REMARK VINA RESULT: -4.707058025      4.438      5.779
REMARK  2 active torsions:
REMARK  status: ('A' for Active; 'I' for Inactive)
REMARK    1  A    between atoms: C2_2  and  O1_3 
REMARK    2  A    between atoms: N1_8  and  C6_9 
ROOT
HETATM    1  C1  UNL     1      18.328   3.069  11.089  1.00  0.00     0.047 C 
HETATM    2  C2  UNL     1      17.576   1.773  11.154  1.00  0.00     0.070 C 
HETATM    3  C3  UNL     1      18.488   0.625  10.878  1.00  0.00     0.041 C 
HETATM    4  C4  UNL     1      17.964  -0.708  11.264  1.00  0.00     0.023 C 
HETATM    5  C5  UNL     1      16.548  -0.640  11.855  1.00  0.00     0.123 C 
HETATM    6  N1  UNL     1      16.628   0.346  12.894  1.00  0.00    -0.378 N 
HETATM    7  C7  UNL     1      16.935   1.698  12.530  1.00  0.00     0.160 C 
ENDROOT
BRANCH   2   8
HETATM    8  O1  UNL     1      16.605   1.807  10.140  1.00  0.00    -0.389 OA
ATOM      9  H1  UNL     1      16.255   0.927  10.059  1.00  0.00     0.210 HD
ENDBRANCH   2   8
BRANCH   6  10
HETATM   10  C6  UNL     1      16.408  -0.026  14.229  1.00  0.00     0.168 C 
HETATM   11  S1  UNL     1      15.659   1.013  15.237  1.00  0.00    -0.074 SA
ENDBRANCH   6  10
TORSDOF 2
ENDMDL
MODEL 4
REMARK VINA RESULT: -4.699220640      1.396      1.396
REMARK  2 active torsions:
REMARK  status: ('A' for Active; 'I' for Inactive)
REMARK    1  A    between atoms: C2_2  and  O1_3 
REMARK    2  A    between atoms: N1_8  and  C6_9 
ROOT
HETATM    1  C1  UNL     1      14.969   0.249  17.365  1.00  0.00     0.047 C 
HETATM    2  C2  UNL     1      14.593   1.193  16.262  1.00  0.00     0.070 C 
HETATM    3  C3  UNL     1      14.417   2.575  16.794  1.00  0.00     0.041 C 
HETATM    4  C4  UNL     1      14.405   3.652  15.774  1.00  0.00     0.023 C 
HETATM    5  C5  UNL     1      14.550   3.113  14.343  1.00  0.00     0.123 C 
HETATM    6  N1  UNL     1      15.713   2.274  14.380  1.00  0.00    -0.378 N 
HETATM    7  C7  UNL     1      15.684   1.104  15.207  1.00  0.00     0.160 C 
ENDROOT
BRANCH   2   8
HETATM    8  O1  UNL     1      13.357   0.765  15.754  1.00  0.00    -0.389 OA
ATOM      9  H1  UNL     1      13.380   0.895  14.813  1.00  0.00     0.210 HD
ENDBRANCH   2   8
BRANCH   6  10
HETATM   10  C6  UNL     1      16.841   2.610  13.616  1.00  0.00     0.168 C 
HETATM   11  S1  UNL     1      17.004   1.995  12.115  1.00  0.00    -0.074 SA
ENDBRANCH   6  10
TORSDOF 2
ENDMDL
MODEL 5
REMARK VINA RESULT: -4.627519724      3.558      4.208
REMARK  2 active torsions:
REMARK  status: ('A' for Active; 'I' for Inactive)
REMARK    1  A    between atoms: C2_2  and  O1_3 
REMARK    2  A    between atoms: N1_8  and  C6_9 
ROOT
HETATM    1  C1  UNL     1      16.199   2.334  15.580  1.00  0.00     0.047 C 
HETATM    2  C2  UNL     1      15.909   2.071  14.132  1.00  0.00     0.070 C 
HETATM    3  C3  UNL     1      16.763   2.932  13.263  1.00  0.00     0.041 C 
HETATM    4  C4  UNL     1      16.840   2.519  11.840  1.00  0.00     0.023 C 
HETATM    5  C5  UNL     1      15.984   1.281  11.536  1.00  0.00     0.123 C 
HETATM    6  N1  UNL     1      16.383   0.307  12.511  1.00  0.00    -0.378 N 
HETATM    7  C7  UNL     1      16.136   0.587  13.895  1.00  0.00     0.160 C 
ENDROOT
BRANCH   2   8
HETATM    8  O1  UNL     1      14.570   2.424  13.906  1.00  0.00    -0.389 OA
ATOM      9  H1  UNL     1      14.388   2.262  12.988  1.00  0.00     0.210 HD
ENDBRANCH   2   8
BRANCH   6  10
HETATM   10  C6  UNL     1      16.998  -0.885  12.097  1.00  0.00     0.168 C 
HETATM   11  S1  UNL     1      17.826  -0.913  10.693  1.00  0.00    -0.074 SA
ENDBRANCH   6  10
TORSDOF 2
ENDMDL
