MODEL 1
REMARK VINA RESULT: -5.424101433      0.000      0.000
REMARK  1 active torsions:
REMARK  status: ('A' for Active; 'I' for Inactive)
REMARK    1  A    between atoms: C3_3  and  N1_4 
ROOT
HETATM    1  C1  UNL     1      14.461   1.982  18.704  1.00  0.00     0.013 C 
HETATM    2  C2  UNL     1      14.132   1.646  17.595  1.00  0.00    -0.087 C 
HETATM    3  C3  UNL     1      13.711   1.232  16.262  1.00  0.00     0.365 C 
ENDROOT
BRANCH   3   4
HETATM    4  N1  UNL     1      14.507   1.942  15.279  1.00  0.00     0.103 N 
HETATM    5  C4  UNL     1      14.568   3.321  15.655  1.00  0.00     0.274 C 
HETATM    6  C5  UNL     1      14.752   4.244  14.473  1.00  0.00     0.032 C 
HETATM    7  C6  UNL     1      16.149   4.809  14.417  1.00  0.00     0.021 C 
HETATM    8  C7  UNL     1      17.212   3.715  14.557  1.00  0.00     0.119 C 
HETATM    9  N2  UNL     1      17.030   2.793  13.531  1.00  0.00    -0.400 N 
HETATM   10  C8  UNL     1      16.351   1.601  13.708  1.00  0.00     0.085 C 
ATOM     11  H2  UNL     1      17.414   3.005  12.610  1.00  0.00     0.158 HD
HETATM   12  C9  UNL     1      15.796   1.323  15.064  1.00  0.00     0.317 C 
ENDBRANCH   3   4
TORSDOF 1
ENDMDL
MODEL 2
REMARK VINA RESULT: -5.387185237      1.242      2.701
REMARK  1 active torsions:
REMARK  status: ('A' for Active; 'I' for Inactive)
REMARK    1  A    between atoms: C3_3  and  N1_4 
ROOT
HETATM    1  C1  UNL     1      14.444   1.934  18.267  1.00  0.00     0.013 C 
HETATM    2  C2  UNL     1      14.449   2.452  17.180  1.00  0.00    -0.087 C 
HETATM    3  C3  UNL     1      14.443   3.099  15.873  1.00  0.00     0.365 C 
ENDROOT
BRANCH   3   4
HETATM    4  N1  UNL     1      15.496   2.520  15.060  1.00  0.00     0.103 N 
HETATM    5  C4  UNL     1      15.212   1.130  14.874  1.00  0.00     0.274 C 
HETATM    6  C5  UNL     1      16.456   0.300  14.661  1.00  0.00     0.032 C 
HETATM    7  C6  UNL     1      16.594  -0.142  13.227  1.00  0.00     0.021 C 
HETATM    8  C7  UNL     1      16.419   1.025  12.250  1.00  0.00     0.119 C 
HETATM    9  N2  UNL     1      17.376   1.991  12.544  1.00  0.00    -0.400 N 
HETATM   10  C8  UNL     1      17.100   3.109  13.310  1.00  0.00     0.085 C 
ATOM     11  H2  UNL     1      18.321   1.869  12.179  1.00  0.00     0.158 HD
HETATM   12  C9  UNL     1      15.711   3.255  13.834  1.00  0.00     0.317 C 
ENDBRANCH   3   4
TORSDOF 1
ENDMDL
MODEL 3
REMARK VINA RESULT: -5.293145780      2.050      4.622
REMARK  1 active torsions:
REMARK  status: ('A' for Active; 'I' for Inactive)
REMARK    1  A    between atoms: C3_3  and  N1_4 
ROOT
HETATM    1  C1  UNL     1      18.979   0.143  10.925  1.00  0.00     0.013 C 
HETATM    2  C2  UNL     1      18.072   0.856  11.268  1.00  0.00    -0.087 C 
HETATM    3  C3  UNL     1      16.964   1.718  11.661  1.00  0.00     0.365 C 
ENDROOT
BRANCH   3   4
HETATM    4  N1  UNL     1      16.772   1.611  13.094  1.00  0.00     0.103 N 
HETATM    5  C4  UNL     1      15.971   2.714  13.528  1.00  0.00     0.274 C 
HETATM    6  C5  UNL     1      16.238   3.105  14.962  1.00  0.00     0.032 C 
HETATM    7  C6  UNL     1      15.110   2.692  15.873  1.00  0.00     0.021 C 
HETATM    8  C7  UNL     1      14.715   1.228  15.664  1.00  0.00     0.119 C 
HETATM    9  N2  UNL     1      15.833   0.433  15.901  1.00  0.00    -0.400 N 
HETATM   10  C8  UNL     1      16.635  -0.052  14.883  1.00  0.00     0.085 C 
ATOM     11  H2  UNL     1      16.070   0.199  16.865  1.00  0.00     0.158 HD
HETATM   12  C9  UNL     1      16.265   0.314  13.486  1.00  0.00     0.317 C 
ENDBRANCH   3   4
TORSDOF 1
ENDMDL
MODEL 4
REMARK VINA RESULT: -5.189891688      2.120      4.490
REMARK  1 active torsions:
REMARK  status: ('A' for Active; 'I' for Inactive)
REMARK    1  A    between atoms: C3_3  and  N1_4 
ROOT
HETATM    1  C1  UNL     1      18.930   0.127  10.802  1.00  0.00     0.013 C 
HETATM    2  C2  UNL     1      17.959  -0.084  11.482  1.00  0.00    -0.087 C 
HETATM    3  C3  UNL     1      16.784  -0.364  12.299  1.00  0.00     0.365 C 
ENDROOT
BRANCH   3   4
HETATM    4  N1  UNL     1      16.668   0.661  13.318  1.00  0.00     0.103 N 
HETATM    5  C4  UNL     1      15.825   1.703  12.817  1.00  0.00     0.274 C 
HETATM    6  C5  UNL     1      16.137   3.052  13.422  1.00  0.00     0.032 C 
HETATM    7  C6  UNL     1      15.080   3.481  14.407  1.00  0.00     0.021 C 
HETATM    8  C7  UNL     1      14.762   2.375  15.419  1.00  0.00     0.119 C 
HETATM    9  N2  UNL     1      15.934   2.045  16.092  1.00  0.00    -0.400 N 
HETATM   10  C8  UNL     1      16.714   0.955  15.746  1.00  0.00     0.085 C 
ATOM     11  H2  UNL     1      16.231   2.630  16.873  1.00  0.00     0.158 HD
HETATM   12  C9  UNL     1      16.257   0.123  14.596  1.00  0.00     0.317 C 
ENDBRANCH   3   4
TORSDOF 1
ENDMDL
MODEL 5
REMARK VINA RESULT: -5.176053186      1.183      2.453
REMARK  1 active torsions:
REMARK  status: ('A' for Active; 'I' for Inactive)
REMARK    1  A    between atoms: C3_3  and  N1_4 
ROOT
HETATM    1  C1  UNL     1      13.738   1.201  17.418  1.00  0.00     0.013 C 
HETATM    2  C2  UNL     1      14.050   2.171  16.776  1.00  0.00    -0.087 C 
HETATM    3  C3  UNL     1      14.417   3.360  16.015  1.00  0.00     0.365 C 
ENDROOT
BRANCH   3   4
HETATM    4  N1  UNL     1      15.585   3.058  15.210  1.00  0.00     0.103 N 
HETATM    5  C4  UNL     1      15.200   2.144  14.179  1.00  0.00     0.274 C 
HETATM    6  C5  UNL     1      16.339   1.262  13.722  1.00  0.00     0.032 C 
HETATM    7  C6  UNL     1      16.845   1.663  12.360  1.00  0.00     0.021 C 
HETATM    8  C7  UNL     1      17.116   3.167  12.273  1.00  0.00     0.119 C 
HETATM    9  N2  UNL     1      18.053   3.502  13.246  1.00  0.00    -0.400 N 
HETATM   10  C8  UNL     1      17.700   4.039  14.471  1.00  0.00     0.085 C 
ATOM     11  H2  UNL     1      19.042   3.344  13.047  1.00  0.00     0.158 HD
HETATM   12  C9  UNL     1      16.248   4.251  14.733  1.00  0.00     0.317 C 
ENDBRANCH   3   4
TORSDOF 1
ENDMDL
