MODEL 1
REMARK VINA RESULT: -4.879400797      0.000      0.000
REMARK  2 active torsions:
REMARK  status: ('A' for Active; 'I' for Inactive)
REMARK       I    between atoms: C2_2  and  N1_4 
REMARK    1  A    between atoms: N1_4  and  O2_6 
REMARK    2  A    between atoms: O2_6  and  C3_7 
ROOT
HETATM    1  C1  UNL     1      14.673   0.816  17.378  1.00  0.00     0.119 C 
HETATM    2  C2  UNL     1      15.788   0.972  16.359  1.00  0.00     0.237 C 
HETATM    3  O1  UNL     1      16.814   0.288  16.619  1.00  0.00    -0.272 OA
HETATM    4  N1  UNL     1      15.572   1.820  15.276  1.00  0.00    -0.234 N 
ATOM      5  H1  UNL     1      14.644   2.240  15.324  1.00  0.00     0.197 HD
ENDROOT
BRANCH   4   6
HETATM    6  O2  UNL     1      16.202   2.226  14.235  1.00  0.00    -0.268 OA
BRANCH   6   7
HETATM    7  C3  UNL     1      16.381   3.459  13.789  1.00  0.00     0.078 C 
HETATM    8  C4  UNL     1      17.400   4.302  14.540  1.00  0.00     0.048 C 
HETATM    9  C5  UNL     1      16.552   3.568  12.316  1.00  0.00     0.048 C 
HETATM   10  C6  UNL     1      15.045   4.281  14.062  1.00  0.00     0.048 C 
ENDBRANCH   6   7
ENDBRANCH   4   6
TORSDOF 2
ENDMDL
MODEL 2
REMARK VINA RESULT: -4.865218239      0.213      1.403
REMARK  2 active torsions:
REMARK  status: ('A' for Active; 'I' for Inactive)
REMARK       I    between atoms: C2_2  and  N1_4 
REMARK    1  A    between atoms: N1_4  and  O2_6 
REMARK    2  A    between atoms: O2_6  and  C3_7 
ROOT
HETATM    1  C1  UNL     1      14.585   0.820  17.460  1.00  0.00     0.119 C 
HETATM    2  C2  UNL     1      15.658   1.034  16.407  1.00  0.00     0.237 C 
HETATM    3  O1  UNL     1      16.749   0.459  16.669  1.00  0.00    -0.272 OA
HETATM    4  N1  UNL     1      15.342   1.812  15.297  1.00  0.00    -0.234 N 
ATOM      5  H1  UNL     1      14.380   2.146  15.352  1.00  0.00     0.197 HD
ENDROOT
BRANCH   4   6
HETATM    6  O2  UNL     1      15.909   2.230  14.225  1.00  0.00    -0.268 OA
BRANCH   6   7
HETATM    7  C3  UNL     1      16.051   3.467  13.776  1.00  0.00     0.078 C 
HETATM    8  C4  UNL     1      16.565   3.608  12.352  1.00  0.00     0.048 C 
HETATM    9  C5  UNL     1      14.890   4.359  14.035  1.00  0.00     0.048 C 
HETATM   10  C6  UNL     1      17.229   4.156  14.594  1.00  0.00     0.048 C 
ENDBRANCH   6   7
ENDBRANCH   4   6
TORSDOF 2
ENDMDL
MODEL 3
REMARK VINA RESULT: -4.844988242      0.167      1.409
REMARK  2 active torsions:
REMARK  status: ('A' for Active; 'I' for Inactive)
REMARK       I    between atoms: C2_2  and  N1_4 
REMARK    1  A    between atoms: N1_4  and  O2_6 
REMARK    2  A    between atoms: O2_6  and  C3_7 
ROOT
HETATM    1  C1  UNL     1      14.667   0.696  17.411  1.00  0.00     0.119 C 
HETATM    2  C2  UNL     1      15.752   0.986  16.389  1.00  0.00     0.237 C 
HETATM    3  O1  UNL     1      16.840   0.392  16.621  1.00  0.00    -0.272 OA
HETATM    4  N1  UNL     1      15.448   1.842  15.335  1.00  0.00    -0.234 N 
ATOM      5  H1  UNL     1      14.486   2.172  15.402  1.00  0.00     0.197 HD
ENDROOT
BRANCH   4   6
HETATM    6  O2  UNL     1      16.029   2.337  14.302  1.00  0.00    -0.268 OA
BRANCH   6   7
HETATM    7  C3  UNL     1      16.185   3.603  13.953  1.00  0.00     0.078 C 
HETATM    8  C4  UNL     1      14.945   4.480  14.043  1.00  0.00     0.048 C 
HETATM    9  C5  UNL     1      17.377   4.268  14.543  1.00  0.00     0.048 C 
HETATM   10  C6  UNL     1      16.478   3.651  12.389  1.00  0.00     0.048 C 
ENDBRANCH   6   7
ENDBRANCH   4   6
TORSDOF 2
ENDMDL
MODEL 4
REMARK VINA RESULT: -4.772932534      3.626      4.199
REMARK  2 active torsions:
REMARK  status: ('A' for Active; 'I' for Inactive)
REMARK       I    between atoms: C2_2  and  N1_4 
REMARK    1  A    between atoms: N1_4  and  O2_6 
REMARK    2  A    between atoms: O2_6  and  C3_7 
ROOT
HETATM    1  C1  UNL     1      15.194   1.676  14.993  1.00  0.00     0.119 C 
HETATM    2  C2  UNL     1      15.674   0.323  14.500  1.00  0.00     0.237 C 
HETATM    3  O1  UNL     1      15.856  -0.518  15.421  1.00  0.00    -0.272 OA
HETATM    4  N1  UNL     1      15.855   0.151  13.131  1.00  0.00    -0.234 N 
ATOM      5  H1  UNL     1      15.627   1.006  12.625  1.00  0.00     0.197 HD
ENDROOT
BRANCH   4   6
HETATM    6  O2  UNL     1      16.226  -0.773  12.320  1.00  0.00    -0.268 OA
BRANCH   6   7
HETATM    7  C3  UNL     1      17.097  -0.718  11.326  1.00  0.00     0.078 C 
HETATM    8  C4  UNL     1      17.975   0.524  11.273  1.00  0.00     0.048 C 
HETATM    9  C5  UNL     1      17.886  -1.961  11.121  1.00  0.00     0.048 C 
HETATM   10  C6  UNL     1      16.285  -0.574   9.965  1.00  0.00     0.048 C 
ENDBRANCH   6   7
ENDBRANCH   4   6
TORSDOF 2
ENDMDL
MODEL 5
REMARK VINA RESULT: -4.750512064      3.612      4.363
REMARK  2 active torsions:
REMARK  status: ('A' for Active; 'I' for Inactive)
REMARK       I    between atoms: C2_2  and  N1_4 
REMARK    1  A    between atoms: N1_4  and  O2_6 
REMARK    2  A    between atoms: O2_6  and  C3_7 
ROOT
HETATM    1  C1  UNL     1      15.169   1.683  15.020  1.00  0.00     0.119 C 
HETATM    2  C2  UNL     1      15.666   0.343  14.507  1.00  0.00     0.237 C 
HETATM    3  O1  UNL     1      15.856  -0.510  15.416  1.00  0.00    -0.272 OA
HETATM    4  N1  UNL     1      15.852   0.194  13.136  1.00  0.00    -0.234 N 
ATOM      5  H1  UNL     1      15.615   1.054  12.643  1.00  0.00     0.197 HD
ENDROOT
BRANCH   4   6
HETATM    6  O2  UNL     1      16.235  -0.713  12.312  1.00  0.00    -0.268 OA
BRANCH   6   7
HETATM    7  C3  UNL     1      17.002  -0.603  11.240  1.00  0.00     0.078 C 
HETATM    8  C4  UNL     1      16.286  -0.645   9.898  1.00  0.00     0.048 C 
HETATM    9  C5  UNL     1      18.001   0.497  11.299  1.00  0.00     0.048 C 
HETATM   10  C6  UNL     1      17.906  -1.910  11.143  1.00  0.00     0.048 C 
ENDBRANCH   6   7
ENDBRANCH   4   6
TORSDOF 2
ENDMDL
