MODEL 1
REMARK VINA RESULT: -5.128203678      0.000      0.000
REMARK  2 active torsions:
REMARK  status: ('A' for Active; 'I' for Inactive)
REMARK    1  A    between atoms: C3_3  and  S1_5 
REMARK    2  A    between atoms: S1_5  and  C5_6 
ROOT
HETATM    1  C1  UNL     1      14.814   5.124  14.584  1.00  0.00     0.018 C 
HETATM    2  C2  UNL     1      14.981   3.938  14.506  1.00  0.00    -0.071 C 
HETATM    3  C3  UNL     1      15.166   2.460  14.417  1.00  0.00     0.052 C 
HETATM    4  C4  UNL     1      15.903   2.053  13.447  1.00  0.00     0.041 C 
ENDROOT
BRANCH   3   5
HETATM    5  S1  UNL     1      14.387   1.443  15.604  1.00  0.00    -0.025 SA
BRANCH   5   6
HETATM    6  C5  UNL     1      15.455   0.686  16.741  1.00  0.00     0.298 C 
HETATM    7  N1  UNL     1      15.054  -0.054  17.866  1.00  0.00    -0.051 NA
HETATM    8  O1  UNL     1      16.728   0.795  16.564  1.00  0.00    -0.263 OA
ENDBRANCH   5   6
ENDBRANCH   3   5
TORSDOF 2
ENDMDL
MODEL 2
REMARK VINA RESULT: -5.057321110      0.815      2.194
REMARK  2 active torsions:
REMARK  status: ('A' for Active; 'I' for Inactive)
REMARK    1  A    between atoms: C3_3  and  S1_5 
REMARK    2  A    between atoms: S1_5  and  C5_6 
ROOT
HETATM    1  C1  UNL     1      16.295   0.738  12.322  1.00  0.00     0.018 C 
HETATM    2  C2  UNL     1      15.948   1.467  13.209  1.00  0.00    -0.071 C 
HETATM    3  C3  UNL     1      15.519   2.356  14.329  1.00  0.00     0.052 C 
HETATM    4  C4  UNL     1      15.872   3.586  14.224  1.00  0.00     0.041 C 
ENDROOT
BRANCH   3   5
HETATM    5  S1  UNL     1      14.602   1.665  15.646  1.00  0.00    -0.025 SA
BRANCH   5   6
HETATM    6  C5  UNL     1      15.513   0.672  16.736  1.00  0.00     0.298 C 
HETATM    7  N1  UNL     1      14.971  -0.105  17.774  1.00  0.00    -0.051 NA
HETATM    8  O1  UNL     1      16.795   0.622  16.607  1.00  0.00    -0.263 OA
ENDBRANCH   5   6
ENDBRANCH   3   5
TORSDOF 2
ENDMDL
MODEL 3
REMARK VINA RESULT: -5.027505058      1.268      2.288
REMARK  2 active torsions:
REMARK  status: ('A' for Active; 'I' for Inactive)
REMARK    1  A    between atoms: C3_3  and  S1_5 
REMARK    2  A    between atoms: S1_5  and  C5_6 
ROOT
HETATM    1  C1  UNL     1      16.271   1.357  12.737  1.00  0.00     0.018 C 
HETATM    2  C2  UNL     1      15.636   1.886  13.607  1.00  0.00    -0.071 C 
HETATM    3  C3  UNL     1      14.855   2.526  14.706  1.00  0.00     0.052 C 
HETATM    4  C4  UNL     1      14.750   3.804  14.635  1.00  0.00     0.041 C 
ENDROOT
BRANCH   3   5
HETATM    5  S1  UNL     1      14.174   1.512  15.954  1.00  0.00    -0.025 SA
BRANCH   5   6
HETATM    6  C5  UNL     1      15.323   0.570  16.846  1.00  0.00     0.298 C 
HETATM    7  N1  UNL     1      16.705   0.523  16.599  1.00  0.00    -0.051 NA
HETATM    8  O1  UNL     1      14.902  -0.158  17.825  1.00  0.00    -0.263 OA
ENDBRANCH   5   6
ENDBRANCH   3   5
TORSDOF 2
ENDMDL
MODEL 4
REMARK VINA RESULT: -4.750240112      1.200      1.200
REMARK  2 active torsions:
REMARK  status: ('A' for Active; 'I' for Inactive)
REMARK    1  A    between atoms: C3_3  and  S1_5 
REMARK    2  A    between atoms: S1_5  and  C5_6 
ROOT
HETATM    1  C1  UNL     1      14.382   5.500  14.090  1.00  0.00     0.018 C 
HETATM    2  C2  UNL     1      14.819   4.382  14.104  1.00  0.00    -0.071 C 
HETATM    3  C3  UNL     1      15.341   2.984  14.129  1.00  0.00     0.052 C 
HETATM    4  C4  UNL     1      16.190   2.696  13.211  1.00  0.00     0.041 C 
ENDROOT
BRANCH   3   5
HETATM    5  S1  UNL     1      14.768   1.896  15.370  1.00  0.00    -0.025 SA
BRANCH   5   6
HETATM    6  C5  UNL     1      15.884   0.654  15.834  1.00  0.00     0.298 C 
HETATM    7  N1  UNL     1      15.994  -0.609  15.228  1.00  0.00    -0.051 NA
HETATM    8  O1  UNL     1      16.692   0.880  16.814  1.00  0.00    -0.263 OA
ENDBRANCH   5   6
ENDBRANCH   3   5
TORSDOF 2
ENDMDL
MODEL 5
REMARK VINA RESULT: -4.726987039      1.812      2.807
REMARK  2 active torsions:
REMARK  status: ('A' for Active; 'I' for Inactive)
REMARK    1  A    between atoms: C3_3  and  S1_5 
REMARK    2  A    between atoms: S1_5  and  C5_6 
ROOT
HETATM    1  C1  UNL     1      16.295  -0.060  12.168  1.00  0.00     0.018 C 
HETATM    2  C2  UNL     1      16.131   0.947  12.800  1.00  0.00    -0.071 C 
HETATM    3  C3  UNL     1      15.927   2.187  13.606  1.00  0.00     0.052 C 
HETATM    4  C4  UNL     1      16.520   3.236  13.164  1.00  0.00     0.041 C 
ENDROOT
BRANCH   3   5
HETATM    5  S1  UNL     1      14.930   2.102  15.038  1.00  0.00    -0.025 SA
BRANCH   5   6
HETATM    6  C5  UNL     1      15.369   0.865  16.169  1.00  0.00     0.298 C 
HETATM    7  N1  UNL     1      16.677   0.572  16.589  1.00  0.00    -0.051 NA
HETATM    8  O1  UNL     1      14.437   0.138  16.686  1.00  0.00    -0.263 OA
ENDBRANCH   5   6
ENDBRANCH   3   5
TORSDOF 2
ENDMDL
