MODEL 1
REMARK VINA RESULT: -4.746299127      0.000      0.000
REMARK  0 active torsions:
REMARK  status: ('A' for Active; 'I' for Inactive)
ROOT
HETATM    1  C1  UNL     1      15.471   1.271  14.597  1.00  0.00     0.070 C 
HETATM    2  C2  UNL     1      15.875   1.281  13.171  1.00  0.00     0.318 C 
HETATM    3  N1  UNL     1      17.166   1.886  12.921  1.00  0.00    -0.039 N 
ATOM      4  H11 UNL     1      17.903   1.650  13.585  1.00  0.00     0.281 HD
ATOM      5  H12 UNL     1      17.225   2.890  13.087  1.00  0.00     0.281 HD
HETATM    6  C3  UNL     1      17.391   1.450  11.533  1.00  0.00     0.147 C 
HETATM    7  C4  UNL     1      16.806   2.547  10.642  1.00  0.00     0.049 C 
HETATM    8  C5  UNL     1      18.844   1.353  11.305  1.00  0.00     0.049 C 
HETATM    9  C6  UNL     1      16.606   0.209  11.449  1.00  0.00     0.155 C 
HETATM   10  C7  UNL     1      17.292  -1.006  10.977  1.00  0.00     0.042 C 
HETATM   11  O1  UNL     1      16.122  -0.043  12.754  1.00  0.00    -0.352 OA
ENDROOT
TORSDOF 0
ENDMDL
MODEL 2
REMARK VINA RESULT: -4.463494823      1.969      3.913
REMARK  0 active torsions:
REMARK  status: ('A' for Active; 'I' for Inactive)
ROOT
HETATM    1  C1  UNL     1      16.179  -0.069  12.198  1.00  0.00     0.070 C 
HETATM    2  C2  UNL     1      16.219   0.920  13.302  1.00  0.00     0.318 C 
HETATM    3  N1  UNL     1      15.594   2.187  12.991  1.00  0.00    -0.039 N 
ATOM      4  H11 UNL     1      14.713   2.135  12.480  1.00  0.00     0.281 HD
ATOM      5  H12 UNL     1      16.065   2.753  12.286  1.00  0.00     0.281 HD
HETATM    6  C3  UNL     1      15.518   2.775  14.339  1.00  0.00     0.147 C 
HETATM    7  C4  UNL     1      16.813   3.565  14.533  1.00  0.00     0.049 C 
HETATM    8  C5  UNL     1      14.369   3.697  14.381  1.00  0.00     0.049 C 
HETATM    9  C6  UNL     1      15.471   1.591  15.210  1.00  0.00     0.155 C 
HETATM   10  C7  UNL     1      14.368   1.498  16.182  1.00  0.00     0.042 C 
HETATM   11  O1  UNL     1      15.389   0.470  14.350  1.00  0.00    -0.352 OA
ENDROOT
TORSDOF 0
ENDMDL
MODEL 3
REMARK VINA RESULT: -4.264453437      1.886      2.118
REMARK  0 active torsions:
REMARK  status: ('A' for Active; 'I' for Inactive)
ROOT
HETATM    1  C1  UNL     1      17.393   4.406  14.498  1.00  0.00     0.070 C 
HETATM    2  C2  UNL     1      16.983   3.551  13.359  1.00  0.00     0.318 C 
HETATM    3  N1  UNL     1      18.080   3.077  12.542  1.00  0.00    -0.039 N 
ATOM      4  H11 UNL     1      18.909   2.767  13.049  1.00  0.00     0.281 HD
ATOM      5  H12 UNL     1      18.574   3.790  12.006  1.00  0.00     0.281 HD
HETATM    6  C3  UNL     1      17.388   2.045  11.753  1.00  0.00     0.147 C 
HETATM    7  C4  UNL     1      16.874   2.745  10.494  1.00  0.00     0.049 C 
HETATM    8  C5  UNL     1      18.369   1.012  11.375  1.00  0.00     0.049 C 
HETATM    9  C6  UNL     1      16.284   1.642  12.638  1.00  0.00     0.155 C 
HETATM   10  C7  UNL     1      16.140   0.209  12.944  1.00  0.00     0.042 C 
HETATM   11  O1  UNL     1      16.484   2.330  13.858  1.00  0.00    -0.352 OA
ENDROOT
TORSDOF 0
ENDMDL
MODEL 4
REMARK VINA RESULT: -4.191075718      1.075      1.170
REMARK  0 active torsions:
REMARK  status: ('A' for Active; 'I' for Inactive)
ROOT
HETATM    1  C1  UNL     1      15.381   1.748  14.672  1.00  0.00     0.070 C 
HETATM    2  C2  UNL     1      15.945   1.992  13.323  1.00  0.00     0.318 C 
HETATM    3  N1  UNL     1      17.093   2.872  13.307  1.00  0.00    -0.039 N 
ATOM      4  H11 UNL     1      17.778   2.723  14.048  1.00  0.00     0.281 HD
ATOM      5  H12 UNL     1      16.912   3.844  13.556  1.00  0.00     0.281 HD
HETATM    6  C3  UNL     1      17.576   2.641  11.935  1.00  0.00     0.147 C 
HETATM    7  C4  UNL     1      16.880   3.682  11.058  1.00  0.00     0.049 C 
HETATM    8  C5  UNL     1      19.032   2.869  11.908  1.00  0.00     0.049 C 
HETATM    9  C6  UNL     1      17.096   1.281  11.644  1.00  0.00     0.155 C 
HETATM   10  C7  UNL     1      18.083   0.290  11.183  1.00  0.00     0.042 C 
HETATM   11  O1  UNL     1      16.523   0.798  12.845  1.00  0.00    -0.352 OA
ENDROOT
TORSDOF 0
ENDMDL
MODEL 5
REMARK VINA RESULT: -4.182192131      1.781      3.102
REMARK  0 active torsions:
REMARK  status: ('A' for Active; 'I' for Inactive)
ROOT
HETATM    1  C1  UNL     1      17.411   3.898  10.120  1.00  0.00     0.070 C 
HETATM    2  C2  UNL     1      17.378   2.664  10.941  1.00  0.00     0.318 C 
HETATM    3  N1  UNL     1      16.236   1.812  10.690  1.00  0.00    -0.039 N 
ATOM      4  H11 UNL     1      15.974   1.696   9.711  1.00  0.00     0.281 HD
ATOM      5  H12 UNL     1      15.331   2.187  10.973  1.00  0.00     0.281 HD
HETATM    6  C3  UNL     1      16.669   0.589  11.387  1.00  0.00     0.147 C 
HETATM    7  C4  UNL     1      16.150   0.709  12.820  1.00  0.00     0.049 C 
HETATM    8  C5  UNL     1      16.037  -0.570  10.730  1.00  0.00     0.049 C 
HETATM    9  C6  UNL     1      18.136   0.684  11.332  1.00  0.00     0.155 C 
HETATM   10  C7  UNL     1      18.877  -0.463  10.779  1.00  0.00     0.042 C 
HETATM   11  O1  UNL     1      18.430   1.816  10.537  1.00  0.00    -0.352 OA
ENDROOT
TORSDOF 0
ENDMDL
