MODEL 1
REMARK VINA RESULT: -4.764073901      0.000      0.000
REMARK  1 active torsions:
REMARK  status: ('A' for Active; 'I' for Inactive)
REMARK    1  A    between atoms: C2_2  and  N1_4 
ROOT
HETATM    1  N1  UNL     1      33.654  -1.665  11.989  1.00  0.00     0.098 N 
HETATM    2  C4  UNL     1      33.555  -2.975  12.651  1.00  0.00     0.281 C 
HETATM    3  C5  UNL     1      32.518  -2.377  13.546  1.00  0.00     0.073 C 
HETATM    4  C6  UNL     1      33.139  -1.595  14.679  1.00  0.00     0.240 C 
HETATM    5  N2  UNL     1      32.266  -0.559  15.185  1.00  0.00    -0.075 N 
ATOM      6  H21 UNL     1      32.760   0.306  15.401  1.00  0.00     0.277 HD
ATOM      7  H22 UNL     1      31.921  -0.754  16.125  1.00  0.00     0.277 HD
HETATM    8  C7  UNL     1      31.202  -0.376  14.220  1.00  0.00     0.234 C 
HETATM    9  C8  UNL     1      31.892  -0.124  12.874  1.00  0.00     0.064 C 
HETATM   10  C9  UNL     1      32.266  -1.475  12.335  1.00  0.00     0.232 C 
ENDROOT
BRANCH   1  11
HETATM   11  C2  UNL     1      33.914  -1.898  10.581  1.00  0.00     0.215 C 
HETATM   12  C1  UNL     1      34.300  -3.382  10.496  1.00  0.00     0.042 C 
HETATM   13  C3  UNL     1      35.024  -1.043  10.042  1.00  0.00     0.042 C 
ENDBRANCH   1  11
TORSDOF 1
ENDMDL
MODEL 2
REMARK VINA RESULT: -4.591535581      1.471      4.171
REMARK  1 active torsions:
REMARK  status: ('A' for Active; 'I' for Inactive)
REMARK    1  A    between atoms: C2_2  and  N1_4 
ROOT
HETATM    1  N1  UNL     1      32.671  -0.549  12.987  1.00  0.00     0.098 N 
HETATM    2  C4  UNL     1      33.076   0.321  11.871  1.00  0.00     0.281 C 
HETATM    3  C5  UNL     1      33.837  -0.842  11.320  1.00  0.00     0.073 C 
HETATM    4  C6  UNL     1      35.183  -0.998  11.988  1.00  0.00     0.240 C 
HETATM    5  N2  UNL     1      35.671  -2.358  11.943  1.00  0.00    -0.075 N 
ATOM      6  H21 UNL     1      36.119  -2.648  12.813  1.00  0.00     0.277 HD
ATOM      7  H22 UNL     1      36.480  -2.470  11.333  1.00  0.00     0.277 HD
HETATM    8  C7  UNL     1      34.561  -3.209  11.570  1.00  0.00     0.234 C 
HETATM    9  C8  UNL     1      33.436  -2.894  12.563  1.00  0.00     0.064 C 
HETATM   10  C9  UNL     1      32.765  -1.649  12.057  1.00  0.00     0.232 C 
ENDROOT
BRANCH   1  11
HETATM   11  C2  UNL     1      31.322  -0.178  13.371  1.00  0.00     0.215 C 
HETATM   12  C1  UNL     1      31.136   1.243  12.820  1.00  0.00     0.042 C 
HETATM   13  C3  UNL     1      31.114  -0.188  14.857  1.00  0.00     0.042 C 
ENDBRANCH   1  11
TORSDOF 1
ENDMDL
MODEL 3
REMARK VINA RESULT: -4.574324183      1.421      3.956
REMARK  1 active torsions:
REMARK  status: ('A' for Active; 'I' for Inactive)
REMARK    1  A    between atoms: C2_2  and  N1_4 
ROOT
HETATM    1  N1  UNL     1      32.510  -1.828  13.405  1.00  0.00     0.098 N 
HETATM    2  C4  UNL     1      33.537  -1.540  14.419  1.00  0.00     0.281 C 
HETATM    3  C5  UNL     1      34.558  -1.993  13.426  1.00  0.00     0.073 C 
HETATM    4  C6  UNL     1      34.682  -3.498  13.397  1.00  0.00     0.240 C 
HETATM    5  N2  UNL     1      35.164  -3.991  12.126  1.00  0.00    -0.075 N 
ATOM      6  H21 UNL     1      34.688  -4.841  11.824  1.00  0.00     0.277 HD
ATOM      7  H22 UNL     1      36.106  -4.379  12.181  1.00  0.00     0.277 HD
HETATM    8  C7  UNL     1      35.055  -2.911  11.168  1.00  0.00     0.234 C 
HETATM    9  C8  UNL     1      33.599  -2.435  11.235  1.00  0.00     0.064 C 
HETATM   10  C9  UNL     1      33.513  -1.512  12.417  1.00  0.00     0.232 C 
ENDROOT
BRANCH   1  11
HETATM   11  C2  UNL     1      31.454  -0.844  13.551  1.00  0.00     0.215 C 
HETATM   12  C1  UNL     1      31.894   0.333  12.668  1.00  0.00     0.042 C 
HETATM   13  C3  UNL     1      31.274  -0.387  14.970  1.00  0.00     0.042 C 
ENDBRANCH   1  11
TORSDOF 1
ENDMDL
MODEL 4
REMARK VINA RESULT: -4.505740530      1.309      4.118
REMARK  1 active torsions:
REMARK  status: ('A' for Active; 'I' for Inactive)
REMARK    1  A    between atoms: C2_2  and  N1_4 
ROOT
HETATM    1  N1  UNL     1      32.848  -1.120  13.611  1.00  0.00     0.098 N 
HETATM    2  C4  UNL     1      32.409  -0.284  12.482  1.00  0.00     0.281 C 
HETATM    3  C5  UNL     1      33.234  -1.158  11.593  1.00  0.00     0.073 C 
HETATM    4  C6  UNL     1      34.692  -0.762  11.616  1.00  0.00     0.240 C 
HETATM    5  N2  UNL     1      35.571  -1.862  11.288  1.00  0.00    -0.075 N 
ATOM      6  H21 UNL     1      36.411  -1.884  11.867  1.00  0.00     0.277 HD
ATOM      7  H22 UNL     1      36.034  -1.747  10.386  1.00  0.00     0.277 HD
HETATM    8  C7  UNL     1      34.795  -3.081  11.372  1.00  0.00     0.234 C 
HETATM    9  C8  UNL     1      34.156  -3.079  12.766  1.00  0.00     0.064 C 
HETATM   10  C9  UNL     1      32.937  -2.207  12.666  1.00  0.00     0.232 C 
ENDROOT
BRANCH   1  11
HETATM   11  C2  UNL     1      31.747  -1.207  14.552  1.00  0.00     0.215 C 
HETATM   12  C1  UNL     1      30.902  -2.390  14.056  1.00  0.00     0.042 C 
HETATM   13  C3  UNL     1      30.916   0.041  14.596  1.00  0.00     0.042 C 
ENDBRANCH   1  11
TORSDOF 1
ENDMDL
MODEL 5
REMARK VINA RESULT: -4.443078006      1.690      4.010
REMARK  1 active torsions:
REMARK  status: ('A' for Active; 'I' for Inactive)
REMARK    1  A    between atoms: C2_2  and  N1_4 
ROOT
HETATM    1  N1  UNL     1      32.793  -0.486  13.228  1.00  0.00     0.098 N 
HETATM    2  C4  UNL     1      33.089  -0.451  11.787  1.00  0.00     0.281 C 
HETATM    3  C5  UNL     1      34.072  -1.553  12.024  1.00  0.00     0.073 C 
HETATM    4  C6  UNL     1      35.390  -1.027  12.541  1.00  0.00     0.240 C 
HETATM    5  N2  UNL     1      36.115  -2.008  13.316  1.00  0.00    -0.075 N 
ATOM      6  H21 UNL     1      36.565  -1.610  14.140  1.00  0.00     0.277 HD
ATOM      7  H22 UNL     1      36.960  -2.339  12.849  1.00  0.00     0.277 HD
HETATM    8  C7  UNL     1      35.194  -3.078  13.637  1.00  0.00     0.234 C 
HETATM    9  C8  UNL     1      33.984  -2.408  14.299  1.00  0.00     0.064 C 
HETATM   10  C9  UNL     1      33.127  -1.889  13.181  1.00  0.00     0.232 C 
ENDROOT
BRANCH   1  11
HETATM   11  C2  UNL     1      31.382  -0.192  13.397  1.00  0.00     0.215 C 
HETATM   12  C1  UNL     1      31.195   1.197  12.769  1.00  0.00     0.042 C 
HETATM   13  C3  UNL     1      30.959  -0.170  14.837  1.00  0.00     0.042 C 
ENDBRANCH   1  11
TORSDOF 1
ENDMDL
