MODEL 1
REMARK VINA RESULT: -4.958814540      0.000      0.000
REMARK  2 active torsions:
REMARK  status: ('A' for Active; 'I' for Inactive)
REMARK    1  A    between atoms: C2_2  and  O1_3 
REMARK    2  A    between atoms: C2_2  and  C3_5 
ROOT
HETATM    1  C3  UNL     1      32.653  -0.934  13.477  1.00  0.00     0.046 C 
HETATM    2  C4  UNL     1      32.100  -1.841  12.433  1.00  0.00     0.279 C 
HETATM    3  N1  UNL     1      33.185  -2.417  11.632  1.00  0.00     0.088 N 
HETATM    4  C5  UNL     1      34.120  -1.376  11.237  1.00  0.00     0.272 C 
HETATM    5  C6  UNL     1      34.818  -0.746  12.407  1.00  0.00     0.035 C 
HETATM    6  C7  UNL     1      34.105  -1.257  13.666  1.00  0.00    -0.003 C 
HETATM    7  C8  UNL     1      34.358  -2.756  13.695  1.00  0.00     0.035 C 
HETATM    8  C9  UNL     1      33.892  -3.389  12.415  1.00  0.00     0.272 C 
ENDROOT
BRANCH   1   9
HETATM    9  C2  UNL     1      31.884  -0.939  14.767  1.00  0.00     0.120 C 
HETATM   10  C1  UNL     1      30.641  -0.124  14.737  1.00  0.00     0.040 C 
BRANCH   9  11
HETATM   11  O1  UNL     1      32.715  -0.474  15.786  1.00  0.00    -0.396 OA
ATOM     12  H1  UNL     1      33.152   0.318  15.497  1.00  0.00     0.210 HD
ENDBRANCH   9  11
ENDBRANCH   1   9
TORSDOF 2
ENDMDL
MODEL 2
REMARK VINA RESULT: -4.886591576      1.133      2.065
REMARK  2 active torsions:
REMARK  status: ('A' for Active; 'I' for Inactive)
REMARK    1  A    between atoms: C2_2  and  O1_3 
REMARK    2  A    between atoms: C2_2  and  C3_5 
ROOT
HETATM    1  C3  UNL     1      32.414  -1.733  13.904  1.00  0.00     0.046 C 
HETATM    2  C4  UNL     1      33.786  -1.873  14.463  1.00  0.00     0.279 C 
HETATM    3  N1  UNL     1      34.763  -2.033  13.381  1.00  0.00     0.088 N 
HETATM    4  C5  UNL     1      34.291  -3.019  12.423  1.00  0.00     0.272 C 
HETATM    5  C6  UNL     1      33.031  -2.594  11.725  1.00  0.00     0.035 C 
HETATM    6  C7  UNL     1      32.527  -1.344  12.460  1.00  0.00    -0.003 C 
HETATM    7  C8  UNL     1      33.593  -0.284  12.235  1.00  0.00     0.035 C 
HETATM    8  C9  UNL     1      34.931  -0.782  12.700  1.00  0.00     0.272 C 
ENDROOT
BRANCH   1   9
HETATM    9  C2  UNL     1      31.521  -0.811  14.685  1.00  0.00     0.120 C 
HETATM   10  C1  UNL     1      30.978   0.323  13.892  1.00  0.00     0.040 C 
BRANCH   9  11
HETATM   11  O1  UNL     1      32.234  -0.313  15.774  1.00  0.00    -0.396 OA
ATOM     12  H1  UNL     1      31.819  -0.602  16.579  1.00  0.00     0.210 HD
ENDBRANCH   9  11
ENDBRANCH   1   9
TORSDOF 2
ENDMDL
MODEL 3
REMARK VINA RESULT: -4.718422679      1.473      1.741
REMARK  2 active torsions:
REMARK  status: ('A' for Active; 'I' for Inactive)
REMARK    1  A    between atoms: C2_2  and  O1_3 
REMARK    2  A    between atoms: C2_2  and  C3_5 
ROOT
HETATM    1  C3  UNL     1      32.295  -0.879  12.549  1.00  0.00     0.046 C 
HETATM    2  C4  UNL     1      32.054  -2.275  13.005  1.00  0.00     0.279 C 
HETATM    3  N1  UNL     1      33.223  -3.113  12.719  1.00  0.00     0.088 N 
HETATM    4  C5  UNL     1      33.679  -2.887  11.357  1.00  0.00     0.272 C 
HETATM    5  C6  UNL     1      34.165  -1.484  11.133  1.00  0.00     0.035 C 
HETATM    6  C7  UNL     1      33.772  -0.682  12.381  1.00  0.00    -0.003 C 
HETATM    7  C8  UNL     1      34.564  -1.298  13.524  1.00  0.00     0.035 C 
HETATM    8  C9  UNL     1      34.287  -2.770  13.618  1.00  0.00     0.272 C 
ENDROOT
BRANCH   1   9
HETATM    9  C2  UNL     1      31.665   0.171  13.419  1.00  0.00     0.120 C 
HETATM   10  C1  UNL     1      30.926  -0.373  14.588  1.00  0.00     0.040 C 
BRANCH   9  11
HETATM   11  O1  UNL     1      30.797   0.937  12.642  1.00  0.00    -0.396 OA
ATOM     12  H1  UNL     1      30.179   0.363  12.204  1.00  0.00     0.210 HD
ENDBRANCH   9  11
ENDBRANCH   1   9
TORSDOF 2
ENDMDL
MODEL 4
REMARK VINA RESULT: -4.583032436      1.621      2.241
REMARK  2 active torsions:
REMARK  status: ('A' for Active; 'I' for Inactive)
REMARK    1  A    between atoms: C2_2  and  O1_3 
REMARK    2  A    between atoms: C2_2  and  C3_5 
ROOT
HETATM    1  C3  UNL     1      32.264  -1.102  13.110  1.00  0.00     0.046 C 
HETATM    2  C4  UNL     1      33.138  -1.784  14.103  1.00  0.00     0.279 C 
HETATM    3  N1  UNL     1      34.300  -2.378  13.435  1.00  0.00     0.088 N 
HETATM    4  C5  UNL     1      33.877  -3.109  12.251  1.00  0.00     0.272 C 
HETATM    5  C6  UNL     1      33.264  -2.220  11.208  1.00  0.00     0.035 C 
HETATM    6  C7  UNL     1      33.064  -0.849  11.868  1.00  0.00    -0.003 C 
HETATM    7  C8  UNL     1      34.463  -0.342  12.181  1.00  0.00     0.035 C 
HETATM    8  C9  UNL     1      35.201  -1.338  13.028  1.00  0.00     0.272 C 
ENDROOT
BRANCH   1   9
HETATM    9  C2  UNL     1      31.592   0.137  13.630  1.00  0.00     0.120 C 
HETATM   10  C1  UNL     1      30.609  -0.116  14.717  1.00  0.00     0.040 C 
BRANCH   9  11
HETATM   11  O1  UNL     1      30.951   0.778  12.571  1.00  0.00    -0.396 OA
ATOM     12  H1  UNL     1      31.585   1.299  12.090  1.00  0.00     0.210 HD
ENDBRANCH   9  11
ENDBRANCH   1   9
TORSDOF 2
ENDMDL
MODEL 5
REMARK VINA RESULT: -4.482328854      1.596      2.443
REMARK  2 active torsions:
REMARK  status: ('A' for Active; 'I' for Inactive)
REMARK    1  A    between atoms: C2_2  and  O1_3 
REMARK    2  A    between atoms: C2_2  and  C3_5 
ROOT
HETATM    1  C3  UNL     1      32.745  -2.258  13.166  1.00  0.00     0.046 C 
HETATM    2  C4  UNL     1      33.927  -1.805  13.950  1.00  0.00     0.279 C 
HETATM    3  N1  UNL     1      35.104  -1.699  13.082  1.00  0.00     0.088 N 
HETATM    4  C5  UNL     1      35.223  -2.888  12.254  1.00  0.00     0.272 C 
HETATM    5  C6  UNL     1      34.073  -3.051  11.301  1.00  0.00     0.035 C 
HETATM    6  C7  UNL     1      33.019  -2.014  11.712  1.00  0.00    -0.003 C 
HETATM    7  C8  UNL     1      33.666  -0.660  11.470  1.00  0.00     0.035 C 
HETATM    8  C9  UNL     1      34.962  -0.559  12.222  1.00  0.00     0.272 C 
ENDROOT
BRANCH   1   9
HETATM    9  C2  UNL     1      31.441  -1.665  13.619  1.00  0.00     0.120 C 
HETATM   10  C1  UNL     1      31.576  -0.665  14.710  1.00  0.00     0.040 C 
BRANCH   9  11
HETATM   11  O1  UNL     1      30.602  -2.696  14.040  1.00  0.00    -0.396 OA
ATOM     12  H1  UNL     1      30.462  -3.301  13.320  1.00  0.00     0.210 HD
ENDBRANCH   9  11
ENDBRANCH   1   9
TORSDOF 2
ENDMDL
