MODEL 1
REMARK VINA RESULT: -4.435972091      0.000      0.000
REMARK  1 active torsions:
REMARK  status: ('A' for Active; 'I' for Inactive)
REMARK    1  A    between atoms: C2_2  and  N1_3 
ROOT
HETATM    1  N1  UNL     1      34.102  -1.033  12.363  1.00  0.00     0.089 N 
HETATM    2  C3  UNL     1      33.210   0.104  12.257  1.00  0.00     0.279 C 
HETATM    3  C4  UNL     1      31.828  -0.394  12.619  1.00  0.00     0.051 C 
HETATM    4  C5  UNL     1      31.113   0.780  13.262  1.00  0.00     0.239 C 
HETATM    5  N2  UNL     1      30.756   0.253  14.559  1.00  0.00    -0.074 N 
ATOM      6  H21 UNL     1      29.874  -0.259  14.578  1.00  0.00     0.277 HD
ATOM      7  H22 UNL     1      30.485   0.962  15.241  1.00  0.00     0.277 HD
HETATM    8  C6  UNL     1      31.926  -0.544  14.947  1.00  0.00     0.243 C 
HETATM    9  C7  UNL     1      32.145  -1.377  13.703  1.00  0.00     0.013 C 
HETATM   10  C8  UNL     1      31.240  -2.569  13.742  1.00  0.00     0.019 C 
HETATM   11  C9  UNL     1      33.562  -1.797  13.484  1.00  0.00     0.283 C 
ENDROOT
BRANCH   1  12
HETATM   12  C2  UNL     1      33.976  -1.731  11.100  1.00  0.00     0.268 C 
HETATM   13  C1  UNL     1      34.223  -3.200  11.164  1.00  0.00     0.037 C 
ENDBRANCH   1  12
TORSDOF 1
ENDMDL
MODEL 2
REMARK VINA RESULT: -4.338782253      1.568      3.837
REMARK  1 active torsions:
REMARK  status: ('A' for Active; 'I' for Inactive)
REMARK    1  A    between atoms: C2_2  and  N1_3 
ROOT
HETATM    1  N1  UNL     1      31.874  -1.416  12.778  1.00  0.00     0.089 N 
HETATM    2  C3  UNL     1      32.919  -1.176  11.803  1.00  0.00     0.279 C 
HETATM    3  C4  UNL     1      34.213  -1.051  12.577  1.00  0.00     0.051 C 
HETATM    4  C5  UNL     1      35.303  -1.579  11.662  1.00  0.00     0.239 C 
HETATM    5  N2  UNL     1      35.881  -2.643  12.450  1.00  0.00    -0.074 N 
ATOM      6  H21 UNL     1      36.609  -2.339  13.097  1.00  0.00     0.277 HD
ATOM      7  H22 UNL     1      36.469  -3.287  11.921  1.00  0.00     0.277 HD
HETATM    8  C6  UNL     1      34.722  -3.270  13.095  1.00  0.00     0.243 C 
HETATM    9  C7  UNL     1      34.006  -2.064  13.660  1.00  0.00     0.013 C 
HETATM   10  C8  UNL     1      34.620  -1.696  14.976  1.00  0.00     0.019 C 
HETATM   11  C9  UNL     1      32.528  -2.232  13.797  1.00  0.00     0.283 C 
ENDROOT
BRANCH   1  12
HETATM   12  C2  UNL     1      31.504  -0.103  13.265  1.00  0.00     0.268 C 
HETATM   13  C1  UNL     1      30.911  -0.083  14.633  1.00  0.00     0.037 C 
ENDBRANCH   1  12
TORSDOF 1
ENDMDL
MODEL 3
REMARK VINA RESULT: -4.311816969      1.447      3.922
REMARK  1 active torsions:
REMARK  status: ('A' for Active; 'I' for Inactive)
REMARK    1  A    between atoms: C2_2  and  N1_3 
ROOT
HETATM    1  N1  UNL     1      31.735  -1.366  13.140  1.00  0.00     0.089 N 
HETATM    2  C3  UNL     1      32.602  -0.509  12.357  1.00  0.00     0.279 C 
HETATM    3  C4  UNL     1      34.009  -1.036  12.536  1.00  0.00     0.051 C 
HETATM    4  C5  UNL     1      34.739  -0.737  11.238  1.00  0.00     0.239 C 
HETATM    5  N2  UNL     1      35.171  -2.050  10.817  1.00  0.00    -0.074 N 
ATOM      6  H21 UNL     1      36.061  -2.348  11.216  1.00  0.00     0.277 HD
ATOM      7  H22 UNL     1      35.467  -2.102   9.842  1.00  0.00     0.277 HD
HETATM    8  C6  UNL     1      34.036  -2.917  11.152  1.00  0.00     0.243 C 
HETATM    9  C7  UNL     1      33.766  -2.512  12.584  1.00  0.00     0.013 C 
HETATM   10  C8  UNL     1      34.690  -3.262  13.493  1.00  0.00     0.019 C 
HETATM   11  C9  UNL     1      32.346  -2.687  13.016  1.00  0.00     0.283 C 
ENDROOT
BRANCH   1  12
HETATM   12  C2  UNL     1      31.806  -0.842  14.489  1.00  0.00     0.268 C 
HETATM   13  C1  UNL     1      30.628  -0.031  14.911  1.00  0.00     0.037 C 
ENDBRANCH   1  12
TORSDOF 1
ENDMDL
MODEL 4
REMARK VINA RESULT: -4.180859659      1.724      4.167
REMARK  1 active torsions:
REMARK  status: ('A' for Active; 'I' for Inactive)
REMARK    1  A    between atoms: C2_2  and  N1_3 
ROOT
HETATM    1  N1  UNL     1      32.166  -1.849  13.996  1.00  0.00     0.089 N 
HETATM    2  C3  UNL     1      32.240  -2.426  12.669  1.00  0.00     0.279 C 
HETATM    3  C4  UNL     1      33.595  -2.051  12.109  1.00  0.00     0.051 C 
HETATM    4  C5  UNL     1      34.003  -3.191  11.193  1.00  0.00     0.239 C 
HETATM    5  N2  UNL     1      35.260  -3.614  11.765  1.00  0.00    -0.074 N 
ATOM      6  H21 UNL     1      36.071  -3.093  11.431  1.00  0.00     0.277 HD
ATOM      7  H22 UNL     1      35.580  -4.529  11.445  1.00  0.00     0.277 HD
HETATM    8  C6  UNL     1      35.035  -3.522  13.212  1.00  0.00     0.243 C 
HETATM    9  C7  UNL     1      34.452  -2.132  13.335  1.00  0.00     0.013 C 
HETATM   10  C8  UNL     1      35.565  -1.130  13.379  1.00  0.00     0.019 C 
HETATM   11  C9  UNL     1      33.533  -1.950  14.498  1.00  0.00     0.283 C 
ENDROOT
BRANCH   1  12
HETATM   12  C2  UNL     1      31.747  -0.477  13.787  1.00  0.00     0.268 C 
HETATM   13  C1  UNL     1      30.751   0.034  14.773  1.00  0.00     0.037 C 
ENDBRANCH   1  12
TORSDOF 1
ENDMDL
MODEL 5
REMARK VINA RESULT: -4.144406656      1.443      2.469
REMARK  1 active torsions:
REMARK  status: ('A' for Active; 'I' for Inactive)
REMARK    1  A    between atoms: C2_2  and  N1_3 
ROOT
HETATM    1  N1  UNL     1      33.784  -3.233  12.010  1.00  0.00     0.089 N 
HETATM    2  C3  UNL     1      34.318  -2.997  13.336  1.00  0.00     0.279 C 
HETATM    3  C4  UNL     1      34.105  -1.529  13.634  1.00  0.00     0.051 C 
HETATM    4  C5  UNL     1      33.900  -1.429  15.135  1.00  0.00     0.239 C 
HETATM    5  N2  UNL     1      32.602  -0.802  15.229  1.00  0.00    -0.074 N 
ATOM      6  H21 UNL     1      32.622   0.217  15.192  1.00  0.00     0.277 HD
ATOM      7  H22 UNL     1      32.169  -0.868  16.151  1.00  0.00     0.277 HD
HETATM    8  C6  UNL     1      31.830  -1.431  14.151  1.00  0.00     0.243 C 
HETATM    9  C7  UNL     1      32.779  -1.286  12.982  1.00  0.00     0.013 C 
HETATM   10  C8  UNL     1      32.623   0.078  12.385  1.00  0.00     0.019 C 
HETATM   11  C9  UNL     1      32.631  -2.341  11.934  1.00  0.00     0.283 C 
ENDROOT
BRANCH   1  12
HETATM   12  C2  UNL     1      34.847  -2.851  11.102  1.00  0.00     0.268 C 
HETATM   13  C1  UNL     1      34.394  -2.421   9.748  1.00  0.00     0.037 C 
ENDBRANCH   1  12
TORSDOF 1
ENDMDL
