MODEL 1
REMARK VINA RESULT: -4.272492554      0.000      0.000
REMARK  3 active torsions:
REMARK  status: ('A' for Active; 'I' for Inactive)
REMARK    1  A    between atoms: N1_2  and  C4_5 
REMARK    2  A    between atoms: C4_5  and  C5_6 
REMARK    3  A    between atoms: C5_6  and  O1_7 
ROOT
HETATM    1  C5  UNL     1      32.151  -1.526  13.336  1.00  0.00     0.185 C 
HETATM    2  C6  UNL     1      31.152  -1.590  14.497  1.00  0.00     0.072 C 
HETATM    3  C7  UNL     1      30.607  -0.175  14.631  1.00  0.00     0.032 C 
HETATM    4  C8  UNL     1      31.148   0.470  13.372  1.00  0.00     0.171 C 
HETATM    5  O2  UNL     1      32.362  -0.179  13.182  1.00  0.00    -0.353 OA
ENDROOT
BRANCH   1   6
HETATM    6  C4  UNL     1      33.341  -2.314  13.747  1.00  0.00     0.303 C 
BRANCH   6   7
HETATM    7  N1  UNL     1      34.416  -2.347  12.812  1.00  0.00    -0.073 N 
HETATM    8  C1  UNL     1      34.037  -2.843  11.506  1.00  0.00     0.271 C 
HETATM    9  C2  UNL     1      35.440  -3.247  13.372  1.00  0.00     0.271 C 
HETATM   10  C3  UNL     1      35.074  -1.079  12.621  1.00  0.00     0.271 C 
ENDBRANCH   6   7
ENDBRANCH   1   6
BRANCH   1  11
HETATM   11  O1  UNL     1      31.523  -2.093  12.235  1.00  0.00    -0.364 OA
ATOM     12  H1  UNL     1      31.465  -1.478  11.515  1.00  0.00     0.213 HD
ENDBRANCH   1  11
TORSDOF 3
ENDMDL
MODEL 2
REMARK VINA RESULT: -4.181798319      0.799      1.055
REMARK  3 active torsions:
REMARK  status: ('A' for Active; 'I' for Inactive)
REMARK    1  A    between atoms: N1_2  and  C4_5 
REMARK    2  A    between atoms: C4_5  and  C5_6 
REMARK    3  A    between atoms: C5_6  and  O1_7 
ROOT
HETATM    1  C5  UNL     1      32.452  -1.405  13.546  1.00  0.00     0.185 C 
HETATM    2  C6  UNL     1      31.346  -1.139  14.574  1.00  0.00     0.072 C 
HETATM    3  C7  UNL     1      30.799   0.238  14.222  1.00  0.00     0.032 C 
HETATM    4  C8  UNL     1      31.462   0.486  12.883  1.00  0.00     0.171 C 
HETATM    5  O2  UNL     1      32.685  -0.162  13.013  1.00  0.00    -0.353 OA
ENDROOT
BRANCH   1   6
HETATM    6  C4  UNL     1      33.592  -2.004  14.285  1.00  0.00     0.303 C 
BRANCH   6   7
HETATM    7  N1  UNL     1      34.787  -2.195  13.533  1.00  0.00    -0.073 N 
HETATM    8  C1  UNL     1      35.139  -3.586  13.339  1.00  0.00     0.271 C 
HETATM    9  C2  UNL     1      35.873  -1.542  14.286  1.00  0.00     0.271 C 
HETATM   10  C3  UNL     1      34.778  -1.564  12.237  1.00  0.00     0.271 C 
ENDBRANCH   6   7
ENDBRANCH   1   6
BRANCH   1  11
HETATM   11  O1  UNL     1      31.929  -2.292  12.615  1.00  0.00    -0.364 OA
ATOM     12  H1  UNL     1      31.378  -1.846  11.983  1.00  0.00     0.213 HD
ENDBRANCH   1  11
TORSDOF 3
ENDMDL
MODEL 3
REMARK VINA RESULT: -4.078664976      0.328      1.109
REMARK  3 active torsions:
REMARK  status: ('A' for Active; 'I' for Inactive)
REMARK    1  A    between atoms: N1_2  and  C4_5 
REMARK    2  A    between atoms: C4_5  and  C5_6 
REMARK    3  A    between atoms: C5_6  and  O1_7 
ROOT
HETATM    1  C5  UNL     1      32.286  -1.463  13.242  1.00  0.00     0.185 C 
HETATM    2  C6  UNL     1      31.310  -1.479  14.424  1.00  0.00     0.072 C 
HETATM    3  C7  UNL     1      30.770  -0.059  14.512  1.00  0.00     0.032 C 
HETATM    4  C8  UNL     1      31.286   0.535  13.218  1.00  0.00     0.171 C 
HETATM    5  O2  UNL     1      32.496  -0.124  13.031  1.00  0.00    -0.353 OA
ENDROOT
BRANCH   1   6
HETATM    6  C4  UNL     1      33.483  -2.237  13.661  1.00  0.00     0.303 C 
BRANCH   6   7
HETATM    7  N1  UNL     1      34.601  -2.174  12.779  1.00  0.00    -0.073 N 
HETATM    8  C1  UNL     1      34.864  -0.847  12.263  1.00  0.00     0.271 C 
HETATM    9  C2  UNL     1      34.298  -3.063  11.644  1.00  0.00     0.271 C 
HETATM   10  C3  UNL     1      35.830  -2.670  13.346  1.00  0.00     0.271 C 
ENDBRANCH   6   7
ENDBRANCH   1   6
BRANCH   1  11
HETATM   11  O1  UNL     1      31.636  -2.072  12.178  1.00  0.00    -0.364 OA
ATOM     12  H1  UNL     1      30.789  -1.674  12.015  1.00  0.00     0.213 HD
ENDBRANCH   1  11
TORSDOF 3
ENDMDL
MODEL 4
REMARK VINA RESULT: -4.041324862      1.107      2.002
REMARK  3 active torsions:
REMARK  status: ('A' for Active; 'I' for Inactive)
REMARK    1  A    between atoms: N1_2  and  C4_5 
REMARK    2  A    between atoms: C4_5  and  C5_6 
REMARK    3  A    between atoms: C5_6  and  O1_7 
ROOT
HETATM    1  C5  UNL     1      32.471  -1.158  13.348  1.00  0.00     0.185 C 
HETATM    2  C6  UNL     1      32.055   0.173  12.712  1.00  0.00     0.072 C 
HETATM    3  C7  UNL     1      30.838   0.629  13.505  1.00  0.00     0.032 C 
HETATM    4  C8  UNL     1      30.857  -0.346  14.663  1.00  0.00     0.171 C 
HETATM    5  O2  UNL     1      31.370  -1.504  14.091  1.00  0.00    -0.353 OA
ENDROOT
BRANCH   1   6
HETATM    6  C4  UNL     1      32.803  -2.083  12.234  1.00  0.00     0.303 C 
BRANCH   6   7
HETATM    7  N1  UNL     1      34.156  -2.524  12.178  1.00  0.00    -0.073 N 
HETATM    8  C1  UNL     1      35.117  -1.447  12.067  1.00  0.00     0.271 C 
HETATM    9  C2  UNL     1      34.276  -3.378  10.983  1.00  0.00     0.271 C 
HETATM   10  C3  UNL     1      34.557  -3.350  13.289  1.00  0.00     0.271 C 
ENDBRANCH   6   7
ENDBRANCH   1   6
BRANCH   1  11
HETATM   11  O1  UNL     1      33.582  -0.895  14.137  1.00  0.00    -0.364 OA
ATOM     12  H1  UNL     1      33.809  -1.644  14.676  1.00  0.00     0.213 HD
ENDBRANCH   1  11
TORSDOF 3
ENDMDL
MODEL 5
REMARK VINA RESULT: -3.990441987      1.653      4.097
REMARK  3 active torsions:
REMARK  status: ('A' for Active; 'I' for Inactive)
REMARK    1  A    between atoms: N1_2  and  C4_5 
REMARK    2  A    between atoms: C4_5  and  C5_6 
REMARK    3  A    between atoms: C5_6  and  O1_7 
ROOT
HETATM    1  C5  UNL     1      34.279  -1.678  13.338  1.00  0.00     0.185 C 
HETATM    2  C6  UNL     1      35.346  -2.589  13.956  1.00  0.00     0.072 C 
HETATM    3  C7  UNL     1      35.629  -3.644  12.897  1.00  0.00     0.032 C 
HETATM    4  C8  UNL     1      34.899  -3.068  11.702  1.00  0.00     0.171 C 
HETATM    5  O2  UNL     1      33.815  -2.418  12.280  1.00  0.00    -0.353 OA
ENDROOT
BRANCH   1   6
HETATM    6  C4  UNL     1      33.283  -1.396  14.403  1.00  0.00     0.303 C 
BRANCH   6   7
HETATM    7  N1  UNL     1      31.963  -1.100  13.955  1.00  0.00    -0.073 N 
HETATM    8  C1  UNL     1      31.922  -0.296  12.752  1.00  0.00     0.271 C 
HETATM    9  C2  UNL     1      31.304  -0.350  15.038  1.00  0.00     0.271 C 
HETATM   10  C3  UNL     1      31.140  -2.261  13.729  1.00  0.00     0.271 C 
ENDBRANCH   6   7
ENDBRANCH   1   6
BRANCH   1  11
HETATM   11  O1  UNL     1      34.928  -0.520  12.932  1.00  0.00    -0.364 OA
ATOM     12  H1  UNL     1      34.368   0.018  12.386  1.00  0.00     0.213 HD
ENDBRANCH   1  11
TORSDOF 3
ENDMDL
