MODEL 1
REMARK VINA RESULT: -4.647433721      0.000      0.000
REMARK  1 active torsions:
REMARK  status: ('A' for Active; 'I' for Inactive)
REMARK    1  A    between atoms: N1_4  and  N2_5 
ROOT
HETATM    1  N2  UNL     1      32.020  -0.128  12.472  1.00  0.00    -0.247 NA
HETATM    2  C4  UNL     1      32.363  -1.428  12.961  1.00  0.00     0.135 C 
HETATM    3  C5  UNL     1      32.817  -1.430  14.399  1.00  0.00     0.248 C 
HETATM    4  N3  UNL     1      32.009  -0.626  15.257  1.00  0.00    -0.073 N 
ATOM      5  H31 UNL     1      32.530   0.166  15.634  1.00  0.00     0.277 HD
ATOM      6  H32 UNL     1      31.800  -1.102  16.135  1.00  0.00     0.277 HD
HETATM    7  C6  UNL     1      30.813  -0.204  14.580  1.00  0.00     0.248 C 
HETATM    8  C7  UNL     1      31.209   0.634  13.359  1.00  0.00     0.135 C 
ENDROOT
BRANCH   1   9
HETATM    9  N1  UNL     1      33.145   0.503  12.002  1.00  0.00    -0.250 NA
HETATM   10  C3  UNL     1      32.929   1.786  11.422  1.00  0.00     0.108 C 
HETATM   11  C2  UNL     1      34.092   1.990  10.475  1.00  0.00     0.017 C 
HETATM   12  C1  UNL     1      34.908   0.716  10.544  1.00  0.00     0.017 C 
HETATM   13  C8  UNL     1      33.878  -0.283  11.018  1.00  0.00     0.108 C 
ENDBRANCH   1   9
TORSDOF 1
ENDMDL
MODEL 2
REMARK VINA RESULT: -4.600033405      1.677      4.427
REMARK  1 active torsions:
REMARK  status: ('A' for Active; 'I' for Inactive)
REMARK    1  A    between atoms: N1_4  and  N2_5 
ROOT
HETATM    1  N2  UNL     1      33.109  -0.818  11.597  1.00  0.00    -0.247 NA
HETATM    2  C4  UNL     1      34.105   0.208  11.619  1.00  0.00     0.135 C 
HETATM    3  C5  UNL     1      35.477  -0.293  11.995  1.00  0.00     0.248 C 
HETATM    4  N3  UNL     1      35.840  -1.511  11.347  1.00  0.00    -0.073 N 
ATOM      5  H31 UNL     1      35.945  -2.276  12.013  1.00  0.00     0.277 HD
ATOM      6  H32 UNL     1      36.798  -1.482  10.996  1.00  0.00     0.277 HD
HETATM    7  C6  UNL     1      34.901  -1.833  10.307  1.00  0.00     0.248 C 
HETATM    8  C7  UNL     1      33.514  -2.012  10.936  1.00  0.00     0.135 C 
ENDROOT
BRANCH   1   9
HETATM    9  N1  UNL     1      32.584  -0.982  12.855  1.00  0.00    -0.250 NA
HETATM   10  C3  UNL     1      31.982  -2.249  13.106  1.00  0.00     0.108 C 
HETATM   11  C2  UNL     1      30.989  -1.998  14.221  1.00  0.00     0.017 C 
HETATM   12  C1  UNL     1      31.060  -0.514  14.509  1.00  0.00     0.017 C 
HETATM   13  C8  UNL     1      31.593   0.028  13.203  1.00  0.00     0.108 C 
ENDBRANCH   1   9
TORSDOF 1
ENDMDL
MODEL 3
REMARK VINA RESULT: -4.442381584      2.364      3.274
REMARK  1 active torsions:
REMARK  status: ('A' for Active; 'I' for Inactive)
REMARK    1  A    between atoms: N1_4  and  N2_5 
ROOT
HETATM    1  N2  UNL     1      32.764  -1.809  12.522  1.00  0.00    -0.247 NA
HETATM    2  C4  UNL     1      31.569  -2.218  13.194  1.00  0.00     0.135 C 
HETATM    3  C5  UNL     1      31.268  -1.410  14.431  1.00  0.00     0.248 C 
HETATM    4  N3  UNL     1      31.444  -0.005  14.254  1.00  0.00    -0.073 N 
ATOM      5  H31 UNL     1      32.203   0.357  14.832  1.00  0.00     0.277 HD
ATOM      6  H32 UNL     1      30.675   0.527  14.663  1.00  0.00     0.277 HD
HETATM    7  C6  UNL     1      31.632   0.314  12.865  1.00  0.00     0.248 C 
HETATM    8  C7  UNL     1      32.893  -0.401  12.364  1.00  0.00     0.135 C 
ENDROOT
BRANCH   1   9
HETATM    9  N1  UNL     1      33.848  -2.449  13.070  1.00  0.00    -0.250 NA
HETATM   10  C3  UNL     1      34.828  -1.598  13.657  1.00  0.00     0.108 C 
HETATM   11  C2  UNL     1      36.114  -2.394  13.618  1.00  0.00     0.017 C 
HETATM   12  C1  UNL     1      35.771  -3.697  12.926  1.00  0.00     0.017 C 
HETATM   13  C8  UNL     1      34.550  -3.307  12.125  1.00  0.00     0.108 C 
ENDBRANCH   1   9
TORSDOF 1
ENDMDL
MODEL 4
REMARK VINA RESULT: -4.430030924      1.987      3.981
REMARK  1 active torsions:
REMARK  status: ('A' for Active; 'I' for Inactive)
REMARK    1  A    between atoms: N1_4  and  N2_5 
ROOT
HETATM    1  N2  UNL     1      33.816  -1.073  12.688  1.00  0.00    -0.247 NA
HETATM    2  C4  UNL     1      34.418  -2.056  13.535  1.00  0.00     0.135 C 
HETATM    3  C5  UNL     1      34.180  -3.473  13.077  1.00  0.00     0.248 C 
HETATM    4  N3  UNL     1      34.353  -3.659  11.673  1.00  0.00    -0.073 N 
ATOM      5  H31 UNL     1      33.477  -3.912  11.215  1.00  0.00     0.277 HD
ATOM      6  H32 UNL     1      34.884  -4.505  11.466  1.00  0.00     0.277 HD
HETATM    7  C6  UNL     1      34.951  -2.495  11.076  1.00  0.00     0.248 C 
HETATM    8  C7  UNL     1      34.020  -1.296  11.297  1.00  0.00     0.135 C 
ENDROOT
BRANCH   1   9
HETATM    9  N1  UNL     1      32.515  -0.862  13.073  1.00  0.00    -0.250 NA
HETATM   10  C3  UNL     1      31.930   0.352  12.611  1.00  0.00     0.108 C 
HETATM   11  C2  UNL     1      30.826   0.658  13.600  1.00  0.00     0.017 C 
HETATM   12  C1  UNL     1      30.895  -0.436  14.645  1.00  0.00     0.017 C 
HETATM   13  C8  UNL     1      32.330  -0.893  14.518  1.00  0.00     0.108 C 
ENDBRANCH   1   9
TORSDOF 1
ENDMDL
MODEL 5
REMARK VINA RESULT: -4.405292096      2.342      4.153
REMARK  1 active torsions:
REMARK  status: ('A' for Active; 'I' for Inactive)
REMARK    1  A    between atoms: N1_4  and  N2_5 
ROOT
HETATM    1  N2  UNL     1      33.591  -1.823  12.619  1.00  0.00    -0.247 NA
HETATM    2  C4  UNL     1      34.754  -1.127  12.159  1.00  0.00     0.135 C 
HETATM    3  C5  UNL     1      35.900  -1.157  13.139  1.00  0.00     0.248 C 
HETATM    4  N3  UNL     1      36.122  -2.439  13.723  1.00  0.00    -0.073 N 
ATOM      5  H31 UNL     1      35.942  -2.434  14.727  1.00  0.00     0.277 HD
ATOM      6  H32 UNL     1      37.114  -2.677  13.747  1.00  0.00     0.277 HD
HETATM    7  C6  UNL     1      35.349  -3.446  13.048  1.00  0.00     0.248 C 
HETATM    8  C7  UNL     1      33.862  -3.100  13.187  1.00  0.00     0.135 C 
ENDROOT
BRANCH   1   9
HETATM    9  N1  UNL     1      32.818  -0.983  13.380  1.00  0.00    -0.250 NA
HETATM   10  C3  UNL     1      31.966  -1.625  14.325  1.00  0.00     0.108 C 
HETATM   11  C2  UNL     1      30.840  -0.643  14.569  1.00  0.00     0.017 C 
HETATM   12  C1  UNL     1      31.115   0.534  13.657  1.00  0.00     0.017 C 
HETATM   13  C8  UNL     1      31.972  -0.100  12.587  1.00  0.00     0.108 C 
ENDBRANCH   1   9
TORSDOF 1
ENDMDL
