MODEL 1
REMARK VINA RESULT: -6.045234787      0.000      0.000
REMARK  3 active torsions:
REMARK  status: ('A' for Active; 'I' for Inactive)
REMARK    1  A    between atoms: C3_6  and  C4_7 
REMARK    2  A    between atoms: C5_12  and  C6_13 
REMARK       I    between atoms: C6_13  and  N5_15 
REMARK    3  A    between atoms: N5_15  and  N6_17 
ROOT
HETATM    1  N1  UNL     1      -2.286   8.776  25.323  1.00  0.00    -0.188 NA
HETATM    2  C1  UNL     1      -2.218   9.622  26.109  1.00  0.00     0.137 C 
HETATM    3  C2  UNL     1      -2.145  10.661  27.097  1.00  0.00     0.191 A 
HETATM    4  N2  UNL     1      -2.732  10.534  28.309  1.00  0.00    -0.315 N 
ATOM      5  H2  UNL     1      -3.240   9.678  28.535  1.00  0.00     0.170 HD
HETATM    6  C3  UNL     1      -2.653  11.521  29.220  1.00  0.00     0.175 A 
HETATM    7  N4  UNL     1      -1.990  12.661  28.957  1.00  0.00    -0.320 N 
ATOM      8  H4  UNL     1      -1.938  13.400  29.659  1.00  0.00     0.169 HD
HETATM    9  C5  UNL     1      -1.396  12.818  27.759  1.00  0.00     0.180 A 
HETATM   10  N9  UNL     1      -1.496  11.812  26.875  1.00  0.00    -0.315 N 
ATOM     11  H9  UNL     1      -1.045  11.933  25.968  1.00  0.00     0.170 HD
ENDROOT
BRANCH   6  12
HETATM   12  C4  UNL     1      -3.294  11.375  30.540  1.00  0.00     0.298 C 
HETATM   13  N3  UNL     1      -3.421  12.497  31.419  1.00  0.00    -0.054 NA
HETATM   14  O1  UNL     1      -3.717  10.236  30.846  1.00  0.00    -0.268 OA
ENDBRANCH   6  12
BRANCH   9  15
HETATM   15  C6  UNL     1      -0.663  14.001  27.380  1.00  0.00     0.304 C 
HETATM   16  O2  UNL     1      -0.282  14.124  26.200  1.00  0.00    -0.263 OA
HETATM   17  N5  UNL     1      -0.377  15.003  28.319  1.00  0.00    -0.261 N 
ATOM     18  H5  UNL     1      -0.694  14.890  29.282  1.00  0.00     0.190 HD
BRANCH  17  19
HETATM   19  N6  UNL     1       0.331  16.150  27.963  1.00  0.00    -0.273 N 
HETATM   20  C7  UNL     1       1.559  16.250  28.264  1.00  0.00     0.215 C 
HETATM   21  N7  UNL     1       2.305  15.250  28.963  1.00  0.00    -0.065 NA
HETATM   22  N8  UNL     1       2.267  17.441  27.886  1.00  0.00    -0.065 NA
ATOM     23  H6  UNL     1      -0.136  16.905  27.460  1.00  0.00     0.189 HD
ENDBRANCH  17  19
ENDBRANCH   9  15
TORSDOF 3
ENDMDL
MODEL 2
REMARK VINA RESULT: -6.009323646      2.753      4.848
REMARK  3 active torsions:
REMARK  status: ('A' for Active; 'I' for Inactive)
REMARK    1  A    between atoms: C3_6  and  C4_7 
REMARK    2  A    between atoms: C5_12  and  C6_13 
REMARK       I    between atoms: C6_13  and  N5_15 
REMARK    3  A    between atoms: N5_15  and  N6_17 
ROOT
HETATM    1  N1  UNL     1      -6.609   8.689  27.831  1.00  0.00    -0.188 NA
HETATM    2  C1  UNL     1      -5.599   8.911  27.314  1.00  0.00     0.137 C 
HETATM    3  C2  UNL     1      -4.346   9.169  26.663  1.00  0.00     0.191 A 
HETATM    4  N2  UNL     1      -3.857   8.346  25.707  1.00  0.00    -0.315 N 
ATOM      5  H2  UNL     1      -4.388   7.518  25.436  1.00  0.00     0.170 HD
HETATM    6  C3  UNL     1      -2.680   8.607  25.109  1.00  0.00     0.175 A 
HETATM    7  N4  UNL     1      -1.955   9.690  25.440  1.00  0.00    -0.320 N 
ATOM      8  H4  UNL     1      -1.065   9.875  24.976  1.00  0.00     0.169 HD
HETATM    9  C5  UNL     1      -2.414  10.528  26.387  1.00  0.00     0.180 A 
HETATM   10  N9  UNL     1      -3.593  10.236  26.963  1.00  0.00    -0.315 N 
ATOM     11  H9  UNL     1      -3.939  10.872  27.680  1.00  0.00     0.170 HD
ENDROOT
BRANCH   6  12
HETATM   12  C4  UNL     1      -2.154   7.705  24.068  1.00  0.00     0.298 C 
HETATM   13  N3  UNL     1      -3.005   7.213  23.028  1.00  0.00    -0.054 NA
HETATM   14  O1  UNL     1      -0.941   7.398  24.139  1.00  0.00    -0.268 OA
ENDBRANCH   6  12
BRANCH   9  15
HETATM   15  C6  UNL     1      -1.713  11.714  26.813  1.00  0.00     0.304 C 
HETATM   16  O2  UNL     1      -1.386  12.563  25.960  1.00  0.00    -0.263 OA
HETATM   17  N5  UNL     1      -1.398  11.918  28.165  1.00  0.00    -0.261 N 
ATOM     18  H5  UNL     1      -1.670  11.216  28.852  1.00  0.00     0.190 HD
BRANCH  17  19
HETATM   19  N6  UNL     1      -0.719  13.061  28.586  1.00  0.00    -0.273 N 
HETATM   20  C7  UNL     1      -0.333  13.155  29.791  1.00  0.00     0.215 C 
HETATM   21  N7  UNL     1      -0.541  12.151  30.788  1.00  0.00    -0.065 NA
HETATM   22  N8  UNL     1       0.363  14.342  30.201  1.00  0.00    -0.065 NA
ATOM     23  H6  UNL     1      -0.534  13.819  27.928  1.00  0.00     0.189 HD
ENDBRANCH  17  19
ENDBRANCH   9  15
TORSDOF 3
ENDMDL
MODEL 3
REMARK VINA RESULT: -5.938936219      1.694      3.410
REMARK  3 active torsions:
REMARK  status: ('A' for Active; 'I' for Inactive)
REMARK    1  A    between atoms: C3_6  and  C4_7 
REMARK    2  A    between atoms: C5_12  and  C6_13 
REMARK       I    between atoms: C6_13  and  N5_15 
REMARK    3  A    between atoms: N5_15  and  N6_17 
ROOT
HETATM    1  N1  UNL     1      -4.119  10.520  31.393  1.00  0.00    -0.188 NA
HETATM    2  C1  UNL     1      -3.569  10.856  30.433  1.00  0.00     0.137 C 
HETATM    3  C2  UNL     1      -2.887  11.255  29.234  1.00  0.00     0.191 A 
HETATM    4  N2  UNL     1      -2.704  10.401  28.201  1.00  0.00    -0.315 N 
ATOM      5  H2  UNL     1      -3.057   9.446  28.269  1.00  0.00     0.170 HD
HETATM    6  C3  UNL     1      -2.062  10.795  27.086  1.00  0.00     0.175 A 
HETATM    7  N4  UNL     1      -1.584  12.046  26.962  1.00  0.00    -0.320 N 
ATOM      8  H4  UNL     1      -1.101  12.330  26.110  1.00  0.00     0.169 HD
HETATM    9  C5  UNL     1      -1.750  12.920  27.972  1.00  0.00     0.180 A 
HETATM   10  N9  UNL     1      -2.396  12.491  29.070  1.00  0.00    -0.315 N 
ATOM     11  H9  UNL     1      -2.521  13.155  29.835  1.00  0.00     0.170 HD
ENDROOT
BRANCH   6  12
HETATM   12  C4  UNL     1      -1.866   9.859  25.964  1.00  0.00     0.298 C 
HETATM   13  N3  UNL     1      -1.748   8.452  26.198  1.00  0.00    -0.054 NA
HETATM   14  O1  UNL     1      -1.810  10.351  24.814  1.00  0.00    -0.268 OA
ENDBRANCH   6  12
BRANCH   9  15
HETATM   15  C6  UNL     1      -1.276  14.281  27.938  1.00  0.00     0.304 C 
HETATM   16  O2  UNL     1      -2.064  15.204  28.222  1.00  0.00    -0.263 OA
HETATM   17  N5  UNL     1       0.051  14.572  27.589  1.00  0.00    -0.261 N 
ATOM     18  H5  UNL     1       0.686  13.808  27.359  1.00  0.00     0.190 HD
BRANCH  17  19
HETATM   19  N6  UNL     1       0.520  15.885  27.553  1.00  0.00    -0.273 N 
HETATM   20  C7  UNL     1       1.649  16.165  28.060  1.00  0.00     0.215 C 
HETATM   21  N7  UNL     1       2.512  15.213  28.687  1.00  0.00    -0.065 NA
HETATM   22  N8  UNL     1       2.109  17.524  28.010  1.00  0.00    -0.065 NA
ATOM     23  H6  UNL     1      -0.043  16.618  27.119  1.00  0.00     0.189 HD
ENDBRANCH  17  19
ENDBRANCH   9  15
TORSDOF 3
ENDMDL
MODEL 4
REMARK VINA RESULT: -5.852232493      3.688      6.376
REMARK  3 active torsions:
REMARK  status: ('A' for Active; 'I' for Inactive)
REMARK    1  A    between atoms: C3_6  and  C4_7 
REMARK    2  A    between atoms: C5_12  and  C6_13 
REMARK       I    between atoms: C6_13  and  N5_15 
REMARK    3  A    between atoms: N5_15  and  N6_17 
ROOT
HETATM    1  N1  UNL     1      -7.341   6.820  25.553  1.00  0.00    -0.188 NA
HETATM    2  C1  UNL     1      -6.250   7.112  25.305  1.00  0.00     0.137 C 
HETATM    3  C2  UNL     1      -4.895   7.461  24.984  1.00  0.00     0.191 A 
HETATM    4  N2  UNL     1      -4.251   6.916  23.926  1.00  0.00    -0.315 N 
ATOM      5  H2  UNL     1      -4.735   6.238  23.337  1.00  0.00     0.170 HD
HETATM    6  C3  UNL     1      -2.981   7.256  23.642  1.00  0.00     0.175 A 
HETATM    7  N4  UNL     1      -2.312   8.147  24.397  1.00  0.00    -0.320 N 
ATOM      8  H4  UNL     1      -1.350   8.396  24.168  1.00  0.00     0.169 HD
HETATM    9  C5  UNL     1      -2.925   8.707  25.456  1.00  0.00     0.180 A 
HETATM   10  N9  UNL     1      -4.194   8.343  25.709  1.00  0.00    -0.315 N 
ATOM     11  H9  UNL     1      -4.657   8.769  26.512  1.00  0.00     0.170 HD
ENDROOT
BRANCH   6  12
HETATM   12  C4  UNL     1      -2.285   6.658  22.488  1.00  0.00     0.298 C 
HETATM   13  N3  UNL     1      -2.880   6.676  21.187  1.00  0.00    -0.054 NA
HETATM   14  O1  UNL     1      -1.164   6.142  22.702  1.00  0.00    -0.268 OA
ENDBRANCH   6  12
BRANCH   9  15
HETATM   15  C6  UNL     1      -2.297   9.670  26.326  1.00  0.00     0.304 C 
HETATM   16  O2  UNL     1      -1.518   9.268  27.212  1.00  0.00    -0.263 OA
HETATM   17  N5  UNL     1      -2.553  11.042  26.185  1.00  0.00    -0.261 N 
ATOM     18  H5  UNL     1      -3.192  11.359  25.456  1.00  0.00     0.190 HD
BRANCH  17  19
HETATM   19  N6  UNL     1      -1.950  11.981  27.021  1.00  0.00    -0.273 N 
HETATM   20  C7  UNL     1      -1.104  12.798  26.543  1.00  0.00     0.215 C 
HETATM   21  N7  UNL     1      -0.704  12.838  25.171  1.00  0.00    -0.065 NA
HETATM   22  N8  UNL     1      -0.497  13.755  27.425  1.00  0.00    -0.065 NA
ATOM     23  H6  UNL     1      -2.188  12.012  28.012  1.00  0.00     0.189 HD
ENDBRANCH  17  19
ENDBRANCH   9  15
TORSDOF 3
ENDMDL
MODEL 5
REMARK VINA RESULT: -5.834578264      2.286      6.051
REMARK  3 active torsions:
REMARK  status: ('A' for Active; 'I' for Inactive)
REMARK    1  A    between atoms: C3_6  and  C4_7 
REMARK    2  A    between atoms: C5_12  and  C6_13 
REMARK       I    between atoms: C6_13  and  N5_15 
REMARK    3  A    between atoms: N5_15  and  N6_17 
ROOT
HETATM    1  N1  UNL     1      -4.481  10.239  31.623  1.00  0.00    -0.188 NA
HETATM    2  C1  UNL     1      -3.766  10.598  30.788  1.00  0.00     0.137 C 
HETATM    3  C2  UNL     1      -2.872  11.058  29.763  1.00  0.00     0.191 A 
HETATM    4  N2  UNL     1      -1.935  12.003  30.007  1.00  0.00    -0.315 N 
ATOM      5  H2  UNL     1      -1.857  12.405  30.942  1.00  0.00     0.170 HD
HETATM    6  C3  UNL     1      -1.107  12.420  29.033  1.00  0.00     0.175 A 
HETATM    7  N4  UNL     1      -1.181  11.912  27.789  1.00  0.00    -0.320 N 
ATOM      8  H4  UNL     1      -0.545  12.238  27.062  1.00  0.00     0.169 HD
HETATM    9  C5  UNL     1      -2.103  10.970  27.515  1.00  0.00     0.180 A 
HETATM   10  N9  UNL     1      -2.913  10.578  28.513  1.00  0.00    -0.315 N 
ATOM     11  H9  UNL     1      -3.610   9.864  28.303  1.00  0.00     0.170 HD
ENDROOT
BRANCH   6  12
HETATM   12  C4  UNL     1      -0.089  13.451  29.306  1.00  0.00     0.298 C 
HETATM   13  N3  UNL     1       0.665  14.034  28.238  1.00  0.00    -0.054 NA
HETATM   14  O1  UNL     1       0.079  13.785  30.501  1.00  0.00    -0.268 OA
ENDBRANCH   6  12
BRANCH   9  15
HETATM   15  C6  UNL     1      -2.263  10.364  26.216  1.00  0.00     0.304 C 
HETATM   16  O2  UNL     1      -1.957  11.020  25.201  1.00  0.00    -0.263 OA
HETATM   17  N5  UNL     1      -2.757   9.058  26.088  1.00  0.00    -0.261 N 
ATOM     18  H5  UNL     1      -3.004   8.532  26.926  1.00  0.00     0.190 HD
BRANCH  17  19
HETATM   19  N6  UNL     1      -2.916   8.463  24.836  1.00  0.00    -0.273 N 
HETATM   20  C7  UNL     1      -1.952   7.823  24.317  1.00  0.00     0.215 C 
HETATM   21  N7  UNL     1      -0.670   7.652  24.929  1.00  0.00    -0.065 NA
HETATM   22  N8  UNL     1      -2.140   7.220  23.028  1.00  0.00    -0.065 NA
ATOM     23  H6  UNL     1      -3.804   8.542  24.341  1.00  0.00     0.189 HD
ENDBRANCH  17  19
ENDBRANCH   9  15
TORSDOF 3
ENDMDL
