MODEL 1
REMARK VINA RESULT: -4.959884240      0.000      0.000
REMARK  6 active torsions:
REMARK  status: ('A' for Active; 'I' for Inactive)
REMARK    1  A    between atoms: C2_3  and  N2_4 
REMARK    2  A    between atoms: N2_4  and  N3_6 
REMARK    3  A    between atoms: C3_13  and  N6_14 
REMARK    4  A    between atoms: N6_14  and  C4_16 
REMARK    5  A    between atoms: C4_16  and  C5_17 
REMARK    6  A    between atoms: C5_17  and  N7_18 
ROOT
HETATM    1  C1  UNL     1      -5.349   9.974  27.208  1.00  0.00     0.177 C 
HETATM    2  N1  UNL     1      -4.454   9.048  26.604  1.00  0.00    -0.167 N 
HETATM    3  C2  UNL     1      -3.031   9.230  26.692  1.00  0.00     0.714 C 
HETATM    4  N4  UNL     1      -2.015   8.681  25.870  1.00  0.00    -0.129 N 
ATOM      5  H4  UNL     1      -1.059   8.824  26.198  1.00  0.00     0.205 HD
HETATM    6  N5  UNL     1      -2.138   7.972  24.676  1.00  0.00    -0.269 N 
ATOM      7  H5  UNL     1      -1.272   7.784  24.172  1.00  0.00     0.189 HD
HETATM    8  C3  UNL     1      -3.346   7.476  24.074  1.00  0.00     0.147 C 
HETATM    9  C6  UNL     1      -4.610   7.271  24.789  1.00  0.00     0.124 A 
HETATM   10  N8  UNL     1      -5.542   6.357  24.491  1.00  0.00    -0.346 N 
ATOM     11  H8  UNL     1      -5.500   5.687  23.723  1.00  0.00     0.167 HD
HETATM   12  C7  UNL     1      -6.530   6.476  25.371  1.00  0.00     0.184 A 
HETATM   13  N9  UNL     1      -6.275   7.469  26.267  1.00  0.00    -0.331 N 
HETATM   14  C8  UNL     1      -7.064   7.912  27.373  1.00  0.00     0.158 C 
HETATM   15  C9  UNL     1      -5.084   7.973  25.916  1.00  0.00     0.156 A 
ENDROOT
BRANCH   8  16
HETATM   16  N6  UNL     1      -3.321   7.193  22.837  1.00  0.00    -0.372 N 
ATOM     17  H6  UNL     1      -3.998   7.691  22.258  1.00  0.00     0.161 HD
BRANCH  16  18
HETATM   18  C4  UNL     1      -2.482   6.279  22.145  1.00  0.00     0.148 C 
BRANCH  18  19
HETATM   19  C5  UNL     1      -2.173   6.783  20.740  1.00  0.00     0.249 C 
BRANCH  19  20
HETATM   20  N7  UNL     1      -3.295   6.393  19.901  1.00  0.00    -0.078 N 
ATOM     21  H73 UNL     1      -4.180   6.809  20.191  1.00  0.00     0.274 HD
ATOM     22  H72 UNL     1      -3.262   6.802  18.967  1.00  0.00     0.274 HD
ATOM     23  H71 UNL     1      -3.313   5.373  19.892  1.00  0.00     0.274 HD
ENDBRANCH  19  20
ENDBRANCH  18  19
ENDBRANCH  16  18
ENDBRANCH   8  16
BRANCH   3  24
HETATM   24  N2  UNL     1      -2.700  10.009  27.663  1.00  0.00    -0.137 N 
ATOM     25  H2  UNL     1      -3.291  10.103  28.488  1.00  0.00     0.205 HD
BRANCH  24  26
HETATM   26  N3  UNL     1      -1.502  10.720  27.545  1.00  0.00    -0.331 N 
ATOM     27  H32 UNL     1      -0.903  10.585  26.731  1.00  0.00     0.177 HD
ATOM     28  H31 UNL     1      -1.260  11.367  28.296  1.00  0.00     0.177 HD
ENDBRANCH  24  26
ENDBRANCH   3  24
TORSDOF 6
ENDMDL
MODEL 2
REMARK VINA RESULT: -4.850843584      5.249      8.182
REMARK  6 active torsions:
REMARK  status: ('A' for Active; 'I' for Inactive)
REMARK    1  A    between atoms: C2_3  and  N2_4 
REMARK    2  A    between atoms: N2_4  and  N3_6 
REMARK    3  A    between atoms: C3_13  and  N6_14 
REMARK    4  A    between atoms: N6_14  and  C4_16 
REMARK    5  A    between atoms: C4_16  and  C5_17 
REMARK    6  A    between atoms: C5_17  and  N7_18 
ROOT
HETATM    1  C1  UNL     1       1.305  15.228  30.633  1.00  0.00     0.177 C 
HETATM    2  N1  UNL     1       0.120  14.543  30.244  1.00  0.00    -0.167 N 
HETATM    3  C2  UNL     1      -0.733  13.929  31.224  1.00  0.00     0.714 C 
HETATM    4  N4  UNL     1      -1.699  12.906  31.042  1.00  0.00    -0.129 N 
ATOM      5  H4  UNL     1      -2.297  12.719  31.847  1.00  0.00     0.205 HD
HETATM    6  N5  UNL     1      -1.946  12.123  29.916  1.00  0.00    -0.269 N 
ATOM      7  H5  UNL     1      -2.598  11.348  30.040  1.00  0.00     0.189 HD
HETATM    8  C3  UNL     1      -1.388  12.280  28.600  1.00  0.00     0.147 C 
HETATM    9  C6  UNL     1      -0.778  13.516  28.097  1.00  0.00     0.124 A 
HETATM   10  N8  UNL     1      -0.753  13.915  26.819  1.00  0.00    -0.346 N 
ATOM     11  H8  UNL     1      -1.148  13.411  26.026  1.00  0.00     0.167 HD
HETATM   12  C7  UNL     1      -0.123  15.083  26.766  1.00  0.00     0.184 A 
HETATM   13  N9  UNL     1       0.282  15.481  28.005  1.00  0.00    -0.331 N 
HETATM   14  C8  UNL     1       0.975  16.671  28.389  1.00  0.00     0.158 C 
HETATM   15  C9  UNL     1      -0.118  14.514  28.842  1.00  0.00     0.156 A 
ENDROOT
BRANCH   8  16
HETATM   16  N6  UNL     1      -1.426  11.284  27.815  1.00  0.00    -0.372 N 
ATOM     17  H6  UNL     1      -0.942  11.407  26.925  1.00  0.00     0.161 HD
BRANCH  16  18
HETATM   18  C4  UNL     1      -2.047  10.020  28.002  1.00  0.00     0.148 C 
BRANCH  18  19
HETATM   19  C5  UNL     1      -2.100   9.242  26.693  1.00  0.00     0.249 C 
BRANCH  19  20
HETATM   20  N7  UNL     1      -2.478  10.193  25.658  1.00  0.00    -0.078 N 
ATOM     21  H73 UNL     1      -1.829  10.976  25.573  1.00  0.00     0.274 HD
ATOM     22  H72 UNL     1      -2.361   9.827  24.713  1.00  0.00     0.274 HD
ATOM     23  H71 UNL     1      -3.435  10.483  25.863  1.00  0.00     0.274 HD
ENDBRANCH  19  20
ENDBRANCH  18  19
ENDBRANCH  16  18
ENDBRANCH   8  16
BRANCH   3  24
HETATM   24  N2  UNL     1      -0.545  14.410  32.404  1.00  0.00    -0.137 N 
ATOM     25  H2  UNL     1       0.372  14.748  32.695  1.00  0.00     0.205 HD
BRANCH  24  26
HETATM   26  N3  UNL     1      -1.641  14.454  33.270  1.00  0.00    -0.331 N 
ATOM     27  H32 UNL     1      -2.553  14.118  32.961  1.00  0.00     0.177 HD
ATOM     28  H31 UNL     1      -1.490  14.830  34.207  1.00  0.00     0.177 HD
ENDBRANCH  24  26
ENDBRANCH   3  24
TORSDOF 6
ENDMDL
MODEL 3
REMARK VINA RESULT: -4.847740899      1.879      2.779
REMARK  6 active torsions:
REMARK  status: ('A' for Active; 'I' for Inactive)
REMARK    1  A    between atoms: C2_3  and  N2_4 
REMARK    2  A    between atoms: N2_4  and  N3_6 
REMARK    3  A    between atoms: C3_13  and  N6_14 
REMARK    4  A    between atoms: N6_14  and  C4_16 
REMARK    5  A    between atoms: C4_16  and  C5_17 
REMARK    6  A    between atoms: C5_17  and  N7_18 
ROOT
HETATM    1  C1  UNL     1      -5.253  11.659  29.082  1.00  0.00     0.177 C 
HETATM    2  N1  UNL     1      -4.321  10.689  28.618  1.00  0.00    -0.167 N 
HETATM    3  C2  UNL     1      -2.957  10.699  29.074  1.00  0.00     0.714 C 
HETATM    4  N4  UNL     1      -1.818  10.107  28.472  1.00  0.00    -0.129 N 
ATOM      5  H4  UNL     1      -0.970  10.110  29.040  1.00  0.00     0.205 HD
HETATM    6  N5  UNL     1      -1.694   9.520  27.214  1.00  0.00    -0.269 N 
ATOM      7  H5  UNL     1      -0.748   9.276  26.921  1.00  0.00     0.189 HD
HETATM    8  C3  UNL     1      -2.746   9.220  26.281  1.00  0.00     0.147 C 
HETATM    9  C6  UNL     1      -4.165   9.102  26.635  1.00  0.00     0.124 A 
HETATM   10  N8  UNL     1      -5.068   8.331  26.017  1.00  0.00    -0.346 N 
ATOM     11  H8  UNL     1      -4.891   7.728  25.214  1.00  0.00     0.167 HD
HETATM   12  C7  UNL     1      -6.234   8.489  26.633  1.00  0.00     0.184 A 
HETATM   13  N9  UNL     1      -6.129   9.366  27.669  1.00  0.00    -0.331 N 
HETATM   14  C8  UNL     1      -7.133   9.802  28.588  1.00  0.00     0.158 C 
HETATM   15  C9  UNL     1      -4.847   9.757  27.681  1.00  0.00     0.156 A 
ENDROOT
BRANCH   8  16
HETATM   16  N6  UNL     1      -2.430   9.042  25.065  1.00  0.00    -0.372 N 
ATOM     17  H6  UNL     1      -2.840   9.701  24.403  1.00  0.00     0.161 HD
BRANCH  16  18
HETATM   18  C4  UNL     1      -1.584   8.052  24.496  1.00  0.00     0.148 C 
BRANCH  18  19
HETATM   19  C5  UNL     1      -2.322   7.258  23.426  1.00  0.00     0.249 C 
BRANCH  19  20
HETATM   20  N7  UNL     1      -1.311   6.533  22.671  1.00  0.00    -0.078 N 
ATOM     21  H73 UNL     1      -0.432   7.043  22.583  1.00  0.00     0.274 HD
ATOM     22  H72 UNL     1      -0.939   5.724  23.169  1.00  0.00     0.274 HD
ATOM     23  H71 UNL     1      -1.731   6.295  21.773  1.00  0.00     0.274 HD
ENDBRANCH  19  20
ENDBRANCH  18  19
ENDBRANCH  16  18
ENDBRANCH   8  16
BRANCH   3  24
HETATM   24  N2  UNL     1      -2.818  11.349  30.177  1.00  0.00    -0.137 N 
ATOM     25  H2  UNL     1      -3.609  11.504  30.801  1.00  0.00     0.205 HD
BRANCH  24  26
HETATM   26  N3  UNL     1      -1.545  11.834  30.488  1.00  0.00    -0.331 N 
ATOM     27  H32 UNL     1      -0.718  11.272  30.287  1.00  0.00     0.177 HD
ATOM     28  H31 UNL     1      -1.481  12.758  30.916  1.00  0.00     0.177 HD
ENDBRANCH  24  26
ENDBRANCH   3  24
TORSDOF 6
ENDMDL
MODEL 4
REMARK VINA RESULT: -4.763553096      2.888      5.027
REMARK  6 active torsions:
REMARK  status: ('A' for Active; 'I' for Inactive)
REMARK    1  A    between atoms: C2_3  and  N2_4 
REMARK    2  A    between atoms: N2_4  and  N3_6 
REMARK    3  A    between atoms: C3_13  and  N6_14 
REMARK    4  A    between atoms: N6_14  and  C4_16 
REMARK    5  A    between atoms: C4_16  and  C5_17 
REMARK    6  A    between atoms: C5_17  and  N7_18 
ROOT
HETATM    1  C1  UNL     1      -3.839  10.594  30.591  1.00  0.00     0.177 C 
HETATM    2  N1  UNL     1      -3.959  10.568  29.174  1.00  0.00    -0.167 N 
HETATM    3  C2  UNL     1      -5.005   9.818  28.534  1.00  0.00     0.714 C 
HETATM    4  N4  UNL     1      -5.069   9.352  27.196  1.00  0.00    -0.129 N 
ATOM      5  H4  UNL     1      -5.968   8.965  26.909  1.00  0.00     0.205 HD
HETATM    6  N5  UNL     1      -4.075   9.348  26.219  1.00  0.00    -0.269 N 
ATOM      7  H5  UNL     1      -4.289   8.839  25.361  1.00  0.00     0.189 HD
HETATM    8  C3  UNL     1      -2.785   9.977  26.281  1.00  0.00     0.147 C 
HETATM    9  C6  UNL     1      -2.431  11.064  27.200  1.00  0.00     0.124 A 
HETATM   10  N8  UNL     1      -1.527  12.024  26.971  1.00  0.00    -0.346 N 
ATOM     11  H8  UNL     1      -0.959  12.124  26.130  1.00  0.00     0.167 HD
HETATM   12  C7  UNL     1      -1.499  12.824  28.032  1.00  0.00     0.184 A 
HETATM   13  N9  UNL     1      -2.382  12.411  28.983  1.00  0.00    -0.331 N 
HETATM   14  C8  UNL     1      -2.673  12.992  30.256  1.00  0.00     0.158 C 
HETATM   15  C9  UNL     1      -2.968  11.317  28.480  1.00  0.00     0.156 A 
ENDROOT
BRANCH   8  16
HETATM   16  N6  UNL     1      -1.885   9.569  25.484  1.00  0.00    -0.372 N 
ATOM     17  H6  UNL     1      -1.060  10.165  25.410  1.00  0.00     0.161 HD
BRANCH  16  18
HETATM   18  C4  UNL     1      -1.865   8.397  24.681  1.00  0.00     0.148 C 
BRANCH  18  19
HETATM   19  C5  UNL     1      -0.583   7.605  24.908  1.00  0.00     0.249 C 
BRANCH  19  20
HETATM   20  N7  UNL     1      -0.391   6.775  23.729  1.00  0.00    -0.078 N 
ATOM     21  H73 UNL     1       0.531   6.884  23.305  1.00  0.00     0.274 HD
ATOM     22  H72 UNL     1      -0.317   5.781  23.943  1.00  0.00     0.274 HD
ATOM     23  H71 UNL     1      -1.156   6.994  23.090  1.00  0.00     0.274 HD
ENDBRANCH  19  20
ENDBRANCH  18  19
ENDBRANCH  16  18
ENDBRANCH   8  16
BRANCH   3  24
HETATM   24  N2  UNL     1      -5.982   9.566  29.334  1.00  0.00    -0.137 N 
ATOM     25  H2  UNL     1      -6.260  10.233  30.054  1.00  0.00     0.205 HD
BRANCH  24  26
HETATM   26  N3  UNL     1      -6.646   8.346  29.182  1.00  0.00    -0.331 N 
ATOM     27  H32 UNL     1      -6.804   7.960  28.251  1.00  0.00     0.177 HD
ATOM     28  H31 UNL     1      -6.961   7.869  30.028  1.00  0.00     0.177 HD
ENDBRANCH  24  26
ENDBRANCH   3  24
TORSDOF 6
ENDMDL
MODEL 5
REMARK VINA RESULT: -4.689366764      2.908      5.548
REMARK  6 active torsions:
REMARK  status: ('A' for Active; 'I' for Inactive)
REMARK    1  A    between atoms: C2_3  and  N2_4 
REMARK    2  A    between atoms: N2_4  and  N3_6 
REMARK    3  A    between atoms: C3_13  and  N6_14 
REMARK    4  A    between atoms: N6_14  and  C4_16 
REMARK    5  A    between atoms: C4_16  and  C5_17 
REMARK    6  A    between atoms: C5_17  and  N7_18 
ROOT
HETATM    1  C1  UNL     1      -1.744  11.301  27.218  1.00  0.00     0.177 C 
HETATM    2  N1  UNL     1      -2.781  10.327  27.254  1.00  0.00    -0.167 N 
HETATM    3  C2  UNL     1      -2.925   9.363  26.198  1.00  0.00     0.714 C 
HETATM    4  N4  UNL     1      -4.066   8.598  25.847  1.00  0.00    -0.129 N 
ATOM      5  H4  UNL     1      -3.907   7.865  25.156  1.00  0.00     0.205 HD
HETATM    6  N5  UNL     1      -5.374   8.706  26.316  1.00  0.00    -0.269 N 
ATOM      7  H5  UNL     1      -6.075   8.146  25.831  1.00  0.00     0.189 HD
HETATM    8  C3  UNL     1      -5.850   9.517  27.404  1.00  0.00     0.147 C 
HETATM    9  C6  UNL     1      -5.001  10.064  28.468  1.00  0.00     0.124 A 
HETATM   10  N8  UNL     1      -5.385  10.321  29.725  1.00  0.00    -0.346 N 
ATOM     11  H8  UNL     1      -6.320  10.178  30.107  1.00  0.00     0.167 HD
HETATM   12  C7  UNL     1      -4.335  10.795  30.386  1.00  0.00     0.184 A 
HETATM   13  N9  UNL     1      -3.237  10.862  29.583  1.00  0.00    -0.331 N 
HETATM   14  C8  UNL     1      -1.913  11.298  29.900  1.00  0.00     0.158 C 
HETATM   15  C9  UNL     1      -3.637  10.412  28.387  1.00  0.00     0.156 A 
ENDROOT
BRANCH   8  16
HETATM   16  N6  UNL     1      -7.091   9.780  27.451  1.00  0.00    -0.372 N 
ATOM     17  H6  UNL     1      -7.573   9.468  28.294  1.00  0.00     0.161 HD
BRANCH  16  18
HETATM   18  C4  UNL     1      -7.902  10.448  26.495  1.00  0.00     0.148 C 
BRANCH  18  19
HETATM   19  C5  UNL     1      -7.495  11.911  26.366  1.00  0.00     0.249 C 
BRANCH  19  20
HETATM   20  N7  UNL     1      -7.376  12.188  24.943  1.00  0.00    -0.078 N 
ATOM     21  H73 UNL     1      -8.018  11.638  24.371  1.00  0.00     0.274 HD
ATOM     22  H72 UNL     1      -7.728  13.108  24.681  1.00  0.00     0.274 HD
ATOM     23  H71 UNL     1      -6.396  12.046  24.698  1.00  0.00     0.274 HD
ENDBRANCH  19  20
ENDBRANCH  18  19
ENDBRANCH  16  18
ENDBRANCH   8  16
BRANCH   3  24
HETATM   24  N2  UNL     1      -1.842   9.223  25.516  1.00  0.00    -0.137 N 
ATOM     25  H2  UNL     1      -1.017   9.789  25.714  1.00  0.00     0.205 HD
BRANCH  24  26
HETATM   26  N3  UNL     1      -1.837   8.270  24.494  1.00  0.00    -0.331 N 
ATOM     27  H32 UNL     1      -2.708   8.003  24.036  1.00  0.00     0.177 HD
ATOM     28  H31 UNL     1      -0.939   7.861  24.232  1.00  0.00     0.177 HD
ENDBRANCH  24  26
ENDBRANCH   3  24
TORSDOF 6
ENDMDL
