MODEL 1
REMARK VINA RESULT: -5.793834561      0.000      0.000
REMARK  4 active torsions:
REMARK  status: ('A' for Active; 'I' for Inactive)
REMARK       I    between atoms: C3_3  and  N1_5 
REMARK    1  A    between atoms: N1_5  and  C4_7 
REMARK    2  A    between atoms: C5_8  and  C6_9 
REMARK    3  A    between atoms: C7_11  and  N2_12 
REMARK    4  A    between atoms: N2_12  and  O3_14 
ROOT
HETATM    1  C1  UNL     1       3.425  15.869  31.535  1.00  0.00     0.022 C 
HETATM    2  C2  UNL     1       2.758  15.530  30.595  1.00  0.00    -0.016 C 
HETATM    3  C3  UNL     1       1.939  15.143  29.444  1.00  0.00     0.300 C 
HETATM    4  O1  UNL     1       2.505  14.779  28.372  1.00  0.00    -0.258 OA
HETATM    5  N1  UNL     1       0.546  15.191  29.576  1.00  0.00    -0.311 N 
ATOM      6  H1  UNL     1       0.155  16.125  29.694  1.00  0.00     0.170 HD
ENDROOT
BRANCH   5   7
HETATM    7  C4  UNL     1      -0.294  14.258  29.573  1.00  0.00     0.121 C 
HETATM    8  C5  UNL     1      -0.947  14.011  28.362  1.00  0.00     0.080 C 
HETATM    9  C7  UNL     1      -1.420  12.804  27.907  1.00  0.00     0.144 C 
HETATM   10  N3  UNL     1      -2.015  11.816  28.639  1.00  0.00    -0.292 N 
HETATM   11  C8  UNL     1      -1.788  11.564  29.949  1.00  0.00     0.328 C 
ATOM     12  H3  UNL     1      -2.686  11.219  28.157  1.00  0.00     0.172 HD
HETATM   13  O4  UNL     1      -2.387  10.555  30.401  1.00  0.00    -0.247 OA
HETATM   14  N4  UNL     1      -1.006  12.248  30.840  1.00  0.00    -0.274 N 
HETATM   15  C9  UNL     1      -0.545  13.531  30.711  1.00  0.00     0.277 C 
ATOM     16  H4  UNL     1      -0.739  11.750  31.688  1.00  0.00     0.173 HD
HETATM   17  O5  UNL     1      -0.325  14.122  31.794  1.00  0.00    -0.266 OA
BRANCH   8  18
HETATM   18  C6  UNL     1      -1.162  15.150  27.531  1.00  0.00     0.276 C 
HETATM   19  O2  UNL     1      -0.296  15.481  26.645  1.00  0.00    -0.301 OA
ENDBRANCH   8  18
BRANCH   9  20
HETATM   20  N2  UNL     1      -1.270  12.498  26.544  1.00  0.00    -0.252 N 
ATOM     21  H2  UNL     1      -0.457  12.859  26.044  1.00  0.00     0.196 HD
BRANCH  20  22
HETATM   22  O3  UNL     1      -2.168  11.741  25.870  1.00  0.00    -0.288 OA
ATOM     23  H3  UNL     1      -2.434  10.880  26.173  1.00  0.00     0.244 HD
ENDBRANCH  20  22
ENDBRANCH   9  20
ENDBRANCH   5   7
TORSDOF 4
ENDMDL
MODEL 2
REMARK VINA RESULT: -5.333410890      2.608      5.874
REMARK  4 active torsions:
REMARK  status: ('A' for Active; 'I' for Inactive)
REMARK       I    between atoms: C3_3  and  N1_5 
REMARK    1  A    between atoms: N1_5  and  C4_7 
REMARK    2  A    between atoms: C5_8  and  C6_9 
REMARK    3  A    between atoms: C7_11  and  N2_12 
REMARK    4  A    between atoms: N2_12  and  O3_14 
ROOT
HETATM    1  C1  UNL     1      -7.146   9.183  29.338  1.00  0.00     0.022 C 
HETATM    2  C2  UNL     1      -6.321   9.854  28.779  1.00  0.00    -0.016 C 
HETATM    3  C3  UNL     1      -5.312  10.652  28.079  1.00  0.00     0.300 C 
HETATM    4  O1  UNL     1      -5.679  11.620  27.351  1.00  0.00    -0.258 OA
HETATM    5  N1  UNL     1      -3.965  10.308  28.244  1.00  0.00    -0.311 N 
ATOM      6  H1  UNL     1      -3.698   9.406  27.853  1.00  0.00     0.170 HD
ENDROOT
BRANCH   5   7
HETATM    7  C4  UNL     1      -3.036  10.943  28.801  1.00  0.00     0.121 C 
HETATM    8  C5  UNL     1      -2.068  11.498  27.961  1.00  0.00     0.080 C 
HETATM    9  C7  UNL     1      -1.338  12.642  28.179  1.00  0.00     0.144 C 
HETATM   10  N3  UNL     1      -0.826  13.087  29.364  1.00  0.00    -0.292 N 
HETATM   11  C8  UNL     1      -1.347  12.836  30.588  1.00  0.00     0.328 C 
ATOM     12  H3  UNL     1       0.019  13.656  29.324  1.00  0.00     0.172 HD
HETATM   13  O4  UNL     1      -0.756  13.412  31.538  1.00  0.00    -0.247 OA
HETATM   14  N4  UNL     1      -2.415  12.052  30.931  1.00  0.00    -0.274 N 
HETATM   15  C9  UNL     1      -2.993  11.073  30.169  1.00  0.00     0.277 C 
ATOM     16  H4  UNL     1      -2.823  12.215  31.852  1.00  0.00     0.173 HD
HETATM   17  O5  UNL     1      -3.560  10.165  30.820  1.00  0.00    -0.266 OA
BRANCH   8  18
HETATM   18  C6  UNL     1      -1.799  10.773  26.763  1.00  0.00     0.276 C 
HETATM   19  O2  UNL     1      -2.301  11.153  25.646  1.00  0.00    -0.301 OA
ENDBRANCH   8  18
BRANCH   9  20
HETATM   20  N2  UNL     1      -1.091  13.495  27.090  1.00  0.00    -0.252 N 
ATOM     21  H2  UNL     1      -1.845  13.682  26.430  1.00  0.00     0.196 HD
BRANCH  20  22
HETATM   22  O3  UNL     1       0.115  14.077  26.888  1.00  0.00    -0.288 OA
ATOM     23  H3  UNL     1       0.235  14.795  26.277  1.00  0.00     0.244 HD
ENDBRANCH  20  22
ENDBRANCH   9  20
ENDBRANCH   5   7
TORSDOF 4
ENDMDL
MODEL 3
REMARK VINA RESULT: -5.214834237      2.345      4.787
REMARK  4 active torsions:
REMARK  status: ('A' for Active; 'I' for Inactive)
REMARK       I    between atoms: C3_3  and  N1_5 
REMARK    1  A    between atoms: N1_5  and  C4_7 
REMARK    2  A    between atoms: C5_8  and  C6_9 
REMARK    3  A    between atoms: C7_11  and  N2_12 
REMARK    4  A    between atoms: N2_12  and  O3_14 
ROOT
HETATM    1  C1  UNL     1      -2.606   8.658  26.236  1.00  0.00     0.022 C 
HETATM    2  C2  UNL     1      -2.272   9.777  26.515  1.00  0.00    -0.016 C 
HETATM    3  C3  UNL     1      -1.837  11.135  26.850  1.00  0.00     0.300 C 
HETATM    4  O1  UNL     1      -2.031  12.073  26.023  1.00  0.00    -0.258 OA
HETATM    5  N1  UNL     1      -1.217  11.345  28.088  1.00  0.00    -0.311 N 
ATOM      6  H1  UNL     1      -0.308  10.898  28.198  1.00  0.00     0.170 HD
ENDROOT
BRANCH   5   7
HETATM    7  C4  UNL     1      -1.612  12.002  29.083  1.00  0.00     0.121 C 
HETATM    8  C5  UNL     1      -1.179  13.328  29.167  1.00  0.00     0.080 C 
HETATM    9  C7  UNL     1      -1.849  14.383  29.739  1.00  0.00     0.144 C 
HETATM   10  N3  UNL     1      -2.608  14.368  30.873  1.00  0.00    -0.292 N 
HETATM   11  C8  UNL     1      -3.290  13.300  31.348  1.00  0.00     0.328 C 
ATOM     12  H3  UNL     1      -2.665  15.234  31.408  1.00  0.00     0.172 HD
HETATM   13  O4  UNL     1      -3.988  13.533  32.368  1.00  0.00    -0.247 OA
HETATM   14  N4  UNL     1      -3.326  12.016  30.876  1.00  0.00    -0.274 N 
HETATM   15  C9  UNL     1      -2.425  11.427  30.029  1.00  0.00     0.277 C 
ATOM     16  H4  UNL     1      -4.105  11.437  31.187  1.00  0.00     0.173 HD
HETATM   17  O5  UNL     1      -2.332  10.182  30.143  1.00  0.00    -0.266 OA
BRANCH   8  18
HETATM   18  C6  UNL     1       0.110  13.594  28.619  1.00  0.00     0.276 C 
HETATM   19  O2  UNL     1       0.228  14.059  27.430  1.00  0.00    -0.301 OA
ENDBRANCH   8  18
BRANCH   9  20
HETATM   20  N2  UNL     1      -1.795  15.633  29.100  1.00  0.00    -0.252 N 
ATOM     21  H2  UNL     1      -1.354  16.416  29.584  1.00  0.00     0.196 HD
BRANCH  20  22
HETATM   22  O3  UNL     1      -2.309  15.836  27.864  1.00  0.00    -0.288 OA
ATOM     23  H3  UNL     1      -2.249  16.674  27.420  1.00  0.00     0.244 HD
ENDBRANCH  20  22
ENDBRANCH   9  20
ENDBRANCH   5   7
TORSDOF 4
ENDMDL
MODEL 4
REMARK VINA RESULT: -5.209558784      3.066      5.013
REMARK  4 active torsions:
REMARK  status: ('A' for Active; 'I' for Inactive)
REMARK       I    between atoms: C3_3  and  N1_5 
REMARK    1  A    between atoms: N1_5  and  C4_7 
REMARK    2  A    between atoms: C5_8  and  C6_9 
REMARK    3  A    between atoms: C7_11  and  N2_12 
REMARK    4  A    between atoms: N2_12  and  O3_14 
ROOT
HETATM    1  C1  UNL     1       1.906  21.463  29.147  1.00  0.00     0.022 C 
HETATM    2  C2  UNL     1       1.643  20.453  29.741  1.00  0.00    -0.016 C 
HETATM    3  C3  UNL     1       1.345  19.225  30.481  1.00  0.00     0.300 C 
HETATM    4  O1  UNL     1       0.415  19.226  31.339  1.00  0.00    -0.258 OA
HETATM    5  N1  UNL     1       2.109  18.084  30.207  1.00  0.00    -0.311 N 
ATOM      6  H1  UNL     1       3.092  18.148  30.471  1.00  0.00     0.170 HD
ENDROOT
BRANCH   5   7
HETATM    7  C4  UNL     1       1.768  16.995  29.685  1.00  0.00     0.121 C 
HETATM    8  C5  UNL     1       1.561  15.922  30.557  1.00  0.00     0.080 C 
HETATM    9  C7  UNL     1       0.686  14.876  30.391  1.00  0.00     0.144 C 
HETATM   10  N3  UNL     1       0.379  14.227  29.230  1.00  0.00    -0.292 N 
HETATM   11  C8  UNL     1       0.419  14.771  27.992  1.00  0.00     0.328 C 
ATOM     12  H3  UNL     1       0.095  13.251  29.302  1.00  0.00     0.172 HD
HETATM   13  O4  UNL     1       0.018  14.013  27.071  1.00  0.00    -0.247 OA
HETATM   14  N4  UNL     1       0.830  16.019  27.607  1.00  0.00    -0.274 N 
HETATM   15  C9  UNL     1       1.612  16.883  28.325  1.00  0.00     0.277 C 
ATOM     16  H4  UNL     1       0.521  16.337  26.689  1.00  0.00     0.173 HD
HETATM   17  O5  UNL     1       2.283  17.684  27.632  1.00  0.00    -0.266 OA
BRANCH   8  18
HETATM   18  C6  UNL     1       2.374  15.913  31.729  1.00  0.00     0.276 C 
HETATM   19  O2  UNL     1       3.652  15.906  31.634  1.00  0.00    -0.301 OA
ENDBRANCH   8  18
BRANCH   9  20
HETATM   20  N2  UNL     1      -0.014  14.407  31.515  1.00  0.00    -0.252 N 
ATOM     21  H2  UNL     1       0.053  14.926  32.390  1.00  0.00     0.196 HD
BRANCH  20  22
HETATM   22  O3  UNL     1      -0.777  13.288  31.475  1.00  0.00    -0.288 OA
ATOM     23  H3  UNL     1      -0.603  12.536  32.030  1.00  0.00     0.244 HD
ENDBRANCH  20  22
ENDBRANCH   9  20
ENDBRANCH   5   7
TORSDOF 4
ENDMDL
MODEL 5
REMARK VINA RESULT: -5.130987945      2.146      5.758
REMARK  4 active torsions:
REMARK  status: ('A' for Active; 'I' for Inactive)
REMARK       I    between atoms: C3_3  and  N1_5 
REMARK    1  A    between atoms: N1_5  and  C4_7 
REMARK    2  A    between atoms: C5_8  and  C6_9 
REMARK    3  A    between atoms: C7_11  and  N2_12 
REMARK    4  A    between atoms: N2_12  and  O3_14 
ROOT
HETATM    1  C1  UNL     1      -1.969  10.983  28.093  1.00  0.00     0.022 C 
HETATM    2  C2  UNL     1      -1.491  11.716  28.916  1.00  0.00    -0.016 C 
HETATM    3  C3  UNL     1      -0.933  12.611  29.933  1.00  0.00     0.300 C 
HETATM    4  O1  UNL     1      -0.191  12.135  30.840  1.00  0.00    -0.258 OA
HETATM    5  N1  UNL     1      -1.247  13.973  29.860  1.00  0.00    -0.311 N 
ATOM      6  H1  UNL     1      -2.227  14.201  30.024  1.00  0.00     0.170 HD
ENDROOT
BRANCH   5   7
HETATM    7  C4  UNL     1      -0.504  14.957  29.623  1.00  0.00     0.121 C 
HETATM    8  C5  UNL     1       0.101  15.563  30.727  1.00  0.00     0.080 C 
HETATM    9  C7  UNL     1       1.317  16.203  30.758  1.00  0.00     0.144 C 
HETATM   10  N3  UNL     1       1.859  17.002  29.793  1.00  0.00    -0.292 N 
HETATM   11  C8  UNL     1       1.615  16.907  28.465  1.00  0.00     0.328 C 
ATOM     12  H3  UNL     1       2.502  17.732  30.098  1.00  0.00     0.172 HD
HETATM   13  O4  UNL     1       2.284  17.696  27.750  1.00  0.00    -0.247 OA
HETATM   14  N4  UNL     1       0.751  16.079  27.801  1.00  0.00    -0.274 N 
HETATM   15  C9  UNL     1      -0.311  15.400  28.336  1.00  0.00     0.277 C 
ATOM     16  H4  UNL     1       0.914  15.956  26.802  1.00  0.00     0.173 HD
HETATM   17  O5  UNL     1      -1.239  15.154  27.530  1.00  0.00    -0.266 OA
BRANCH   8  18
HETATM   18  C6  UNL     1      -0.648  15.528  31.940  1.00  0.00     0.276 C 
HETATM   19  O2  UNL     1      -0.434  14.611  32.810  1.00  0.00    -0.301 OA
ENDBRANCH   8  18
BRANCH   9  20
HETATM   20  N2  UNL     1       2.140  16.019  31.881  1.00  0.00    -0.252 N 
ATOM     21  H2  UNL     1       1.710  15.769  32.772  1.00  0.00     0.196 HD
BRANCH  20  22
HETATM   22  O3  UNL     1       3.485  16.163  31.822  1.00  0.00    -0.288 OA
ATOM     23  H3  UNL     1       4.005  16.394  32.583  1.00  0.00     0.244 HD
ENDBRANCH  20  22
ENDBRANCH   9  20
ENDBRANCH   5   7
TORSDOF 4
ENDMDL
