MODEL 1
REMARK VINA RESULT: -5.406786699      0.000      0.000
REMARK  5 active torsions:
REMARK  status: ('A' for Active; 'I' for Inactive)
REMARK       I    between atoms: C2_2  and  N1_4 
REMARK    1  A    between atoms: N1_4  and  N2_6 
REMARK    2  A    between atoms: N2_6  and  C3_8 
REMARK    3  A    between atoms: C4_13  and  S1_14 
REMARK    4  A    between atoms: S1_14  and  N5_15 
REMARK    5  A    between atoms: N6_20  and  N7_21 
ROOT
HETATM    1  C3  UNL     1      -0.437  13.625  28.624  1.00  0.00     0.734 A 
HETATM    2  N3  UNL     1       0.669  13.159  29.185  1.00  0.00    -0.127 N 
ATOM      3  H3  UNL     1       0.837  12.187  29.444  1.00  0.00     0.206 HD
HETATM    4  N4  UNL     1       1.518  14.157  29.356  1.00  0.00    -0.258 N 
ATOM      5  H4  UNL     1       2.447  14.077  29.769  1.00  0.00     0.190 HD
HETATM    6  C4  UNL     1       0.962  15.297  28.900  1.00  0.00     0.276 A 
HETATM    7  N6  UNL     1      -0.259  14.945  28.446  1.00  0.00    -0.059 N 
ENDROOT
BRANCH   1   8
HETATM    8  N2  UNL     1      -1.525  12.972  28.285  1.00  0.00    -0.126 N 
ATOM      9  H2  UNL     1      -2.400  13.465  28.109  1.00  0.00     0.206 HD
BRANCH   8  10
HETATM   10  N1  UNL     1      -1.449  11.580  28.172  1.00  0.00    -0.256 N 
HETATM   11  C2  UNL     1      -1.890  10.946  26.978  1.00  0.00     0.232 C 
HETATM   12  C1  UNL     1      -1.833   9.478  26.802  1.00  0.00     0.119 C 
HETATM   13  O1  UNL     1      -2.343  11.626  26.032  1.00  0.00    -0.272 OA
ATOM     14  H1  UNL     1      -1.080  11.022  28.942  1.00  0.00     0.190 HD
ENDBRANCH   8  10
ENDBRANCH   1   8
BRANCH   7  15
HETATM   15  N7  UNL     1      -1.175  15.837  27.884  1.00  0.00    -0.322 N 
ATOM     16  H72 UNL     1      -1.102  16.217  26.940  1.00  0.00     0.178 HD
ATOM     17  H71 UNL     1      -2.010  16.211  28.335  1.00  0.00     0.178 HD
ENDBRANCH   7  15
BRANCH   6  18
HETATM   18  S1  UNL     1       1.693  16.904  28.903  1.00  0.00     0.292 S 
HETATM   19  O2  UNL     1       1.855  17.338  27.498  1.00  0.00    -0.198 OA
HETATM   20  O3  UNL     1       0.773  17.872  29.588  1.00  0.00    -0.198 OA
BRANCH  18  21
HETATM   21  N5  UNL     1       3.191  16.914  29.718  1.00  0.00    -0.322 N 
ATOM     22  H52 UNL     1       3.887  17.652  29.602  1.00  0.00     0.169 HD
ATOM     23  H51 UNL     1       3.297  16.100  30.324  1.00  0.00     0.169 HD
ENDBRANCH  18  21
ENDBRANCH   6  18
TORSDOF 5
ENDMDL
MODEL 2
REMARK VINA RESULT: -5.102373590      2.391      5.943
REMARK  5 active torsions:
REMARK  status: ('A' for Active; 'I' for Inactive)
REMARK       I    between atoms: C2_2  and  N1_4 
REMARK    1  A    between atoms: N1_4  and  N2_6 
REMARK    2  A    between atoms: N2_6  and  C3_8 
REMARK    3  A    between atoms: C4_13  and  S1_14 
REMARK    4  A    between atoms: S1_14  and  N5_15 
REMARK    5  A    between atoms: N6_20  and  N7_21 
ROOT
HETATM    1  C3  UNL     1       1.032  14.315  28.715  1.00  0.00     0.734 A 
HETATM    2  N3  UNL     1       1.032  13.591  29.825  1.00  0.00    -0.127 N 
ATOM      3  H3  UNL     1       1.700  13.682  30.590  1.00  0.00     0.206 HD
HETATM    4  N4  UNL     1       0.029  12.732  29.780  1.00  0.00    -0.258 N 
ATOM      5  H4  UNL     1      -0.200  12.054  30.505  1.00  0.00     0.190 HD
HETATM    6  C4  UNL     1      -0.643  12.894  28.623  1.00  0.00     0.276 A 
HETATM    7  N6  UNL     1      -0.003  13.887  27.971  1.00  0.00    -0.059 N 
ENDROOT
BRANCH   1   8
HETATM    8  N2  UNL     1       1.854  15.275  28.359  1.00  0.00    -0.126 N 
ATOM      9  H2  UNL     1       2.250  15.306  27.420  1.00  0.00     0.206 HD
BRANCH   8  10
HETATM   10  N1  UNL     1       2.170  16.255  29.305  1.00  0.00    -0.256 N 
HETATM   11  C2  UNL     1       2.366  17.600  28.885  1.00  0.00     0.232 C 
HETATM   12  C1  UNL     1       2.702  18.678  29.841  1.00  0.00     0.119 C 
HETATM   13  O1  UNL     1       2.257  17.908  27.680  1.00  0.00    -0.272 OA
ATOM     14  H1  UNL     1       2.259  16.008  30.291  1.00  0.00     0.190 HD
ENDBRANCH   8  10
ENDBRANCH   1   8
BRANCH   7  15
HETATM   15  N7  UNL     1      -0.378  14.373  26.716  1.00  0.00    -0.322 N 
ATOM     16  H72 UNL     1       0.279  14.639  25.983  1.00  0.00     0.178 HD
ATOM     17  H71 UNL     1      -1.332  14.520  26.385  1.00  0.00     0.178 HD
ENDBRANCH   7  15
BRANCH   6  18
HETATM   18  S1  UNL     1      -2.061  11.988  28.088  1.00  0.00     0.292 S 
HETATM   19  O2  UNL     1      -3.265  12.668  28.614  1.00  0.00    -0.198 OA
HETATM   20  O3  UNL     1      -2.131  12.005  26.589  1.00  0.00    -0.198 OA
BRANCH  18  21
HETATM   21  N5  UNL     1      -2.005  10.364  28.608  1.00  0.00    -0.322 N 
ATOM     22  H52 UNL     1      -2.810   9.738  28.576  1.00  0.00     0.169 HD
ATOM     23  H51 UNL     1      -1.078  10.109  28.948  1.00  0.00     0.169 HD
ENDBRANCH  18  21
ENDBRANCH   6  18
TORSDOF 5
ENDMDL
MODEL 3
REMARK VINA RESULT: -5.059497569      1.257      1.799
REMARK  5 active torsions:
REMARK  status: ('A' for Active; 'I' for Inactive)
REMARK       I    between atoms: C2_2  and  N1_4 
REMARK    1  A    between atoms: N1_4  and  N2_6 
REMARK    2  A    between atoms: N2_6  and  C3_8 
REMARK    3  A    between atoms: C4_13  and  S1_14 
REMARK    4  A    between atoms: S1_14  and  N5_15 
REMARK    5  A    between atoms: N6_20  and  N7_21 
ROOT
HETATM    1  C3  UNL     1      -0.870  13.736  28.187  1.00  0.00     0.734 A 
HETATM    2  N3  UNL     1      -0.769  14.245  26.968  1.00  0.00    -0.127 N 
ATOM      3  H3  UNL     1      -1.261  13.904  26.142  1.00  0.00     0.206 HD
HETATM    4  N4  UNL     1       0.072  15.264  26.994  1.00  0.00    -0.258 N 
ATOM      5  H4  UNL     1       0.332  15.835  26.191  1.00  0.00     0.190 HD
HETATM    6  C4  UNL     1       0.531  15.428  28.251  1.00  0.00     0.276 A 
HETATM    7  N6  UNL     1      -0.068  14.466  28.982  1.00  0.00    -0.059 N 
ENDROOT
BRANCH   1   8
HETATM    8  N2  UNL     1      -1.595  12.721  28.597  1.00  0.00    -0.126 N 
ATOM      9  H2  UNL     1      -2.386  12.860  29.225  1.00  0.00     0.206 HD
BRANCH   8  10
HETATM   10  N1  UNL     1      -1.250  11.442  28.148  1.00  0.00    -0.256 N 
HETATM   11  C2  UNL     1      -2.096  10.771  27.222  1.00  0.00     0.232 C 
HETATM   12  C1  UNL     1      -1.782   9.418  26.712  1.00  0.00     0.119 C 
HETATM   13  O1  UNL     1      -3.140  11.317  26.809  1.00  0.00    -0.272 OA
ATOM     14  H1  UNL     1      -0.398  10.992  28.482  1.00  0.00     0.190 HD
ENDBRANCH   8  10
ENDBRANCH   1   8
BRANCH   7  15
HETATM   15  N7  UNL     1       0.134  14.279  30.351  1.00  0.00    -0.322 N 
ATOM     16  H72 UNL     1       0.299  13.372  30.789  1.00  0.00     0.178 HD
ATOM     17  H71 UNL     1       0.142  15.006  31.067  1.00  0.00     0.178 HD
ENDBRANCH   7  15
BRANCH   6  18
HETATM   18  S1  UNL     1       1.676  16.652  28.806  1.00  0.00     0.292 S 
HETATM   19  O2  UNL     1       2.846  15.957  29.384  1.00  0.00    -0.198 OA
HETATM   20  O3  UNL     1       2.146  17.466  27.636  1.00  0.00    -0.198 OA
BRANCH  18  21
HETATM   21  N5  UNL     1       0.970  17.706  29.947  1.00  0.00    -0.322 N 
ATOM     22  H52 UNL     1      -0.029  17.722  30.151  1.00  0.00     0.169 HD
ATOM     23  H51 UNL     1       1.668  18.305  30.390  1.00  0.00     0.169 HD
ENDBRANCH  18  21
ENDBRANCH   6  18
TORSDOF 5
ENDMDL
MODEL 4
REMARK VINA RESULT: -5.043602824      5.390      6.939
REMARK  5 active torsions:
REMARK  status: ('A' for Active; 'I' for Inactive)
REMARK       I    between atoms: C2_2  and  N1_4 
REMARK    1  A    between atoms: N1_4  and  N2_6 
REMARK    2  A    between atoms: N2_6  and  C3_8 
REMARK    3  A    between atoms: C4_13  and  S1_14 
REMARK    4  A    between atoms: S1_14  and  N5_15 
REMARK    5  A    between atoms: N6_20  and  N7_21 
ROOT
HETATM    1  C3  UNL     1      -2.933   8.883  25.922  1.00  0.00     0.734 A 
HETATM    2  N3  UNL     1      -4.246   8.702  25.904  1.00  0.00    -0.127 N 
ATOM      3  H3  UNL     1      -4.749   8.080  25.271  1.00  0.00     0.206 HD
HETATM    4  N4  UNL     1      -4.798   9.457  26.837  1.00  0.00    -0.258 N 
ATOM      5  H4  UNL     1      -5.796   9.510  27.039  1.00  0.00     0.190 HD
HETATM    6  C4  UNL     1      -3.834  10.145  27.480  1.00  0.00     0.276 A 
HETATM    7  N6  UNL     1      -2.676   9.774  26.895  1.00  0.00    -0.059 N 
ENDROOT
BRANCH   1   8
HETATM    8  N2  UNL     1      -2.016   8.328  25.163  1.00  0.00    -0.126 N 
ATOM      9  H2  UNL     1      -1.050   8.250  25.480  1.00  0.00     0.206 HD
BRANCH   8  10
HETATM   10  N1  UNL     1      -2.403   7.847  23.908  1.00  0.00    -0.256 N 
HETATM   11  C2  UNL     1      -1.582   6.900  23.235  1.00  0.00     0.232 C 
HETATM   12  C1  UNL     1      -1.941   6.356  21.907  1.00  0.00     0.119 C 
HETATM   13  O1  UNL     1      -0.522   6.497  23.759  1.00  0.00    -0.272 OA
ATOM     14  H1  UNL     1      -3.268   8.173  23.477  1.00  0.00     0.190 HD
ENDBRANCH   8  10
ENDBRANCH   1   8
BRANCH   7  15
HETATM   15  N7  UNL     1      -1.419  10.258  27.264  1.00  0.00    -0.322 N 
ATOM     16  H72 UNL     1      -0.963  11.061  26.830  1.00  0.00     0.178 HD
ATOM     17  H71 UNL     1      -0.815   9.879  27.994  1.00  0.00     0.178 HD
ENDBRANCH   7  15
BRANCH   6  18
HETATM   18  S1  UNL     1      -4.057  11.288  28.807  1.00  0.00     0.292 S 
HETATM   19  O2  UNL     1      -3.024  12.340  28.685  1.00  0.00    -0.198 OA
HETATM   20  O3  UNL     1      -5.404  11.938  28.688  1.00  0.00    -0.198 OA
BRANCH  18  21
HETATM   21  N5  UNL     1      -3.961  10.518  30.327  1.00  0.00    -0.322 N 
ATOM     22  H52 UNL     1      -4.202  10.979  31.205  1.00  0.00     0.169 HD
ATOM     23  H51 UNL     1      -3.638   9.554  30.241  1.00  0.00     0.169 HD
ENDBRANCH  18  21
ENDBRANCH   6  18
TORSDOF 5
ENDMDL
MODEL 5
REMARK VINA RESULT: -5.013143485      2.601      6.026
REMARK  5 active torsions:
REMARK  status: ('A' for Active; 'I' for Inactive)
REMARK       I    between atoms: C2_2  and  N1_4 
REMARK    1  A    between atoms: N1_4  and  N2_6 
REMARK    2  A    between atoms: N2_6  and  C3_8 
REMARK    3  A    between atoms: C4_13  and  S1_14 
REMARK    4  A    between atoms: S1_14  and  N5_15 
REMARK    5  A    between atoms: N6_20  and  N7_21 
ROOT
HETATM    1  C3  UNL     1       1.749  15.609  28.762  1.00  0.00     0.734 A 
HETATM    2  N3  UNL     1       1.981  14.986  29.908  1.00  0.00    -0.127 N 
ATOM      3  H3  UNL     1       2.731  15.210  30.562  1.00  0.00     0.206 HD
HETATM    4  N4  UNL     1       1.085  14.028  30.067  1.00  0.00    -0.258 N 
ATOM      5  H4  UNL     1       1.033  13.394  30.864  1.00  0.00     0.190 HD
HETATM    6  C4  UNL     1       0.250  14.020  29.009  1.00  0.00     0.276 A 
HETATM    7  N6  UNL     1       0.679  15.014  28.204  1.00  0.00    -0.059 N 
ENDROOT
BRANCH   1   8
HETATM    8  N2  UNL     1       2.401  16.615  28.225  1.00  0.00    -0.126 N 
ATOM      9  H2  UNL     1       2.414  16.753  27.215  1.00  0.00     0.206 HD
BRANCH   8  10
HETATM   10  N1  UNL     1       3.077  17.491  29.080  1.00  0.00    -0.256 N 
HETATM   11  C2  UNL     1       2.378  18.586  29.660  1.00  0.00     0.232 C 
HETATM   12  C1  UNL     1       3.041  19.544  30.571  1.00  0.00     0.119 C 
HETATM   13  O1  UNL     1       1.167  18.766  29.411  1.00  0.00    -0.272 OA
ATOM     14  H1  UNL     1       4.065  17.347  29.287  1.00  0.00     0.190 HD
ENDBRANCH   8  10
ENDBRANCH   1   8
BRANCH   7  15
HETATM   15  N7  UNL     1       0.086  15.351  26.985  1.00  0.00    -0.322 N 
ATOM     16  H72 UNL     1      -0.632  16.067  26.875  1.00  0.00     0.178 HD
ATOM     17  H71 UNL     1       0.289  14.933  26.078  1.00  0.00     0.178 HD
ENDBRANCH   7  15
BRANCH   6  18
HETATM   18  S1  UNL     1      -1.115  12.931  28.747  1.00  0.00     0.292 S 
HETATM   19  O2  UNL     1      -2.231  13.720  28.182  1.00  0.00    -0.198 OA
HETATM   20  O3  UNL     1      -0.732  11.879  27.748  1.00  0.00    -0.198 OA
BRANCH  18  21
HETATM   21  N5  UNL     1      -1.590  12.156  30.192  1.00  0.00    -0.322 N 
ATOM     22  H52 UNL     1      -2.299  11.423  30.227  1.00  0.00     0.169 HD
ATOM     23  H51 UNL     1      -1.080  12.517  30.998  1.00  0.00     0.169 HD
ENDBRANCH  18  21
ENDBRANCH   6  18
TORSDOF 5
ENDMDL
