MODEL 1
REMARK VINA RESULT: -4.981735094      0.000      0.000
REMARK  4 active torsions:
REMARK  status: ('A' for Active; 'I' for Inactive)
REMARK    1  A    between atoms: N3_4  and  N4_6 
REMARK    2  A    between atoms: C2_8  and  N5_9 
REMARK    3  A    between atoms: N5_9  and  C3_11 
REMARK    4  A    between atoms: N7_19  and  O3_20 
ROOT
HETATM    1  C3  UNL     1       1.513  13.886  28.970  1.00  0.00     0.714 C 
HETATM    2  N6  UNL     1       0.724  13.344  28.108  1.00  0.00    -0.115 N 
ATOM      3  H6  UNL     1       0.801  13.581  27.119  1.00  0.00     0.197 HD
HETATM    4  S1  UNL     1      -0.465  12.215  28.643  1.00  0.00     0.245 S 
HETATM    5  O1  UNL     1      -1.718  12.974  29.049  1.00  0.00    -0.205 OA
HETATM    6  O2  UNL     1      -0.754  11.154  27.651  1.00  0.00    -0.205 OA
HETATM    7  C4  UNL     1       0.194  11.535  30.172  1.00  0.00     0.186 C 
HETATM    8  C5  UNL     1       0.509  12.762  31.020  1.00  0.00     0.192 C 
HETATM    9  N7  UNL     1       1.461  13.607  30.353  1.00  0.00    -0.089 N 
ENDROOT
BRANCH   1  10
HETATM   10  N5  UNL     1       2.485  14.824  28.453  1.00  0.00    -0.184 N 
ATOM     11  H5  UNL     1       3.378  14.484  28.097  1.00  0.00     0.185 HD
BRANCH  10  12
HETATM   12  C2  UNL     1       2.205  16.210  28.439  1.00  0.00     0.214 C 
HETATM   13  N4  UNL     1       2.129  16.936  29.492  1.00  0.00    -0.294 N 
ATOM     14  H4  UNL     1       2.278  16.498  30.401  1.00  0.00     0.187 HD
BRANCH  13  15
HETATM   15  N3  UNL     1       1.852  18.299  29.444  1.00  0.00    -0.275 N 
HETATM   16  C1  UNL     1       2.405  19.086  30.281  1.00  0.00     0.215 C 
HETATM   17  N1  UNL     1       2.146  20.478  30.258  1.00  0.00    -0.065 NA
HETATM   18  N2  UNL     1       3.293  18.570  31.248  1.00  0.00    -0.065 NA
ATOM     19  H3  UNL     1       1.209  18.667  28.742  1.00  0.00     0.189 HD
ENDBRANCH  13  15
ENDBRANCH  10  12
ENDBRANCH   1  10
BRANCH   9  20
HETATM   20  O3  UNL     1       2.407  14.190  31.160  1.00  0.00    -0.274 OA
ATOM     21  H3  UNL     1       2.894  13.627  31.749  1.00  0.00     0.245 HD
ENDBRANCH   9  20
TORSDOF 4
ENDMDL
MODEL 2
REMARK VINA RESULT: -4.930014366      3.237      5.795
REMARK  4 active torsions:
REMARK  status: ('A' for Active; 'I' for Inactive)
REMARK    1  A    between atoms: N3_4  and  N4_6 
REMARK    2  A    between atoms: C2_8  and  N5_9 
REMARK    3  A    between atoms: N5_9  and  C3_11 
REMARK    4  A    between atoms: N7_19  and  O3_20 
ROOT
HETATM    1  C3  UNL     1       2.453  16.107  29.269  1.00  0.00     0.714 C 
HETATM    2  N6  UNL     1       1.543  17.002  29.092  1.00  0.00    -0.115 N 
ATOM      3  H6  UNL     1       0.925  16.956  28.282  1.00  0.00     0.197 HD
HETATM    4  S1  UNL     1       1.381  18.281  30.238  1.00  0.00     0.245 S 
HETATM    5  O1  UNL     1       2.319  19.412  29.849  1.00  0.00    -0.205 OA
HETATM    6  O2  UNL     1      -0.014  18.748  30.402  1.00  0.00    -0.205 OA
HETATM    7  C4  UNL     1       2.046  17.618  31.772  1.00  0.00     0.186 C 
HETATM    8  C5  UNL     1       3.433  17.115  31.389  1.00  0.00     0.192 C 
HETATM    9  N7  UNL     1       3.342  16.112  30.365  1.00  0.00    -0.089 N 
ENDROOT
BRANCH   1  10
HETATM   10  N5  UNL     1       2.533  15.064  28.270  1.00  0.00    -0.184 N 
ATOM     11  H5  UNL     1       3.147  15.180  27.464  1.00  0.00     0.185 HD
BRANCH  10  12
HETATM   12  C2  UNL     1       1.766  13.884  28.405  1.00  0.00     0.214 C 
HETATM   13  N4  UNL     1       1.795  13.125  29.437  1.00  0.00    -0.294 N 
ATOM     14  H4  UNL     1       2.406  13.377  30.214  1.00  0.00     0.187 HD
BRANCH  13  15
HETATM   15  N3  UNL     1       1.026  11.969  29.539  1.00  0.00    -0.275 N 
HETATM   16  C1  UNL     1       0.165  11.864  30.475  1.00  0.00     0.215 C 
HETATM   17  N1  UNL     1      -0.634  10.703  30.606  1.00  0.00    -0.065 NA
HETATM   18  N2  UNL     1       0.001  12.918  31.398  1.00  0.00    -0.065 NA
ATOM     19  H3  UNL     1       1.149  11.211  28.868  1.00  0.00     0.189 HD
ENDBRANCH  13  15
ENDBRANCH  10  12
ENDBRANCH   1  10
BRANCH   9  20
HETATM   20  O3  UNL     1       4.217  15.060  30.483  1.00  0.00    -0.274 OA
ATOM     21  H3  UNL     1       3.859  14.181  30.456  1.00  0.00     0.245 HD
ENDBRANCH   9  20
TORSDOF 4
ENDMDL
MODEL 3
REMARK VINA RESULT: -4.927904457      3.399      6.968
REMARK  4 active torsions:
REMARK  status: ('A' for Active; 'I' for Inactive)
REMARK    1  A    between atoms: N3_4  and  N4_6 
REMARK    2  A    between atoms: C2_8  and  N5_9 
REMARK    3  A    between atoms: N5_9  and  C3_11 
REMARK    4  A    between atoms: N7_19  and  O3_20 
ROOT
HETATM    1  C3  UNL     1       1.060  12.644  29.349  1.00  0.00     0.714 C 
HETATM    2  N6  UNL     1       1.845  13.220  30.193  1.00  0.00    -0.115 N 
ATOM      3  H6  UNL     1       2.233  12.696  30.977  1.00  0.00     0.197 HD
HETATM    4  S1  UNL     1       2.235  14.887  29.984  1.00  0.00     0.245 S 
HETATM    5  O1  UNL     1       1.172  15.731  30.668  1.00  0.00    -0.205 OA
HETATM    6  O2  UNL     1       3.599  15.233  30.443  1.00  0.00    -0.205 OA
HETATM    7  C4  UNL     1       2.027  15.196  28.223  1.00  0.00     0.186 C 
HETATM    8  C5  UNL     1       0.616  14.704  27.924  1.00  0.00     0.192 C 
HETATM    9  N7  UNL     1       0.488  13.309  28.244  1.00  0.00    -0.089 N 
ENDROOT
BRANCH   1  10
HETATM   10  N5  UNL     1       0.776  11.246  29.585  1.00  0.00    -0.184 N 
ATOM     11  H5  UNL     1       1.456  10.537  29.312  1.00  0.00     0.185 HD
BRANCH  10  12
HETATM   12  C2  UNL     1      -0.441  10.856  30.192  1.00  0.00     0.214 C 
HETATM   13  N4  UNL     1      -1.499  10.548  29.539  1.00  0.00    -0.294 N 
ATOM     14  H4  UNL     1      -1.475  10.582  28.521  1.00  0.00     0.187 HD
BRANCH  13  15
HETATM   15  N3  UNL     1      -2.682  10.167  30.168  1.00  0.00    -0.275 N 
HETATM   16  C1  UNL     1      -3.682   9.803  29.465  1.00  0.00     0.215 C 
HETATM   17  N1  UNL     1      -4.898   9.409  30.072  1.00  0.00    -0.065 NA
HETATM   18  N2  UNL     1      -3.581   9.789  28.058  1.00  0.00    -0.065 NA
ATOM     19  H3  UNL     1      -2.748  10.179  31.186  1.00  0.00     0.189 HD
ENDBRANCH  13  15
ENDBRANCH  10  12
ENDBRANCH   1  10
BRANCH   9  20
HETATM   20  O3  UNL     1      -0.271  12.567  27.373  1.00  0.00    -0.274 OA
ATOM     21  H3  UNL     1      -0.646  13.011  26.622  1.00  0.00     0.245 HD
ENDBRANCH   9  20
TORSDOF 4
ENDMDL
MODEL 4
REMARK VINA RESULT: -4.926118976      3.170      6.461
REMARK  4 active torsions:
REMARK  status: ('A' for Active; 'I' for Inactive)
REMARK    1  A    between atoms: N3_4  and  N4_6 
REMARK    2  A    between atoms: C2_8  and  N5_9 
REMARK    3  A    between atoms: N5_9  and  C3_11 
REMARK    4  A    between atoms: N7_19  and  O3_20 
ROOT
HETATM    1  C3  UNL     1       2.244  14.781  29.686  1.00  0.00     0.714 C 
HETATM    2  N6  UNL     1       2.476  14.570  30.935  1.00  0.00    -0.115 N 
ATOM      3  H6  UNL     1       2.509  13.617  31.300  1.00  0.00     0.197 HD
HETATM    4  S1  UNL     1       2.731  15.913  31.987  1.00  0.00     0.245 S 
HETATM    5  O1  UNL     1       1.386  16.398  32.501  1.00  0.00    -0.205 OA
HETATM    6  O2  UNL     1       3.676  15.623  33.089  1.00  0.00    -0.205 OA
HETATM    7  C4  UNL     1       3.335  17.230  30.921  1.00  0.00     0.186 C 
HETATM    8  C5  UNL     1       2.290  17.322  29.814  1.00  0.00     0.192 C 
HETATM    9  N7  UNL     1       2.184  16.071  29.116  1.00  0.00    -0.089 N 
ENDROOT
BRANCH   1  10
HETATM   10  N5  UNL     1       2.039  13.610  28.862  1.00  0.00    -0.184 N 
ATOM     11  H5  UNL     1       2.448  13.569  27.929  1.00  0.00     0.185 HD
BRANCH  10  12
HETATM   12  C2  UNL     1       1.275  12.522  29.343  1.00  0.00     0.214 C 
HETATM   13  N4  UNL     1       0.015  12.392  29.152  1.00  0.00    -0.294 N 
ATOM     14  H4  UNL     1      -0.477  13.110  28.622  1.00  0.00     0.187 HD
BRANCH  13  15
HETATM   15  N3  UNL     1      -0.708  11.306  29.639  1.00  0.00    -0.275 N 
HETATM   16  C1  UNL     1      -1.282  10.512  28.822  1.00  0.00     0.215 C 
HETATM   17  N1  UNL     1      -2.024   9.398  29.284  1.00  0.00    -0.065 NA
HETATM   18  N2  UNL     1      -1.178  10.739  27.434  1.00  0.00    -0.065 NA
ATOM     19  H3  UNL     1      -0.779  11.147  30.644  1.00  0.00     0.189 HD
ENDBRANCH  13  15
ENDBRANCH  10  12
ENDBRANCH   1  10
BRANCH   9  20
HETATM   20  O3  UNL     1       2.005  16.162  27.757  1.00  0.00    -0.274 OA
ATOM     21  H3  UNL     1       1.437  15.523  27.342  1.00  0.00     0.245 HD
ENDBRANCH   9  20
TORSDOF 4
ENDMDL
MODEL 5
REMARK VINA RESULT: -4.874865624      0.926      1.153
REMARK  4 active torsions:
REMARK  status: ('A' for Active; 'I' for Inactive)
REMARK    1  A    between atoms: N3_4  and  N4_6 
REMARK    2  A    between atoms: C2_8  and  N5_9 
REMARK    3  A    between atoms: N5_9  and  C3_11 
REMARK    4  A    between atoms: N7_19  and  O3_20 
ROOT
HETATM    1  C3  UNL     1       1.671  14.211  28.993  1.00  0.00     0.714 C 
HETATM    2  N6  UNL     1       0.873  13.745  28.096  1.00  0.00    -0.115 N 
ATOM      3  H6  UNL     1       0.942  14.063  27.129  1.00  0.00     0.197 HD
HETATM    4  S1  UNL     1      -0.315  12.578  28.545  1.00  0.00     0.245 S 
HETATM    5  O1  UNL     1      -1.562  13.303  29.023  1.00  0.00    -0.205 OA
HETATM    6  O2  UNL     1      -0.615  11.604  27.471  1.00  0.00    -0.205 OA
HETATM    7  C4  UNL     1       0.355  11.771  30.007  1.00  0.00     0.186 C 
HETATM    8  C5  UNL     1       0.681  12.923  30.951  1.00  0.00     0.192 C 
HETATM    9  N7  UNL     1       1.629  13.818  30.348  1.00  0.00    -0.089 N 
ENDROOT
BRANCH   1  10
HETATM   10  N5  UNL     1       2.642  15.187  28.547  1.00  0.00    -0.184 N 
ATOM     11  H5  UNL     1       3.540  14.876  28.178  1.00  0.00     0.185 HD
BRANCH  10  12
HETATM   12  C2  UNL     1       2.352  16.569  28.621  1.00  0.00     0.214 C 
HETATM   13  N4  UNL     1       2.118  17.194  29.714  1.00  0.00    -0.294 N 
ATOM     14  H4  UNL     1       2.139  16.674  30.591  1.00  0.00     0.187 HD
BRANCH  13  15
HETATM   15  N3  UNL     1       1.837  18.558  29.751  1.00  0.00    -0.275 N 
HETATM   16  C1  UNL     1       0.698  18.956  30.166  1.00  0.00     0.215 C 
HETATM   17  N1  UNL     1       0.381  20.335  30.218  1.00  0.00    -0.065 NA
HETATM   18  N2  UNL     1      -0.265  18.014  30.584  1.00  0.00    -0.065 NA
ATOM     19  H3  UNL     1       2.538  19.234  29.448  1.00  0.00     0.189 HD
ENDBRANCH  13  15
ENDBRANCH  10  12
ENDBRANCH   1  10
BRANCH   9  20
HETATM   20  O3  UNL     1       2.584  14.331  31.192  1.00  0.00    -0.274 OA
ATOM     21  H3  UNL     1       2.383  15.140  31.648  1.00  0.00     0.245 HD
ENDBRANCH   9  20
TORSDOF 4
ENDMDL
