MODEL 1
REMARK VINA RESULT: -5.239000288      0.000      0.000
REMARK  4 active torsions:
REMARK  status: ('A' for Active; 'I' for Inactive)
REMARK       I    between atoms: N3_8  and  C5_9 
REMARK       I    between atoms: C5_9  and  N4_11 
REMARK    1  A    between atoms: N4_11  and  C6_12 
REMARK    2  A    between atoms: N4_11  and  N5_14 
REMARK    3  A    between atoms: N5_14  and  O3_15 
REMARK    4  A    between atoms: C8_18  and  O4_19 
ROOT
HETATM    1  C1  UNL     1       2.619  15.869  32.354  1.00  0.00     0.068 C 
HETATM    2  C2  UNL     1       2.149  15.620  30.971  1.00  0.00     0.047 C 
HETATM    3  N1  UNL     1       1.550  16.406  30.191  1.00  0.00    -0.368 N 
ATOM      4  H1  UNL     1       1.303  17.364  30.437  1.00  0.00     0.161 HD
HETATM    5  C3  UNL     1       1.250  15.813  28.923  1.00  0.00     0.402 C 
HETATM    6  N2  UNL     1       2.162  14.703  28.815  1.00  0.00     0.165 N 
HETATM    7  C4  UNL     1       1.571  13.552  28.175  1.00  0.00     0.408 C 
HETATM    8  N3  UNL     1       0.763  12.905  29.224  1.00  0.00    -0.301 N 
HETATM    9  C5  UNL     1      -0.277  11.981  28.908  1.00  0.00     0.346 C 
HETATM   10  O1  UNL     1      -0.532  11.686  27.688  1.00  0.00    -0.245 OA
HETATM   11  N4  UNL     1      -1.080  11.343  29.890  1.00  0.00    -0.158 N 
HETATM   12  C7  UNL     1       1.212  13.364  30.493  1.00  0.00     0.208 C 
HETATM   13  C8  UNL     1       2.314  14.338  30.213  1.00  0.00     0.318 C 
ENDROOT
BRANCH  11  14
HETATM   14  C6  UNL     1      -2.093  10.435  29.515  1.00  0.00     0.379 C 
HETATM   15  O2  UNL     1      -3.286  10.765  29.345  1.00  0.00    -0.282 OA
ENDBRANCH  11  14
BRANCH  11  16
HETATM   16  N5  UNL     1      -0.838  11.641  31.241  1.00  0.00     0.032 NA
BRANCH  16  17
HETATM   17  O3  UNL     1      -1.994  11.951  31.860  1.00  0.00    -0.276 OA
ATOM     18  H3  UNL     1      -2.590  11.212  31.823  1.00  0.00     0.240 HD
ENDBRANCH  16  17
ENDBRANCH  11  16
BRANCH  13  19
HETATM   19  O4  UNL     1       3.583  13.831  30.380  1.00  0.00    -0.357 OA
ATOM     20  H4  UNL     1       3.809  13.245  29.667  1.00  0.00     0.213 HD
ENDBRANCH  13  19
TORSDOF 4
ENDMDL
MODEL 2
REMARK VINA RESULT: -4.968983405      1.717      1.851
REMARK  4 active torsions:
REMARK  status: ('A' for Active; 'I' for Inactive)
REMARK       I    between atoms: N3_8  and  C5_9 
REMARK       I    between atoms: C5_9  and  N4_11 
REMARK    1  A    between atoms: N4_11  and  C6_12 
REMARK    2  A    between atoms: N4_11  and  N5_14 
REMARK    3  A    between atoms: N5_14  and  O3_15 
REMARK    4  A    between atoms: C8_18  and  O4_19 
ROOT
HETATM    1  C1  UNL     1       4.131  14.888  31.026  1.00  0.00     0.068 C 
HETATM    2  C2  UNL     1       2.809  15.422  30.624  1.00  0.00     0.047 C 
HETATM    3  N1  UNL     1       2.205  16.437  31.062  1.00  0.00    -0.368 N 
ATOM      4  H1  UNL     1       2.580  17.046  31.789  1.00  0.00     0.161 HD
HETATM    5  C3  UNL     1       0.936  16.646  30.434  1.00  0.00     0.402 C 
HETATM    6  N2  UNL     1       1.017  15.913  29.197  1.00  0.00     0.165 N 
HETATM    7  C4  UNL     1      -0.228  15.275  28.840  1.00  0.00     0.408 C 
HETATM    8  N3  UNL     1      -0.283  14.056  29.666  1.00  0.00    -0.301 N 
HETATM    9  C5  UNL     1      -1.508  13.366  29.905  1.00  0.00     0.346 C 
HETATM   10  O1  UNL     1      -2.602  13.794  29.395  1.00  0.00    -0.245 OA
HETATM   11  N4  UNL     1      -1.601  12.193  30.699  1.00  0.00    -0.158 N 
HETATM   12  C7  UNL     1       1.031  13.755  30.122  1.00  0.00     0.208 C 
HETATM   13  C8  UNL     1       1.913  14.834  29.576  1.00  0.00     0.318 C 
ENDROOT
BRANCH  11  14
HETATM   14  C6  UNL     1      -2.843  11.552  30.896  1.00  0.00     0.379 C 
HETATM   15  O2  UNL     1      -3.082  10.383  30.524  1.00  0.00    -0.282 OA
ENDBRANCH  11  14
BRANCH  11  16
HETATM   16  N5  UNL     1      -0.425  11.690  31.281  1.00  0.00     0.032 NA
BRANCH  16  17
HETATM   17  O3  UNL     1      -0.123  10.490  30.748  1.00  0.00    -0.276 OA
ATOM     18  H3  UNL     1       0.667  10.556  30.224  1.00  0.00     0.240 HD
ENDBRANCH  16  17
ENDBRANCH  11  16
BRANCH  13  19
HETATM   19  O4  UNL     1       2.636  14.475  28.462  1.00  0.00    -0.357 OA
ATOM     20  H4  UNL     1       2.638  15.175  27.820  1.00  0.00     0.213 HD
ENDBRANCH  13  19
TORSDOF 4
ENDMDL
MODEL 3
REMARK VINA RESULT: -4.834652779      1.903      2.982
REMARK  4 active torsions:
REMARK  status: ('A' for Active; 'I' for Inactive)
REMARK       I    between atoms: N3_8  and  C5_9 
REMARK       I    between atoms: C5_9  and  N4_11 
REMARK    1  A    between atoms: N4_11  and  C6_12 
REMARK    2  A    between atoms: N4_11  and  N5_14 
REMARK    3  A    between atoms: N5_14  and  O3_15 
REMARK    4  A    between atoms: C8_18  and  O4_19 
ROOT
HETATM    1  C1  UNL     1       2.265  16.152  28.396  1.00  0.00     0.068 C 
HETATM    2  C2  UNL     1       1.716  15.539  29.629  1.00  0.00     0.047 C 
HETATM    3  N1  UNL     1       2.330  15.168  30.664  1.00  0.00    -0.368 N 
ATOM      4  H1  UNL     1       3.340  15.252  30.780  1.00  0.00     0.161 HD
HETATM    5  C3  UNL     1       1.463  14.617  31.660  1.00  0.00     0.402 C 
HETATM    6  N2  UNL     1       0.157  15.124  31.328  1.00  0.00     0.165 N 
HETATM    7  C4  UNL     1      -0.895  14.162  31.557  1.00  0.00     0.408 C 
HETATM    8  N3  UNL     1      -0.847  13.261  30.392  1.00  0.00    -0.301 N 
HETATM    9  C5  UNL     1      -1.443  11.965  30.420  1.00  0.00     0.346 C 
HETATM   10  O1  UNL     1      -2.045  11.553  31.473  1.00  0.00    -0.245 OA
HETATM   11  N4  UNL     1      -1.413  11.068  29.321  1.00  0.00    -0.158 N 
HETATM   12  C7  UNL     1      -0.145  13.912  29.340  1.00  0.00     0.208 C 
HETATM   13  C8  UNL     1       0.269  15.244  29.884  1.00  0.00     0.318 C 
ENDROOT
BRANCH  11  14
HETATM   14  C6  UNL     1      -2.024   9.799  29.408  1.00  0.00     0.379 C 
HETATM   15  O2  UNL     1      -3.194   9.570  29.032  1.00  0.00    -0.282 OA
ENDBRANCH  11  14
BRANCH  11  16
HETATM   16  N5  UNL     1      -0.759  11.478  28.147  1.00  0.00     0.032 NA
BRANCH  16  17
HETATM   17  O3  UNL     1      -1.180  10.738  27.102  1.00  0.00    -0.276 OA
ATOM     18  H3  UNL     1      -1.652  11.286  26.485  1.00  0.00     0.240 HD
ENDBRANCH  16  17
ENDBRANCH  11  16
BRANCH  13  19
HETATM   19  O4  UNL     1      -0.523  16.297  29.486  1.00  0.00    -0.357 OA
ATOM     20  H4  UNL     1      -1.402  16.209  29.835  1.00  0.00     0.213 HD
ENDBRANCH  13  19
TORSDOF 4
ENDMDL
MODEL 4
REMARK VINA RESULT: -4.744572570      2.132      3.015
REMARK  4 active torsions:
REMARK  status: ('A' for Active; 'I' for Inactive)
REMARK       I    between atoms: N3_8  and  C5_9 
REMARK       I    between atoms: C5_9  and  N4_11 
REMARK    1  A    between atoms: N4_11  and  C6_12 
REMARK    2  A    between atoms: N4_11  and  N5_14 
REMARK    3  A    between atoms: N5_14  and  O3_15 
REMARK    4  A    between atoms: C8_18  and  O4_19 
ROOT
HETATM    1  C1  UNL     1       2.090  17.767  29.717  1.00  0.00     0.068 C 
HETATM    2  C2  UNL     1       2.168  16.528  30.524  1.00  0.00     0.047 C 
HETATM    3  N1  UNL     1       3.192  15.899  30.904  1.00  0.00    -0.368 N 
ATOM      4  H1  UNL     1       4.145  16.190  30.685  1.00  0.00     0.161 HD
HETATM    5  C3  UNL     1       2.878  14.735  31.674  1.00  0.00     0.402 C 
HETATM    6  N2  UNL     1       1.537  14.961  32.149  1.00  0.00     0.165 N 
HETATM    7  C4  UNL     1       0.740  13.758  32.174  1.00  0.00     0.408 C 
HETATM    8  N3  UNL     1       0.310  13.557  30.778  1.00  0.00    -0.301 N 
HETATM    9  C5  UNL     1      -0.153  12.291  30.311  1.00  0.00     0.346 C 
HETATM   10  O1  UNL     1      -0.210  11.289  31.107  1.00  0.00    -0.245 OA
HETATM   11  N4  UNL     1      -0.569  12.057  28.974  1.00  0.00    -0.158 N 
HETATM   12  C7  UNL     1       0.447  14.787  30.077  1.00  0.00     0.208 C 
HETATM   13  C8  UNL     1       0.997  15.766  31.066  1.00  0.00     0.318 C 
ENDROOT
BRANCH  11  14
HETATM   14  C6  UNL     1      -1.021  10.782  28.572  1.00  0.00     0.379 C 
HETATM   15  O2  UNL     1      -1.257  10.479  27.383  1.00  0.00    -0.282 OA
ENDBRANCH  11  14
BRANCH  11  16
HETATM   16  N5  UNL     1      -0.519  13.128  28.066  1.00  0.00     0.032 NA
BRANCH  16  17
HETATM   17  O3  UNL     1       0.253  12.802  27.011  1.00  0.00    -0.276 OA
ATOM     18  H3  UNL     1      -0.260  12.831  26.211  1.00  0.00     0.240 HD
ENDBRANCH  16  17
ENDBRANCH  11  16
BRANCH  13  19
HETATM   19  O4  UNL     1       0.063  16.623  31.604  1.00  0.00    -0.357 OA
ATOM     20  H4  UNL     1      -0.497  16.167  32.221  1.00  0.00     0.213 HD
ENDBRANCH  13  19
TORSDOF 4
ENDMDL
MODEL 5
REMARK VINA RESULT: -4.700680635      1.735      2.158
REMARK  4 active torsions:
REMARK  status: ('A' for Active; 'I' for Inactive)
REMARK       I    between atoms: N3_8  and  C5_9 
REMARK       I    between atoms: C5_9  and  N4_11 
REMARK    1  A    between atoms: N4_11  and  C6_12 
REMARK    2  A    between atoms: N4_11  and  N5_14 
REMARK    3  A    between atoms: N5_14  and  O3_15 
REMARK    4  A    between atoms: C8_18  and  O4_19 
ROOT
HETATM    1  C1  UNL     1       4.489  15.336  30.911  1.00  0.00     0.068 C 
HETATM    2  C2  UNL     1       3.089  15.805  30.784  1.00  0.00     0.047 C 
HETATM    3  N1  UNL     1       2.421  16.512  31.584  1.00  0.00    -0.368 N 
ATOM      4  H1  UNL     1       2.791  16.867  32.466  1.00  0.00     0.161 HD
HETATM    5  C3  UNL     1       1.090  16.768  31.125  1.00  0.00     0.402 C 
HETATM    6  N2  UNL     1       1.143  16.538  29.704  1.00  0.00     0.165 N 
HETATM    7  C4  UNL     1      -0.054  15.916  29.191  1.00  0.00     0.408 C 
HETATM    8  N3  UNL     1       0.088  14.487  29.521  1.00  0.00    -0.301 N 
HETATM    9  C5  UNL     1      -1.035  13.607  29.542  1.00  0.00     0.346 C 
HETATM   10  O1  UNL     1      -2.206  14.045  29.267  1.00  0.00    -0.245 OA
HETATM   11  N4  UNL     1      -0.939  12.227  29.861  1.00  0.00    -0.158 N 
HETATM   12  C7  UNL     1       1.458  14.213  29.784  1.00  0.00     0.208 C 
HETATM   13  C8  UNL     1       2.176  15.518  29.631  1.00  0.00     0.318 C 
ENDROOT
BRANCH  11  14
HETATM   14  C6  UNL     1      -2.087  11.405  29.862  1.00  0.00     0.379 C 
HETATM   15  O2  UNL     1      -2.360  10.601  28.945  1.00  0.00    -0.282 OA
ENDBRANCH  11  14
BRANCH  11  16
HETATM   16  N5  UNL     1       0.327  11.704  30.173  1.00  0.00     0.032 NA
BRANCH  16  17
HETATM   17  O3  UNL     1       0.736  10.869  29.197  1.00  0.00    -0.276 OA
ATOM     18  H3  UNL     1       0.320  10.021  29.299  1.00  0.00     0.240 HD
ENDBRANCH  16  17
ENDBRANCH  11  16
BRANCH  13  19
HETATM   19  O4  UNL     1       2.836  15.673  28.434  1.00  0.00    -0.357 OA
ATOM     20  H4  UNL     1       3.622  15.138  28.410  1.00  0.00     0.213 HD
ENDBRANCH  13  19
TORSDOF 4
ENDMDL
