MODEL 1
REMARK VINA RESULT: -7.244234929      0.000      0.000
REMARK  7 active torsions:
REMARK  status: ('A' for Active; 'I' for Inactive)
REMARK    1  A    between atoms: C2_2  and  C4_4 
REMARK    2  A    between atoms: C4_4  and  S1_5 
REMARK    3  A    between atoms: S1_5  and  C5_6 
REMARK    4  A    between atoms: N4_16  and  C9_18 
REMARK    5  A    between atoms: C14_23  and  N5_24 
REMARK    6  A    between atoms: C15_26  and  C16_27 
REMARK    7  A    between atoms: C16_27  and  O1_28 
ROOT
HETATM    1  C5  UNL     1      79.518   4.804  26.022  1.00  0.00     0.147 A 
HETATM    2  N1  UNL     1      80.794   5.120  25.756  1.00  0.00    -0.322 N 
ATOM      3  H1  UNL     1      81.128   5.262  24.803  1.00  0.00     0.169 HD
HETATM    4  C6  UNL     1      81.602   5.239  26.815  1.00  0.00     0.126 A 
HETATM    5  N2  UNL     1      82.890   5.557  26.572  1.00  0.00    -0.338 N 
ATOM      6  H2  UNL     1      83.204   5.695  25.611  1.00  0.00     0.168 HD
HETATM    7  C7  UNL     1      83.760   5.695  27.583  1.00  0.00     0.183 A 
HETATM    8  N3  UNL     1      83.351   5.515  28.851  1.00  0.00    -0.338 N 
ATOM      9  H3  UNL     1      84.030   5.626  29.605  1.00  0.00     0.168 HD
HETATM   10  C8  UNL     1      82.082   5.196  29.165  1.00  0.00     0.120 A 
HETATM   11  N4  UNL     1      81.672   5.022  30.372  1.00  0.00    -0.370 N 
ATOM     12  H4  UNL     1      80.699   4.780  30.557  1.00  0.00     0.161 HD
HETATM   13  C13 UNL     1      81.193   5.058  28.100  1.00  0.00     0.096 A 
HETATM   14  C14 UNL     1      79.860   4.728  28.380  1.00  0.00     0.124 A 
HETATM   15  N6  UNL     1      79.069   4.615  27.294  1.00  0.00    -0.322 N 
ATOM     16  H6  UNL     1      78.087   4.376  27.432  1.00  0.00     0.169 HD
ENDROOT
BRANCH  11  17
HETATM   17  C9  UNL     1      82.596   5.169  31.450  1.00  0.00     0.087 A 
HETATM   18  C10 UNL     1      82.128   6.120  32.565  1.00  0.00     0.031 A 
HETATM   19  C11 UNL     1      82.325   4.667  32.812  1.00  0.00     0.006 A 
HETATM   20  C12 UNL     1      81.144   3.822  33.149  1.00  0.00     0.012 C 
ENDBRANCH  11  17
BRANCH  14  21
HETATM   21  N5  UNL     1      79.572   4.582  29.571  1.00  0.00    -0.353 N 
HETATM   22  C15 UNL     1      78.936   5.231  30.581  1.00  0.00     0.088 C 
ATOM     23  H5  UNL     1      79.925   3.685  29.905  1.00  0.00     0.166 HD
BRANCH  22  24
HETATM   24  C16 UNL     1      78.259   6.546  30.378  1.00  0.00     0.208 C 
BRANCH  24  25
HETATM   25  O1  UNL     1      77.127   6.335  29.560  1.00  0.00    -0.396 OA
ATOM     26  H1  UNL     1      76.445   5.947  30.094  1.00  0.00     0.209 HD
ENDBRANCH  24  25
ENDBRANCH  22  24
ENDBRANCH  14  21
BRANCH   1  27
HETATM   27  S1  UNL     1      78.295   4.609  24.727  1.00  0.00    -0.093 SA
BRANCH  27  28
HETATM   28  C4  UNL     1      77.618   6.212  24.251  1.00  0.00     0.086 C 
BRANCH  28  29
HETATM   29  C2  UNL     1      76.684   6.020  23.093  1.00  0.00    -0.013 C 
HETATM   30  C1  UNL     1      77.513   5.655  21.881  1.00  0.00     0.010 C 
HETATM   31  C3  UNL     1      75.961   7.328  22.851  1.00  0.00     0.010 C 
ENDBRANCH  28  29
ENDBRANCH  27  28
ENDBRANCH   1  27
TORSDOF 7
ENDMDL
MODEL 2
REMARK VINA RESULT: -7.173889685      2.205      3.826
REMARK  7 active torsions:
REMARK  status: ('A' for Active; 'I' for Inactive)
REMARK    1  A    between atoms: C2_2  and  C4_4 
REMARK    2  A    between atoms: C4_4  and  S1_5 
REMARK    3  A    between atoms: S1_5  and  C5_6 
REMARK    4  A    between atoms: N4_16  and  C9_18 
REMARK    5  A    between atoms: C14_23  and  N5_24 
REMARK    6  A    between atoms: C15_26  and  C16_27 
REMARK    7  A    between atoms: C16_27  and  O1_28 
ROOT
HETATM    1  C5  UNL     1      80.140   5.971  27.422  1.00  0.00     0.147 A 
HETATM    2  N1  UNL     1      79.015   5.974  28.152  1.00  0.00    -0.322 N 
ATOM      3  H1  UNL     1      78.117   6.253  27.758  1.00  0.00     0.169 HD
HETATM    4  C6  UNL     1      79.142   5.589  29.426  1.00  0.00     0.126 A 
HETATM    5  N2  UNL     1      78.022   5.584  30.179  1.00  0.00    -0.338 N 
ATOM      6  H2  UNL     1      77.133   5.866  29.767  1.00  0.00     0.168 HD
HETATM    7  C7  UNL     1      78.070   5.209  31.466  1.00  0.00     0.183 A 
HETATM    8  N3  UNL     1      79.238   4.835  32.015  1.00  0.00    -0.338 N 
ATOM      9  H3  UNL     1      79.251   4.552  32.995  1.00  0.00     0.168 HD
HETATM   10  C8  UNL     1      80.392   4.817  31.321  1.00  0.00     0.120 A 
HETATM   11  N4  UNL     1      81.520   4.461  31.830  1.00  0.00    -0.370 N 
ATOM     12  H4  UNL     1      82.366   4.466  31.261  1.00  0.00     0.161 HD
HETATM   13  C13 UNL     1      80.321   5.210  29.986  1.00  0.00     0.096 A 
HETATM   14  C14 UNL     1      81.498   5.206  29.225  1.00  0.00     0.124 A 
HETATM   15  N6  UNL     1      81.341   5.599  27.945  1.00  0.00    -0.322 N 
ATOM     16  H6  UNL     1      82.162   5.618  27.339  1.00  0.00     0.169 HD
ENDROOT
BRANCH  11  17
HETATM   17  C9  UNL     1      81.572   4.060  33.198  1.00  0.00     0.087 A 
HETATM   18  C10 UNL     1      82.967   4.161  33.839  1.00  0.00     0.031 A 
HETATM   19  C11 UNL     1      81.833   5.007  34.301  1.00  0.00     0.006 A 
HETATM   20  C12 UNL     1      81.905   6.482  34.108  1.00  0.00     0.012 C 
ENDBRANCH  11  17
BRANCH  14  21
HETATM   21  N5  UNL     1      82.525   4.848  29.809  1.00  0.00    -0.353 N 
HETATM   22  C15 UNL     1      83.868   5.051  29.782  1.00  0.00     0.088 C 
ATOM     23  H5  UNL     1      82.289   4.188  30.550  1.00  0.00     0.166 HD
BRANCH  22  24
HETATM   24  C16 UNL     1      84.508   6.017  28.841  1.00  0.00     0.208 C 
BRANCH  24  25
HETATM   25  O1  UNL     1      84.406   5.490  27.534  1.00  0.00    -0.396 OA
ATOM     26  H1  UNL     1      85.236   5.084  27.315  1.00  0.00     0.209 HD
ENDBRANCH  24  25
ENDBRANCH  22  24
ENDBRANCH  14  21
BRANCH   1  27
HETATM   27  S1  UNL     1      80.157   6.452  25.696  1.00  0.00    -0.093 SA
BRANCH  27  28
HETATM   28  C4  UNL     1      78.477   6.727  25.099  1.00  0.00     0.086 C 
BRANCH  28  29
HETATM   29  C2  UNL     1      78.089   5.592  24.200  1.00  0.00    -0.013 C 
HETATM   30  C1  UNL     1      76.864   6.012  23.418  1.00  0.00     0.010 C 
HETATM   31  C3  UNL     1      77.763   4.395  25.068  1.00  0.00     0.010 C 
ENDBRANCH  28  29
ENDBRANCH  27  28
ENDBRANCH   1  27
TORSDOF 7
ENDMDL
MODEL 3
REMARK VINA RESULT: -7.083614165      1.443      2.034
REMARK  7 active torsions:
REMARK  status: ('A' for Active; 'I' for Inactive)
REMARK    1  A    between atoms: C2_2  and  C4_4 
REMARK    2  A    between atoms: C4_4  and  S1_5 
REMARK    3  A    between atoms: S1_5  and  C5_6 
REMARK    4  A    between atoms: N4_16  and  C9_18 
REMARK    5  A    between atoms: C14_23  and  N5_24 
REMARK    6  A    between atoms: C15_26  and  C16_27 
REMARK    7  A    between atoms: C16_27  and  O1_28 
ROOT
HETATM    1  C5  UNL     1      81.501   5.455  26.907  1.00  0.00     0.147 A 
HETATM    2  N1  UNL     1      82.808   5.754  26.930  1.00  0.00    -0.322 N 
ATOM      3  H1  UNL     1      83.323   5.987  26.082  1.00  0.00     0.169 HD
HETATM    4  C6  UNL     1      83.394   5.729  28.131  1.00  0.00     0.126 A 
HETATM    5  N2  UNL     1      84.709   6.028  28.179  1.00  0.00    -0.338 N 
ATOM      6  H2  UNL     1      85.207   6.259  27.319  1.00  0.00     0.168 HD
HETATM    7  C7  UNL     1      85.366   6.024  29.348  1.00  0.00     0.183 A 
HETATM    8  N3  UNL     1      84.715   5.722  30.484  1.00  0.00    -0.338 N 
ATOM      9  H3  UNL     1      85.234   5.726  31.363  1.00  0.00     0.168 HD
HETATM   10  C8  UNL     1      83.405   5.414  30.509  1.00  0.00     0.120 A 
HETATM   11  N4  UNL     1      82.765   5.123  31.587  1.00  0.00    -0.370 N 
ATOM     12  H4  UNL     1      81.771   4.896  31.552  1.00  0.00     0.161 HD
HETATM   13  C13 UNL     1      82.740   5.423  29.284  1.00  0.00     0.096 A 
HETATM   14  C14 UNL     1      81.374   5.110  29.263  1.00  0.00     0.124 A 
HETATM   15  N6  UNL     1      80.809   5.143  28.039  1.00  0.00    -0.322 N 
ATOM     16  H6  UNL     1      79.816   4.924  27.956  1.00  0.00     0.169 HD
ENDROOT
BRANCH  11  17
HETATM   17  C9  UNL     1      83.461   5.121  32.832  1.00  0.00     0.087 A 
HETATM   18  C10 UNL     1      82.816   5.990  33.926  1.00  0.00     0.031 A 
HETATM   19  C11 UNL     1      82.909   4.511  34.058  1.00  0.00     0.006 A 
HETATM   20  C12 UNL     1      81.656   3.705  34.074  1.00  0.00     0.012 C 
ENDBRANCH  11  17
BRANCH  14  21
HETATM   21  N5  UNL     1      80.857   4.845  30.351  1.00  0.00    -0.353 N 
HETATM   22  C15 UNL     1      79.700   5.043  31.035  1.00  0.00     0.088 C 
ATOM     23  H5  UNL     1      81.508   4.303  30.920  1.00  0.00     0.166 HD
BRANCH  22  24
HETATM   24  C16 UNL     1      78.532   5.751  30.434  1.00  0.00     0.208 C 
BRANCH  24  25
HETATM   25  O1  UNL     1      77.355   5.225  31.010  1.00  0.00    -0.396 OA
ATOM     26  H1  UNL     1      76.655   5.301  30.374  1.00  0.00     0.209 HD
ENDBRANCH  24  25
ENDBRANCH  22  24
ENDBRANCH  14  21
BRANCH   1  27
HETATM   27  S1  UNL     1      80.553   5.444  25.386  1.00  0.00    -0.093 SA
BRANCH  27  28
HETATM   28  C4  UNL     1      79.167   6.594  25.498  1.00  0.00     0.086 C 
BRANCH  28  29
HETATM   29  C2  UNL     1      77.898   5.855  25.190  1.00  0.00    -0.013 C 
HETATM   30  C1  UNL     1      78.192   4.373  25.259  1.00  0.00     0.010 C 
HETATM   31  C3  UNL     1      77.464   6.232  23.789  1.00  0.00     0.010 C 
ENDBRANCH  28  29
ENDBRANCH  27  28
ENDBRANCH   1  27
TORSDOF 7
ENDMDL
MODEL 4
REMARK VINA RESULT: -7.018370187      2.043      2.972
REMARK  7 active torsions:
REMARK  status: ('A' for Active; 'I' for Inactive)
REMARK    1  A    between atoms: C2_2  and  C4_4 
REMARK    2  A    between atoms: C4_4  and  S1_5 
REMARK    3  A    between atoms: S1_5  and  C5_6 
REMARK    4  A    between atoms: N4_16  and  C9_18 
REMARK    5  A    between atoms: C14_23  and  N5_24 
REMARK    6  A    between atoms: C15_26  and  C16_27 
REMARK    7  A    between atoms: C16_27  and  O1_28 
ROOT
HETATM    1  C5  UNL     1      81.821   5.318  27.845  1.00  0.00     0.147 A 
HETATM    2  N1  UNL     1      83.129   5.605  27.796  1.00  0.00    -0.322 N 
ATOM      3  H1  UNL     1      83.605   5.811  26.918  1.00  0.00     0.169 HD
HETATM    4  C6  UNL     1      83.774   5.605  28.967  1.00  0.00     0.126 A 
HETATM    5  N2  UNL     1      85.092   5.893  28.942  1.00  0.00    -0.338 N 
ATOM      6  H2  UNL     1      85.549   6.096  28.053  1.00  0.00     0.168 HD
HETATM    7  C7  UNL     1      85.806   5.913  30.077  1.00  0.00     0.183 A 
HETATM    8  N3  UNL     1      85.209   5.647  31.252  1.00  0.00    -0.338 N 
ATOM      9  H3  UNL     1      85.771   5.669  32.103  1.00  0.00     0.168 HD
HETATM   10  C8  UNL     1      83.899   5.353  31.349  1.00  0.00     0.120 A 
HETATM   11  N4  UNL     1      83.310   5.096  32.465  1.00  0.00    -0.370 N 
ATOM     12  H4  UNL     1      82.314   4.879  32.484  1.00  0.00     0.161 HD
HETATM   13  C13 UNL     1      83.175   5.337  30.158  1.00  0.00     0.096 A 
HETATM   14  C14 UNL     1      81.807   5.037  30.212  1.00  0.00     0.124 A 
HETATM   15  N6  UNL     1      81.183   5.043  29.017  1.00  0.00    -0.322 N 
ATOM     16  H6  UNL     1      80.185   4.832  28.989  1.00  0.00     0.169 HD
ENDROOT
BRANCH  11  17
HETATM   17  C9  UNL     1      84.067   5.120  33.674  1.00  0.00     0.087 A 
HETATM   18  C10 UNL     1      83.836   6.365  34.548  1.00  0.00     0.031 A 
HETATM   19  C11 UNL     1      83.447   5.005  35.009  1.00  0.00     0.006 A 
HETATM   20  C12 UNL     1      82.005   4.693  35.214  1.00  0.00     0.012 C 
ENDBRANCH  11  17
BRANCH  14  21
HETATM   21  N5  UNL     1      81.341   4.805  31.331  1.00  0.00    -0.353 N 
HETATM   22  C15 UNL     1      80.144   4.695  31.964  1.00  0.00     0.088 C 
ATOM     23  H5  UNL     1      82.100   4.645  31.995  1.00  0.00     0.166 HD
BRANCH  22  24
HETATM   24  C16 UNL     1      78.846   4.817  31.237  1.00  0.00     0.208 C 
BRANCH  24  25
HETATM   25  O1  UNL     1      78.686   3.669  30.430  1.00  0.00    -0.396 OA
ATOM     26  H1  UNL     1      79.537   3.429  30.086  1.00  0.00     0.209 HD
ENDBRANCH  24  25
ENDBRANCH  22  24
ENDBRANCH  14  21
BRANCH   1  27
HETATM   27  S1  UNL     1      80.798   5.278  26.373  1.00  0.00    -0.093 SA
BRANCH  27  28
HETATM   28  C4  UNL     1      79.176   4.585  26.750  1.00  0.00     0.086 C 
BRANCH  28  29
HETATM   29  C2  UNL     1      78.628   3.933  25.515  1.00  0.00    -0.013 C 
HETATM   30  C1  UNL     1      79.797   3.502  24.657  1.00  0.00     0.010 C 
HETATM   31  C3  UNL     1      77.793   4.957  24.774  1.00  0.00     0.010 C 
ENDBRANCH  28  29
ENDBRANCH  27  28
ENDBRANCH   1  27
TORSDOF 7
ENDMDL
MODEL 5
REMARK VINA RESULT: -6.967669240      2.669      6.785
REMARK  7 active torsions:
REMARK  status: ('A' for Active; 'I' for Inactive)
REMARK    1  A    between atoms: C2_2  and  C4_4 
REMARK    2  A    between atoms: C4_4  and  S1_5 
REMARK    3  A    between atoms: S1_5  and  C5_6 
REMARK    4  A    between atoms: N4_16  and  C9_18 
REMARK    5  A    between atoms: C14_23  and  N5_24 
REMARK    6  A    between atoms: C15_26  and  C16_27 
REMARK    7  A    between atoms: C16_27  and  O1_28 
ROOT
HETATM    1  C5  UNL     1      83.007   6.227  31.258  1.00  0.00     0.147 A 
HETATM    2  N1  UNL     1      83.894   6.542  30.303  1.00  0.00    -0.322 N 
ATOM      3  H1  UNL     1      84.802   6.951  30.524  1.00  0.00     0.169 HD
HETATM    4  C6  UNL     1      83.518   6.289  29.046  1.00  0.00     0.126 A 
HETATM    5  N2  UNL     1      84.395   6.597  28.068  1.00  0.00    -0.338 N 
ATOM      6  H2  UNL     1      85.299   7.005  28.309  1.00  0.00     0.168 HD
HETATM    7  C7  UNL     1      84.089   6.372  26.783  1.00  0.00     0.183 A 
HETATM    8  N3  UNL     1      82.900   5.833  26.459  1.00  0.00    -0.338 N 
ATOM      9  H3  UNL     1      82.688   5.669  25.474  1.00  0.00     0.168 HD
HETATM   10  C8  UNL     1      81.979   5.502  27.383  1.00  0.00     0.120 A 
HETATM   11  N4  UNL     1      80.836   4.985  27.092  1.00  0.00    -0.370 N 
ATOM     12  H4  UNL     1      80.173   4.753  27.830  1.00  0.00     0.161 HD
HETATM   13  C13 UNL     1      82.316   5.745  28.713  1.00  0.00     0.096 A 
HETATM   14  C14 UNL     1      81.387   5.414  29.709  1.00  0.00     0.124 A 
HETATM   15  N6  UNL     1      81.794   5.681  30.967  1.00  0.00    -0.322 N 
ATOM     16  H6  UNL     1      81.162   5.463  31.738  1.00  0.00     0.169 HD
ENDROOT
BRANCH  11  17
HETATM   17  C9  UNL     1      80.509   4.742  25.724  1.00  0.00     0.087 A 
HETATM   18  C10 UNL     1      79.162   4.032  25.507  1.00  0.00     0.031 A 
HETATM   19  C11 UNL     1      79.395   5.423  25.034  1.00  0.00     0.006 A 
HETATM   20  C12 UNL     1      78.617   6.537  25.645  1.00  0.00     0.012 C 
ENDBRANCH  11  17
BRANCH  14  21
HETATM   21  N5  UNL     1      80.323   4.925  29.323  1.00  0.00    -0.353 N 
HETATM   22  C15 UNL     1      79.066   4.668  29.771  1.00  0.00     0.088 C 
ATOM     23  H5  UNL     1      80.416   4.613  28.356  1.00  0.00     0.166 HD
BRANCH  22  24
HETATM   24  C16 UNL     1      78.610   5.070  31.134  1.00  0.00     0.208 C 
BRANCH  24  25
HETATM   25  O1  UNL     1      77.198   5.050  31.148  1.00  0.00    -0.396 OA
ATOM     26  H1  UNL     1      76.905   5.456  31.955  1.00  0.00     0.209 HD
ENDBRANCH  24  25
ENDBRANCH  22  24
ENDBRANCH  14  21
BRANCH   1  27
HETATM   27  S1  UNL     1      83.345   6.493  32.998  1.00  0.00    -0.093 SA
BRANCH  27  28
HETATM   28  C4  UNL     1      83.415   4.918  33.876  1.00  0.00     0.086 C 
BRANCH  28  29
HETATM   29  C2  UNL     1      82.101   4.686  34.561  1.00  0.00    -0.013 C 
HETATM   30  C1  UNL     1      81.319   3.683  33.743  1.00  0.00     0.010 C 
HETATM   31  C3  UNL     1      81.358   6.005  34.610  1.00  0.00     0.010 C 
ENDBRANCH  28  29
ENDBRANCH  27  28
ENDBRANCH   1  27
TORSDOF 7
ENDMDL
