MODEL 1
REMARK VINA RESULT: -6.983781210      0.000      0.000
REMARK  9 active torsions:
REMARK  status: ('A' for Active; 'I' for Inactive)
REMARK    1  A    between atoms: C2_3  and  N2_4 
REMARK    2  A    between atoms: N2_4  and  C3_6 
REMARK    3  A    between atoms: C3_6  and  N3_8 
REMARK    4  A    between atoms: N3_8  and  C4_10 
REMARK    5  A    between atoms: C4_10  and  C5_11 
REMARK    6  A    between atoms: C5_11  and  O1_12 
REMARK    7  A    between atoms: C5_11  and  C6_14 
REMARK    8  A    between atoms: C6_14  and  O2_15 
REMARK    9  A    between atoms: O2_15  and  C7_16 
ROOT
HETATM    1  N1  UNL     1      81.789   4.517  24.345  1.00  0.00    -0.195 NA
HETATM    2  C1  UNL     1      81.065   4.744  25.216  1.00  0.00     0.091 C 
HETATM    3  C2  UNL     1      80.146   5.037  26.337  1.00  0.00     0.121 C 
HETATM    4  C12 UNL     1      79.747   6.478  26.217  1.00  0.00     0.046 C 
HETATM    5  C13 UNL     1      78.291   6.625  25.813  1.00  0.00     0.004 C 
HETATM    6  C14 UNL     1      77.947   5.780  24.611  1.00  0.00     0.000 C 
HETATM    7  C15 UNL     1      78.389   4.340  24.770  1.00  0.00     0.004 C 
HETATM    8  C16 UNL     1      78.958   4.110  26.154  1.00  0.00     0.046 C 
ENDROOT
BRANCH   3   9
HETATM    9  N2  UNL     1      80.804   4.735  27.592  1.00  0.00    -0.345 N 
ATOM     10  H2  UNL     1      80.889   3.764  27.893  1.00  0.00     0.163 HD
BRANCH   9  11
HETATM   11  C3  UNL     1      81.330   5.764  28.410  1.00  0.00     0.169 C 
HETATM   12  S1  UNL     1      82.739   6.484  28.007  1.00  0.00    -0.041 SA
BRANCH  11  13
HETATM   13  N3  UNL     1      80.662   6.187  29.577  1.00  0.00    -0.365 N 
ATOM     14  H3  UNL     1      81.215   6.476  30.383  1.00  0.00     0.161 HD
BRANCH  13  15
HETATM   15  C4  UNL     1      79.206   6.226  29.674  1.00  0.00     0.155 C 
BRANCH  15  16
HETATM   16  C5  UNL     1      78.682   5.165  30.625  1.00  0.00     0.159 C 
BRANCH  16  17
HETATM   17  O1  UNL     1      78.828   3.903  29.978  1.00  0.00    -0.392 OA
ATOM     18  H1  UNL     1      79.376   3.361  30.533  1.00  0.00     0.210 HD
ENDBRANCH  16  17
BRANCH  16  19
HETATM   19  C6  UNL     1      79.459   5.049  31.892  1.00  0.00     0.204 C 
BRANCH  19  20
HETATM   20  O2  UNL     1      79.848   6.212  32.492  1.00  0.00    -0.359 OA
BRANCH  20  21
HETATM   21  C7  UNL     1      81.127   6.181  33.039  1.00  0.00     0.259 C 
HETATM   22  C8  UNL     1      81.526   4.860  33.549  1.00  0.00     0.061 C 
HETATM   23  C9  UNL     1      81.820   4.713  34.990  1.00  0.00     0.007 C 
HETATM   24  C10 UNL     1      82.041   5.995  35.740  1.00  0.00     0.026 C 
HETATM   25  C11 UNL     1      80.960   6.960  35.230  1.00  0.00     0.171 C 
HETATM   26  O3  UNL     1      81.309   7.235  33.932  1.00  0.00    -0.361 OA
ENDBRANCH  20  21
ENDBRANCH  19  20
ENDBRANCH  16  19
ENDBRANCH  15  16
ENDBRANCH  13  15
ENDBRANCH  11  13
ENDBRANCH   9  11
ENDBRANCH   3   9
TORSDOF 9
ENDMDL
MODEL 2
REMARK VINA RESULT: -6.745489621      1.554      1.759
REMARK  9 active torsions:
REMARK  status: ('A' for Active; 'I' for Inactive)
REMARK    1  A    between atoms: C2_3  and  N2_4 
REMARK    2  A    between atoms: N2_4  and  C3_6 
REMARK    3  A    between atoms: C3_6  and  N3_8 
REMARK    4  A    between atoms: N3_8  and  C4_10 
REMARK    5  A    between atoms: C4_10  and  C5_11 
REMARK    6  A    between atoms: C5_11  and  O1_12 
REMARK    7  A    between atoms: C5_11  and  C6_14 
REMARK    8  A    between atoms: C6_14  and  O2_15 
REMARK    9  A    between atoms: O2_15  and  C7_16 
ROOT
HETATM    1  N1  UNL     1      81.900   4.425  24.352  1.00  0.00    -0.195 NA
HETATM    2  C1  UNL     1      81.249   4.862  25.201  1.00  0.00     0.091 C 
HETATM    3  C2  UNL     1      80.425   5.426  26.291  1.00  0.00     0.121 C 
HETATM    4  C12 UNL     1      79.744   6.646  25.743  1.00  0.00     0.046 C 
HETATM    5  C13 UNL     1      78.251   6.428  25.578  1.00  0.00     0.004 C 
HETATM    6  C14 UNL     1      77.942   5.152  24.832  1.00  0.00     0.000 C 
HETATM    7  C15 UNL     1      78.669   3.955  25.407  1.00  0.00     0.004 C 
HETATM    8  C16 UNL     1      79.425   4.345  26.659  1.00  0.00     0.046 C 
ENDROOT
BRANCH   3   9
HETATM    9  N2  UNL     1      81.267   5.715  27.434  1.00  0.00    -0.345 N 
ATOM     10  H2  UNL     1      81.848   4.974  27.828  1.00  0.00     0.163 HD
BRANCH   9  11
HETATM   11  C3  UNL     1      81.296   7.004  28.016  1.00  0.00     0.169 C 
HETATM   12  S1  UNL     1      82.267   8.158  27.389  1.00  0.00    -0.041 SA
BRANCH  11  13
HETATM   13  N3  UNL     1      80.501   7.322  29.136  1.00  0.00    -0.365 N 
ATOM     14  H3  UNL     1      80.932   7.322  30.061  1.00  0.00     0.161 HD
BRANCH  13  15
HETATM   15  C4  UNL     1      79.084   7.651  29.021  1.00  0.00     0.155 C 
BRANCH  15  16
HETATM   16  C5  UNL     1      78.250   6.884  30.030  1.00  0.00     0.159 C 
BRANCH  16  17
HETATM   17  O1  UNL     1      77.030   6.521  29.387  1.00  0.00    -0.392 OA
ATOM     18  H1  UNL     1      76.318   6.838  29.929  1.00  0.00     0.210 HD
ENDBRANCH  16  17
BRANCH  16  19
HETATM   19  C6  UNL     1      78.861   5.597  30.469  1.00  0.00     0.204 C 
BRANCH  19  20
HETATM   20  O2  UNL     1      79.585   5.614  31.627  1.00  0.00    -0.359 OA
BRANCH  20  21
HETATM   21  C7  UNL     1      80.662   4.734  31.650  1.00  0.00     0.259 C 
HETATM   22  C8  UNL     1      80.766   3.952  32.891  1.00  0.00     0.061 C 
HETATM   23  C9  UNL     1      81.968   4.115  33.736  1.00  0.00     0.007 C 
HETATM   24  C10 UNL     1      83.137   4.787  33.076  1.00  0.00     0.026 C 
HETATM   25  C11 UNL     1      82.542   5.959  32.281  1.00  0.00     0.171 C 
HETATM   26  O3  UNL     1      81.835   5.377  31.260  1.00  0.00    -0.361 OA
ENDBRANCH  20  21
ENDBRANCH  19  20
ENDBRANCH  16  19
ENDBRANCH  15  16
ENDBRANCH  13  15
ENDBRANCH  11  13
ENDBRANCH   9  11
ENDBRANCH   3   9
TORSDOF 9
ENDMDL
MODEL 3
REMARK VINA RESULT: -6.645119450      2.371      7.495
REMARK  9 active torsions:
REMARK  status: ('A' for Active; 'I' for Inactive)
REMARK    1  A    between atoms: C2_3  and  N2_4 
REMARK    2  A    between atoms: N2_4  and  C3_6 
REMARK    3  A    between atoms: C3_6  and  N3_8 
REMARK    4  A    between atoms: N3_8  and  C4_10 
REMARK    5  A    between atoms: C4_10  and  C5_11 
REMARK    6  A    between atoms: C5_11  and  O1_12 
REMARK    7  A    between atoms: C5_11  and  C6_14 
REMARK    8  A    between atoms: C6_14  and  O2_15 
REMARK    9  A    between atoms: O2_15  and  C7_16 
ROOT
HETATM    1  N1  UNL     1      83.889   3.601  34.435  1.00  0.00    -0.195 NA
HETATM    2  C1  UNL     1      83.137   4.252  33.848  1.00  0.00     0.091 C 
HETATM    3  C2  UNL     1      82.170   5.076  33.091  1.00  0.00     0.121 C 
HETATM    4  C12 UNL     1      80.943   5.212  33.943  1.00  0.00     0.046 C 
HETATM    5  C13 UNL     1      80.778   6.627  34.467  1.00  0.00     0.004 C 
HETATM    6  C14 UNL     1      82.043   7.146  35.108  1.00  0.00     0.000 C 
HETATM    7  C15 UNL     1      83.256   6.966  34.220  1.00  0.00     0.004 C 
HETATM    8  C16 UNL     1      82.849   6.416  32.870  1.00  0.00     0.046 C 
ENDROOT
BRANCH   3   9
HETATM    9  N2  UNL     1      81.903   4.454  31.809  1.00  0.00    -0.345 N 
ATOM     10  H2  UNL     1      81.758   3.445  31.763  1.00  0.00     0.163 HD
BRANCH   9  11
HETATM   11  C3  UNL     1      81.839   5.220  30.621  1.00  0.00     0.169 C 
HETATM   12  S1  UNL     1      82.996   5.051  29.482  1.00  0.00    -0.041 SA
BRANCH  11  13
HETATM   13  N3  UNL     1      80.791   6.136  30.394  1.00  0.00    -0.365 N 
ATOM     14  H3  UNL     1      81.015   7.053  30.009  1.00  0.00     0.161 HD
BRANCH  13  15
HETATM   15  C4  UNL     1      79.397   5.818  30.690  1.00  0.00     0.155 C 
BRANCH  15  16
HETATM   16  C5  UNL     1      78.448   6.569  29.774  1.00  0.00     0.159 C 
BRANCH  16  17
HETATM   17  O1  UNL     1      78.341   7.901  30.271  1.00  0.00    -0.392 OA
ATOM     18  H1  UNL     1      79.085   8.389  29.936  1.00  0.00     0.210 HD
ENDBRANCH  16  17
BRANCH  16  19
HETATM   19  C6  UNL     1      78.941   6.710  28.374  1.00  0.00     0.204 C 
BRANCH  19  20
HETATM   20  O2  UNL     1      78.536   5.767  27.473  1.00  0.00    -0.359 OA
BRANCH  20  21
HETATM   21  C7  UNL     1      79.488   4.793  27.187  1.00  0.00     0.259 C 
HETATM   22  C8  UNL     1      80.662   5.302  26.463  1.00  0.00     0.061 C 
HETATM   23  C9  UNL     1      80.948   4.777  25.111  1.00  0.00     0.007 C 
HETATM   24  C10 UNL     1      80.228   3.512  24.743  1.00  0.00     0.026 C 
HETATM   25  C11 UNL     1      78.791   3.693  25.253  1.00  0.00     0.171 C 
HETATM   26  O3  UNL     1      78.890   3.669  26.621  1.00  0.00    -0.361 OA
ENDBRANCH  20  21
ENDBRANCH  19  20
ENDBRANCH  16  19
ENDBRANCH  15  16
ENDBRANCH  13  15
ENDBRANCH  11  13
ENDBRANCH   9  11
ENDBRANCH   3   9
TORSDOF 9
ENDMDL
MODEL 4
REMARK VINA RESULT: -6.622836079      2.188      7.325
REMARK  9 active torsions:
REMARK  status: ('A' for Active; 'I' for Inactive)
REMARK    1  A    between atoms: C2_3  and  N2_4 
REMARK    2  A    between atoms: N2_4  and  C3_6 
REMARK    3  A    between atoms: C3_6  and  N3_8 
REMARK    4  A    between atoms: N3_8  and  C4_10 
REMARK    5  A    between atoms: C4_10  and  C5_11 
REMARK    6  A    between atoms: C5_11  and  O1_12 
REMARK    7  A    between atoms: C5_11  and  C6_14 
REMARK    8  A    between atoms: C6_14  and  O2_15 
REMARK    9  A    between atoms: O2_15  and  C7_16 
ROOT
HETATM    1  N1  UNL     1      82.478   7.761  31.667  1.00  0.00    -0.195 NA
HETATM    2  C1  UNL     1      82.217   6.667  31.931  1.00  0.00     0.091 C 
HETATM    3  C2  UNL     1      81.888   5.264  32.261  1.00  0.00     0.121 C 
HETATM    4  C12 UNL     1      82.889   4.803  33.280  1.00  0.00     0.046 C 
HETATM    5  C13 UNL     1      82.252   4.612  34.644  1.00  0.00     0.004 C 
HETATM    6  C14 UNL     1      81.439   5.812  35.065  1.00  0.00     0.000 C 
HETATM    7  C15 UNL     1      80.461   6.253  33.997  1.00  0.00     0.004 C 
HETATM    8  C16 UNL     1      80.482   5.289  32.830  1.00  0.00     0.046 C 
ENDROOT
BRANCH   3   9
HETATM    9  N2  UNL     1      81.906   4.466  31.051  1.00  0.00    -0.345 N 
ATOM     10  H2  UNL     1      81.634   3.484  31.095  1.00  0.00     0.163 HD
BRANCH   9  11
HETATM   11  C3  UNL     1      82.293   5.024  29.810  1.00  0.00     0.169 C 
HETATM   12  S1  UNL     1      83.873   5.070  29.397  1.00  0.00    -0.041 SA
BRANCH  11  13
HETATM   13  N3  UNL     1      81.342   5.547  28.911  1.00  0.00    -0.365 N 
ATOM     14  H3  UNL     1      81.667   6.097  28.117  1.00  0.00     0.161 HD
BRANCH  13  15
HETATM   15  C4  UNL     1      79.908   5.330  29.077  1.00  0.00     0.155 C 
BRANCH  15  16
HETATM   16  C5  UNL     1      79.137   6.637  29.025  1.00  0.00     0.159 C 
BRANCH  16  17
HETATM   17  O1  UNL     1      79.970   7.645  29.593  1.00  0.00    -0.392 OA
ATOM     18  H1  UNL     1      79.404   8.261  30.043  1.00  0.00     0.210 HD
ENDBRANCH  16  17
BRANCH  16  19
HETATM   19  C6  UNL     1      78.834   7.108  27.644  1.00  0.00     0.204 C 
BRANCH  19  20
HETATM   20  O2  UNL     1      79.829   6.997  26.716  1.00  0.00    -0.359 OA
BRANCH  20  21
HETATM   21  C7  UNL     1      79.454   6.358  25.539  1.00  0.00     0.259 C 
HETATM   22  C8  UNL     1      78.238   5.540  25.666  1.00  0.00     0.061 C 
HETATM   23  C9  UNL     1      78.331   4.084  25.435  1.00  0.00     0.007 C 
HETATM   24  C10 UNL     1      79.576   3.618  24.736  1.00  0.00     0.026 C 
HETATM   25  C11 UNL     1      80.726   4.410  25.375  1.00  0.00     0.171 C 
HETATM   26  O3  UNL     1      80.542   5.706  24.962  1.00  0.00    -0.361 OA
ENDBRANCH  20  21
ENDBRANCH  19  20
ENDBRANCH  16  19
ENDBRANCH  15  16
ENDBRANCH  13  15
ENDBRANCH  11  13
ENDBRANCH   9  11
ENDBRANCH   3   9
TORSDOF 9
ENDMDL
MODEL 5
REMARK VINA RESULT: -6.577409298      2.036      3.306
REMARK  9 active torsions:
REMARK  status: ('A' for Active; 'I' for Inactive)
REMARK    1  A    between atoms: C2_3  and  N2_4 
REMARK    2  A    between atoms: N2_4  and  C3_6 
REMARK    3  A    between atoms: C3_6  and  N3_8 
REMARK    4  A    between atoms: N3_8  and  C4_10 
REMARK    5  A    between atoms: C4_10  and  C5_11 
REMARK    6  A    between atoms: C5_11  and  O1_12 
REMARK    7  A    between atoms: C5_11  and  C6_14 
REMARK    8  A    between atoms: C6_14  and  O2_15 
REMARK    9  A    between atoms: O2_15  and  C7_16 
ROOT
HETATM    1  N1  UNL     1      82.381   4.459  24.359  1.00  0.00    -0.195 NA
HETATM    2  C1  UNL     1      81.934   5.053  25.243  1.00  0.00     0.091 C 
HETATM    3  C2  UNL     1      81.353   5.810  26.372  1.00  0.00     0.121 C 
HETATM    4  C12 UNL     1      81.306   4.882  27.550  1.00  0.00     0.046 C 
HETATM    5  C13 UNL     1      82.307   5.281  28.619  1.00  0.00     0.004 C 
HETATM    6  C14 UNL     1      83.688   5.499  28.051  1.00  0.00     0.000 C 
HETATM    7  C15 UNL     1      83.682   6.424  26.852  1.00  0.00     0.004 C 
HETATM    8  C16 UNL     1      82.292   6.977  26.618  1.00  0.00     0.046 C 
ENDROOT
BRANCH   3   9
HETATM    9  N2  UNL     1      80.047   6.313  25.997  1.00  0.00    -0.345 N 
ATOM     10  H2  UNL     1      79.979   7.163  25.437  1.00  0.00     0.163 HD
BRANCH   9  11
HETATM   11  C3  UNL     1      78.863   5.646  26.392  1.00  0.00     0.169 C 
HETATM   12  S1  UNL     1      78.262   4.440  25.470  1.00  0.00    -0.041 SA
BRANCH  11  13
HETATM   13  N3  UNL     1      78.181   6.000  27.574  1.00  0.00    -0.365 N 
ATOM     14  H3  UNL     1      77.399   5.423  27.882  1.00  0.00     0.161 HD
BRANCH  13  15
HETATM   15  C4  UNL     1      78.554   7.164  28.373  1.00  0.00     0.155 C 
BRANCH  15  16
HETATM   16  C5  UNL     1      78.331   6.917  29.854  1.00  0.00     0.159 C 
BRANCH  16  17
HETATM   17  O1  UNL     1      77.109   6.195  29.986  1.00  0.00    -0.392 OA
ATOM     18  H1  UNL     1      77.068   5.867  30.877  1.00  0.00     0.210 HD
ENDBRANCH  16  17
BRANCH  16  19
HETATM   19  C6  UNL     1      79.368   6.054  30.488  1.00  0.00     0.204 C 
BRANCH  19  20
HETATM   20  O2  UNL     1      79.977   6.536  31.612  1.00  0.00    -0.359 OA
BRANCH  20  21
HETATM   21  C7  UNL     1      79.817   5.742  32.743  1.00  0.00     0.259 C 
HETATM   22  C8  UNL     1      80.438   6.299  33.955  1.00  0.00     0.061 C 
HETATM   23  C9  UNL     1      81.525   5.542  34.610  1.00  0.00     0.007 C 
HETATM   24  C10 UNL     1      81.652   4.104  34.197  1.00  0.00     0.026 C 
HETATM   25  C11 UNL     1      81.469   4.098  32.672  1.00  0.00     0.171 C 
HETATM   26  O3  UNL     1      80.150   4.417  32.468  1.00  0.00    -0.361 OA
ENDBRANCH  20  21
ENDBRANCH  19  20
ENDBRANCH  16  19
ENDBRANCH  15  16
ENDBRANCH  13  15
ENDBRANCH  11  13
ENDBRANCH   9  11
ENDBRANCH   3   9
TORSDOF 9
ENDMDL
