MODEL 1
REMARK VINA RESULT: -6.383171164      0.000      0.000
REMARK  18 active torsions:
REMARK  status: ('A' for Active; 'I' for Inactive)
REMARK    1  A    between atoms: C2_2  and  C3_3 
REMARK    2  A    between atoms: C2_2  and  C17_45 
REMARK    3  A    between atoms: C3_3  and  C4_8 
REMARK    4  A    between atoms: N1_4  and  O1_6 
REMARK    5  A    between atoms: C4_8  and  O2_9 
REMARK    6  A    between atoms: C4_8  and  N2_11 
REMARK    7  A    between atoms: N2_11  and  O3_12 
REMARK    8  A    between atoms: N2_11  and  C5_14 
REMARK    9  A    between atoms: C7_16  and  N3_17 
REMARK   10  A    between atoms: N3_17  and  N4_18 
REMARK   11  A    between atoms: C9_20  and  O4_21 
REMARK   12  A    between atoms: C10_23  and  N5_24 
REMARK   13  A    between atoms: C11_28  and  O5_29 
REMARK   14  A    between atoms: C12_31  and  N6_32 
REMARK       I    between atoms: N6_32  and  C13_34 
REMARK   15  A    between atoms: C13_34  and  C14_36 
REMARK   16  A    between atoms: N7_37  and  O7_39 
REMARK   17  A    between atoms: C17_45  and  O9_46 
REMARK   18  A    between atoms: C17_45  and  O10_48 
ROOT
HETATM    1  C5  UNL     1      60.008   4.617  45.207  1.00  0.00     0.175 C 
HETATM    2  C6  UNL     1      59.809   4.967  46.664  1.00  0.00     0.068 C 
HETATM    3  C7  UNL     1      60.174   3.751  47.486  1.00  0.00     0.166 C 
HETATM    4  C15 UNL     1      61.637   3.611  47.573  1.00  0.00     0.156 C 
HETATM    5  O8  UNL     1      62.195   3.679  48.635  1.00  0.00    -0.295 OA
HETATM    6  C16 UNL     1      62.405   3.385  46.335  1.00  0.00     0.156 C 
HETATM    7  S1  UNL     1      61.161   3.225  44.994  1.00  0.00    -0.134 SA
ENDROOT
BRANCH   3   8
HETATM    8  N3  UNL     1      59.609   3.767  48.793  1.00  0.00    -0.150 NA
BRANCH   8   9
HETATM    9  N4  UNL     1      59.386   2.502  49.346  1.00  0.00    -0.206 NA
HETATM   10  C8  UNL     1      58.086   2.074  48.942  1.00  0.00     0.146 C 
HETATM   11  C9  UNL     1      57.517   0.939  49.714  1.00  0.00     0.165 C 
HETATM   12  C10 UNL     1      57.742   1.026  51.189  1.00  0.00     0.245 C 
HETATM   13  C11 UNL     1      59.148   1.381  51.535  1.00  0.00     0.189 C 
HETATM   14  C12 UNL     1      59.617   2.583  50.750  1.00  0.00     0.207 C 
BRANCH  11  15
HETATM   15  O4  UNL     1      56.118   0.942  49.506  1.00  0.00    -0.392 OA
ATOM     16  H4  UNL     1      55.810   0.052  49.624  1.00  0.00     0.210 HD
ENDBRANCH  11  15
BRANCH  12  17
HETATM   17  N5  UNL     1      56.747   1.871  51.809  1.00  0.00    -0.070 N 
ATOM     18  H53 UNL     1      56.292   2.479  51.129  1.00  0.00     0.274 HD
ATOM     19  H52 UNL     1      55.932   1.336  52.108  1.00  0.00     0.274 HD
ATOM     20  H51 UNL     1      57.154   2.402  52.579  1.00  0.00     0.274 HD
ENDBRANCH  12  17
BRANCH  13  21
HETATM   21  O5  UNL     1      59.230   1.670  52.887  1.00  0.00    -0.390 OA
ATOM     22  H5  UNL     1      60.130   1.877  53.111  1.00  0.00     0.210 HD
ENDBRANCH  13  21
BRANCH  14  23
HETATM   23  N6  UNL     1      59.130   3.811  51.316  1.00  0.00    -0.336 N 
HETATM   24  C13 UNL     1      59.834   4.546  52.298  1.00  0.00     0.260 C 
HETATM   25  O6  UNL     1      60.952   4.070  52.681  1.00  0.00    -0.267 OA
ATOM     26  H6  UNL     1      58.232   4.170  50.992  1.00  0.00     0.164 HD
BRANCH  24  27
HETATM   27  C14 UNL     1      59.311   5.786  52.847  1.00  0.00     0.187 C 
HETATM   28  N7  UNL     1      58.098   5.792  53.301  1.00  0.00    -0.275 N 
ATOM     29  H7  UNL     1      57.718   6.655  53.689  1.00  0.00     0.193 HD
BRANCH  28  30
HETATM   30  O7  UNL     1      57.314   4.674  53.274  1.00  0.00    -0.290 OA
ATOM     31  H7  UNL     1      56.390   4.706  53.492  1.00  0.00     0.244 HD
ENDBRANCH  28  30
ENDBRANCH  24  27
ENDBRANCH  14  23
ENDBRANCH   8   9
ENDBRANCH   3   8
BRANCH   1  32
HETATM   32  N2  UNL     1      58.809   4.421  44.500  1.00  0.00    -0.247 N 
BRANCH  32  33
HETATM   33  C4  UNL     1      58.734   4.619  43.122  1.00  0.00     0.291 C 
BRANCH  33  34
HETATM   34  C3  UNL     1      57.425   4.999  42.540  1.00  0.00     0.068 C 
HETATM   35  N1  UNL     1      56.860   6.133  42.779  1.00  0.00    -0.272 N 
ATOM     36  H1  UNL     1      55.954   6.352  42.363  1.00  0.00     0.193 HD
BRANCH  34  37
HETATM   37  C2  UNL     1      56.680   4.075  41.647  1.00  0.00     0.088 C 
HETATM   38  C1  UNL     1      57.448   2.778  41.491  1.00  0.00     0.021 C 
BRANCH  37  39
HETATM   39  C17 UNL     1      55.319   3.708  42.198  1.00  0.00     0.263 C 
BRANCH  39  40
HETATM   40  O9  UNL     1      55.347   3.702  43.606  1.00  0.00    -0.371 OA
ATOM     41  H9  UNL     1      54.848   2.967  43.943  1.00  0.00     0.212 HD
ENDBRANCH  39  40
BRANCH  39  42
HETATM   42  O10 UNL     1      54.442   4.767  41.879  1.00  0.00    -0.371 OA
ATOM     43  H10 UNL     1      53.569   4.495  42.136  1.00  0.00     0.212 HD
ENDBRANCH  39  42
ENDBRANCH  37  39
ENDBRANCH  34  37
BRANCH  35  44
HETATM   44  O1  UNL     1      57.478   7.034  43.589  1.00  0.00    -0.290 OA
ATOM     45  H1  UNL     1      58.044   7.695  43.209  1.00  0.00     0.244 HD
ENDBRANCH  35  44
ENDBRANCH  33  34
BRANCH  33  46
HETATM   46  O2  UNL     1      59.743   5.509  42.701  1.00  0.00    -0.369 OA
ATOM     47  H2  UNL     1      60.040   5.289  41.826  1.00  0.00     0.212 HD
ENDBRANCH  33  46
ENDBRANCH  32  33
BRANCH  32  48
HETATM   48  O3  UNL     1      57.683   4.475  45.198  1.00  0.00    -0.288 OA
ATOM     49  H3  UNL     1      57.580   5.182  45.824  1.00  0.00     0.244 HD
ENDBRANCH  32  48
ENDBRANCH   1  32
TORSDOF 18
ENDMDL
MODEL 2
REMARK VINA RESULT: -6.308237901      0.763      1.127
REMARK  18 active torsions:
REMARK  status: ('A' for Active; 'I' for Inactive)
REMARK    1  A    between atoms: C2_2  and  C3_3 
REMARK    2  A    between atoms: C2_2  and  C17_45 
REMARK    3  A    between atoms: C3_3  and  C4_8 
REMARK    4  A    between atoms: N1_4  and  O1_6 
REMARK    5  A    between atoms: C4_8  and  O2_9 
REMARK    6  A    between atoms: C4_8  and  N2_11 
REMARK    7  A    between atoms: N2_11  and  O3_12 
REMARK    8  A    between atoms: N2_11  and  C5_14 
REMARK    9  A    between atoms: C7_16  and  N3_17 
REMARK   10  A    between atoms: N3_17  and  N4_18 
REMARK   11  A    between atoms: C9_20  and  O4_21 
REMARK   12  A    between atoms: C10_23  and  N5_24 
REMARK   13  A    between atoms: C11_28  and  O5_29 
REMARK   14  A    between atoms: C12_31  and  N6_32 
REMARK       I    between atoms: N6_32  and  C13_34 
REMARK   15  A    between atoms: C13_34  and  C14_36 
REMARK   16  A    between atoms: N7_37  and  O7_39 
REMARK   17  A    between atoms: C17_45  and  O9_46 
REMARK   18  A    between atoms: C17_45  and  O10_48 
ROOT
HETATM    1  C5  UNL     1      59.878   4.606  45.119  1.00  0.00     0.175 C 
HETATM    2  C6  UNL     1      59.687   4.964  46.575  1.00  0.00     0.068 C 
HETATM    3  C7  UNL     1      60.067   3.755  47.402  1.00  0.00     0.166 C 
HETATM    4  C15 UNL     1      61.531   3.626  47.479  1.00  0.00     0.156 C 
HETATM    5  O8  UNL     1      62.097   3.704  48.536  1.00  0.00    -0.295 OA
HETATM    6  C16 UNL     1      62.292   3.398  46.237  1.00  0.00     0.156 C 
HETATM    7  S1  UNL     1      61.039   3.221  44.905  1.00  0.00    -0.134 SA
ENDROOT
BRANCH   3   8
HETATM    8  N3  UNL     1      59.511   3.775  48.713  1.00  0.00    -0.150 NA
BRANCH   8   9
HETATM    9  N4  UNL     1      59.313   2.513  49.280  1.00  0.00    -0.206 NA
HETATM   10  C8  UNL     1      58.007   2.070  48.913  1.00  0.00     0.146 C 
HETATM   11  C9  UNL     1      57.468   0.936  49.709  1.00  0.00     0.165 C 
HETATM   12  C10 UNL     1      57.731   1.036  51.176  1.00  0.00     0.245 C 
HETATM   13  C11 UNL     1      59.143   1.406  51.482  1.00  0.00     0.189 C 
HETATM   14  C12 UNL     1      59.580   2.605  50.677  1.00  0.00     0.207 C 
BRANCH  11  15
HETATM   15  O4  UNL     1      56.065   0.926  49.537  1.00  0.00    -0.392 OA
ATOM     16  H4  UNL     1      55.789   1.822  49.387  1.00  0.00     0.210 HD
ENDBRANCH  11  15
BRANCH  12  17
HETATM   17  N5  UNL     1      56.746   1.877  51.817  1.00  0.00    -0.070 N 
ATOM     18  H53 UNL     1      57.151   2.758  52.135  1.00  0.00     0.274 HD
ATOM     19  H52 UNL     1      56.075   2.250  51.145  1.00  0.00     0.274 HD
ATOM     20  H51 UNL     1      56.283   1.377  52.575  1.00  0.00     0.274 HD
ENDBRANCH  12  17
BRANCH  13  21
HETATM   21  O5  UNL     1      59.258   1.705  52.830  1.00  0.00    -0.390 OA
ATOM     22  H5  UNL     1      59.214   2.647  52.949  1.00  0.00     0.210 HD
ENDBRANCH  13  21
BRANCH  14  23
HETATM   23  N6  UNL     1      59.098   3.834  51.246  1.00  0.00    -0.336 N 
HETATM   24  C13 UNL     1      59.805   4.563  52.230  1.00  0.00     0.260 C 
HETATM   25  O6  UNL     1      60.922   4.083  52.611  1.00  0.00    -0.267 OA
ATOM     26  H6  UNL     1      58.201   4.197  50.925  1.00  0.00     0.164 HD
BRANCH  24  27
HETATM   27  C14 UNL     1      59.287   5.804  52.784  1.00  0.00     0.187 C 
HETATM   28  N7  UNL     1      58.091   5.801  53.279  1.00  0.00    -0.275 N 
ATOM     29  H7  UNL     1      57.713   6.664  53.670  1.00  0.00     0.193 HD
BRANCH  28  30
HETATM   30  O7  UNL     1      57.319   4.674  53.291  1.00  0.00    -0.290 OA
ATOM     31  H7  UNL     1      56.656   4.528  53.955  1.00  0.00     0.244 HD
ENDBRANCH  28  30
ENDBRANCH  24  27
ENDBRANCH  14  23
ENDBRANCH   8   9
ENDBRANCH   3   8
BRANCH   1  32
HETATM   32  N2  UNL     1      58.675   4.398  44.422  1.00  0.00    -0.247 N 
BRANCH  32  33
HETATM   33  C4  UNL     1      58.600   4.542  43.037  1.00  0.00     0.291 C 
BRANCH  33  34
HETATM   34  C3  UNL     1      57.300   4.937  42.444  1.00  0.00     0.068 C 
HETATM   35  N1  UNL     1      56.738   6.071  42.692  1.00  0.00    -0.272 N 
ATOM     36  H1  UNL     1      55.839   6.300  42.268  1.00  0.00     0.193 HD
BRANCH  34  37
HETATM   37  C2  UNL     1      56.561   4.029  41.529  1.00  0.00     0.088 C 
HETATM   38  C1  UNL     1      55.126   3.887  41.995  1.00  0.00     0.021 C 
BRANCH  37  39
HETATM   39  C17 UNL     1      56.505   4.555  40.112  1.00  0.00     0.263 C 
BRANCH  39  40
HETATM   40  O9  UNL     1      55.405   5.420  39.953  1.00  0.00    -0.371 OA
ATOM     41  H9  UNL     1      55.062   5.359  39.069  1.00  0.00     0.212 HD
ENDBRANCH  39  40
BRANCH  39  42
HETATM   42  O10 UNL     1      57.627   5.393  39.935  1.00  0.00    -0.371 OA
ATOM     43  H10 UNL     1      57.399   6.029  39.267  1.00  0.00     0.212 HD
ENDBRANCH  39  42
ENDBRANCH  37  39
ENDBRANCH  34  37
BRANCH  35  44
HETATM   44  O1  UNL     1      57.350   6.957  43.522  1.00  0.00    -0.290 OA
ATOM     45  H1  UNL     1      57.005   7.839  43.604  1.00  0.00     0.244 HD
ENDBRANCH  35  44
ENDBRANCH  33  34
BRANCH  33  46
HETATM   46  O2  UNL     1      59.633   5.385  42.577  1.00  0.00    -0.369 OA
ATOM     47  H2  UNL     1      60.389   4.874  42.314  1.00  0.00     0.212 HD
ENDBRANCH  33  46
ENDBRANCH  32  33
BRANCH  32  48
HETATM   48  O3  UNL     1      57.551   4.493  45.118  1.00  0.00    -0.288 OA
ATOM     49  H3  UNL     1      57.155   5.352  45.210  1.00  0.00     0.244 HD
ENDBRANCH  32  48
ENDBRANCH   1  32
TORSDOF 18
ENDMDL
MODEL 3
REMARK VINA RESULT: -6.284154597      1.829      2.615
REMARK  18 active torsions:
REMARK  status: ('A' for Active; 'I' for Inactive)
REMARK    1  A    between atoms: C2_2  and  C3_3 
REMARK    2  A    between atoms: C2_2  and  C17_45 
REMARK    3  A    between atoms: C3_3  and  C4_8 
REMARK    4  A    between atoms: N1_4  and  O1_6 
REMARK    5  A    between atoms: C4_8  and  O2_9 
REMARK    6  A    between atoms: C4_8  and  N2_11 
REMARK    7  A    between atoms: N2_11  and  O3_12 
REMARK    8  A    between atoms: N2_11  and  C5_14 
REMARK    9  A    between atoms: C7_16  and  N3_17 
REMARK   10  A    between atoms: N3_17  and  N4_18 
REMARK   11  A    between atoms: C9_20  and  O4_21 
REMARK   12  A    between atoms: C10_23  and  N5_24 
REMARK   13  A    between atoms: C11_28  and  O5_29 
REMARK   14  A    between atoms: C12_31  and  N6_32 
REMARK       I    between atoms: N6_32  and  C13_34 
REMARK   15  A    between atoms: C13_34  and  C14_36 
REMARK   16  A    between atoms: N7_37  and  O7_39 
REMARK   17  A    between atoms: C17_45  and  O9_46 
REMARK   18  A    between atoms: C17_45  and  O10_48 
ROOT
HETATM    1  C5  UNL     1      59.700   2.751  46.433  1.00  0.00     0.175 C 
HETATM    2  C6  UNL     1      59.501   3.633  47.644  1.00  0.00     0.068 C 
HETATM    3  C7  UNL     1      59.993   2.872  48.856  1.00  0.00     0.166 C 
HETATM    4  C15 UNL     1      61.463   2.888  48.910  1.00  0.00     0.156 C 
HETATM    5  O8  UNL     1      62.036   3.411  49.828  1.00  0.00    -0.295 OA
HETATM    6  C16 UNL     1      62.223   2.249  47.819  1.00  0.00     0.156 C 
HETATM    7  S1  UNL     1      60.970   1.479  46.719  1.00  0.00    -0.134 SA
ENDROOT
BRANCH   3   8
HETATM    8  N3  UNL     1      59.456   3.360  50.081  1.00  0.00    -0.150 NA
BRANCH   8   9
HETATM    9  N4  UNL     1      59.348   2.401  51.092  1.00  0.00    -0.206 NA
HETATM   10  C8  UNL     1      58.075   1.771  50.961  1.00  0.00     0.146 C 
HETATM   11  C9  UNL     1      57.619   0.996  52.144  1.00  0.00     0.165 C 
HETATM   12  C10 UNL     1      57.878   1.666  53.455  1.00  0.00     0.245 C 
HETATM   13  C11 UNL     1      59.262   2.213  53.555  1.00  0.00     0.189 C 
HETATM   14  C12 UNL     1      59.613   3.038  52.340  1.00  0.00     0.207 C 
BRANCH  11  15
HETATM   15  O4  UNL     1      56.219   0.832  52.031  1.00  0.00    -0.392 OA
ATOM     16  H4  UNL     1      55.988   0.029  52.481  1.00  0.00     0.210 HD
ENDBRANCH  11  15
BRANCH  12  17
HETATM   17  N5  UNL     1      56.839   2.624  53.754  1.00  0.00    -0.070 N 
ATOM     18  H53 UNL     1      55.970   2.403  53.267  1.00  0.00     0.274 HD
ATOM     19  H52 UNL     1      56.506   2.530  54.714  1.00  0.00     0.274 HD
ATOM     20  H51 UNL     1      57.155   3.573  53.555  1.00  0.00     0.274 HD
ENDBRANCH  12  17
BRANCH  13  21
HETATM   21  O5  UNL     1      59.360   3.012  54.682  1.00  0.00    -0.390 OA
ATOM     22  H5  UNL     1      60.271   3.073  54.947  1.00  0.00     0.210 HD
ENDBRANCH  13  21
BRANCH  14  23
HETATM   23  N6  UNL     1      59.048   4.358  52.412  1.00  0.00    -0.336 N 
HETATM   24  C13 UNL     1      59.695   5.446  53.042  1.00  0.00     0.260 C 
HETATM   25  O6  UNL     1      60.835   5.214  53.563  1.00  0.00    -0.267 OA
ATOM     26  H6  UNL     1      58.134   4.517  51.987  1.00  0.00     0.164 HD
BRANCH  24  27
HETATM   27  C14 UNL     1      59.094   6.769  53.095  1.00  0.00     0.187 C 
HETATM   28  N7  UNL     1      57.870   6.869  53.507  1.00  0.00    -0.275 N 
ATOM     29  H7  UNL     1      57.435   7.791  53.548  1.00  0.00     0.193 HD
BRANCH  28  30
HETATM   30  O7  UNL     1      57.146   5.775  53.887  1.00  0.00    -0.290 OA
ATOM     31  H7  UNL     1      56.214   5.829  54.065  1.00  0.00     0.244 HD
ENDBRANCH  28  30
ENDBRANCH  24  27
ENDBRANCH  14  23
ENDBRANCH   8   9
ENDBRANCH   3   8
BRANCH   1  32
HETATM   32  N2  UNL     1      58.509   2.203  45.926  1.00  0.00    -0.247 N 
BRANCH  32  33
HETATM   33  C4  UNL     1      58.127   2.390  44.599  1.00  0.00     0.291 C 
BRANCH  33  34
HETATM   34  C3  UNL     1      57.987   3.779  44.100  1.00  0.00     0.068 C 
HETATM   35  N1  UNL     1      57.054   4.573  44.502  1.00  0.00    -0.272 N 
ATOM     36  H1  UNL     1      56.989   5.519  44.128  1.00  0.00     0.193 HD
BRANCH  34  37
HETATM   37  C2  UNL     1      58.920   4.333  43.085  1.00  0.00     0.088 C 
HETATM   38  C1  UNL     1      58.212   4.465  41.752  1.00  0.00     0.021 C 
BRANCH  37  39
HETATM   39  C17 UNL     1      59.418   5.715  43.449  1.00  0.00     0.263 C 
BRANCH  39  40
HETATM   40  O9  UNL     1      59.656   5.801  44.835  1.00  0.00    -0.371 OA
ATOM     41  H9  UNL     1      58.963   6.293  45.259  1.00  0.00     0.212 HD
ENDBRANCH  39  40
BRANCH  39  42
HETATM   42  O10 UNL     1      60.698   5.861  42.873  1.00  0.00    -0.371 OA
ATOM     43  H10 UNL     1      61.032   6.709  43.144  1.00  0.00     0.212 HD
ENDBRANCH  39  42
ENDBRANCH  37  39
ENDBRANCH  34  37
BRANCH  35  44
HETATM   44  O1  UNL     1      56.157   4.139  45.429  1.00  0.00    -0.290 OA
ATOM     45  H1  UNL     1      55.251   4.004  45.178  1.00  0.00     0.244 HD
ENDBRANCH  35  44
ENDBRANCH  33  34
BRANCH  33  46
HETATM   46  O2  UNL     1      58.953   1.635  43.741  1.00  0.00    -0.369 OA
ATOM     47  H2  UNL     1      58.703   0.719  43.757  1.00  0.00     0.212 HD
ENDBRANCH  33  46
ENDBRANCH  32  33
BRANCH  32  48
HETATM   48  O3  UNL     1      57.567   1.892  46.806  1.00  0.00    -0.288 OA
ATOM     49  H3  UNL     1      57.257   0.994  46.828  1.00  0.00     0.244 HD
ENDBRANCH  32  48
ENDBRANCH   1  32
TORSDOF 18
ENDMDL
MODEL 4
REMARK VINA RESULT: -6.184686166      3.160      8.938
REMARK  18 active torsions:
REMARK  status: ('A' for Active; 'I' for Inactive)
REMARK    1  A    between atoms: C2_2  and  C3_3 
REMARK    2  A    between atoms: C2_2  and  C17_45 
REMARK    3  A    between atoms: C3_3  and  C4_8 
REMARK    4  A    between atoms: N1_4  and  O1_6 
REMARK    5  A    between atoms: C4_8  and  O2_9 
REMARK    6  A    between atoms: C4_8  and  N2_11 
REMARK    7  A    between atoms: N2_11  and  O3_12 
REMARK    8  A    between atoms: N2_11  and  C5_14 
REMARK    9  A    between atoms: C7_16  and  N3_17 
REMARK   10  A    between atoms: N3_17  and  N4_18 
REMARK   11  A    between atoms: C9_20  and  O4_21 
REMARK   12  A    between atoms: C10_23  and  N5_24 
REMARK   13  A    between atoms: C11_28  and  O5_29 
REMARK   14  A    between atoms: C12_31  and  N6_32 
REMARK       I    between atoms: N6_32  and  C13_34 
REMARK   15  A    between atoms: C13_34  and  C14_36 
REMARK   16  A    between atoms: N7_37  and  O7_39 
REMARK   17  A    between atoms: C17_45  and  O9_46 
REMARK   18  A    between atoms: C17_45  and  O10_48 
ROOT
HETATM    1  C5  UNL     1      58.337   3.141  52.014  1.00  0.00     0.175 C 
HETATM    2  C6  UNL     1      58.478   3.246  50.513  1.00  0.00     0.068 C 
HETATM    3  C7  UNL     1      59.497   2.218  50.071  1.00  0.00     0.166 C 
HETATM    4  C15 UNL     1      58.898   0.873  50.063  1.00  0.00     0.156 C 
HETATM    5  O8  UNL     1      58.804   0.252  49.038  1.00  0.00    -0.295 OA
HETATM    6  C16 UNL     1      58.417   0.300  51.334  1.00  0.00     0.156 C 
HETATM    7  S1  UNL     1      58.868   1.515  52.635  1.00  0.00    -0.134 SA
ENDROOT
BRANCH   3   8
HETATM    8  N3  UNL     1      60.067   2.504  48.798  1.00  0.00    -0.150 NA
BRANCH   8   9
HETATM    9  N4  UNL     1      61.458   2.377  48.742  1.00  0.00    -0.206 NA
HETATM   10  C8  UNL     1      62.002   3.048  49.877  1.00  0.00     0.146 C 
HETATM   11  C9  UNL     1      63.456   3.347  49.809  1.00  0.00     0.165 C 
HETATM   12  C10 UNL     1      63.919   3.845  48.478  1.00  0.00     0.245 C 
HETATM   13  C11 UNL     1      63.388   3.033  47.346  1.00  0.00     0.189 C 
HETATM   14  C12 UNL     1      61.896   2.837  47.466  1.00  0.00     0.207 C 
BRANCH  11  15
HETATM   15  O4  UNL     1      63.726   4.367  50.750  1.00  0.00    -0.392 OA
ATOM     16  H4  UNL     1      64.577   4.187  51.131  1.00  0.00     0.210 HD
ENDBRANCH  11  15
BRANCH  12  17
HETATM   17  N5  UNL     1      63.681   5.264  48.351  1.00  0.00    -0.070 N 
ATOM     18  H53 UNL     1      62.723   5.462  48.062  1.00  0.00     0.274 HD
ATOM     19  H52 UNL     1      63.665   5.727  49.261  1.00  0.00     0.274 HD
ATOM     20  H51 UNL     1      64.361   5.690  47.722  1.00  0.00     0.274 HD
ENDBRANCH  12  17
BRANCH  13  21
HETATM   21  O5  UNL     1      63.660   3.677  46.150  1.00  0.00    -0.390 OA
ATOM     22  H5  UNL     1      63.916   3.036  45.497  1.00  0.00     0.210 HD
ENDBRANCH  13  21
BRANCH  14  23
HETATM   23  N6  UNL     1      61.169   3.994  47.022  1.00  0.00    -0.336 N 
HETATM   24  C13 UNL     1      60.342   3.999  45.875  1.00  0.00     0.260 C 
HETATM   25  O6  UNL     1      60.256   2.907  45.223  1.00  0.00    -0.267 OA
ATOM     26  H6  UNL     1      61.256   4.856  47.561  1.00  0.00     0.164 HD
BRANCH  24  27
HETATM   27  C14 UNL     1      59.620   5.189  45.456  1.00  0.00     0.187 C 
HETATM   28  N7  UNL     1      59.882   5.684  44.288  1.00  0.00    -0.275 N 
ATOM     29  H7  UNL     1      59.384   6.519  43.980  1.00  0.00     0.193 HD
BRANCH  28  30
HETATM   30  O7  UNL     1      60.806   5.118  43.456  1.00  0.00    -0.290 OA
ATOM     31  H7  UNL     1      60.737   5.185  42.511  1.00  0.00     0.244 HD
ENDBRANCH  28  30
ENDBRANCH  24  27
ENDBRANCH  14  23
ENDBRANCH   8   9
ENDBRANCH   3   8
BRANCH   1  32
HETATM   32  N2  UNL     1      58.941   4.197  52.717  1.00  0.00    -0.247 N 
BRANCH  32  33
HETATM   33  C4  UNL     1      58.317   4.796  53.811  1.00  0.00     0.291 C 
BRANCH  33  34
HETATM   34  C3  UNL     1      58.923   6.024  54.377  1.00  0.00     0.068 C 
HETATM   35  N1  UNL     1      58.975   7.138  53.729  1.00  0.00    -0.272 N 
ATOM     36  H1  UNL     1      59.408   7.958  54.153  1.00  0.00     0.193 HD
BRANCH  34  37
HETATM   37  C2  UNL     1      59.524   6.034  55.736  1.00  0.00     0.088 C 
HETATM   38  C1  UNL     1      61.005   6.340  55.642  1.00  0.00     0.021 C 
BRANCH  37  39
HETATM   39  C17 UNL     1      58.919   7.094  56.630  1.00  0.00     0.263 C 
BRANCH  39  40
HETATM   40  O9  UNL     1      59.343   8.375  56.225  1.00  0.00    -0.371 OA
ATOM     41  H9  UNL     1      58.847   9.046  56.680  1.00  0.00     0.212 HD
ENDBRANCH  39  40
BRANCH  39  42
HETATM   42  O10 UNL     1      57.529   7.102  56.383  1.00  0.00    -0.371 OA
ATOM     43  H10 UNL     1      57.412   7.145  55.441  1.00  0.00     0.212 HD
ENDBRANCH  39  42
ENDBRANCH  37  39
ENDBRANCH  34  37
BRANCH  35  44
HETATM   44  O1  UNL     1      58.448   7.211  52.476  1.00  0.00    -0.290 OA
ATOM     45  H1  UNL     1      58.975   7.557  51.766  1.00  0.00     0.244 HD
ENDBRANCH  35  44
ENDBRANCH  33  34
BRANCH  33  46
HETATM   46  O2  UNL     1      56.947   4.996  53.543  1.00  0.00    -0.369 OA
ATOM     47  H2  UNL     1      56.415   4.394  54.051  1.00  0.00     0.212 HD
ENDBRANCH  33  46
ENDBRANCH  32  33
BRANCH  32  48
HETATM   48  O3  UNL     1      59.876   4.888  52.080  1.00  0.00    -0.288 OA
ATOM     49  H3  UNL     1      60.211   4.537  51.264  1.00  0.00     0.244 HD
ENDBRANCH  32  48
ENDBRANCH   1  32
TORSDOF 18
ENDMDL
MODEL 5
REMARK VINA RESULT: -6.167897093      2.690      7.900
REMARK  18 active torsions:
REMARK  status: ('A' for Active; 'I' for Inactive)
REMARK    1  A    between atoms: C2_2  and  C3_3 
REMARK    2  A    between atoms: C2_2  and  C17_45 
REMARK    3  A    between atoms: C3_3  and  C4_8 
REMARK    4  A    between atoms: N1_4  and  O1_6 
REMARK    5  A    between atoms: C4_8  and  O2_9 
REMARK    6  A    between atoms: C4_8  and  N2_11 
REMARK    7  A    between atoms: N2_11  and  O3_12 
REMARK    8  A    between atoms: N2_11  and  C5_14 
REMARK    9  A    between atoms: C7_16  and  N3_17 
REMARK   10  A    between atoms: N3_17  and  N4_18 
REMARK   11  A    between atoms: C9_20  and  O4_21 
REMARK   12  A    between atoms: C10_23  and  N5_24 
REMARK   13  A    between atoms: C11_28  and  O5_29 
REMARK   14  A    between atoms: C12_31  and  N6_32 
REMARK       I    between atoms: N6_32  and  C13_34 
REMARK   15  A    between atoms: C13_34  and  C14_36 
REMARK   16  A    between atoms: N7_37  and  O7_39 
REMARK   17  A    between atoms: C17_45  and  O9_46 
REMARK   18  A    between atoms: C17_45  and  O10_48 
ROOT
HETATM    1  C5  UNL     1      57.239   1.581  50.438  1.00  0.00     0.175 C 
HETATM    2  C6  UNL     1      57.682   2.229  49.147  1.00  0.00     0.068 C 
HETATM    3  C7  UNL     1      58.869   1.450  48.622  1.00  0.00     0.166 C 
HETATM    4  C15 UNL     1      58.422   0.192  48.002  1.00  0.00     0.156 C 
HETATM    5  O8  UNL     1      58.610  -0.013  46.833  1.00  0.00    -0.295 OA
HETATM    6  C16 UNL     1      57.743  -0.813  48.840  1.00  0.00     0.156 C 
HETATM    7  S1  UNL     1      57.786  -0.151  50.553  1.00  0.00    -0.134 SA
ENDROOT
BRANCH   3   8
HETATM    8  N3  UNL     1      59.664   2.191  47.702  1.00  0.00    -0.150 NA
BRANCH   8   9
HETATM    9  N4  UNL     1      61.043   2.060  47.888  1.00  0.00    -0.206 NA
HETATM   10  C8  UNL     1      61.358   2.578  49.180  1.00  0.00     0.146 C 
HETATM   11  C9  UNL     1      62.795   2.871  49.420  1.00  0.00     0.165 C 
HETATM   12  C10 UNL     1      63.487   3.530  48.271  1.00  0.00     0.245 C 
HETATM   13  C11 UNL     1      63.187   2.872  46.967  1.00  0.00     0.189 C 
HETATM   14  C12 UNL     1      61.702   2.675  46.784  1.00  0.00     0.207 C 
BRANCH  11  15
HETATM   15  O4  UNL     1      62.871   3.761  50.516  1.00  0.00    -0.392 OA
ATOM     16  H4  UNL     1      63.537   4.406  50.315  1.00  0.00     0.210 HD
ENDBRANCH  11  15
BRANCH  12  17
HETATM   17  N5  UNL     1      63.255   4.956  48.283  1.00  0.00    -0.070 N 
ATOM     18  H53 UNL     1      62.864   5.267  49.173  1.00  0.00     0.274 HD
ATOM     19  H52 UNL     1      64.130   5.480  48.308  1.00  0.00     0.274 HD
ATOM     20  H51 UNL     1      62.670   5.233  47.495  1.00  0.00     0.274 HD
ENDBRANCH  12  17
BRANCH  13  21
HETATM   21  O5  UNL     1      63.665   3.661  45.933  1.00  0.00    -0.390 OA
ATOM     22  H5  UNL     1      64.072   3.108  45.276  1.00  0.00     0.210 HD
ENDBRANCH  13  21
BRANCH  14  23
HETATM   23  N6  UNL     1      61.052   3.886  46.363  1.00  0.00    -0.336 N 
HETATM   24  C13 UNL     1      60.421   4.032  45.106  1.00  0.00     0.260 C 
HETATM   25  O6  UNL     1      60.446   3.022  44.328  1.00  0.00    -0.267 OA
ATOM     26  H6  UNL     1      61.046   4.680  47.003  1.00  0.00     0.164 HD
BRANCH  24  27
HETATM   27  C14 UNL     1      59.772   5.272  44.713  1.00  0.00     0.187 C 
HETATM   28  N7  UNL     1      58.478   5.313  44.716  1.00  0.00    -0.275 N 
ATOM     29  H7  UNL     1      58.008   6.176  44.443  1.00  0.00     0.193 HD
BRANCH  28  30
HETATM   30  O7  UNL     1      57.724   4.232  45.075  1.00  0.00    -0.290 OA
ATOM     31  H7  UNL     1      57.277   3.696  44.430  1.00  0.00     0.244 HD
ENDBRANCH  28  30
ENDBRANCH  24  27
ENDBRANCH  14  23
ENDBRANCH   8   9
ENDBRANCH   3   8
BRANCH   1  32
HETATM   32  N2  UNL     1      57.572   2.316  51.588  1.00  0.00    -0.247 N 
BRANCH  32  33
HETATM   33  C4  UNL     1      58.814   2.935  51.724  1.00  0.00     0.291 C 
BRANCH  33  34
HETATM   34  C3  UNL     1      58.848   4.341  52.192  1.00  0.00     0.068 C 
HETATM   35  N1  UNL     1      58.760   5.345  51.387  1.00  0.00    -0.272 N 
ATOM     36  H1  UNL     1      58.795   6.297  51.750  1.00  0.00     0.193 HD
BRANCH  34  37
HETATM   37  C2  UNL     1      58.999   4.673  53.632  1.00  0.00     0.088 C 
HETATM   38  C1  UNL     1      60.246   5.508  53.840  1.00  0.00     0.021 C 
BRANCH  37  39
HETATM   39  C17 UNL     1      57.840   5.486  54.165  1.00  0.00     0.263 C 
BRANCH  39  40
HETATM   40  O9  UNL     1      57.863   6.786  53.620  1.00  0.00    -0.371 OA
ATOM     41  H9  UNL     1      58.326   7.379  54.201  1.00  0.00     0.212 HD
ENDBRANCH  39  40
BRANCH  39  42
HETATM   42  O10 UNL     1      56.658   4.919  53.641  1.00  0.00    -0.371 OA
ATOM     43  H10 UNL     1      56.280   4.379  54.325  1.00  0.00     0.212 HD
ENDBRANCH  39  42
ENDBRANCH  37  39
ENDBRANCH  34  37
BRANCH  35  44
HETATM   44  O1  UNL     1      58.621   5.125  50.052  1.00  0.00    -0.290 OA
ATOM     45  H1  UNL     1      58.825   5.821  49.438  1.00  0.00     0.244 HD
ENDBRANCH  35  44
ENDBRANCH  33  34
BRANCH  33  46
HETATM   46  O2  UNL     1      59.677   2.133  52.498  1.00  0.00    -0.369 OA
ATOM     47  H2  UNL     1      59.205   1.400  52.875  1.00  0.00     0.212 HD
ENDBRANCH  33  46
ENDBRANCH  32  33
BRANCH  32  48
HETATM   48  O3  UNL     1      56.884   2.054  52.691  1.00  0.00    -0.288 OA
ATOM     49  H3  UNL     1      56.340   2.744  53.052  1.00  0.00     0.244 HD
ENDBRANCH  32  48
ENDBRANCH   1  32
TORSDOF 18
ENDMDL
