MODEL 1
REMARK VINA RESULT: -7.143622235      0.000      0.000
REMARK  16 active torsions:
REMARK  status: ('A' for Active; 'I' for Inactive)
REMARK    1  A    between atoms: C1_2  and  C2_4 
REMARK    2  A    between atoms: N4_9  and  C3_10 
REMARK    3  A    between atoms: C4_11  and  O2_12 
REMARK    4  A    between atoms: C6_15  and  C7_16 
REMARK    5  A    between atoms: C7_16  and  O3_17 
REMARK    6  A    between atoms: C7_16  and  N5_19 
REMARK    7  A    between atoms: N5_19  and  C8_22 
REMARK    8  A    between atoms: C8_22  and  C9_23 
REMARK    9  A    between atoms: C8_22  and  C14_41 
REMARK   10  A    between atoms: C9_23  and  C10_24 
REMARK   11  A    between atoms: C10_24  and  N6_25 
REMARK   12  A    between atoms: N6_25  and  O4_26 
REMARK       I    between atoms: N6_25  and  C11_28 
REMARK       I    between atoms: C11_28  and  N7_30 
REMARK   13  A    between atoms: C12_31  and  N8_32 
REMARK   14  A    between atoms: C13_36  and  N9_37 
REMARK   15  A    between atoms: C17_48  and  O8_49 
REMARK   16  A    between atoms: C18_51  and  O9_52 
ROOT
HETATM    1  C7  UNL     1      58.005   5.202  42.631  1.00  0.00     0.358 C 
ENDROOT
BRANCH   1   2
HETATM    2  C6  UNL     1      58.914   4.478  43.516  1.00  0.00     0.052 C 
HETATM    3  C5  UNL     1      59.576   5.270  44.432  1.00  0.00     0.054 C 
HETATM    4  C4  UNL     1      60.092   4.938  45.688  1.00  0.00     0.098 C 
HETATM    5  C3  UNL     1      60.459   3.656  46.059  1.00  0.00     0.128 C 
HETATM    6  C17 UNL     1      60.182   2.421  45.473  1.00  0.00     0.126 C 
HETATM    7  C16 UNL     1      59.432   2.209  44.346  1.00  0.00     0.132 C 
HETATM    8  C15 UNL     1      59.030   3.113  43.375  1.00  0.00     0.209 C 
HETATM    9  N11 UNL     1      58.992   0.866  44.124  1.00  0.00    -0.095 NA
HETATM   10  O7  UNL     1      58.735   2.640  42.224  1.00  0.00    -0.286 OA
BRANCH   4  11
HETATM   11  O2  UNL     1      60.245   5.953  46.621  1.00  0.00    -0.358 OA
ATOM     12  H2  UNL     1      59.787   6.771  46.467  1.00  0.00     0.217 HD
ENDBRANCH   4  11
BRANCH   5  13
HETATM   13  N4  UNL     1      61.257   3.565  47.237  1.00  0.00    -0.212 N 
HETATM   14  N3  UNL     1      60.856   3.384  48.479  1.00  0.00    -0.233 N 
HETATM   15  N2  UNL     1      61.875   3.352  49.317  1.00  0.00    -0.277 N 
ATOM     16  H3  UNL     1      59.880   3.281  48.758  1.00  0.00     0.209 HD
HETATM   17  C2  UNL     1      62.998   3.520  48.595  1.00  0.00     0.167 A 
ATOM     18  H2  UNL     1      61.821   3.223  50.327  1.00  0.00     0.189 HD
HETATM   19  C18 UNL     1      62.594   3.656  47.270  1.00  0.00     0.197 A 
BRANCH  17  20
HETATM   20  C1  UNL     1      64.368   3.552  49.103  1.00  0.00     0.287 C 
HETATM   21  N1  UNL     1      65.480   3.090  48.369  1.00  0.00    -0.056 NA
HETATM   22  O1  UNL     1      64.557   4.017  50.252  1.00  0.00    -0.269 OA
ENDBRANCH  17  20
BRANCH  19  23
HETATM   23  O9  UNL     1      63.506   3.848  46.241  1.00  0.00    -0.343 OA
ATOM     24  H9  UNL     1      63.572   4.674  45.776  1.00  0.00     0.219 HD
ENDBRANCH  19  23
ENDBRANCH   5  13
BRANCH   6  25
HETATM   25  O8  UNL     1      60.720   1.306  46.099  1.00  0.00    -0.356 OA
ATOM     26  H8  UNL     1      60.137   0.819  46.670  1.00  0.00     0.218 HD
ENDBRANCH   6  25
ENDBRANCH   1   2
BRANCH   1  27
HETATM   27  O3  UNL     1      58.362   5.161  41.284  1.00  0.00    -0.366 OA
ATOM     28  H3  UNL     1      59.061   5.758  41.046  1.00  0.00     0.212 HD
ENDBRANCH   1  27
BRANCH   1  29
HETATM   29  N5  UNL     1      56.606   4.938  42.822  1.00  0.00    -0.032 N 
ATOM     30  H52 UNL     1      56.423   4.272  43.573  1.00  0.00     0.281 HD
ATOM     31  H51 UNL     1      56.100   5.728  43.222  1.00  0.00     0.281 HD
BRANCH  29  32
HETATM   32  C8  UNL     1      56.068   4.506  41.525  1.00  0.00     0.279 C 
BRANCH  32  33
HETATM   33  C9  UNL     1      55.068   3.379  41.678  1.00  0.00     0.065 C 
BRANCH  33  34
HETATM   34  C10 UNL     1      54.241   3.540  42.935  1.00  0.00     0.163 C 
BRANCH  34  35
HETATM   35  N6  UNL     1      54.528   2.477  43.871  1.00  0.00    -0.210 N 
HETATM   36  C11 UNL     1      55.315   2.643  45.029  1.00  0.00     0.347 C 
HETATM   37  O5  UNL     1      55.806   3.770  45.279  1.00  0.00    -0.245 OA
HETATM   38  N7  UNL     1      55.581   1.585  45.936  1.00  0.00    -0.268 N 
HETATM   39  C12 UNL     1      55.371   0.144  46.273  1.00  0.00     0.340 A 
HETATM   40  C13 UNL     1      56.202   1.050  47.160  1.00  0.00     0.340 A 
BRANCH  35  41
HETATM   41  O4  UNL     1      54.002   1.246  43.606  1.00  0.00    -0.283 OA
ATOM     42  H4  UNL     1      53.529   0.811  44.306  1.00  0.00     0.245 HD
ENDBRANCH  35  41
BRANCH  39  43
HETATM   43  N8  UNL     1      54.039  -0.210  46.747  1.00  0.00    -0.054 N 
ATOM     44  H83 UNL     1      53.347   0.418  46.338  1.00  0.00     0.276 HD
ATOM     45  H82 UNL     1      53.748  -1.096  46.335  1.00  0.00     0.276 HD
ATOM     46  H81 UNL     1      53.922  -0.243  47.760  1.00  0.00     0.276 HD
ENDBRANCH  39  43
BRANCH  40  47
HETATM   47  N9  UNL     1      57.627   0.756  47.119  1.00  0.00    -0.054 N 
ATOM     48  H93 UNL     1      57.769  -0.240  47.287  1.00  0.00     0.276 HD
ATOM     49  H92 UNL     1      57.961   0.838  46.159  1.00  0.00     0.276 HD
ATOM     50  H91 UNL     1      58.238   1.292  47.735  1.00  0.00     0.276 HD
ENDBRANCH  40  47
ENDBRANCH  34  35
ENDBRANCH  33  34
ENDBRANCH  32  33
BRANCH  32  51
HETATM   51  C14 UNL     1      55.424   5.670  40.824  1.00  0.00     0.262 C 
HETATM   52  N10 UNL     1      54.423   6.424  41.484  1.00  0.00    -0.060 NA
HETATM   53  O6  UNL     1      55.734   6.015  39.657  1.00  0.00    -0.275 OA
ENDBRANCH  32  51
ENDBRANCH  29  32
ENDBRANCH   1  29
TORSDOF 16
ENDMDL
MODEL 2
REMARK VINA RESULT: -7.044854727      1.029      1.607
REMARK  16 active torsions:
REMARK  status: ('A' for Active; 'I' for Inactive)
REMARK    1  A    between atoms: C1_2  and  C2_4 
REMARK    2  A    between atoms: N4_9  and  C3_10 
REMARK    3  A    between atoms: C4_11  and  O2_12 
REMARK    4  A    between atoms: C6_15  and  C7_16 
REMARK    5  A    between atoms: C7_16  and  O3_17 
REMARK    6  A    between atoms: C7_16  and  N5_19 
REMARK    7  A    between atoms: N5_19  and  C8_22 
REMARK    8  A    between atoms: C8_22  and  C9_23 
REMARK    9  A    between atoms: C8_22  and  C14_41 
REMARK   10  A    between atoms: C9_23  and  C10_24 
REMARK   11  A    between atoms: C10_24  and  N6_25 
REMARK   12  A    between atoms: N6_25  and  O4_26 
REMARK       I    between atoms: N6_25  and  C11_28 
REMARK       I    between atoms: C11_28  and  N7_30 
REMARK   13  A    between atoms: C12_31  and  N8_32 
REMARK   14  A    between atoms: C13_36  and  N9_37 
REMARK   15  A    between atoms: C17_48  and  O8_49 
REMARK   16  A    between atoms: C18_51  and  O9_52 
ROOT
HETATM    1  C7  UNL     1      57.928   5.209  42.813  1.00  0.00     0.358 C 
ENDROOT
BRANCH   1   2
HETATM    2  C6  UNL     1      58.931   4.526  43.628  1.00  0.00     0.052 C 
HETATM    3  C5  UNL     1      59.536   5.322  44.579  1.00  0.00     0.054 C 
HETATM    4  C4  UNL     1      60.120   4.966  45.799  1.00  0.00     0.098 C 
HETATM    5  C3  UNL     1      60.625   3.707  46.074  1.00  0.00     0.128 C 
HETATM    6  C17 UNL     1      60.457   2.490  45.414  1.00  0.00     0.126 C 
HETATM    7  C16 UNL     1      59.700   2.274  44.293  1.00  0.00     0.132 C 
HETATM    8  C15 UNL     1      59.180   3.192  43.393  1.00  0.00     0.209 C 
HETATM    9  N11 UNL     1      59.391   0.910  43.991  1.00  0.00    -0.095 NA
HETATM   10  O7  UNL     1      58.900   2.766  42.221  1.00  0.00    -0.286 OA
BRANCH   4  11
HETATM   11  O2  UNL     1      60.197   5.929  46.793  1.00  0.00    -0.358 OA
ATOM     12  H2  UNL     1      59.535   6.611  46.804  1.00  0.00     0.217 HD
ENDBRANCH   4  11
BRANCH   5  13
HETATM   13  N4  UNL     1      61.463   3.624  47.225  1.00  0.00    -0.212 N 
HETATM   14  N3  UNL     1      61.105   3.433  48.479  1.00  0.00    -0.233 N 
HETATM   15  N2  UNL     1      62.152   3.413  49.283  1.00  0.00    -0.277 N 
ATOM     16  H3  UNL     1      60.141   3.317  48.790  1.00  0.00     0.209 HD
HETATM   17  C2  UNL     1      63.248   3.598  48.525  1.00  0.00     0.167 A 
ATOM     18  H2  UNL     1      62.133   3.280  50.294  1.00  0.00     0.189 HD
HETATM   19  C18 UNL     1      62.799   3.732  47.215  1.00  0.00     0.197 A 
BRANCH  17  20
HETATM   20  C1  UNL     1      64.633   3.647  48.988  1.00  0.00     0.287 C 
HETATM   21  N1  UNL     1      65.689   2.954  48.358  1.00  0.00    -0.056 NA
HETATM   22  O1  UNL     1      64.890   4.343  49.998  1.00  0.00    -0.269 OA
ENDBRANCH  17  20
BRANCH  19  23
HETATM   23  O9  UNL     1      63.673   3.939  46.157  1.00  0.00    -0.343 OA
ATOM     24  H9  UNL     1      63.821   3.278  45.490  1.00  0.00     0.219 HD
ENDBRANCH  19  23
ENDBRANCH   5  13
BRANCH   6  25
HETATM   25  O8  UNL     1      61.123   1.398  45.951  1.00  0.00    -0.356 OA
ATOM     26  H8  UNL     1      60.642   0.580  45.977  1.00  0.00     0.218 HD
ENDBRANCH   6  25
ENDBRANCH   1   2
BRANCH   1  27
HETATM   27  O3  UNL     1      58.125   5.086  41.439  1.00  0.00    -0.366 OA
ATOM     28  H3  UNL     1      58.199   5.914  40.979  1.00  0.00     0.212 HD
ENDBRANCH   1  27
BRANCH   1  29
HETATM   29  N5  UNL     1      56.559   4.971  43.182  1.00  0.00    -0.032 N 
ATOM     30  H52 UNL     1      56.464   4.455  44.057  1.00  0.00     0.281 HD
ATOM     31  H51 UNL     1      56.071   5.817  43.474  1.00  0.00     0.281 HD
BRANCH  29  32
HETATM   32  C8  UNL     1      55.918   4.298  42.044  1.00  0.00     0.279 C 
BRANCH  32  33
HETATM   33  C9  UNL     1      55.013   3.171  42.494  1.00  0.00     0.065 C 
BRANCH  33  34
HETATM   34  C10 UNL     1      55.808   2.021  43.074  1.00  0.00     0.163 C 
BRANCH  34  35
HETATM   35  N6  UNL     1      55.521   1.865  44.482  1.00  0.00    -0.210 N 
HETATM   36  C11 UNL     1      54.968   0.697  45.045  1.00  0.00     0.347 C 
HETATM   37  O5  UNL     1      54.699  -0.275  44.298  1.00  0.00    -0.245 OA
HETATM   38  N7  UNL     1      54.698   0.564  46.432  1.00  0.00    -0.268 N 
HETATM   39  C12 UNL     1      54.741   1.206  47.781  1.00  0.00     0.340 A 
HETATM   40  C13 UNL     1      54.212  -0.202  47.592  1.00  0.00     0.340 A 
BRANCH  35  41
HETATM   41  O4  UNL     1      55.807   2.917  45.303  1.00  0.00    -0.283 OA
ATOM     42  H4  UNL     1      56.678   2.955  45.680  1.00  0.00     0.245 HD
ENDBRANCH  35  41
BRANCH  39  43
HETATM   43  N8  UNL     1      56.065   1.343  48.376  1.00  0.00    -0.054 N 
ATOM     44  H83 UNL     1      56.238   0.570  49.019  1.00  0.00     0.276 HD
ATOM     45  H82 UNL     1      56.781   1.161  47.674  1.00  0.00     0.276 HD
ATOM     46  H81 UNL     1      56.253   2.231  48.842  1.00  0.00     0.276 HD
ENDBRANCH  39  43
BRANCH  40  47
HETATM   47  N9  UNL     1      52.772  -0.310  47.773  1.00  0.00    -0.054 N 
ATOM     48  H93 UNL     1      52.529  -0.021  48.720  1.00  0.00     0.276 HD
ATOM     49  H92 UNL     1      52.308   0.416  47.226  1.00  0.00     0.276 HD
ATOM     50  H91 UNL     1      52.337  -1.211  47.574  1.00  0.00     0.276 HD
ENDBRANCH  40  47
ENDBRANCH  34  35
ENDBRANCH  33  34
ENDBRANCH  32  33
BRANCH  32  51
HETATM   51  C14 UNL     1      55.133   5.293  41.235  1.00  0.00     0.262 C 
HETATM   52  N10 UNL     1      55.585   5.666  39.946  1.00  0.00    -0.060 NA
HETATM   53  O6  UNL     1      54.074   5.824  41.654  1.00  0.00    -0.275 OA
ENDBRANCH  32  51
ENDBRANCH  29  32
ENDBRANCH   1  29
TORSDOF 16
ENDMDL
MODEL 3
REMARK VINA RESULT: -6.969354036      3.779      8.760
REMARK  16 active torsions:
REMARK  status: ('A' for Active; 'I' for Inactive)
REMARK    1  A    between atoms: C1_2  and  C2_4 
REMARK    2  A    between atoms: N4_9  and  C3_10 
REMARK    3  A    between atoms: C4_11  and  O2_12 
REMARK    4  A    between atoms: C6_15  and  C7_16 
REMARK    5  A    between atoms: C7_16  and  O3_17 
REMARK    6  A    between atoms: C7_16  and  N5_19 
REMARK    7  A    between atoms: N5_19  and  C8_22 
REMARK    8  A    between atoms: C8_22  and  C9_23 
REMARK    9  A    between atoms: C8_22  and  C14_41 
REMARK   10  A    between atoms: C9_23  and  C10_24 
REMARK   11  A    between atoms: C10_24  and  N6_25 
REMARK   12  A    between atoms: N6_25  and  O4_26 
REMARK       I    between atoms: N6_25  and  C11_28 
REMARK       I    between atoms: C11_28  and  N7_30 
REMARK   13  A    between atoms: C12_31  and  N8_32 
REMARK   14  A    between atoms: C13_36  and  N9_37 
REMARK   15  A    between atoms: C17_48  and  O8_49 
REMARK   16  A    between atoms: C18_51  and  O9_52 
ROOT
HETATM    1  C7  UNL     1      59.296   4.259  46.929  1.00  0.00     0.358 C 
ENDROOT
BRANCH   1   2
HETATM    2  C6  UNL     1      58.927   4.183  45.517  1.00  0.00     0.052 C 
HETATM    3  C5  UNL     1      57.650   3.715  45.282  1.00  0.00     0.054 C 
HETATM    4  C4  UNL     1      56.797   3.958  44.202  1.00  0.00     0.098 C 
HETATM    5  C3  UNL     1      57.232   4.329  42.941  1.00  0.00     0.128 C 
HETATM    6  C17 UNL     1      58.470   4.801  42.504  1.00  0.00     0.126 C 
HETATM    7  C16 UNL     1      59.575   5.020  43.284  1.00  0.00     0.132 C 
HETATM    8  C15 UNL     1      59.846   4.575  44.569  1.00  0.00     0.209 C 
HETATM    9  N11 UNL     1      60.609   5.821  42.705  1.00  0.00    -0.095 NA
HETATM   10  O7  UNL     1      61.074   4.518  44.921  1.00  0.00    -0.286 OA
BRANCH   4  11
HETATM   11  O2  UNL     1      55.432   3.822  44.403  1.00  0.00    -0.358 OA
ATOM     12  H2  UNL     1      55.132   3.570  45.270  1.00  0.00     0.217 HD
ENDBRANCH   4  11
BRANCH   5  13
HETATM   13  N4  UNL     1      56.263   4.214  41.902  1.00  0.00    -0.212 N 
HETATM   14  N3  UNL     1      55.376   5.107  41.514  1.00  0.00    -0.233 N 
HETATM   15  N2  UNL     1      54.637   4.656  40.518  1.00  0.00    -0.277 N 
ATOM     16  H3  UNL     1      55.272   6.032  41.932  1.00  0.00     0.209 HD
HETATM   17  C2  UNL     1      55.056   3.409  40.237  1.00  0.00     0.167 A 
ATOM     18  H2  UNL     1      53.886   5.160  40.048  1.00  0.00     0.189 HD
HETATM   19  C18 UNL     1      56.093   3.135  41.124  1.00  0.00     0.197 A 
BRANCH  17  20
HETATM   20  C1  UNL     1      54.527   2.521  39.203  1.00  0.00     0.287 C 
HETATM   21  N1  UNL     1      55.335   1.662  38.429  1.00  0.00    -0.056 NA
HETATM   22  O1  UNL     1      53.291   2.527  39.001  1.00  0.00    -0.269 OA
ENDBRANCH  17  20
BRANCH  19  23
HETATM   23  O9  UNL     1      56.765   1.921  41.116  1.00  0.00    -0.343 OA
ATOM     24  H9  UNL     1      57.686   1.855  41.338  1.00  0.00     0.219 HD
ENDBRANCH  19  23
ENDBRANCH   5  13
BRANCH   6  25
HETATM   25  O8  UNL     1      58.584   5.074  41.149  1.00  0.00    -0.356 OA
ATOM     26  H8  UNL     1      58.831   4.346  40.591  1.00  0.00     0.218 HD
ENDBRANCH   6  25
ENDBRANCH   1   2
BRANCH   1  27
HETATM   27  O3  UNL     1      59.760   5.509  47.335  1.00  0.00    -0.366 OA
ATOM     28  H3  UNL     1      59.475   6.229  46.784  1.00  0.00     0.212 HD
ENDBRANCH   1  27
BRANCH   1  29
HETATM   29  N5  UNL     1      58.339   3.717  47.853  1.00  0.00    -0.032 N 
ATOM     30  H52 UNL     1      57.556   4.346  48.035  1.00  0.00     0.281 HD
ATOM     31  H51 UNL     1      57.799   2.945  47.463  1.00  0.00     0.281 HD
BRANCH  29  32
HETATM   32  C8  UNL     1      59.076   3.348  49.070  1.00  0.00     0.279 C 
BRANCH  32  33
HETATM   33  C9  UNL     1      58.229   2.518  50.010  1.00  0.00     0.065 C 
BRANCH  33  34
HETATM   34  C10 UNL     1      58.953   2.244  51.312  1.00  0.00     0.163 C 
BRANCH  34  35
HETATM   35  N6  UNL     1      58.718   3.311  52.258  1.00  0.00    -0.210 N 
HETATM   36  C11 UNL     1      59.674   4.295  52.582  1.00  0.00     0.347 C 
HETATM   37  O5  UNL     1      60.800   4.261  52.031  1.00  0.00    -0.245 OA
HETATM   38  N7  UNL     1      59.420   5.336  53.512  1.00  0.00    -0.268 N 
HETATM   39  C12 UNL     1      58.442   5.960  54.455  1.00  0.00     0.340 A 
HETATM   40  C13 UNL     1      59.830   6.538  54.259  1.00  0.00     0.340 A 
BRANCH  35  41
HETATM   41  O4  UNL     1      57.498   3.355  52.866  1.00  0.00    -0.283 OA
ATOM     42  H4  UNL     1      57.377   3.992  53.561  1.00  0.00     0.245 HD
ENDBRANCH  35  41
BRANCH  39  43
HETATM   43  N8  UNL     1      57.332   6.675  53.837  1.00  0.00    -0.054 N 
ATOM     44  H83 UNL     1      57.681   7.287  53.099  1.00  0.00     0.276 HD
ATOM     45  H82 UNL     1      56.767   6.029  53.286  1.00  0.00     0.276 HD
ATOM     46  H81 UNL     1      56.734   7.203  54.472  1.00  0.00     0.276 HD
ENDBRANCH  39  43
BRANCH  40  47
HETATM   47  N9  UNL     1      60.704   6.353  55.407  1.00  0.00    -0.054 N 
ATOM     48  H93 UNL     1      60.198   6.598  56.258  1.00  0.00     0.276 HD
ATOM     49  H92 UNL     1      60.858   5.355  55.556  1.00  0.00     0.276 HD
ATOM     50  H91 UNL     1      61.603   6.835  55.399  1.00  0.00     0.276 HD
ENDBRANCH  40  47
ENDBRANCH  34  35
ENDBRANCH  33  34
ENDBRANCH  32  33
BRANCH  32  51
HETATM   51  C14 UNL     1      60.324   2.594  48.704  1.00  0.00     0.262 C 
HETATM   52  N10 UNL     1      61.591   3.201  48.884  1.00  0.00    -0.060 NA
HETATM   53  O6  UNL     1      60.300   1.428  48.237  1.00  0.00    -0.275 OA
ENDBRANCH  32  51
ENDBRANCH  29  32
ENDBRANCH   1  29
TORSDOF 16
ENDMDL
MODEL 4
REMARK VINA RESULT: -6.966688338      3.667     10.929
REMARK  16 active torsions:
REMARK  status: ('A' for Active; 'I' for Inactive)
REMARK    1  A    between atoms: C1_2  and  C2_4 
REMARK    2  A    between atoms: N4_9  and  C3_10 
REMARK    3  A    between atoms: C4_11  and  O2_12 
REMARK    4  A    between atoms: C6_15  and  C7_16 
REMARK    5  A    between atoms: C7_16  and  O3_17 
REMARK    6  A    between atoms: C7_16  and  N5_19 
REMARK    7  A    between atoms: N5_19  and  C8_22 
REMARK    8  A    between atoms: C8_22  and  C9_23 
REMARK    9  A    between atoms: C8_22  and  C14_41 
REMARK   10  A    between atoms: C9_23  and  C10_24 
REMARK   11  A    between atoms: C10_24  and  N6_25 
REMARK   12  A    between atoms: N6_25  and  O4_26 
REMARK       I    between atoms: N6_25  and  C11_28 
REMARK       I    between atoms: C11_28  and  N7_30 
REMARK   13  A    between atoms: C12_31  and  N8_32 
REMARK   14  A    between atoms: C13_36  and  N9_37 
REMARK   15  A    between atoms: C17_48  and  O8_49 
REMARK   16  A    between atoms: C18_51  and  O9_52 
ROOT
HETATM    1  C7  UNL     1      65.347   3.556  49.726  1.00  0.00     0.358 C 
ENDROOT
BRANCH   1   2
HETATM    2  C6  UNL     1      63.952   3.556  49.290  1.00  0.00     0.052 C 
HETATM    3  C5  UNL     1      63.753   4.009  48.002  1.00  0.00     0.054 C 
HETATM    4  C4  UNL     1      62.729   3.707  47.100  1.00  0.00     0.098 C 
HETATM    5  C3  UNL     1      61.471   3.270  47.478  1.00  0.00     0.128 C 
HETATM    6  C17 UNL     1      61.001   2.778  48.695  1.00  0.00     0.126 C 
HETATM    7  C16 UNL     1      61.739   2.603  49.836  1.00  0.00     0.132 C 
HETATM    8  C15 UNL     1      62.984   3.116  50.165  1.00  0.00     0.209 C 
HETATM    9  N11 UNL     1      61.155   1.774  50.845  1.00  0.00    -0.095 NA
HETATM   10  O7  UNL     1      63.274   3.194  51.408  1.00  0.00    -0.286 OA
BRANCH   4  11
HETATM   11  O2  UNL     1      62.987   3.851  45.745  1.00  0.00    -0.358 OA
ATOM     12  H2  UNL     1      63.691   4.434  45.485  1.00  0.00     0.217 HD
ENDBRANCH   4  11
BRANCH   5  13
HETATM   13  N4  UNL     1      60.473   3.328  46.460  1.00  0.00    -0.212 N 
HETATM   14  N3  UNL     1      60.038   2.351  45.690  1.00  0.00    -0.233 N 
HETATM   15  N2  UNL     1      59.106   2.770  44.856  1.00  0.00    -0.277 N 
ATOM     16  H3  UNL     1      60.380   1.391  45.734  1.00  0.00     0.209 HD
HETATM   17  C2  UNL     1      58.917   4.082  45.086  1.00  0.00     0.167 A 
ATOM     18  H2  UNL     1      58.617   2.203  44.164  1.00  0.00     0.189 HD
HETATM   19  C18 UNL     1      59.794   4.429  46.110  1.00  0.00     0.197 A 
BRANCH  17  20
HETATM   20  C1  UNL     1      57.978   4.965  44.397  1.00  0.00     0.287 C 
HETATM   21  N1  UNL     1      56.656   4.593  44.074  1.00  0.00    -0.056 NA
HETATM   22  O1  UNL     1      58.374   6.111  44.081  1.00  0.00    -0.269 OA
ENDBRANCH  17  20
BRANCH  19  23
HETATM   23  O9  UNL     1      59.867   5.724  46.606  1.00  0.00    -0.343 OA
ATOM     24  H9  UNL     1      60.551   6.326  46.338  1.00  0.00     0.219 HD
ENDBRANCH  19  23
ENDBRANCH   5  13
BRANCH   6  25
HETATM   25  O8  UNL     1      59.659   2.434  48.746  1.00  0.00    -0.356 OA
ATOM     26  H8  UNL     1      59.215   2.583  49.573  1.00  0.00     0.218 HD
ENDBRANCH   6  25
ENDBRANCH   1   2
BRANCH   1  27
HETATM   27  O3  UNL     1      65.845   2.298  50.059  1.00  0.00    -0.366 OA
ATOM     28  H3  UNL     1      66.638   2.316  50.581  1.00  0.00     0.212 HD
ENDBRANCH   1  27
BRANCH   1  29
HETATM   29  N5  UNL     1      66.260   4.289  48.892  1.00  0.00    -0.032 N 
ATOM     30  H52 UNL     1      66.951   3.694  48.435  1.00  0.00     0.281 HD
ATOM     31  H51 UNL     1      65.823   4.656  48.047  1.00  0.00     0.281 HD
BRANCH  29  32
HETATM   32  C8  UNL     1      66.863   5.335  49.730  1.00  0.00     0.279 C 
BRANCH  32  33
HETATM   33  C9  UNL     1      68.372   5.227  49.764  1.00  0.00     0.065 C 
BRANCH  33  34
HETATM   34  C10 UNL     1      68.820   3.822  50.108  1.00  0.00     0.163 C 
BRANCH  34  35
HETATM   35  N6  UNL     1      69.697   3.303  49.084  1.00  0.00    -0.210 N 
HETATM   36  C11 UNL     1      69.289   2.385  48.095  1.00  0.00     0.347 C 
HETATM   37  O5  UNL     1      68.102   1.981  48.086  1.00  0.00    -0.245 OA
HETATM   38  N7  UNL     1      70.168   1.890  47.096  1.00  0.00    -0.268 N 
HETATM   39  C12 UNL     1      71.550   1.905  46.528  1.00  0.00     0.340 A 
HETATM   40  C13 UNL     1      70.453   1.056  45.917  1.00  0.00     0.340 A 
BRANCH  35  41
HETATM   41  O4  UNL     1      70.992   3.733  49.087  1.00  0.00    -0.283 OA
ATOM     42  H4  UNL     1      71.447   3.759  48.253  1.00  0.00     0.245 HD
ENDBRANCH  35  41
BRANCH  39  43
HETATM   43  N8  UNL     1      71.930   3.116  45.811  1.00  0.00    -0.054 N 
ATOM     44  H83 UNL     1      72.893   3.039  45.485  1.00  0.00     0.276 HD
ATOM     45  H82 UNL     1      71.438   3.160  44.920  1.00  0.00     0.276 HD
ATOM     46  H81 UNL     1      71.805   3.991  46.320  1.00  0.00     0.276 HD
ENDBRANCH  39  43
BRANCH  40  47
HETATM   47  N9  UNL     1      70.636  -0.372  46.130  1.00  0.00    -0.054 N 
ATOM     48  H93 UNL     1      71.573  -0.640  45.828  1.00  0.00     0.276 HD
ATOM     49  H92 UNL     1      70.698  -0.558  47.131  1.00  0.00     0.276 HD
ATOM     50  H91 UNL     1      69.954  -1.004  45.711  1.00  0.00     0.276 HD
ENDBRANCH  40  47
ENDBRANCH  34  35
ENDBRANCH  33  34
ENDBRANCH  32  33
BRANCH  32  51
HETATM   51  C14 UNL     1      66.457   6.693  49.227  1.00  0.00     0.262 C 
HETATM   52  N10 UNL     1      67.196   7.837  49.617  1.00  0.00    -0.060 NA
HETATM   53  O6  UNL     1      65.476   6.868  48.463  1.00  0.00    -0.275 OA
ENDBRANCH  32  51
ENDBRANCH  29  32
ENDBRANCH   1  29
TORSDOF 16
ENDMDL
MODEL 5
REMARK VINA RESULT: -6.944747953      1.574      1.949
REMARK  16 active torsions:
REMARK  status: ('A' for Active; 'I' for Inactive)
REMARK    1  A    between atoms: C1_2  and  C2_4 
REMARK    2  A    between atoms: N4_9  and  C3_10 
REMARK    3  A    between atoms: C4_11  and  O2_12 
REMARK    4  A    between atoms: C6_15  and  C7_16 
REMARK    5  A    between atoms: C7_16  and  O3_17 
REMARK    6  A    between atoms: C7_16  and  N5_19 
REMARK    7  A    between atoms: N5_19  and  C8_22 
REMARK    8  A    between atoms: C8_22  and  C9_23 
REMARK    9  A    between atoms: C8_22  and  C14_41 
REMARK   10  A    between atoms: C9_23  and  C10_24 
REMARK   11  A    between atoms: C10_24  and  N6_25 
REMARK   12  A    between atoms: N6_25  and  O4_26 
REMARK       I    between atoms: N6_25  and  C11_28 
REMARK       I    between atoms: C11_28  and  N7_30 
REMARK   13  A    between atoms: C12_31  and  N8_32 
REMARK   14  A    between atoms: C13_36  and  N9_37 
REMARK   15  A    between atoms: C17_48  and  O8_49 
REMARK   16  A    between atoms: C18_51  and  O9_52 
ROOT
HETATM    1  C7  UNL     1      58.469   5.180  42.881  1.00  0.00     0.358 C 
ENDROOT
BRANCH   1   2
HETATM    2  C6  UNL     1      59.148   4.382  43.898  1.00  0.00     0.052 C 
HETATM    3  C5  UNL     1      59.736   5.118  44.907  1.00  0.00     0.054 C 
HETATM    4  C4  UNL     1      60.012   4.756  46.229  1.00  0.00     0.098 C 
HETATM    5  C3  UNL     1      60.183   3.449  46.652  1.00  0.00     0.128 C 
HETATM    6  C17 UNL     1      59.877   2.239  46.030  1.00  0.00     0.126 C 
HETATM    7  C16 UNL     1      59.296   2.086  44.799  1.00  0.00     0.132 C 
HETATM    8  C15 UNL     1      59.146   3.010  43.777  1.00  0.00     0.209 C 
HETATM    9  N11 UNL     1      58.762   0.791  44.509  1.00  0.00    -0.095 NA
HETATM   10  O7  UNL     1      58.988   2.552  42.593  1.00  0.00    -0.286 OA
BRANCH   4  11
HETATM   11  O2  UNL     1      60.119   5.764  47.175  1.00  0.00    -0.358 OA
ATOM     12  H2  UNL     1      60.482   6.597  46.898  1.00  0.00     0.217 HD
ENDBRANCH   4  11
BRANCH   5  13
HETATM   13  N4  UNL     1      60.773   3.297  47.942  1.00  0.00    -0.212 N 
HETATM   14  N3  UNL     1      62.027   3.497  48.292  1.00  0.00    -0.233 N 
HETATM   15  N2  UNL     1      62.217   3.257  49.575  1.00  0.00    -0.277 N 
ATOM     16  H3  UNL     1      62.761   3.800  47.650  1.00  0.00     0.209 HD
HETATM   17  C2  UNL     1      61.034   2.881  50.095  1.00  0.00     0.167 A 
ATOM     18  H2  UNL     1      63.098   3.341  50.081  1.00  0.00     0.189 HD
HETATM   19  C18 UNL     1      60.119   2.909  49.046  1.00  0.00     0.197 A 
BRANCH  17  20
HETATM   20  C1  UNL     1      60.765   2.518  51.485  1.00  0.00     0.287 C 
HETATM   21  N1  UNL     1      61.159   3.309  52.585  1.00  0.00    -0.056 NA
HETATM   22  O1  UNL     1      60.152   1.447  51.704  1.00  0.00    -0.269 OA
ENDBRANCH  17  20
BRANCH  19  23
HETATM   23  O9  UNL     1      58.785   2.574  49.227  1.00  0.00    -0.343 OA
ATOM     24  H9  UNL     1      58.081   3.113  48.887  1.00  0.00     0.219 HD
ENDBRANCH  19  23
ENDBRANCH   5  13
BRANCH   6  25
HETATM   25  O8  UNL     1      60.194   1.086  46.732  1.00  0.00    -0.356 OA
ATOM     26  H8  UNL     1      59.788   0.281  46.430  1.00  0.00     0.218 HD
ENDBRANCH   6  25
ENDBRANCH   1   2
BRANCH   1  27
HETATM   27  O3  UNL     1      58.922   4.960  41.581  1.00  0.00    -0.366 OA
ATOM     28  H3  UNL     1      59.387   5.695  41.199  1.00  0.00     0.212 HD
ENDBRANCH   1  27
BRANCH   1  29
HETATM   29  N5  UNL     1      57.033   5.190  42.953  1.00  0.00    -0.032 N 
ATOM     30  H52 UNL     1      56.668   4.665  43.748  1.00  0.00     0.281 HD
ATOM     31  H51 UNL     1      56.652   6.100  43.211  1.00  0.00     0.281 HD
BRANCH  29  32
HETATM   32  C8  UNL     1      56.534   4.701  41.660  1.00  0.00     0.279 C 
BRANCH  32  33
HETATM   33  C9  UNL     1      55.792   3.390  41.804  1.00  0.00     0.065 C 
BRANCH  33  34
HETATM   34  C10 UNL     1      54.630   3.513  42.767  1.00  0.00     0.163 C 
BRANCH  34  35
HETATM   35  N6  UNL     1      54.718   2.507  43.800  1.00  0.00    -0.210 N 
HETATM   36  C11 UNL     1      55.372   2.704  45.034  1.00  0.00     0.347 C 
HETATM   37  O5  UNL     1      55.918   3.809  45.268  1.00  0.00    -0.245 OA
HETATM   38  N7  UNL     1      55.443   1.702  46.036  1.00  0.00    -0.268 N 
HETATM   39  C12 UNL     1      55.081   0.309  46.439  1.00  0.00     0.340 A 
HETATM   40  C13 UNL     1      55.869   1.219  47.360  1.00  0.00     0.340 A 
BRANCH  35  41
HETATM   41  O4  UNL     1      54.132   1.300  43.555  1.00  0.00    -0.283 OA
ATOM     42  H4  UNL     1      53.251   1.304  43.198  1.00  0.00     0.245 HD
ENDBRANCH  35  41
BRANCH  39  43
HETATM   43  N8  UNL     1      53.678   0.087  46.766  1.00  0.00    -0.054 N 
ATOM     44  H83 UNL     1      53.095   0.760  46.267  1.00  0.00     0.276 HD
ATOM     45  H82 UNL     1      53.356  -0.783  46.343  1.00  0.00     0.276 HD
ATOM     46  H81 UNL     1      53.446   0.096  47.759  1.00  0.00     0.276 HD
ENDBRANCH  39  43
BRANCH  40  47
HETATM   47  N9  UNL     1      57.260   0.823  47.518  1.00  0.00    -0.054 N 
ATOM     48  H93 UNL     1      57.754   0.970  46.637  1.00  0.00     0.276 HD
ATOM     49  H92 UNL     1      57.737   1.496  48.119  1.00  0.00     0.276 HD
ATOM     50  H91 UNL     1      57.447  -0.121  47.856  1.00  0.00     0.276 HD
ENDBRANCH  40  47
ENDBRANCH  34  35
ENDBRANCH  33  34
ENDBRANCH  32  33
BRANCH  32  51
HETATM   51  C14 UNL     1      55.635   5.732  41.035  1.00  0.00     0.262 C 
HETATM   52  N10 UNL     1      55.322   6.916  41.745  1.00  0.00    -0.060 NA
HETATM   53  O6  UNL     1      55.138   5.593  39.890  1.00  0.00    -0.275 OA
ENDBRANCH  32  51
ENDBRANCH  29  32
ENDBRANCH   1  29
TORSDOF 16
ENDMDL
