MODEL 1
REMARK VINA RESULT: -6.281587769      0.000      0.000
REMARK  18 active torsions:
REMARK  status: ('A' for Active; 'I' for Inactive)
REMARK    1  A    between atoms: C2_2  and  S1_6 
REMARK    2  A    between atoms: S1_6  and  C3_7 
REMARK    3  A    between atoms: C3_7  and  C4_8 
REMARK    4  A    between atoms: C5_10  and  C6_11 
REMARK    5  A    between atoms: C6_11  and  O2_12 
REMARK    6  A    between atoms: C7_14  and  O3_15 
REMARK    7  A    between atoms: C8_17  and  O4_18 
REMARK    8  A    between atoms: O4_18  and  C9_19 
REMARK    9  A    between atoms: C10_21  and  N2_22 
REMARK   10  A    between atoms: N2_22  and  O6_23 
REMARK   11  A    between atoms: C11_28  and  N4_29 
REMARK   12  A    between atoms: N4_29  and  C12_31 
REMARK   13  A    between atoms: C14_33  and  N5_34 
REMARK   14  A    between atoms: C15_38  and  O7_39 
REMARK   15  A    between atoms: C16_41  and  O8_42 
REMARK   16  A    between atoms: C17_44  and  C18_45 
REMARK   17  A    between atoms: C18_45  and  O9_46 
REMARK   18  A    between atoms: C19_48  and  O10_49 
ROOT
HETATM    1  C9  UNL     1      59.107   4.330  45.386  1.00  0.00     0.314 C 
HETATM    2  O5  UNL     1      59.120   5.669  45.089  1.00  0.00    -0.311 OA
HETATM    3  C10 UNL     1      59.260   5.740  43.720  1.00  0.00     0.449 C 
HETATM    4  N3  UNL     1      58.476   4.649  43.218  1.00  0.00    -0.007 N 
ATOM      5  H31 UNL     1      58.611   4.442  42.229  1.00  0.00     0.284 HD
ATOM      6  H32 UNL     1      57.475   4.836  43.144  1.00  0.00     0.284 HD
HETATM    7  C11 UNL     1      58.844   3.533  44.155  1.00  0.00     0.340 C 
ENDROOT
BRANCH   1   8
HETATM    8  O4  UNL     1      60.425   3.970  45.830  1.00  0.00    -0.347 OA
BRANCH   8   9
HETATM    9  C8  UNL     1      60.524   2.776  46.483  1.00  0.00     0.187 C 
HETATM   10  C7  UNL     1      61.932   2.251  46.201  1.00  0.00     0.180 C 
HETATM   11  C5  UNL     1      62.533   1.773  47.501  1.00  0.00     0.176 C 
HETATM   12  O1  UNL     1      62.547   2.890  48.321  1.00  0.00    -0.372 OA
HETATM   13  C4  UNL     1      61.306   3.074  48.884  1.00  0.00     0.163 C 
HETATM   14  C19 UNL     1      60.182   2.783  47.914  1.00  0.00     0.179 C 
BRANCH  10  15
HETATM   15  O3  UNL     1      62.764   3.334  45.824  1.00  0.00    -0.390 OA
ATOM     16  H3  UNL     1      63.145   3.050  45.002  1.00  0.00     0.210 HD
ENDBRANCH  10  15
BRANCH  11  17
HETATM   17  C6  UNL     1      64.009   1.404  47.287  1.00  0.00     0.198 C 
BRANCH  17  18
HETATM   18  O2  UNL     1      64.755   2.536  47.680  1.00  0.00    -0.398 OA
ATOM     19  H2  UNL     1      64.442   3.256  47.145  1.00  0.00     0.209 HD
ENDBRANCH  17  18
ENDBRANCH  11  17
BRANCH  13  20
HETATM   20  C3  UNL     1      61.281   2.170  50.109  1.00  0.00     0.115 C 
BRANCH  20  21
HETATM   21  S1  UNL     1      60.711   2.948  51.600  1.00  0.00    -0.115 SA
BRANCH  21  22
HETATM   22  C2  UNL     1      58.995   3.477  51.352  1.00  0.00     0.036 C 
HETATM   23  C1  UNL     1      57.857   2.591  51.647  1.00  0.00     0.076 C 
HETATM   24  N1  UNL     1      58.865   4.676  50.930  1.00  0.00    -0.397 N 
ATOM     25  H12 UNL     1      57.900   4.974  50.790  1.00  0.00     0.156 HD
ATOM     26  H11 UNL     1      59.654   5.289  50.725  1.00  0.00     0.156 HD
ENDBRANCH  21  22
ENDBRANCH  20  21
ENDBRANCH  13  20
BRANCH  14  27
HETATM   27  O10 UNL     1      59.563   1.597  48.332  1.00  0.00    -0.390 OA
ATOM     28  H10 UNL     1      58.646   1.654  48.088  1.00  0.00     0.210 HD
ENDBRANCH  14  27
ENDBRANCH   8   9
ENDBRANCH   1   8
BRANCH   7  29
HETATM   29  N4  UNL     1      57.791   2.593  44.105  1.00  0.00    -0.387 N 
ATOM     30  H4  UNL     1      57.305   2.386  43.233  1.00  0.00     0.155 HD
BRANCH  29  31
HETATM   31  C12 UNL     1      57.431   1.937  45.343  1.00  0.00     0.089 C 
HETATM   32  C13 UNL     1      57.429   0.462  45.391  1.00  0.00     0.060 C 
HETATM   33  C14 UNL     1      56.979  -0.042  46.748  1.00  0.00     0.216 C 
HETATM   34  C15 UNL     1      56.108   0.916  47.508  1.00  0.00     0.177 C 
HETATM   35  C16 UNL     1      55.222   1.726  46.583  1.00  0.00     0.157 C 
HETATM   36  C17 UNL     1      55.965   2.424  45.534  1.00  0.00     0.063 C 
BRANCH  33  37
HETATM   37  N5  UNL     1      56.313  -1.327  46.625  1.00  0.00    -0.072 N 
ATOM     38  H53 UNL     1      55.856  -1.600  47.495  1.00  0.00     0.274 HD
ATOM     39  H52 UNL     1      55.488  -1.269  46.028  1.00  0.00     0.274 HD
ATOM     40  H51 UNL     1      56.965  -2.042  46.300  1.00  0.00     0.274 HD
ENDBRANCH  33  37
BRANCH  34  41
HETATM   41  O7  UNL     1      56.790   1.718  48.405  1.00  0.00    -0.391 OA
ATOM     42  H7  UNL     1      57.129   2.523  48.032  1.00  0.00     0.210 HD
ENDBRANCH  34  41
BRANCH  35  43
HETATM   43  O8  UNL     1      54.221   0.866  46.077  1.00  0.00    -0.392 OA
ATOM     44  H8  UNL     1      53.542   1.405  45.689  1.00  0.00     0.210 HD
ENDBRANCH  35  43
BRANCH  36  45
HETATM   45  C18 UNL     1      55.274   2.249  44.181  1.00  0.00     0.173 C 
BRANCH  45  46
HETATM   46  O9  UNL     1      54.165   3.055  44.141  1.00  0.00    -0.400 OA
ATOM     47  H9  UNL     1      53.644   2.824  43.382  1.00  0.00     0.209 HD
ENDBRANCH  45  46
ENDBRANCH  36  45
ENDBRANCH  29  31
ENDBRANCH   7  29
BRANCH   3  48
HETATM   48  N2  UNL     1      60.653   5.469  43.377  1.00  0.00    -0.041 NA
BRANCH  48  49
HETATM   49  O6  UNL     1      60.977   6.162  42.229  1.00  0.00    -0.292 OA
ATOM     50  H6  UNL     1      61.670   6.781  42.426  1.00  0.00     0.238 HD
ENDBRANCH  48  49
ENDBRANCH   3  48
TORSDOF 18
ENDMDL
MODEL 2
REMARK VINA RESULT: -6.254669712      3.584      6.967
REMARK  18 active torsions:
REMARK  status: ('A' for Active; 'I' for Inactive)
REMARK    1  A    between atoms: C2_2  and  S1_6 
REMARK    2  A    between atoms: S1_6  and  C3_7 
REMARK    3  A    between atoms: C3_7  and  C4_8 
REMARK    4  A    between atoms: C5_10  and  C6_11 
REMARK    5  A    between atoms: C6_11  and  O2_12 
REMARK    6  A    between atoms: C7_14  and  O3_15 
REMARK    7  A    between atoms: C8_17  and  O4_18 
REMARK    8  A    between atoms: O4_18  and  C9_19 
REMARK    9  A    between atoms: C10_21  and  N2_22 
REMARK   10  A    between atoms: N2_22  and  O6_23 
REMARK   11  A    between atoms: C11_28  and  N4_29 
REMARK   12  A    between atoms: N4_29  and  C12_31 
REMARK   13  A    between atoms: C14_33  and  N5_34 
REMARK   14  A    between atoms: C15_38  and  O7_39 
REMARK   15  A    between atoms: C16_41  and  O8_42 
REMARK   16  A    between atoms: C17_44  and  C18_45 
REMARK   17  A    between atoms: C18_45  and  O9_46 
REMARK   18  A    between atoms: C19_48  and  O10_49 
ROOT
HETATM    1  C9  UNL     1      58.799   3.246  44.244  1.00  0.00     0.314 C 
HETATM    2  O5  UNL     1      60.150   3.467  44.161  1.00  0.00    -0.311 OA
HETATM    3  C10 UNL     1      60.363   4.680  44.776  1.00  0.00     0.449 C 
HETATM    4  N3  UNL     1      59.452   4.690  45.884  1.00  0.00    -0.007 N 
ATOM      5  H31 UNL     1      59.348   5.592  46.347  1.00  0.00     0.284 HD
ATOM      6  H32 UNL     1      59.777   4.191  46.713  1.00  0.00     0.284 HD
HETATM    7  C11 UNL     1      58.195   4.144  45.269  1.00  0.00     0.340 C 
ENDROOT
BRANCH   1   8
HETATM    8  O4  UNL     1      58.218   3.618  42.984  1.00  0.00    -0.347 OA
BRANCH   8   9
HETATM    9  C8  UNL     1      56.932   4.070  43.035  1.00  0.00     0.187 C 
HETATM   10  C7  UNL     1      56.891   5.340  42.186  1.00  0.00     0.180 C 
HETATM   11  C5  UNL     1      55.683   5.274  41.284  1.00  0.00     0.176 C 
HETATM   12  O1  UNL     1      55.873   4.137  40.514  1.00  0.00    -0.372 OA
HETATM   13  C4  UNL     1      55.490   3.022  41.221  1.00  0.00     0.163 C 
HETATM   14  C19 UNL     1      55.884   3.099  42.680  1.00  0.00     0.179 C 
BRANCH  10  15
HETATM   15  O3  UNL     1      57.985   5.330  41.285  1.00  0.00    -0.390 OA
ATOM     16  H3  UNL     1      58.494   6.090  41.540  1.00  0.00     0.210 HD
ENDBRANCH  10  15
BRANCH  11  17
HETATM   17  C6  UNL     1      55.708   6.448  40.293  1.00  0.00     0.198 C 
BRANCH  17  18
HETATM   18  O2  UNL     1      56.384   5.977  39.147  1.00  0.00    -0.398 OA
ATOM     19  H2  UNL     1      56.806   5.166  39.406  1.00  0.00     0.209 HD
ENDBRANCH  17  18
ENDBRANCH  11  17
BRANCH  13  20
HETATM   20  C3  UNL     1      53.985   2.913  41.019  1.00  0.00     0.115 C 
BRANCH  20  21
HETATM   21  S1  UNL     1      53.409   1.299  40.551  1.00  0.00    -0.115 SA
BRANCH  21  22
HETATM   22  C2  UNL     1      52.661   0.514  42.003  1.00  0.00     0.036 C 
HETATM   23  C1  UNL     1      51.279   0.006  41.988  1.00  0.00     0.076 C 
HETATM   24  N1  UNL     1      53.437   0.417  43.013  1.00  0.00    -0.397 N 
ATOM     25  H12 UNL     1      53.017  -0.025  43.830  1.00  0.00     0.156 HD
ATOM     26  H11 UNL     1      54.395   0.769  43.023  1.00  0.00     0.156 HD
ENDBRANCH  21  22
ENDBRANCH  20  21
ENDBRANCH  13  20
BRANCH  14  27
HETATM   27  O10 UNL     1      54.708   3.271  43.424  1.00  0.00    -0.390 OA
ATOM     28  H10 UNL     1      54.963   3.539  44.300  1.00  0.00     0.210 HD
ENDBRANCH  14  27
ENDBRANCH   8   9
ENDBRANCH   1   8
BRANCH   7  29
HETATM   29  N4  UNL     1      57.415   3.624  46.325  1.00  0.00    -0.387 N 
ATOM     30  H4  UNL     1      57.257   4.157  47.181  1.00  0.00     0.155 HD
BRANCH  29  31
HETATM   31  C12 UNL     1      56.848   2.306  46.143  1.00  0.00     0.089 C 
HETATM   32  C13 UNL     1      55.418   2.101  46.443  1.00  0.00     0.060 C 
HETATM   33  C14 UNL     1      55.018   0.652  46.242  1.00  0.00     0.216 C 
HETATM   34  C15 UNL     1      56.149  -0.328  46.374  1.00  0.00     0.177 C 
HETATM   35  C16 UNL     1      57.165   0.122  47.404  1.00  0.00     0.157 C 
HETATM   36  C17 UNL     1      57.676   1.471  47.162  1.00  0.00     0.063 C 
BRANCH  33  37
HETATM   37  N5  UNL     1      53.937   0.286  47.141  1.00  0.00    -0.072 N 
ATOM     38  H53 UNL     1      54.156  -0.557  47.672  1.00  0.00     0.274 HD
ATOM     39  H52 UNL     1      53.856   0.941  47.920  1.00  0.00     0.274 HD
ATOM     40  H51 UNL     1      53.058   0.194  46.632  1.00  0.00     0.274 HD
ENDBRANCH  33  37
BRANCH  34  41
HETATM   41  O7  UNL     1      56.745  -0.675  45.175  1.00  0.00    -0.391 OA
ATOM     42  H7  UNL     1      56.968  -1.595  45.102  1.00  0.00     0.210 HD
ENDBRANCH  34  41
BRANCH  35  43
HETATM   43  O8  UNL     1      56.585  -0.031  48.683  1.00  0.00    -0.392 OA
ATOM     44  H8  UNL     1      56.492  -0.962  48.852  1.00  0.00     0.210 HD
ENDBRANCH  35  43
BRANCH  36  45
HETATM   45  C18 UNL     1      57.697   2.277  48.461  1.00  0.00     0.173 C 
BRANCH  45  46
HETATM   46  O9  UNL     1      58.915   2.898  48.580  1.00  0.00    -0.400 OA
ATOM     47  H9  UNL     1      58.843   3.784  48.246  1.00  0.00     0.209 HD
ENDBRANCH  45  46
ENDBRANCH  36  45
ENDBRANCH  29  31
ENDBRANCH   7  29
BRANCH   3  48
HETATM   48  N2  UNL     1      59.954   5.746  43.867  1.00  0.00    -0.041 NA
BRANCH  48  49
HETATM   49  O6  UNL     1      60.758   5.717  42.747  1.00  0.00    -0.292 OA
ATOM     50  H6  UNL     1      61.290   6.503  42.727  1.00  0.00     0.238 HD
ENDBRANCH  48  49
ENDBRANCH   3  48
TORSDOF 18
ENDMDL
MODEL 3
REMARK VINA RESULT: -6.214336328      2.070      3.018
REMARK  18 active torsions:
REMARK  status: ('A' for Active; 'I' for Inactive)
REMARK    1  A    between atoms: C2_2  and  S1_6 
REMARK    2  A    between atoms: S1_6  and  C3_7 
REMARK    3  A    between atoms: C3_7  and  C4_8 
REMARK    4  A    between atoms: C5_10  and  C6_11 
REMARK    5  A    between atoms: C6_11  and  O2_12 
REMARK    6  A    between atoms: C7_14  and  O3_15 
REMARK    7  A    between atoms: C8_17  and  O4_18 
REMARK    8  A    between atoms: O4_18  and  C9_19 
REMARK    9  A    between atoms: C10_21  and  N2_22 
REMARK   10  A    between atoms: N2_22  and  O6_23 
REMARK   11  A    between atoms: C11_28  and  N4_29 
REMARK   12  A    between atoms: N4_29  and  C12_31 
REMARK   13  A    between atoms: C14_33  and  N5_34 
REMARK   14  A    between atoms: C15_38  and  O7_39 
REMARK   15  A    between atoms: C16_41  and  O8_42 
REMARK   16  A    between atoms: C17_44  and  C18_45 
REMARK   17  A    between atoms: C18_45  and  O9_46 
REMARK   18  A    between atoms: C19_48  and  O10_49 
ROOT
HETATM    1  C9  UNL     1      58.619   4.185  44.906  1.00  0.00     0.314 C 
HETATM    2  O5  UNL     1      59.109   5.466  44.877  1.00  0.00    -0.311 OA
HETATM    3  C10 UNL     1      58.683   5.996  43.679  1.00  0.00     0.449 C 
HETATM    4  N3  UNL     1      57.363   5.464  43.497  1.00  0.00    -0.007 N 
ATOM      5  H31 UNL     1      56.965   5.611  42.569  1.00  0.00     0.284 HD
ATOM      6  H32 UNL     1      56.626   5.959  43.999  1.00  0.00     0.284 HD
HETATM    7  C11 UNL     1      57.540   4.025  43.890  1.00  0.00     0.340 C 
ENDROOT
BRANCH   1   8
HETATM    8  O4  UNL     1      59.683   3.303  44.512  1.00  0.00    -0.347 OA
BRANCH   8   9
HETATM    9  C8  UNL     1      60.125   2.442  45.474  1.00  0.00     0.187 C 
HETATM   10  C7  UNL     1      61.614   2.733  45.656  1.00  0.00     0.180 C 
HETATM   11  C5  UNL     1      61.908   2.818  47.134  1.00  0.00     0.176 C 
HETATM   12  O1  UNL     1      61.114   3.855  47.597  1.00  0.00    -0.372 OA
HETATM   13  C4  UNL     1      59.833   3.405  47.809  1.00  0.00     0.163 C 
HETATM   14  C19 UNL     1      59.375   2.437  46.740  1.00  0.00     0.179 C 
BRANCH  10  15
HETATM   15  O3  UNL     1      61.894   4.038  45.181  1.00  0.00    -0.390 OA
ATOM     16  H3  UNL     1      61.168   4.227  44.598  1.00  0.00     0.210 HD
ENDBRANCH  10  15
BRANCH  11  17
HETATM   17  C6  UNL     1      63.356   3.284  47.351  1.00  0.00     0.198 C 
BRANCH  17  18
HETATM   18  O2  UNL     1      64.107   2.733  46.290  1.00  0.00    -0.398 OA
ATOM     19  H2  UNL     1      64.918   2.423  46.675  1.00  0.00     0.209 HD
ENDBRANCH  17  18
ENDBRANCH  11  17
BRANCH  13  20
HETATM   20  C3  UNL     1      59.846   2.788  49.201  1.00  0.00     0.115 C 
BRANCH  20  21
HETATM   21  S1  UNL     1      58.467   3.230  50.229  1.00  0.00    -0.115 SA
BRANCH  21  22
HETATM   22  C2  UNL     1      57.291   1.851  50.235  1.00  0.00     0.036 C 
HETATM   23  C1  UNL     1      56.896   1.170  51.479  1.00  0.00     0.076 C 
HETATM   24  N1  UNL     1      56.824   1.546  49.085  1.00  0.00    -0.397 N 
ATOM     25  H12 UNL     1      56.162   0.770  49.088  1.00  0.00     0.156 HD
ATOM     26  H11 UNL     1      57.098   2.018  48.223  1.00  0.00     0.156 HD
ENDBRANCH  21  22
ENDBRANCH  20  21
ENDBRANCH  13  20
BRANCH  14  27
HETATM   27  O10 UNL     1      59.306   1.166  47.327  1.00  0.00    -0.390 OA
ATOM     28  H10 UNL     1      58.489   1.121  47.812  1.00  0.00     0.210 HD
ENDBRANCH  14  27
ENDBRANCH   8   9
ENDBRANCH   1   8
BRANCH   7  29
HETATM   29  N4  UNL     1      56.265   3.539  44.251  1.00  0.00    -0.387 N 
ATOM     30  H4  UNL     1      55.855   3.748  45.161  1.00  0.00     0.155 HD
BRANCH  29  31
HETATM   31  C12 UNL     1      55.565   2.731  43.277  1.00  0.00     0.089 C 
HETATM   32  C13 UNL     1      54.137   3.004  43.023  1.00  0.00     0.060 C 
HETATM   33  C14 UNL     1      53.563   2.029  42.014  1.00  0.00     0.216 C 
HETATM   34  C15 UNL     1      54.290   0.717  41.936  1.00  0.00     0.177 C 
HETATM   35  C16 UNL     1      54.836   0.295  43.285  1.00  0.00     0.157 C 
HETATM   36  C17 UNL     1      55.676   1.315  43.913  1.00  0.00     0.063 C 
BRANCH  33  37
HETATM   37  N5  UNL     1      52.151   1.799  42.264  1.00  0.00    -0.072 N 
ATOM     38  H53 UNL     1      51.926   0.804  42.277  1.00  0.00     0.274 HD
ATOM     39  H52 UNL     1      51.896   2.027  43.226  1.00  0.00     0.274 HD
ATOM     40  H51 UNL     1      51.577   2.307  41.591  1.00  0.00     0.274 HD
ENDBRANCH  33  37
BRANCH  34  41
HETATM   41  O7  UNL     1      55.253   0.656  40.945  1.00  0.00    -0.391 OA
ATOM     42  H7  UNL     1      54.910   0.486  40.076  1.00  0.00     0.210 HD
ENDBRANCH  34  41
BRANCH  35  43
HETATM   43  O8  UNL     1      53.745  -0.100  44.091  1.00  0.00    -0.392 OA
ATOM     44  H8  UNL     1      53.960  -0.938  44.483  1.00  0.00     0.210 HD
ENDBRANCH  35  43
BRANCH  36  45
HETATM   45  C18 UNL     1      55.309   1.478  45.389  1.00  0.00     0.173 C 
BRANCH  45  46
HETATM   46  O9  UNL     1      56.387   1.119  46.157  1.00  0.00    -0.400 OA
ATOM     47  H9  UNL     1      56.541   1.795  46.807  1.00  0.00     0.209 HD
ENDBRANCH  45  46
ENDBRANCH  36  45
ENDBRANCH  29  31
ENDBRANCH   7  29
BRANCH   3  48
HETATM   48  N2  UNL     1      59.519   5.463  42.607  1.00  0.00    -0.041 NA
BRANCH  48  49
HETATM   49  O6  UNL     1      60.828   5.836  42.830  1.00  0.00    -0.292 OA
ATOM     50  H6  UNL     1      61.390   5.081  42.708  1.00  0.00     0.238 HD
ENDBRANCH  48  49
ENDBRANCH   3  48
TORSDOF 18
ENDMDL
MODEL 4
REMARK VINA RESULT: -6.109065542      3.850      7.327
REMARK  18 active torsions:
REMARK  status: ('A' for Active; 'I' for Inactive)
REMARK    1  A    between atoms: C2_2  and  S1_6 
REMARK    2  A    between atoms: S1_6  and  C3_7 
REMARK    3  A    between atoms: C3_7  and  C4_8 
REMARK    4  A    between atoms: C5_10  and  C6_11 
REMARK    5  A    between atoms: C6_11  and  O2_12 
REMARK    6  A    between atoms: C7_14  and  O3_15 
REMARK    7  A    between atoms: C8_17  and  O4_18 
REMARK    8  A    between atoms: O4_18  and  C9_19 
REMARK    9  A    between atoms: C10_21  and  N2_22 
REMARK   10  A    between atoms: N2_22  and  O6_23 
REMARK   11  A    between atoms: C11_28  and  N4_29 
REMARK   12  A    between atoms: N4_29  and  C12_31 
REMARK   13  A    between atoms: C14_33  and  N5_34 
REMARK   14  A    between atoms: C15_38  and  O7_39 
REMARK   15  A    between atoms: C16_41  and  O8_42 
REMARK   16  A    between atoms: C17_44  and  C18_45 
REMARK   17  A    between atoms: C18_45  and  O9_46 
REMARK   18  A    between atoms: C19_48  and  O10_49 
ROOT
HETATM    1  C9  UNL     1      58.822   3.243  44.257  1.00  0.00     0.314 C 
HETATM    2  O5  UNL     1      60.172   3.474  44.187  1.00  0.00    -0.311 OA
HETATM    3  C10 UNL     1      60.370   4.691  44.801  1.00  0.00     0.449 C 
HETATM    4  N3  UNL     1      59.447   4.697  45.899  1.00  0.00    -0.007 N 
ATOM      5  H31 UNL     1      59.331   5.600  46.358  1.00  0.00     0.284 HD
ATOM      6  H32 UNL     1      59.767   4.203  46.733  1.00  0.00     0.284 HD
HETATM    7  C11 UNL     1      58.201   4.139  45.272  1.00  0.00     0.340 C 
ENDROOT
BRANCH   1   8
HETATM    8  O4  UNL     1      58.252   3.607  42.989  1.00  0.00    -0.347 OA
BRANCH   8   9
HETATM    9  C8  UNL     1      56.967   4.062  43.027  1.00  0.00     0.187 C 
HETATM   10  C7  UNL     1      56.934   5.321  42.162  1.00  0.00     0.180 C 
HETATM   11  C5  UNL     1      55.731   5.246  41.253  1.00  0.00     0.176 C 
HETATM   12  O1  UNL     1      55.924   4.100  40.498  1.00  0.00    -0.372 OA
HETATM   13  C4  UNL     1      55.534   2.995  41.217  1.00  0.00     0.163 C 
HETATM   14  C19 UNL     1      55.920   3.089  42.677  1.00  0.00     0.179 C 
BRANCH  10  15
HETATM   15  O3  UNL     1      58.033   5.299  41.268  1.00  0.00    -0.390 OA
ATOM     16  H3  UNL     1      57.641   5.484  40.423  1.00  0.00     0.210 HD
ENDBRANCH  10  15
BRANCH  11  17
HETATM   17  C6  UNL     1      55.764   6.408  40.248  1.00  0.00     0.198 C 
BRANCH  17  18
HETATM   18  O2  UNL     1      56.434   5.918  39.107  1.00  0.00    -0.398 OA
ATOM     19  H2  UNL     1      56.382   6.608  38.455  1.00  0.00     0.209 HD
ENDBRANCH  17  18
ENDBRANCH  11  17
BRANCH  13  20
HETATM   20  C3  UNL     1      54.030   2.886  41.007  1.00  0.00     0.115 C 
BRANCH  20  21
HETATM   21  S1  UNL     1      53.540   2.336  39.390  1.00  0.00    -0.115 SA
BRANCH  21  22
HETATM   22  C2  UNL     1      54.772   1.151  38.789  1.00  0.00     0.036 C 
HETATM   23  C1  UNL     1      55.816   1.536  37.824  1.00  0.00     0.076 C 
HETATM   24  N1  UNL     1      54.671  -0.020  39.289  1.00  0.00    -0.397 N 
ATOM     25  H12 UNL     1      55.365  -0.687  38.951  1.00  0.00     0.156 HD
ATOM     26  H11 UNL     1      53.947  -0.286  39.957  1.00  0.00     0.156 HD
ENDBRANCH  21  22
ENDBRANCH  20  21
ENDBRANCH  13  20
BRANCH  14  27
HETATM   27  O10 UNL     1      54.740   3.271  43.411  1.00  0.00    -0.390 OA
ATOM     28  H10 UNL     1      54.042   2.828  42.942  1.00  0.00     0.210 HD
ENDBRANCH  14  27
ENDBRANCH   8   9
ENDBRANCH   1   8
BRANCH   7  29
HETATM   29  N4  UNL     1      57.413   3.617  46.321  1.00  0.00    -0.387 N 
ATOM     30  H4  UNL     1      57.246   4.148  47.175  1.00  0.00     0.155 HD
BRANCH  29  31
HETATM   31  C12 UNL     1      56.853   2.296  46.134  1.00  0.00     0.089 C 
HETATM   32  C13 UNL     1      55.421   2.086  46.418  1.00  0.00     0.060 C 
HETATM   33  C14 UNL     1      55.028   0.635  46.215  1.00  0.00     0.216 C 
HETATM   34  C15 UNL     1      56.161  -0.340  46.361  1.00  0.00     0.177 C 
HETATM   35  C16 UNL     1      57.164   0.115  47.402  1.00  0.00     0.157 C 
HETATM   36  C17 UNL     1      57.673   1.466  47.164  1.00  0.00     0.063 C 
BRANCH  33  37
HETATM   37  N5  UNL     1      53.939   0.267  47.102  1.00  0.00    -0.072 N 
ATOM     38  H53 UNL     1      54.281  -0.164  47.961  1.00  0.00     0.274 HD
ATOM     39  H52 UNL     1      53.490   1.088  47.510  1.00  0.00     0.274 HD
ATOM     40  H51 UNL     1      53.267  -0.331  46.621  1.00  0.00     0.274 HD
ENDBRANCH  33  37
BRANCH  34  41
HETATM   41  O7  UNL     1      56.772  -0.687  45.169  1.00  0.00    -0.391 OA
ATOM     42  H7  UNL     1      57.186  -1.541  45.176  1.00  0.00     0.210 HD
ENDBRANCH  34  41
BRANCH  35  43
HETATM   43  O8  UNL     1      56.570  -0.039  48.674  1.00  0.00    -0.392 OA
ATOM     44  H8  UNL     1      57.099   0.436  49.304  1.00  0.00     0.210 HD
ENDBRANCH  35  43
BRANCH  36  45
HETATM   45  C18 UNL     1      57.676   2.273  48.462  1.00  0.00     0.173 C 
BRANCH  45  46
HETATM   46  O9  UNL     1      58.890   2.897  48.595  1.00  0.00    -0.400 OA
ATOM     47  H9  UNL     1      58.790   3.650  49.166  1.00  0.00     0.209 HD
ENDBRANCH  45  46
ENDBRANCH  36  45
ENDBRANCH  29  31
ENDBRANCH   7  29
BRANCH   3  48
HETATM   48  N2  UNL     1      59.962   5.751  43.884  1.00  0.00    -0.041 NA
BRANCH  48  49
HETATM   49  O6  UNL     1      60.771   5.718  42.768  1.00  0.00    -0.292 OA
ATOM     50  H6  UNL     1      61.475   5.096  42.914  1.00  0.00     0.238 HD
ENDBRANCH  48  49
ENDBRANCH   3  48
TORSDOF 18
ENDMDL
MODEL 5
REMARK VINA RESULT: -6.098005519      1.144      1.317
REMARK  18 active torsions:
REMARK  status: ('A' for Active; 'I' for Inactive)
REMARK    1  A    between atoms: C2_2  and  S1_6 
REMARK    2  A    between atoms: S1_6  and  C3_7 
REMARK    3  A    between atoms: C3_7  and  C4_8 
REMARK    4  A    between atoms: C5_10  and  C6_11 
REMARK    5  A    between atoms: C6_11  and  O2_12 
REMARK    6  A    between atoms: C7_14  and  O3_15 
REMARK    7  A    between atoms: C8_17  and  O4_18 
REMARK    8  A    between atoms: O4_18  and  C9_19 
REMARK    9  A    between atoms: C10_21  and  N2_22 
REMARK   10  A    between atoms: N2_22  and  O6_23 
REMARK   11  A    between atoms: C11_28  and  N4_29 
REMARK   12  A    between atoms: N4_29  and  C12_31 
REMARK   13  A    between atoms: C14_33  and  N5_34 
REMARK   14  A    between atoms: C15_38  and  O7_39 
REMARK   15  A    between atoms: C16_41  and  O8_42 
REMARK   16  A    between atoms: C17_44  and  C18_45 
REMARK   17  A    between atoms: C18_45  and  O9_46 
REMARK   18  A    between atoms: C19_48  and  O10_49 
ROOT
HETATM    1  C9  UNL     1      59.416   3.773  45.635  1.00  0.00     0.314 C 
HETATM    2  O5  UNL     1      59.481   5.143  45.632  1.00  0.00    -0.311 OA
HETATM    3  C10 UNL     1      59.426   5.511  44.306  1.00  0.00     0.449 C 
HETATM    4  N3  UNL     1      58.501   4.589  43.712  1.00  0.00    -0.007 N 
ATOM      5  H31 UNL     1      58.476   4.603  42.693  1.00  0.00     0.284 HD
ATOM      6  H32 UNL     1      57.517   4.826  43.838  1.00  0.00     0.284 HD
HETATM    7  C11 UNL     1      58.921   3.280  44.318  1.00  0.00     0.340 C 
ENDROOT
BRANCH   1   8
HETATM    8  O4  UNL     1      60.756   3.274  45.779  1.00  0.00    -0.347 OA
BRANCH   8   9
HETATM    9  C8  UNL     1      60.930   2.312  46.731  1.00  0.00     0.187 C 
HETATM   10  C7  UNL     1      62.319   2.544  47.323  1.00  0.00     0.180 C 
HETATM   11  C5  UNL     1      62.215   2.477  48.828  1.00  0.00     0.176 C 
HETATM   12  O1  UNL     1      61.327   3.485  49.170  1.00  0.00    -0.372 OA
HETATM   13  C4  UNL     1      60.035   3.050  48.994  1.00  0.00     0.163 C 
HETATM   14  C19 UNL     1      59.874   2.204  47.750  1.00  0.00     0.179 C 
BRANCH  10  15
HETATM   15  O3  UNL     1      62.713   3.882  47.072  1.00  0.00    -0.390 OA
ATOM     16  H3  UNL     1      63.661   3.848  47.105  1.00  0.00     0.210 HD
ENDBRANCH  10  15
BRANCH  11  17
HETATM   17  C6  UNL     1      63.555   2.881  49.461  1.00  0.00     0.198 C 
BRANCH  17  18
HETATM   18  O2  UNL     1      63.340   4.139  50.063  1.00  0.00    -0.398 OA
ATOM     19  H2  UNL     1      64.124   4.328  50.565  1.00  0.00     0.209 HD
ENDBRANCH  17  18
ENDBRANCH  11  17
BRANCH  13  20
HETATM   20  C3  UNL     1      59.683   2.300  50.271  1.00  0.00     0.115 C 
BRANCH  20  21
HETATM   21  S1  UNL     1      58.730   3.230  51.446  1.00  0.00    -0.115 SA
BRANCH  21  22
HETATM   22  C2  UNL     1      59.816   4.456  52.222  1.00  0.00     0.036 C 
HETATM   23  C1  UNL     1      59.284   5.650  52.901  1.00  0.00     0.076 C 
HETATM   24  N1  UNL     1      61.063   4.182  52.151  1.00  0.00    -0.397 N 
ATOM     25  H12 UNL     1      61.674   4.872  52.588  1.00  0.00     0.156 HD
ATOM     26  H11 UNL     1      61.431   3.356  51.681  1.00  0.00     0.156 HD
ENDBRANCH  21  22
ENDBRANCH  20  21
ENDBRANCH  13  20
BRANCH  14  27
HETATM   27  O10 UNL     1      59.653   0.884  48.167  1.00  0.00    -0.390 OA
ATOM     28  H10 UNL     1      58.721   0.714  48.091  1.00  0.00     0.210 HD
ENDBRANCH  14  27
ENDBRANCH   8   9
ENDBRANCH   1   8
BRANCH   7  29
HETATM   29  N4  UNL     1      57.808   2.415  44.235  1.00  0.00    -0.387 N 
ATOM     30  H4  UNL     1      57.304   2.282  43.359  1.00  0.00     0.155 HD
BRANCH  29  31
HETATM   31  C12 UNL     1      57.414   1.726  45.445  1.00  0.00     0.089 C 
HETATM   32  C13 UNL     1      57.344   0.252  45.431  1.00  0.00     0.060 C 
HETATM   33  C14 UNL     1      56.866  -0.286  46.765  1.00  0.00     0.216 C 
HETATM   34  C15 UNL     1      56.038   0.679  47.564  1.00  0.00     0.177 C 
HETATM   35  C16 UNL     1      55.193   1.567  46.672  1.00  0.00     0.157 C 
HETATM   36  C17 UNL     1      55.971   2.272  45.653  1.00  0.00     0.063 C 
BRANCH  33  37
HETATM   37  N5  UNL     1      56.142  -1.533  46.588  1.00  0.00    -0.072 N 
ATOM     38  H53 UNL     1      56.602  -2.145  45.914  1.00  0.00     0.274 HD
ATOM     39  H52 UNL     1      56.212  -2.131  47.412  1.00  0.00     0.274 HD
ATOM     40  H51 UNL     1      55.171  -1.354  46.333  1.00  0.00     0.274 HD
ENDBRANCH  33  37
BRANCH  34  41
HETATM   41  O7  UNL     1      56.753   1.411  48.494  1.00  0.00    -0.391 OA
ATOM     42  H7  UNL     1      57.462   1.925  48.127  1.00  0.00     0.210 HD
ENDBRANCH  34  41
BRANCH  35  43
HETATM   43  O8  UNL     1      54.156   0.776  46.129  1.00  0.00    -0.392 OA
ATOM     44  H8  UNL     1      53.684   0.377  46.851  1.00  0.00     0.210 HD
ENDBRANCH  35  43
BRANCH  36  45
HETATM   45  C18 UNL     1      55.278   2.186  44.293  1.00  0.00     0.173 C 
BRANCH  45  46
HETATM   46  O9  UNL     1      54.262   3.106  44.253  1.00  0.00    -0.400 OA
ATOM     47  H9  UNL     1      53.521   2.728  43.794  1.00  0.00     0.209 HD
ENDBRANCH  45  46
ENDBRANCH  36  45
ENDBRANCH  29  31
ENDBRANCH   7  29
BRANCH   3  48
HETATM   48  N2  UNL     1      60.731   5.272  43.698  1.00  0.00    -0.041 NA
BRANCH  48  49
HETATM   49  O6  UNL     1      60.846   6.040  42.559  1.00  0.00    -0.292 OA
ATOM     50  H6  UNL     1      60.980   5.468  41.812  1.00  0.00     0.238 HD
ENDBRANCH  48  49
ENDBRANCH   3  48
TORSDOF 18
ENDMDL
