MODEL 1
REMARK VINA RESULT: -6.041055214      0.000      0.000
REMARK  9 active torsions:
REMARK  status: ('A' for Active; 'I' for Inactive)
REMARK    1  A    between atoms: N1_2  and  C2_4 
REMARK    2  A    between atoms: C5_9  and  O3_10 
REMARK    3  A    between atoms: O3_10  and  C6_11 
REMARK    4  A    between atoms: C6_11  and  C7_13 
REMARK    5  A    between atoms: C7_13  and  C8_14 
REMARK    6  A    between atoms: C11_19  and  O6_20 
REMARK       I    between atoms: N3_22  and  C12_23 
REMARK       I    between atoms: C12_23  and  N4_24 
REMARK       I    between atoms: C12_23  and  N5_28 
REMARK    7  A    between atoms: C13_32  and  O7_33 
REMARK    8  A    between atoms: C15_36  and  N6_37 
REMARK       I    between atoms: N6_37  and  C16_39 
REMARK    9  A    between atoms: N8_41  and  O8_43 
ROOT
HETATM    1  C2  UNL     1     -42.910  -1.849  42.628  1.00  0.00     0.243 C 
HETATM    2  O1  UNL     1     -43.002  -0.468  42.739  1.00  0.00    -0.334 OA
HETATM    3  C3  UNL     1     -41.683   0.021  42.869  1.00  0.00     0.281 C 
HETATM    4  O2  UNL     1     -41.186  -0.009  41.533  1.00  0.00    -0.350 OA
HETATM    5  C4  UNL     1     -40.219  -0.893  41.947  1.00  0.00     0.179 C 
HETATM    6  C5  UNL     1     -38.925  -0.104  42.116  1.00  0.00     0.200 C 
HETATM    7  C9  UNL     1     -38.630  -0.282  43.545  1.00  0.00     0.037 A 
HETATM    8  C10 UNL     1     -39.693  -0.843  44.238  1.00  0.00     0.025 A 
HETATM    9  C11 UNL     1     -39.219  -0.948  45.534  1.00  0.00     0.155 A 
HETATM   10  N3  UNL     1     -37.963  -0.473  45.582  1.00  0.00    -0.255 N 
HETATM   11  C12 UNL     1     -37.120  -0.412  46.777  1.00  0.00     0.490 C 
HETATM   12  N4  UNL     1     -35.764  -0.828  46.475  1.00  0.00    -0.032 N 
ATOM     13  H41 UNL     1     -35.177  -0.785  47.308  1.00  0.00     0.279 HD
ATOM     14  H42 UNL     1     -35.367  -0.289  45.706  1.00  0.00     0.279 HD
ATOM     15  H43 UNL     1     -35.741  -1.752  46.045  1.00  0.00     0.279 HD
HETATM   16  N5  UNL     1     -37.077   0.898  47.347  1.00  0.00    -0.032 N 
ATOM     17  H51 UNL     1     -36.490   0.941  48.180  1.00  0.00     0.279 HD
ATOM     18  H52 UNL     1     -38.016   1.245  47.541  1.00  0.00     0.279 HD
ATOM     19  H53 UNL     1     -36.786   1.590  46.656  1.00  0.00     0.279 HD
HETATM   20  C13 UNL     1     -37.564  -0.058  44.395  1.00  0.00     0.157 A 
HETATM   21  C14 UNL     1     -40.805  -1.069  43.320  1.00  0.00     0.095 C 
HETATM   22  C15 UNL     1     -41.729  -2.193  43.567  1.00  0.00     0.153 C 
ENDROOT
BRANCH   9  23
HETATM   23  O6  UNL     1     -39.816  -1.436  46.692  1.00  0.00    -0.345 OA
ATOM     24  H6  UNL     1     -39.853  -1.084  47.573  1.00  0.00     0.219 HD
ENDBRANCH   9  23
BRANCH  20  25
HETATM   25  O7  UNL     1     -36.307   0.495  44.093  1.00  0.00    -0.345 OA
ATOM     26  H7  UNL     1     -35.626   0.773  44.693  1.00  0.00     0.219 HD
ENDBRANCH  20  25
BRANCH   6  27
HETATM   27  O3  UNL     1     -39.089   1.274  41.854  1.00  0.00    -0.308 OA
BRANCH  27  28
HETATM   28  C6  UNL     1     -38.185   2.069  41.204  1.00  0.00     0.268 C 
HETATM   29  O4  UNL     1     -37.148   2.418  41.851  1.00  0.00    -0.265 OA
BRANCH  28  30
HETATM   30  C7  UNL     1     -38.433   2.487  39.801  1.00  0.00     0.210 C 
BRANCH  30  31
HETATM   31  C8  UNL     1     -39.776   2.098  39.357  1.00  0.00     0.240 C 
HETATM   32  N2  UNL     1     -39.960   0.966  38.540  1.00  0.00    -0.062 NA
HETATM   33  O5  UNL     1     -40.787   2.768  39.699  1.00  0.00    -0.276 OA
ENDBRANCH  30  31
ENDBRANCH  28  30
ENDBRANCH  27  28
ENDBRANCH   6  27
BRANCH  22  34
HETATM   34  N6  UNL     1     -42.371  -2.048  44.875  1.00  0.00    -0.353 N 
HETATM   35  C16 UNL     1     -42.569  -3.168  45.714  1.00  0.00     0.208 C 
HETATM   36  N7  UNL     1     -41.504  -4.000  46.164  1.00  0.00    -0.062 NA
HETATM   37  N8  UNL     1     -43.773  -3.486  46.117  1.00  0.00    -0.241 N 
ATOM     38  H8  UNL     1     -44.557  -2.910  45.811  1.00  0.00     0.197 HD
ATOM     39  H6  UNL     1     -42.679  -1.127  45.184  1.00  0.00     0.162 HD
BRANCH  37  40
HETATM   40  O8  UNL     1     -44.024  -4.546  46.920  1.00  0.00    -0.287 OA
ATOM     41  H8  UNL     1     -44.889  -4.743  47.261  1.00  0.00     0.244 HD
ENDBRANCH  37  40
ENDBRANCH  22  34
BRANCH   1  42
HETATM   42  N1  UNL     1     -42.887  -2.418  41.368  1.00  0.00    -0.399 N 
HETATM   43  C1  UNL     1     -43.880  -2.000  40.427  1.00  0.00     0.142 C 
ATOM     44  H1  UNL     1     -42.185  -3.115  41.117  1.00  0.00     0.155 HD
ENDBRANCH   1  42
TORSDOF 9
ENDMDL
MODEL 2
REMARK VINA RESULT: -5.975606338      2.143      5.710
REMARK  9 active torsions:
REMARK  status: ('A' for Active; 'I' for Inactive)
REMARK    1  A    between atoms: N1_2  and  C2_4 
REMARK    2  A    between atoms: C5_9  and  O3_10 
REMARK    3  A    between atoms: O3_10  and  C6_11 
REMARK    4  A    between atoms: C6_11  and  C7_13 
REMARK    5  A    between atoms: C7_13  and  C8_14 
REMARK    6  A    between atoms: C11_19  and  O6_20 
REMARK       I    between atoms: N3_22  and  C12_23 
REMARK       I    between atoms: C12_23  and  N4_24 
REMARK       I    between atoms: C12_23  and  N5_28 
REMARK    7  A    between atoms: C13_32  and  O7_33 
REMARK    8  A    between atoms: C15_36  and  N6_37 
REMARK       I    between atoms: N6_37  and  C16_39 
REMARK    9  A    between atoms: N8_41  and  O8_43 
ROOT
HETATM    1  C2  UNL     1     -40.152   1.507  40.728  1.00  0.00     0.243 C 
HETATM    2  O1  UNL     1     -40.561   2.046  41.940  1.00  0.00    -0.334 OA
HETATM    3  C3  UNL     1     -40.017   1.228  42.956  1.00  0.00     0.281 C 
HETATM    4  O2  UNL     1     -38.659   1.653  43.032  1.00  0.00    -0.350 OA
HETATM    5  C4  UNL     1     -38.275   0.380  42.685  1.00  0.00     0.179 C 
HETATM    6  C5  UNL     1     -37.835  -0.326  43.963  1.00  0.00     0.200 C 
HETATM    7  C9  UNL     1     -38.783  -1.446  44.048  1.00  0.00     0.037 A 
HETATM    8  C10 UNL     1     -39.829  -1.323  43.145  1.00  0.00     0.025 A 
HETATM    9  C11 UNL     1     -40.583  -2.463  43.362  1.00  0.00     0.155 A 
HETATM   10  N3  UNL     1     -40.007  -3.193  44.330  1.00  0.00    -0.255 N 
HETATM   11  C12 UNL     1     -40.504  -4.471  44.846  1.00  0.00     0.490 C 
HETATM   12  N4  UNL     1     -39.418  -5.413  45.028  1.00  0.00    -0.032 N 
ATOM     13  H41 UNL     1     -39.764  -6.302  45.387  1.00  0.00     0.279 HD
ATOM     14  H42 UNL     1     -38.681  -5.029  45.619  1.00  0.00     0.279 HD
ATOM     15  H43 UNL     1     -38.879  -5.537  44.171  1.00  0.00     0.279 HD
HETATM   16  N5  UNL     1     -41.192  -4.324  46.091  1.00  0.00    -0.032 N 
ATOM     17  H51 UNL     1     -41.539  -5.214  46.450  1.00  0.00     0.279 HD
ATOM     18  H52 UNL     1     -41.944  -3.640  46.017  1.00  0.00     0.279 HD
ATOM     19  H53 UNL     1     -40.608  -3.852  46.781  1.00  0.00     0.279 HD
HETATM   20  C13 UNL     1     -38.909  -2.613  44.777  1.00  0.00     0.157 A 
HETATM   21  C14 UNL     1     -39.674  -0.084  42.389  1.00  0.00     0.095 C 
HETATM   22  C15 UNL     1     -40.174  -0.016  41.002  1.00  0.00     0.153 C 
ENDROOT
BRANCH   9  23
HETATM   23  O6  UNL     1     -41.754  -2.915  42.762  1.00  0.00    -0.345 OA
ATOM     24  H6  UNL     1     -42.279  -2.549  42.059  1.00  0.00     0.219 HD
ENDBRANCH   9  23
BRANCH  20  25
HETATM   25  O7  UNL     1     -38.067  -3.107  45.788  1.00  0.00    -0.345 OA
ATOM     26  H7  UNL     1     -37.622  -3.946  45.828  1.00  0.00     0.219 HD
ENDBRANCH  20  25
BRANCH   6  27
HETATM   27  O3  UNL     1     -37.985   0.484  45.111  1.00  0.00    -0.308 OA
BRANCH  27  28
HETATM   28  C6  UNL     1     -37.149   0.482  46.194  1.00  0.00     0.268 C 
HETATM   29  O4  UNL     1     -37.422   1.286  47.141  1.00  0.00    -0.265 OA
BRANCH  28  30
HETATM   30  C7  UNL     1     -35.980  -0.432  46.232  1.00  0.00     0.210 C 
BRANCH  30  31
HETATM   31  C8  UNL     1     -35.773  -0.979  47.578  1.00  0.00     0.240 C 
HETATM   32  N2  UNL     1     -34.772  -0.452  48.418  1.00  0.00    -0.062 NA
HETATM   33  O5  UNL     1     -36.484  -1.927  48.005  1.00  0.00    -0.276 OA
ENDBRANCH  30  31
ENDBRANCH  28  30
ENDBRANCH  27  28
ENDBRANCH   6  27
BRANCH  22  34
HETATM   34  N6  UNL     1     -41.614  -0.277  40.966  1.00  0.00    -0.353 N 
HETATM   35  C16 UNL     1     -42.170  -1.146  40.000  1.00  0.00     0.208 C 
HETATM   36  N7  UNL     1     -41.770  -2.505  39.857  1.00  0.00    -0.062 NA
HETATM   37  N8  UNL     1     -43.098  -0.717  39.182  1.00  0.00    -0.241 N 
ATOM     38  H8  UNL     1     -43.405   0.252  39.260  1.00  0.00     0.197 HD
ATOM     39  H6  UNL     1     -42.224   0.175  41.647  1.00  0.00     0.162 HD
BRANCH  37  40
HETATM   40  O8  UNL     1     -43.666  -1.502  38.238  1.00  0.00    -0.287 OA
ATOM     41  H8  UNL     1     -43.793  -1.221  37.340  1.00  0.00     0.244 HD
ENDBRANCH  37  40
ENDBRANCH  22  34
BRANCH   1  42
HETATM   42  N1  UNL     1     -39.016   2.011  40.121  1.00  0.00    -0.399 N 
HETATM   43  C1  UNL     1     -39.167   2.670  38.861  1.00  0.00     0.142 C 
ATOM     44  H1  UNL     1     -38.099   1.916  40.558  1.00  0.00     0.155 HD
ENDBRANCH   1  42
TORSDOF 9
ENDMDL
MODEL 3
REMARK VINA RESULT: -5.975257726      2.806      6.218
REMARK  9 active torsions:
REMARK  status: ('A' for Active; 'I' for Inactive)
REMARK    1  A    between atoms: N1_2  and  C2_4 
REMARK    2  A    between atoms: C5_9  and  O3_10 
REMARK    3  A    between atoms: O3_10  and  C6_11 
REMARK    4  A    between atoms: C6_11  and  C7_13 
REMARK    5  A    between atoms: C7_13  and  C8_14 
REMARK    6  A    between atoms: C11_19  and  O6_20 
REMARK       I    between atoms: N3_22  and  C12_23 
REMARK       I    between atoms: C12_23  and  N4_24 
REMARK       I    between atoms: C12_23  and  N5_28 
REMARK    7  A    between atoms: C13_32  and  O7_33 
REMARK    8  A    between atoms: C15_36  and  N6_37 
REMARK       I    between atoms: N6_37  and  C16_39 
REMARK    9  A    between atoms: N8_41  and  O8_43 
ROOT
HETATM    1  C2  UNL     1     -34.985  -1.418  47.982  1.00  0.00     0.243 C 
HETATM    2  O1  UNL     1     -34.651  -1.811  46.693  1.00  0.00    -0.334 OA
HETATM    3  C3  UNL     1     -35.767  -1.525  45.875  1.00  0.00     0.281 C 
HETATM    4  O2  UNL     1     -35.666  -0.120  45.656  1.00  0.00    -0.350 OA
HETATM    5  C4  UNL     1     -36.883   0.032  46.274  1.00  0.00     0.179 C 
HETATM    6  C5  UNL     1     -37.928   0.217  45.180  1.00  0.00     0.200 C 
HETATM    7  C9  UNL     1     -38.815  -0.937  45.390  1.00  0.00     0.037 A 
HETATM    8  C10 UNL     1     -38.278  -1.860  46.276  1.00  0.00     0.025 A 
HETATM    9  C11 UNL     1     -39.253  -2.839  46.357  1.00  0.00     0.155 A 
HETATM   10  N3  UNL     1     -40.283  -2.500  45.564  1.00  0.00    -0.255 N 
HETATM   11  C12 UNL     1     -41.508  -3.280  45.376  1.00  0.00     0.490 C 
HETATM   12  N4  UNL     1     -42.674  -2.420  45.379  1.00  0.00    -0.032 N 
ATOM     13  H41 UNL     1     -43.527  -2.963  45.249  1.00  0.00     0.279 HD
ATOM     14  H42 UNL     1     -42.594  -1.673  44.690  1.00  0.00     0.279 HD
ATOM     15  H43 UNL     1     -42.718  -1.847  46.222  1.00  0.00     0.279 HD
HETATM   16  N5  UNL     1     -41.497  -4.026  44.156  1.00  0.00    -0.032 N 
ATOM     17  H51 UNL     1     -42.350  -4.569  44.025  1.00  0.00     0.279 HD
ATOM     18  H52 UNL     1     -40.669  -4.619  44.096  1.00  0.00     0.279 HD
ATOM     19  H53 UNL     1     -41.321  -3.419  43.355  1.00  0.00     0.279 HD
HETATM   20  C13 UNL     1     -40.059  -1.350  44.957  1.00  0.00     0.157 A 
HETATM   21  C14 UNL     1     -36.965  -1.402  46.719  1.00  0.00     0.095 C 
HETATM   22  C15 UNL     1     -36.490  -1.763  48.069  1.00  0.00     0.153 C 
ENDROOT
BRANCH   9  23
HETATM   23  O6  UNL     1     -39.305  -4.023  47.085  1.00  0.00    -0.345 OA
ATOM     24  H6  UNL     1     -40.021  -4.443  47.547  1.00  0.00     0.219 HD
ENDBRANCH   9  23
BRANCH  20  25
HETATM   25  O7  UNL     1     -40.930  -0.708  44.059  1.00  0.00    -0.345 OA
ATOM     26  H7  UNL     1     -40.822  -0.575  43.125  1.00  0.00     0.219 HD
ENDBRANCH  20  25
BRANCH   6  27
HETATM   27  O3  UNL     1     -37.378   0.136  43.882  1.00  0.00    -0.308 OA
BRANCH  27  28
HETATM   28  C6  UNL     1     -37.242   1.185  43.014  1.00  0.00     0.268 C 
HETATM   29  O4  UNL     1     -36.186   1.886  43.109  1.00  0.00    -0.265 OA
BRANCH  28  30
HETATM   30  C7  UNL     1     -38.302   1.466  42.013  1.00  0.00     0.210 C 
BRANCH  30  31
HETATM   31  C8  UNL     1     -39.507   2.010  42.649  1.00  0.00     0.240 C 
HETATM   32  N2  UNL     1     -40.782   1.518  42.305  1.00  0.00    -0.062 NA
HETATM   33  O5  UNL     1     -39.424   2.924  43.512  1.00  0.00    -0.276 OA
ENDBRANCH  30  31
ENDBRANCH  28  30
ENDBRANCH  27  28
ENDBRANCH   6  27
BRANCH  22  34
HETATM   34  N6  UNL     1     -36.427  -3.219  48.215  1.00  0.00    -0.353 N 
HETATM   35  C16 UNL     1     -36.845  -3.847  49.410  1.00  0.00     0.208 C 
HETATM   36  N7  UNL     1     -38.156  -3.701  49.947  1.00  0.00    -0.062 NA
HETATM   37  N8  UNL     1     -36.016  -4.604  50.082  1.00  0.00    -0.241 N 
ATOM     38  H8  UNL     1     -35.069  -4.728  49.723  1.00  0.00     0.197 HD
ATOM     39  H6  UNL     1     -36.078  -3.787  47.444  1.00  0.00     0.162 HD
BRANCH  37  40
HETATM   40  O8  UNL     1     -36.358  -5.231  51.231  1.00  0.00    -0.287 OA
ATOM     41  H8  UNL     1     -36.235  -6.163  51.369  1.00  0.00     0.244 HD
ENDBRANCH  37  40
ENDBRANCH  22  34
BRANCH   1  42
HETATM   42  N1  UNL     1     -34.611  -0.159  48.415  1.00  0.00    -0.399 N 
HETATM   43  C1  UNL     1     -33.265   0.021  48.864  1.00  0.00     0.142 C 
ATOM     44  H1  UNL     1     -35.273   0.616  48.414  1.00  0.00     0.155 HD
ENDBRANCH   1  42
TORSDOF 9
ENDMDL
MODEL 4
REMARK VINA RESULT: -5.963731691      2.746      5.636
REMARK  9 active torsions:
REMARK  status: ('A' for Active; 'I' for Inactive)
REMARK    1  A    between atoms: N1_2  and  C2_4 
REMARK    2  A    between atoms: C5_9  and  O3_10 
REMARK    3  A    between atoms: O3_10  and  C6_11 
REMARK    4  A    between atoms: C6_11  and  C7_13 
REMARK    5  A    between atoms: C7_13  and  C8_14 
REMARK    6  A    between atoms: C11_19  and  O6_20 
REMARK       I    between atoms: N3_22  and  C12_23 
REMARK       I    between atoms: C12_23  and  N4_24 
REMARK       I    between atoms: C12_23  and  N5_28 
REMARK    7  A    between atoms: C13_32  and  O7_33 
REMARK    8  A    between atoms: C15_36  and  N6_37 
REMARK       I    between atoms: N6_37  and  C16_39 
REMARK    9  A    between atoms: N8_41  and  O8_43 
ROOT
HETATM    1  C2  UNL     1     -36.722  -0.630  46.038  1.00  0.00     0.243 C 
HETATM    2  O1  UNL     1     -36.354   0.308  45.082  1.00  0.00    -0.334 OA
HETATM    3  C3  UNL     1     -37.436   0.420  44.181  1.00  0.00     0.281 C 
HETATM    4  O2  UNL     1     -38.364   1.246  44.879  1.00  0.00    -0.350 OA
HETATM    5  C4  UNL     1     -39.266   0.211  44.838  1.00  0.00     0.179 C 
HETATM    6  C5  UNL     1     -40.259   0.518  43.722  1.00  0.00     0.200 C 
HETATM    7  C9  UNL     1     -40.063  -0.615  42.805  1.00  0.00     0.037 A 
HETATM    8  C10 UNL     1     -38.943  -1.367  43.127  1.00  0.00     0.025 A 
HETATM    9  C11 UNL     1     -38.947  -2.378  42.181  1.00  0.00     0.155 A 
HETATM   10  N3  UNL     1     -40.002  -2.212  41.366  1.00  0.00    -0.255 N 
HETATM   11  C12 UNL     1     -40.351  -3.078  40.237  1.00  0.00     0.490 C 
HETATM   12  N4  UNL     1     -41.777  -3.333  40.203  1.00  0.00    -0.032 N 
ATOM     13  H41 UNL     1     -42.020  -3.935  39.417  1.00  0.00     0.279 HD
ATOM     14  H42 UNL     1     -42.315  -2.466  40.194  1.00  0.00     0.279 HD
ATOM     15  H43 UNL     1     -42.113  -3.714  41.087  1.00  0.00     0.279 HD
HETATM   16  N5  UNL     1     -39.959  -2.518  38.981  1.00  0.00    -0.032 N 
ATOM     17  H51 UNL     1     -40.202  -3.120  38.195  1.00  0.00     0.279 HD
ATOM     18  H52 UNL     1     -38.966  -2.288  38.975  1.00  0.00     0.279 HD
ATOM     19  H53 UNL     1     -40.345  -1.581  38.859  1.00  0.00     0.279 HD
HETATM   20  C13 UNL     1     -40.709  -1.153  41.709  1.00  0.00     0.157 A 
HETATM   21  C14 UNL     1     -38.280  -0.779  44.286  1.00  0.00     0.095 C 
HETATM   22  C15 UNL     1     -37.542  -1.654  45.218  1.00  0.00     0.153 C 
ENDROOT
BRANCH   9  23
HETATM   23  O6  UNL     1     -38.081  -3.447  41.979  1.00  0.00    -0.345 OA
ATOM     24  H6  UNL     1     -37.235  -3.495  41.548  1.00  0.00     0.219 HD
ENDBRANCH   9  23
BRANCH  20  25
HETATM   25  O7  UNL     1     -41.873  -0.694  41.068  1.00  0.00    -0.345 OA
ATOM     26  H7  UNL     1     -41.949  -0.058  40.366  1.00  0.00     0.219 HD
ENDBRANCH  20  25
BRANCH   6  27
HETATM   27  O3  UNL     1     -39.954   1.715  43.037  1.00  0.00    -0.308 OA
BRANCH  27  28
HETATM   28  C6  UNL     1     -40.206   1.955  41.713  1.00  0.00     0.268 C 
HETATM   29  O4  UNL     1     -41.390   2.296  41.399  1.00  0.00    -0.265 OA
BRANCH  28  30
HETATM   30  C7  UNL     1     -39.120   1.814  40.711  1.00  0.00     0.210 C 
BRANCH  30  31
HETATM   31  C8  UNL     1     -39.658   1.721  39.349  1.00  0.00     0.240 C 
HETATM   32  N2  UNL     1     -39.553   2.811  38.462  1.00  0.00    -0.062 NA
HETATM   33  O5  UNL     1     -40.222   0.669  38.949  1.00  0.00    -0.276 OA
ENDBRANCH  30  31
ENDBRANCH  28  30
ENDBRANCH  27  28
ENDBRANCH   6  27
BRANCH  22  34
HETATM   34  N6  UNL     1     -36.470  -2.361  44.515  1.00  0.00    -0.353 N 
HETATM   35  C16 UNL     1     -36.195  -3.720  44.789  1.00  0.00     0.208 C 
HETATM   36  N7  UNL     1     -37.167  -4.751  44.652  1.00  0.00    -0.062 NA
HETATM   37  N8  UNL     1     -35.004  -4.084  45.190  1.00  0.00    -0.241 N 
ATOM     38  H8  UNL     1     -34.286  -3.368  45.298  1.00  0.00     0.197 HD
ATOM     39  H6  UNL     1     -35.915  -1.865  43.818  1.00  0.00     0.162 HD
BRANCH  37  40
HETATM   40  O8  UNL     1     -34.682  -5.369  45.467  1.00  0.00    -0.287 OA
ATOM     41  H8  UNL     1     -33.786  -5.667  45.566  1.00  0.00     0.244 HD
ENDBRANCH  37  40
ENDBRANCH  22  34
BRANCH   1  42
HETATM   42  N1  UNL     1     -37.283  -0.191  47.223  1.00  0.00    -0.399 N 
HETATM   43  C1  UNL     1     -37.955  -1.153  48.041  1.00  0.00     0.142 C 
ATOM     44  H1  UNL     1     -37.220   0.787  47.505  1.00  0.00     0.155 HD
ENDBRANCH   1  42
TORSDOF 9
ENDMDL
MODEL 5
REMARK VINA RESULT: -5.959053900      5.127      9.362
REMARK  9 active torsions:
REMARK  status: ('A' for Active; 'I' for Inactive)
REMARK    1  A    between atoms: N1_2  and  C2_4 
REMARK    2  A    between atoms: C5_9  and  O3_10 
REMARK    3  A    between atoms: O3_10  and  C6_11 
REMARK    4  A    between atoms: C6_11  and  C7_13 
REMARK    5  A    between atoms: C7_13  and  C8_14 
REMARK    6  A    between atoms: C11_19  and  O6_20 
REMARK       I    between atoms: N3_22  and  C12_23 
REMARK       I    between atoms: C12_23  and  N4_24 
REMARK       I    between atoms: C12_23  and  N5_28 
REMARK    7  A    between atoms: C13_32  and  O7_33 
REMARK    8  A    between atoms: C15_36  and  N6_37 
REMARK       I    between atoms: N6_37  and  C16_39 
REMARK    9  A    between atoms: N8_41  and  O8_43 
ROOT
HETATM    1  C2  UNL     1     -32.784  -0.489  50.301  1.00  0.00     0.243 C 
HETATM    2  O1  UNL     1     -32.681   0.442  49.277  1.00  0.00    -0.334 OA
HETATM    3  C3  UNL     1     -33.383  -0.086  48.171  1.00  0.00     0.281 C 
HETATM    4  O2  UNL     1     -34.748   0.167  48.493  1.00  0.00    -0.350 OA
HETATM    5  C4  UNL     1     -34.970  -1.189  48.471  1.00  0.00     0.179 C 
HETATM    6  C5  UNL     1     -35.634  -1.519  47.139  1.00  0.00     0.200 C 
HETATM    7  C9  UNL     1     -34.663  -2.430  46.518  1.00  0.00     0.037 A 
HETATM    8  C10 UNL     1     -33.455  -2.459  47.200  1.00  0.00     0.025 A 
HETATM    9  C11 UNL     1     -32.700  -3.374  46.487  1.00  0.00     0.155 A 
HETATM   10  N3  UNL     1     -33.428  -3.838  45.459  1.00  0.00    -0.255 N 
HETATM   11  C12 UNL     1     -32.980  -4.823  44.472  1.00  0.00     0.490 C 
HETATM   12  N4  UNL     1     -34.022  -5.793  44.199  1.00  0.00    -0.032 N 
ATOM     13  H41 UNL     1     -33.709  -6.479  43.512  1.00  0.00     0.279 HD
ATOM     14  H42 UNL     1     -34.891  -5.343  43.914  1.00  0.00     0.279 HD
ATOM     15  H43 UNL     1     -34.353  -6.241  45.054  1.00  0.00     0.279 HD
HETATM   16  N5  UNL     1     -32.588  -4.217  43.237  1.00  0.00    -0.032 N 
ATOM     17  H51 UNL     1     -32.276  -4.903  42.550  1.00  0.00     0.279 HD
ATOM     18  H52 UNL     1     -31.880  -3.499  43.388  1.00  0.00     0.279 HD
ATOM     19  H53 UNL     1     -33.336  -3.634  42.861  1.00  0.00     0.279 HD
HETATM   20  C13 UNL     1     -34.629  -3.292  45.439  1.00  0.00     0.157 A 
HETATM   21  C14 UNL     1     -33.516  -1.541  48.333  1.00  0.00     0.095 C 
HETATM   22  C15 UNL     1     -32.731  -1.839  49.547  1.00  0.00     0.153 C 
ENDROOT
BRANCH   9  23
HETATM   23  O6  UNL     1     -31.401  -3.836  46.676  1.00  0.00    -0.345 OA
ATOM     24  H6  UNL     1     -30.566  -3.384  46.651  1.00  0.00     0.219 HD
ENDBRANCH   9  23
BRANCH  20  25
HETATM   25  O7  UNL     1     -35.640  -3.555  44.499  1.00  0.00    -0.345 OA
ATOM     26  H7  UNL     1     -35.830  -3.093  43.690  1.00  0.00     0.219 HD
ENDBRANCH  20  25
BRANCH   6  27
HETATM   27  O3  UNL     1     -35.786  -0.384  46.311  1.00  0.00    -0.308 OA
BRANCH  27  28
HETATM   28  C6  UNL     1     -36.957   0.295  46.106  1.00  0.00     0.268 C 
HETATM   29  O4  UNL     1     -37.372   1.035  47.053  1.00  0.00    -0.265 OA
BRANCH  28  30
HETATM   30  C7  UNL     1     -37.686   0.152  44.821  1.00  0.00     0.210 C 
BRANCH  30  31
HETATM   31  C8  UNL     1     -37.480   1.320  43.957  1.00  0.00     0.240 C 
HETATM   32  N2  UNL     1     -36.248   1.518  43.303  1.00  0.00    -0.062 NA
HETATM   33  O5  UNL     1     -38.399   2.164  43.784  1.00  0.00    -0.276 OA
ENDBRANCH  30  31
ENDBRANCH  28  30
ENDBRANCH  27  28
ENDBRANCH   6  27
BRANCH  22  34
HETATM   34  N6  UNL     1     -31.304  -1.915  49.227  1.00  0.00    -0.353 N 
HETATM   35  C16 UNL     1     -30.327  -1.864  50.247  1.00  0.00     0.208 C 
HETATM   36  N7  UNL     1     -30.285  -2.789  51.329  1.00  0.00    -0.062 NA
HETATM   37  N8  UNL     1     -29.403  -0.937  50.230  1.00  0.00    -0.241 N 
ATOM     38  H8  UNL     1     -29.407  -0.259  49.468  1.00  0.00     0.197 HD
ATOM     39  H6  UNL     1     -31.012  -2.006  48.254  1.00  0.00     0.162 HD
BRANCH  37  40
HETATM   40  O8  UNL     1     -28.443  -0.838  51.178  1.00  0.00    -0.287 OA
ATOM     41  H8  UNL     1     -28.524  -0.276  51.939  1.00  0.00     0.244 HD
ENDBRANCH  37  40
ENDBRANCH  22  34
BRANCH   1  42
HETATM   42  N1  UNL     1     -33.789  -0.342  51.240  1.00  0.00    -0.399 N 
HETATM   43  C1  UNL     1     -34.303  -1.524  51.860  1.00  0.00     0.142 C 
ATOM     44  H1  UNL     1     -34.152   0.580  51.483  1.00  0.00     0.155 HD
ENDBRANCH   1  42
TORSDOF 9
ENDMDL
