MODEL 1
REMARK VINA RESULT: -6.991009298      0.000      0.000
REMARK  11 active torsions:
REMARK  status: ('A' for Active; 'I' for Inactive)
REMARK       I    between atoms: N1_1  and  C1_5 
REMARK       I    between atoms: C1_5  and  N2_6 
REMARK       I    between atoms: C1_5  and  N3_10 
REMARK    1  A    between atoms: N3_10  and  C2_12 
REMARK    2  A    between atoms: C3_17  and  N6_18 
REMARK    3  A    between atoms: N6_18  and  C4_20 
REMARK    4  A    between atoms: C4_20  and  C5_21 
REMARK    5  A    between atoms: C4_20  and  C10_43 
REMARK    6  A    between atoms: C6_24  and  C7_25 
REMARK    7  A    between atoms: C8_30  and  S1_31 
REMARK    8  A    between atoms: S1_31  and  N10_32 
REMARK    9  A    between atoms: C9_38  and  O3_39 
REMARK   10  A    between atoms: C10_43  and  N12_44 
REMARK   11  A    between atoms: C10_43  and  O4_48 
ROOT
HETATM    1  C4  UNL     1     -38.868  -1.757  48.672  1.00  0.00     0.223 C 
ENDROOT
BRANCH   1   2
HETATM    2  N6  UNL     1     -39.707  -0.771  49.263  1.00  0.00    -0.208 N 
ATOM      3  H6  UNL     1     -40.568  -0.523  48.774  1.00  0.00     0.178 HD
BRANCH   2   4
HETATM    4  C3  UNL     1     -39.450  -0.168  50.382  1.00  0.00     0.708 A 
HETATM    5  N5  UNL     1     -38.586  -0.591  51.321  1.00  0.00    -0.117 N 
HETATM    6  N4  UNL     1     -38.580   0.281  52.338  1.00  0.00    -0.117 N 
ATOM      7  H5  UNL     1     -38.026  -1.441  51.268  1.00  0.00     0.206 HD
HETATM    8  C2  UNL     1     -39.442   1.276  52.060  1.00  0.00     0.710 A 
ATOM      9  H4  UNL     1     -38.015   0.204  53.184  1.00  0.00     0.206 HD
HETATM   10  N13 UNL     1     -39.963   0.980  50.858  1.00  0.00    -0.020 N 
ATOM     11  H13 UNL     1     -40.656   1.551  50.372  1.00  0.00     0.203 HD
BRANCH   8  12
HETATM   12  N3  UNL     1     -39.645   2.262  52.861  1.00  0.00    -0.172 N 
HETATM   13  C1  UNL     1     -38.871   2.516  54.044  1.00  0.00     0.494 C 
HETATM   14  N1  UNL     1     -39.753   2.243  55.188  1.00  0.00    -0.032 N 
HETATM   15  N2  UNL     1     -38.323   3.839  54.099  1.00  0.00    -0.032 N 
ATOM     16  H13 UNL     1     -39.275   2.410  56.074  1.00  0.00     0.278 HD
ATOM     17  H12 UNL     1     -40.488   2.946  55.268  1.00  0.00     0.278 HD
ATOM     18  H11 UNL     1     -40.144   1.301  55.150  1.00  0.00     0.278 HD
ATOM     19  H23 UNL     1     -39.058   4.543  54.179  1.00  0.00     0.278 HD
ATOM     20  H22 UNL     1     -37.845   4.007  54.985  1.00  0.00     0.278 HD
ATOM     21  H21 UNL     1     -37.711   4.030  53.306  1.00  0.00     0.278 HD
ATOM     22  H3  UNL     1     -40.406   2.906  52.641  1.00  0.00     0.181 HD
ENDBRANCH   8  12
ENDBRANCH   2   4
ENDBRANCH   1   2
BRANCH   1  23
HETATM   23  C5  UNL     1     -38.264  -1.184  47.443  1.00  0.00     0.112 A 
HETATM   24  N7  UNL     1     -38.864  -0.635  46.364  1.00  0.00    -0.338 N 
HETATM   25  C6  UNL     1     -37.964  -0.241  45.478  1.00  0.00     0.120 A 
ATOM     26  H7  UNL     1     -39.874  -0.537  46.249  1.00  0.00     0.167 HD
HETATM   27  C9  UNL     1     -36.732  -0.540  45.988  1.00  0.00     0.171 A 
HETATM   28  N11 UNL     1     -36.946  -1.122  47.205  1.00  0.00    -0.323 N 
ATOM     29  H11 UNL     1     -36.216  -1.457  47.835  1.00  0.00     0.169 HD
BRANCH  25  30
HETATM   30  C7  UNL     1     -38.183   0.403  44.171  1.00  0.00     0.123 A 
HETATM   31  N8  UNL     1     -37.468   1.368  43.607  1.00  0.00    -0.290 N 
HETATM   32  N9  UNL     1     -37.794   1.812  42.474  1.00  0.00    -0.282 N 
ATOM     33  H8  UNL     1     -36.655   1.750  44.091  1.00  0.00     0.187 HD
HETATM   34  C8  UNL     1     -38.852   1.315  41.841  1.00  0.00     0.207 A 
ATOM     35  H9  UNL     1     -37.244   2.553  42.041  1.00  0.00     0.188 HD
HETATM   36  S2  UNL     1     -39.381   0.140  42.985  1.00  0.00    -0.036 SA
BRANCH  34  37
HETATM   37  S1  UNL     1     -39.511   1.755  40.270  1.00  0.00     0.280 S 
HETATM   38  O1  UNL     1     -39.884   0.467  39.556  1.00  0.00    -0.199 OA
HETATM   39  O2  UNL     1     -40.770   2.529  40.515  1.00  0.00    -0.199 OA
BRANCH  37  40
HETATM   40  N10 UNL     1     -38.364   2.652  39.382  1.00  0.00    -0.323 N 
ATOM     41 2H10 UNL     1     -38.408   3.662  39.248  1.00  0.00     0.169 HD
ATOM     42 1H10 UNL     1     -37.643   2.032  39.013  1.00  0.00     0.169 HD
ENDBRANCH  37  40
ENDBRANCH  34  37
ENDBRANCH  25  30
BRANCH  27  43
HETATM   43  O3  UNL     1     -35.509  -0.294  45.379  1.00  0.00    -0.344 OA
ATOM     44  H3  UNL     1     -35.256  -0.551  44.500  1.00  0.00     0.219 HD
ENDBRANCH  27  43
ENDBRANCH   1  23
BRANCH   1  45
HETATM   45  C10 UNL     1     -39.592  -3.019  48.267  1.00  0.00     0.347 C 
BRANCH  45  46
HETATM   46  N12 UNL     1     -41.020  -2.680  48.228  1.00  0.00    -0.051 N 
ATOM     47 3H12 UNL     1     -41.622  -3.420  48.591  1.00  0.00     0.277 HD
ATOM     48 2H12 UNL     1     -41.284  -1.963  48.903  1.00  0.00     0.277 HD
ATOM     49 1H12 UNL     1     -41.229  -2.426  47.263  1.00  0.00     0.277 HD
ENDBRANCH  45  46
BRANCH  45  50
HETATM   50  O4  UNL     1     -39.245  -3.483  47.024  1.00  0.00    -0.368 OA
ATOM     51  H4  UNL     1     -39.965  -3.879  46.547  1.00  0.00     0.212 HD
ENDBRANCH  45  50
ENDBRANCH   1  45
TORSDOF 11
ENDMDL
MODEL 2
REMARK VINA RESULT: -6.858897349      4.118      5.249
REMARK  11 active torsions:
REMARK  status: ('A' for Active; 'I' for Inactive)
REMARK       I    between atoms: N1_1  and  C1_5 
REMARK       I    between atoms: C1_5  and  N2_6 
REMARK       I    between atoms: C1_5  and  N3_10 
REMARK    1  A    between atoms: N3_10  and  C2_12 
REMARK    2  A    between atoms: C3_17  and  N6_18 
REMARK    3  A    between atoms: N6_18  and  C4_20 
REMARK    4  A    between atoms: C4_20  and  C5_21 
REMARK    5  A    between atoms: C4_20  and  C10_43 
REMARK    6  A    between atoms: C6_24  and  C7_25 
REMARK    7  A    between atoms: C8_30  and  S1_31 
REMARK    8  A    between atoms: S1_31  and  N10_32 
REMARK    9  A    between atoms: C9_38  and  O3_39 
REMARK   10  A    between atoms: C10_43  and  N12_44 
REMARK   11  A    between atoms: C10_43  and  O4_48 
ROOT
HETATM    1  C4  UNL     1     -34.691  -1.042  46.888  1.00  0.00     0.223 C 
ENDROOT
BRANCH   1   2
HETATM    2  N6  UNL     1     -34.828  -0.675  48.256  1.00  0.00    -0.208 N 
ATOM      3  H6  UNL     1     -35.723  -0.857  48.711  1.00  0.00     0.178 HD
BRANCH   2   4
HETATM    4  C3  UNL     1     -33.891  -0.124  48.963  1.00  0.00     0.708 A 
HETATM    5  N5  UNL     1     -33.964   0.169  50.273  1.00  0.00    -0.117 N 
HETATM    6  N4  UNL     1     -32.812   0.730  50.664  1.00  0.00    -0.117 N 
ATOM      7  H5  UNL     1     -34.769  -0.007  50.874  1.00  0.00     0.206 HD
HETATM    8  C2  UNL     1     -31.985   0.802  49.605  1.00  0.00     0.710 A 
ATOM      9  H4  UNL     1     -32.597   1.049  51.609  1.00  0.00     0.206 HD
HETATM   10  N13 UNL     1     -32.666   0.275  48.575  1.00  0.00    -0.020 N 
ATOM     11  H13 UNL     1     -32.303   0.188  47.625  1.00  0.00     0.203 HD
BRANCH   8  12
HETATM   12  N3  UNL     1     -30.800   1.298  49.682  1.00  0.00    -0.172 N 
HETATM   13  C1  UNL     1     -30.209   1.797  50.892  1.00  0.00     0.494 C 
HETATM   14  N1  UNL     1     -30.114   3.256  50.742  1.00  0.00    -0.032 N 
HETATM   15  N2  UNL     1     -28.938   1.209  51.195  1.00  0.00    -0.032 N 
ATOM     16  H13 UNL     1     -29.691   3.687  51.565  1.00  0.00     0.278 HD
ATOM     17  H12 UNL     1     -29.410   3.513  50.049  1.00  0.00     0.278 HD
ATOM     18  H11 UNL     1     -31.019   3.675  50.526  1.00  0.00     0.278 HD
ATOM     19  H23 UNL     1     -28.234   1.466  50.502  1.00  0.00     0.278 HD
ATOM     20  H22 UNL     1     -28.515   1.640  52.018  1.00  0.00     0.278 HD
ATOM     21  H21 UNL     1     -29.003   0.196  51.300  1.00  0.00     0.278 HD
ATOM     22  H3  UNL     1     -30.245   1.340  48.827  1.00  0.00     0.181 HD
ENDBRANCH   8  12
ENDBRANCH   2   4
ENDBRANCH   1   2
BRANCH   1  23
HETATM   23  C5  UNL     1     -35.989  -0.813  46.207  1.00  0.00     0.112 A 
HETATM   24  N7  UNL     1     -36.239  -0.417  44.939  1.00  0.00    -0.338 N 
HETATM   25  C6  UNL     1     -37.542  -0.331  44.724  1.00  0.00     0.120 A 
ATOM     26  H7  UNL     1     -35.521  -0.212  44.243  1.00  0.00     0.167 HD
HETATM   27  C9  UNL     1     -38.170  -0.682  45.885  1.00  0.00     0.171 A 
HETATM   28  N11 UNL     1     -37.187  -0.975  46.787  1.00  0.00    -0.323 N 
ATOM     29  H11 UNL     1     -37.341  -1.272  47.751  1.00  0.00     0.169 HD
BRANCH  25  30
HETATM   30  C7  UNL     1     -38.244   0.061  43.490  1.00  0.00     0.123 A 
HETATM   31  N8  UNL     1     -39.292  -0.526  42.927  1.00  0.00    -0.290 N 
HETATM   32  N9  UNL     1     -39.777  -0.059  41.861  1.00  0.00    -0.282 N 
ATOM     33  H8  UNL     1     -39.705  -1.354  43.355  1.00  0.00     0.187 HD
HETATM   34  C8  UNL     1     -39.241   1.020  41.300  1.00  0.00     0.207 A 
ATOM     35  H9  UNL     1     -40.582  -0.511  41.428  1.00  0.00     0.188 HD
HETATM   36  S2  UNL     1     -37.964   1.350  42.408  1.00  0.00    -0.036 SA
BRANCH  34  37
HETATM   37  S1  UNL     1     -39.722   1.860  39.831  1.00  0.00     0.280 S 
HETATM   38  O1  UNL     1     -40.213   0.812  38.848  1.00  0.00    -0.199 OA
HETATM   39  O2  UNL     1     -40.880   2.744  40.181  1.00  0.00    -0.199 OA
BRANCH  37  40
HETATM   40  N10 UNL     1     -38.406   2.741  39.199  1.00  0.00    -0.323 N 
ATOM     41 2H10 UNL     1     -37.432   2.580  39.459  1.00  0.00     0.169 HD
ATOM     42 1H10 UNL     1     -38.737   3.441  38.535  1.00  0.00     0.169 HD
ENDBRANCH  37  40
ENDBRANCH  34  37
ENDBRANCH  25  30
BRANCH  27  43
HETATM   43  O3  UNL     1     -39.542  -0.727  46.096  1.00  0.00    -0.344 OA
ATOM     44  H3  UNL     1     -40.014  -1.390  46.586  1.00  0.00     0.219 HD
ENDBRANCH  27  43
ENDBRANCH   1  23
BRANCH   1  45
HETATM   45  C10 UNL     1     -34.325  -2.492  46.674  1.00  0.00     0.347 C 
BRANCH  45  46
HETATM   46  N12 UNL     1     -34.713  -3.200  47.900  1.00  0.00    -0.051 N 
ATOM     47 3H12 UNL     1     -35.672  -3.009  48.192  1.00  0.00     0.277 HD
ATOM     48 2H12 UNL     1     -34.821  -4.206  47.770  1.00  0.00     0.277 HD
ATOM     49 1H12 UNL     1     -34.019  -2.955  48.606  1.00  0.00     0.277 HD
ENDBRANCH  45  46
BRANCH  45  50
HETATM   50  O4  UNL     1     -34.986  -3.083  45.629  1.00  0.00    -0.368 OA
ATOM     51  H4  UNL     1     -34.445  -3.671  45.115  1.00  0.00     0.212 HD
ENDBRANCH  45  50
ENDBRANCH   1  45
TORSDOF 11
ENDMDL
MODEL 3
REMARK VINA RESULT: -6.826068248      0.977      1.147
REMARK  11 active torsions:
REMARK  status: ('A' for Active; 'I' for Inactive)
REMARK       I    between atoms: N1_1  and  C1_5 
REMARK       I    between atoms: C1_5  and  N2_6 
REMARK       I    between atoms: C1_5  and  N3_10 
REMARK    1  A    between atoms: N3_10  and  C2_12 
REMARK    2  A    between atoms: C3_17  and  N6_18 
REMARK    3  A    between atoms: N6_18  and  C4_20 
REMARK    4  A    between atoms: C4_20  and  C5_21 
REMARK    5  A    between atoms: C4_20  and  C10_43 
REMARK    6  A    between atoms: C6_24  and  C7_25 
REMARK    7  A    between atoms: C8_30  and  S1_31 
REMARK    8  A    between atoms: S1_31  and  N10_32 
REMARK    9  A    between atoms: C9_38  and  O3_39 
REMARK   10  A    between atoms: C10_43  and  N12_44 
REMARK   11  A    between atoms: C10_43  and  O4_48 
ROOT
HETATM    1  C4  UNL     1     -38.499  -1.771  48.916  1.00  0.00     0.223 C 
ENDROOT
BRANCH   1   2
HETATM    2  N6  UNL     1     -39.457  -0.936  49.557  1.00  0.00    -0.208 N 
ATOM      3  H6  UNL     1     -40.381  -0.855  49.130  1.00  0.00     0.178 HD
BRANCH   2   4
HETATM    4  C3  UNL     1     -39.234  -0.271  50.647  1.00  0.00     0.708 A 
HETATM    5  N5  UNL     1     -38.346  -0.603  51.602  1.00  0.00    -0.117 N 
HETATM    6  N4  UNL     1     -38.388   0.312  52.579  1.00  0.00    -0.117 N 
ATOM      7  H5  UNL     1     -37.739  -1.422  51.584  1.00  0.00     0.206 HD
HETATM    8  C2  UNL     1     -39.304   1.243  52.261  1.00  0.00     0.710 A 
ATOM      9  H4  UNL     1     -37.818   0.303  53.426  1.00  0.00     0.206 HD
HETATM   10  N13 UNL     1     -39.810   0.867  51.075  1.00  0.00    -0.020 N 
ATOM     11  H13 UNL     1     -40.533   1.375  50.567  1.00  0.00     0.203 HD
BRANCH   8  12
HETATM   12  N3  UNL     1     -39.562   2.251  53.019  1.00  0.00    -0.172 N 
HETATM   13  C1  UNL     1     -38.796   2.606  54.181  1.00  0.00     0.494 C 
HETATM   14  N1  UNL     1     -39.651   2.331  55.346  1.00  0.00    -0.032 N 
HETATM   15  N2  UNL     1     -38.331   3.961  54.171  1.00  0.00    -0.032 N 
ATOM     16  H13 UNL     1     -39.178   2.568  56.218  1.00  0.00     0.278 HD
ATOM     17  H12 UNL     1     -40.427   2.991  55.401  1.00  0.00     0.278 HD
ATOM     18  H11 UNL     1     -39.983   1.366  55.353  1.00  0.00     0.278 HD
ATOM     19  H23 UNL     1     -39.106   4.621  54.227  1.00  0.00     0.278 HD
ATOM     20  H22 UNL     1     -37.857   4.198  55.044  1.00  0.00     0.278 HD
ATOM     21  H21 UNL     1     -37.738   4.152  53.364  1.00  0.00     0.278 HD
ATOM     22  H3  UNL     1     -40.362   2.836  52.778  1.00  0.00     0.181 HD
ENDBRANCH   8  12
ENDBRANCH   2   4
ENDBRANCH   1   2
BRANCH   1  23
HETATM   23  C5  UNL     1     -38.146  -1.163  47.609  1.00  0.00     0.112 A 
HETATM   24  N7  UNL     1     -38.952  -0.669  46.642  1.00  0.00    -0.338 N 
HETATM   25  C6  UNL     1     -38.238  -0.214  45.625  1.00  0.00     0.120 A 
ATOM     26  H7  UNL     1     -39.971  -0.650  46.691  1.00  0.00     0.167 HD
HETATM   27  C9  UNL     1     -36.921  -0.414  45.931  1.00  0.00     0.171 A 
HETATM   28  N11 UNL     1     -36.891  -1.002  47.163  1.00  0.00    -0.323 N 
ATOM     29  H11 UNL     1     -36.047  -1.275  47.666  1.00  0.00     0.169 HD
BRANCH  25  30
HETATM   30  C7  UNL     1     -38.712   0.401  44.374  1.00  0.00     0.123 A 
HETATM   31  N8  UNL     1     -38.047   1.212  43.561  1.00  0.00    -0.290 N 
HETATM   32  N9  UNL     1     -38.605   1.655  42.521  1.00  0.00    -0.282 N 
ATOM     33  H8  UNL     1     -37.087   1.477  43.778  1.00  0.00     0.187 HD
HETATM   34  C8  UNL     1     -39.856   1.310  42.236  1.00  0.00     0.207 A 
ATOM     35  H9  UNL     1     -38.094   2.279  41.896  1.00  0.00     0.188 HD
HETATM   36  S2  UNL     1     -40.214   0.286  43.574  1.00  0.00    -0.036 SA
BRANCH  34  37
HETATM   37  S1  UNL     1     -40.850   1.785  40.864  1.00  0.00     0.280 S 
HETATM   38  O1  UNL     1     -41.930   2.717  41.385  1.00  0.00    -0.199 OA
HETATM   39  O2  UNL     1     -39.978   2.565  39.929  1.00  0.00    -0.199 OA
BRANCH  37  40
HETATM   40  N10 UNL     1     -41.523   0.405  40.120  1.00  0.00    -0.323 N 
ATOM     41 2H10 UNL     1     -41.417  -0.545  40.476  1.00  0.00     0.169 HD
ATOM     42 1H10 UNL     1     -42.037   0.674  39.281  1.00  0.00     0.169 HD
ENDBRANCH  37  40
ENDBRANCH  34  37
ENDBRANCH  25  30
BRANCH  27  43
HETATM   43  O3  UNL     1     -35.833  -0.079  45.135  1.00  0.00    -0.344 OA
ATOM     44  H3  UNL     1     -35.598   0.793  44.841  1.00  0.00     0.219 HD
ENDBRANCH  27  43
ENDBRANCH   1  23
BRANCH   1  45
HETATM   45  C10 UNL     1     -38.992  -3.171  48.638  1.00  0.00     0.347 C 
BRANCH  45  46
HETATM   46  N12 UNL     1     -40.455  -3.125  48.759  1.00  0.00    -0.051 N 
ATOM     47 3H12 UNL     1     -40.792  -2.329  49.301  1.00  0.00     0.277 HD
ATOM     48 2H12 UNL     1     -40.927  -2.891  47.886  1.00  0.00     0.277 HD
ATOM     49 1H12 UNL     1     -40.739  -4.026  49.145  1.00  0.00     0.277 HD
ENDBRANCH  45  46
BRANCH  45  50
HETATM   50  O4  UNL     1     -38.698  -3.623  47.377  1.00  0.00    -0.368 OA
ATOM     51  H4  UNL     1     -38.848  -4.553  47.257  1.00  0.00     0.212 HD
ENDBRANCH  45  50
ENDBRANCH   1  45
TORSDOF 11
ENDMDL
MODEL 4
REMARK VINA RESULT: -6.796487955      5.139      6.353
REMARK  11 active torsions:
REMARK  status: ('A' for Active; 'I' for Inactive)
REMARK       I    between atoms: N1_1  and  C1_5 
REMARK       I    between atoms: C1_5  and  N2_6 
REMARK       I    between atoms: C1_5  and  N3_10 
REMARK    1  A    between atoms: N3_10  and  C2_12 
REMARK    2  A    between atoms: C3_17  and  N6_18 
REMARK    3  A    between atoms: N6_18  and  C4_20 
REMARK    4  A    between atoms: C4_20  and  C5_21 
REMARK    5  A    between atoms: C4_20  and  C10_43 
REMARK    6  A    between atoms: C6_24  and  C7_25 
REMARK    7  A    between atoms: C8_30  and  S1_31 
REMARK    8  A    between atoms: S1_31  and  N10_32 
REMARK    9  A    between atoms: C9_38  and  O3_39 
REMARK   10  A    between atoms: C10_43  and  N12_44 
REMARK   11  A    between atoms: C10_43  and  O4_48 
ROOT
HETATM    1  C4  UNL     1     -34.017  -1.214  49.562  1.00  0.00     0.223 C 
ENDROOT
BRANCH   1   2
HETATM    2  N6  UNL     1     -33.665   0.149  49.776  1.00  0.00    -0.208 N 
ATOM      3  H6  UNL     1     -34.409   0.846  49.735  1.00  0.00     0.178 HD
BRANCH   2   4
HETATM    4  C3  UNL     1     -32.460   0.563  50.019  1.00  0.00     0.708 A 
HETATM    5  N5  UNL     1     -32.008   1.815  49.834  1.00  0.00    -0.117 N 
HETATM    6  N4  UNL     1     -30.717   1.874  50.191  1.00  0.00    -0.117 N 
ATOM      7  H5  UNL     1     -32.559   2.596  49.480  1.00  0.00     0.206 HD
HETATM    8  C2  UNL     1     -30.328   0.657  50.608  1.00  0.00     0.710 A 
ATOM      9  H4  UNL     1     -30.127   2.706  50.151  1.00  0.00     0.206 HD
HETATM   10  N13 UNL     1     -31.410  -0.131  50.495  1.00  0.00    -0.020 N 
ATOM     11  H13 UNL     1     -31.433  -1.122  50.737  1.00  0.00     0.203 HD
BRANCH   8  12
HETATM   12  N3  UNL     1     -29.132   0.412  51.015  1.00  0.00    -0.172 N 
HETATM   13  C1  UNL     1     -28.445  -0.832  50.804  1.00  0.00     0.494 C 
HETATM   14  N1  UNL     1     -28.335  -1.478  52.121  1.00  0.00    -0.032 N 
HETATM   15  N2  UNL     1     -27.166  -0.683  50.176  1.00  0.00    -0.032 N 
ATOM     16  H13 UNL     1     -27.845  -2.371  52.056  1.00  0.00     0.278 HD
ATOM     17  H12 UNL     1     -27.679  -0.981  52.725  1.00  0.00     0.278 HD
ATOM     18  H11 UNL     1     -29.245  -1.585  52.568  1.00  0.00     0.278 HD
ATOM     19  H23 UNL     1     -26.510  -0.186  50.780  1.00  0.00     0.278 HD
ATOM     20  H22 UNL     1     -26.676  -1.576  50.111  1.00  0.00     0.278 HD
ATOM     21  H21 UNL     1     -27.242  -0.235  49.263  1.00  0.00     0.278 HD
ATOM     22  H3  UNL     1     -28.640   1.149  51.520  1.00  0.00     0.181 HD
ENDBRANCH   8  12
ENDBRANCH   2   4
ENDBRANCH   1   2
BRANCH   1  23
HETATM   23  C5  UNL     1     -34.802  -1.304  48.306  1.00  0.00     0.112 A 
HETATM   24  N7  UNL     1     -35.754  -0.475  47.823  1.00  0.00    -0.338 N 
HETATM   25  C6  UNL     1     -36.212  -0.914  46.662  1.00  0.00     0.120 A 
ATOM     26  H7  UNL     1     -36.076   0.373  48.291  1.00  0.00     0.167 HD
HETATM   27  C9  UNL     1     -35.541  -2.068  46.370  1.00  0.00     0.171 A 
HETATM   28  N11 UNL     1     -34.674  -2.287  47.402  1.00  0.00    -0.323 N 
ATOM     29  H11 UNL     1     -34.030  -3.075  47.475  1.00  0.00     0.169 HD
BRANCH  25  30
HETATM   30  C7  UNL     1     -37.247  -0.319  45.799  1.00  0.00     0.123 A 
HETATM   31  N8  UNL     1     -38.563  -0.464  45.887  1.00  0.00    -0.290 N 
HETATM   32  N9  UNL     1     -39.316   0.120  45.061  1.00  0.00    -0.282 N 
ATOM     33  H8  UNL     1     -38.966  -1.046  46.621  1.00  0.00     0.187 HD
HETATM   34  C8  UNL     1     -38.794   0.879  44.103  1.00  0.00     0.207 A 
ATOM     35  H9  UNL     1     -40.327   0.009  45.128  1.00  0.00     0.188 HD
HETATM   36  S2  UNL     1     -37.115   0.715  44.449  1.00  0.00    -0.036 SA
BRANCH  34  37
HETATM   37  S1  UNL     1     -39.615   1.790  42.841  1.00  0.00     0.280 S 
HETATM   38  O1  UNL     1     -40.959   1.125  42.601  1.00  0.00    -0.199 OA
HETATM   39  O2  UNL     1     -39.870   3.166  43.377  1.00  0.00    -0.199 OA
BRANCH  37  40
HETATM   40  N10 UNL     1     -38.669   1.814  41.423  1.00  0.00    -0.323 N 
ATOM     41 2H10 UNL     1     -38.150   1.010  41.068  1.00  0.00     0.169 HD
ATOM     42 1H10 UNL     1     -38.702   2.739  40.994  1.00  0.00     0.169 HD
ENDBRANCH  37  40
ENDBRANCH  34  37
ENDBRANCH  25  30
BRANCH  27  43
HETATM   43  O3  UNL     1     -35.715  -2.856  45.239  1.00  0.00    -0.344 OA
ATOM     44  H3  UNL     1     -35.601  -3.798  45.187  1.00  0.00     0.219 HD
ENDBRANCH  27  43
ENDBRANCH   1  23
BRANCH   1  45
HETATM   45  C10 UNL     1     -34.864  -1.809  50.661  1.00  0.00     0.347 C 
BRANCH  45  46
HETATM   46  N12 UNL     1     -35.238  -0.696  51.543  1.00  0.00    -0.051 N 
ATOM     47 3H12 UNL     1     -34.440  -0.142  51.856  1.00  0.00     0.277 HD
ATOM     48 2H12 UNL     1     -35.731   0.055  51.061  1.00  0.00     0.277 HD
ATOM     49 1H12 UNL     1     -35.771  -1.105  52.310  1.00  0.00     0.277 HD
ENDBRANCH  45  46
BRANCH  45  50
HETATM   50  O4  UNL     1     -36.025  -2.388  50.215  1.00  0.00    -0.368 OA
ATOM     51  H4  UNL     1     -36.747  -2.324  50.829  1.00  0.00     0.212 HD
ENDBRANCH  45  50
ENDBRANCH   1  45
TORSDOF 11
ENDMDL
MODEL 5
REMARK VINA RESULT: -6.656567405      2.213      3.485
REMARK  11 active torsions:
REMARK  status: ('A' for Active; 'I' for Inactive)
REMARK       I    between atoms: N1_1  and  C1_5 
REMARK       I    between atoms: C1_5  and  N2_6 
REMARK       I    between atoms: C1_5  and  N3_10 
REMARK    1  A    between atoms: N3_10  and  C2_12 
REMARK    2  A    between atoms: C3_17  and  N6_18 
REMARK    3  A    between atoms: N6_18  and  C4_20 
REMARK    4  A    between atoms: C4_20  and  C5_21 
REMARK    5  A    between atoms: C4_20  and  C10_43 
REMARK    6  A    between atoms: C6_24  and  C7_25 
REMARK    7  A    between atoms: C8_30  and  S1_31 
REMARK    8  A    between atoms: S1_31  and  N10_32 
REMARK    9  A    between atoms: C9_38  and  O3_39 
REMARK   10  A    between atoms: C10_43  and  N12_44 
REMARK   11  A    between atoms: C10_43  and  O4_48 
ROOT
HETATM    1  C4  UNL     1     -40.267  -1.748  51.937  1.00  0.00     0.223 C 
ENDROOT
BRANCH   1   2
HETATM    2  N6  UNL     1     -40.654  -0.403  52.197  1.00  0.00    -0.208 N 
ATOM      3  H6  UNL     1     -41.560  -0.091  51.847  1.00  0.00     0.178 HD
BRANCH   2   4
HETATM    4  C3  UNL     1     -39.931   0.451  52.851  1.00  0.00     0.708 A 
HETATM    5  N5  UNL     1     -39.151   0.172  53.910  1.00  0.00    -0.117 N 
HETATM    6  N4  UNL     1     -38.554   1.297  54.327  1.00  0.00    -0.117 N 
ATOM      7  H5  UNL     1     -39.032  -0.750  54.330  1.00  0.00     0.206 HD
HETATM    8  C2  UNL     1     -38.947   2.313  53.537  1.00  0.00     0.710 A 
ATOM      9  H4  UNL     1     -37.909   1.372  55.114  1.00  0.00     0.206 HD
HETATM   10  N13 UNL     1     -39.789   1.773  52.641  1.00  0.00    -0.020 N 
ATOM     11  H13 UNL     1     -40.259   2.294  51.900  1.00  0.00     0.203 HD
BRANCH   8  12
HETATM   12  N3  UNL     1     -38.533   3.520  53.701  1.00  0.00    -0.172 N 
HETATM   13  C1  UNL     1     -37.851   3.989  54.874  1.00  0.00     0.494 C 
HETATM   14  N1  UNL     1     -38.779   4.898  55.564  1.00  0.00    -0.032 N 
HETATM   15  N2  UNL     1     -36.596   4.622  54.595  1.00  0.00    -0.032 N 
ATOM     16  H13 UNL     1     -38.361   5.284  56.410  1.00  0.00     0.278 HD
ATOM     17  H12 UNL     1     -38.908   5.764  55.040  1.00  0.00     0.278 HD
ATOM     18  H11 UNL     1     -39.673   4.448  55.762  1.00  0.00     0.278 HD
ATOM     19  H23 UNL     1     -36.724   5.489  54.072  1.00  0.00     0.278 HD
ATOM     20  H22 UNL     1     -36.177   5.008  55.442  1.00  0.00     0.278 HD
ATOM     21  H21 UNL     1     -35.951   3.992  54.118  1.00  0.00     0.278 HD
ATOM     22  H3  UNL     1     -38.700   4.188  52.948  1.00  0.00     0.181 HD
ENDBRANCH   8  12
ENDBRANCH   2   4
ENDBRANCH   1   2
BRANCH   1  23
HETATM   23  C5  UNL     1     -39.489  -1.776  50.673  1.00  0.00     0.112 A 
HETATM   24  N7  UNL     1     -39.388  -0.841  49.703  1.00  0.00    -0.338 N 
HETATM   25  C6  UNL     1     -38.587  -1.256  48.734  1.00  0.00     0.120 A 
ATOM     26  H7  UNL     1     -39.864   0.062  49.715  1.00  0.00     0.167 HD
HETATM   27  C9  UNL     1     -38.147  -2.503  49.077  1.00  0.00     0.171 A 
HETATM   28  N11 UNL     1     -38.718  -2.801  50.281  1.00  0.00    -0.323 N 
ATOM     29  H11 UNL     1     -38.581  -3.669  50.800  1.00  0.00     0.169 HD
BRANCH  25  30
HETATM   30  C7  UNL     1     -38.204  -0.555  47.497  1.00  0.00     0.123 A 
HETATM   31  N8  UNL     1     -37.404   0.495  47.369  1.00  0.00    -0.290 N 
HETATM   32  N9  UNL     1     -37.178   0.979  46.227  1.00  0.00    -0.282 N 
ATOM     33  H8  UNL     1     -36.971   0.912  48.194  1.00  0.00     0.187 HD
HETATM   34  C8  UNL     1     -37.739   0.439  45.151  1.00  0.00     0.207 A 
ATOM     35  H9  UNL     1     -36.563   1.786  46.129  1.00  0.00     0.188 HD
HETATM   36  S2  UNL     1     -38.640  -0.841  45.872  1.00  0.00    -0.036 SA
BRANCH  34  37
HETATM   37  S1  UNL     1     -37.589   0.917  43.464  1.00  0.00     0.280 S 
HETATM   38  O1  UNL     1     -36.183   1.457  43.268  1.00  0.00    -0.199 OA
HETATM   39  O2  UNL     1     -37.728  -0.322  42.634  1.00  0.00    -0.199 OA
BRANCH  37  40
HETATM   40  N10 UNL     1     -38.767   2.089  43.078  1.00  0.00    -0.323 N 
ATOM     41 2H10 UNL     1     -38.923   2.455  42.139  1.00  0.00     0.169 HD
ATOM     42 1H10 UNL     1     -39.280   2.362  43.917  1.00  0.00     0.169 HD
ENDBRANCH  37  40
ENDBRANCH  34  37
ENDBRANCH  25  30
BRANCH  27  43
HETATM   43  O3  UNL     1     -37.285  -3.302  48.337  1.00  0.00    -0.344 OA
ATOM     44  H3  UNL     1     -36.335  -3.295  48.379  1.00  0.00     0.219 HD
ENDBRANCH  27  43
ENDBRANCH   1  23
BRANCH   1  45
HETATM   45  C10 UNL     1     -41.427  -2.700  51.767  1.00  0.00     0.347 C 
BRANCH  45  46
HETATM   46  N12 UNL     1     -42.623  -1.977  52.217  1.00  0.00    -0.051 N 
ATOM     47 3H12 UNL     1     -42.956  -2.276  53.133  1.00  0.00     0.277 HD
ATOM     48 2H12 UNL     1     -42.440  -1.004  52.461  1.00  0.00     0.277 HD
ATOM     49 1H12 UNL     1     -43.318  -2.086  51.478  1.00  0.00     0.277 HD
ENDBRANCH  45  46
BRANCH  45  50
HETATM   50  O4  UNL     1     -41.642  -3.087  50.470  1.00  0.00    -0.368 OA
ATOM     51  H4  UNL     1     -42.421  -2.708  50.080  1.00  0.00     0.212 HD
ENDBRANCH  45  50
ENDBRANCH   1  45
TORSDOF 11
ENDMDL
