MODEL 1
REMARK VINA RESULT: -3.899727360      0.000      0.000
REMARK  0 active torsions:
REMARK  status: ('A' for Active; 'I' for Inactive)
ROOT
HETATM    1  C1  UNL     1      84.045 -56.381 -23.668  1.00  0.00     0.138 C 
HETATM    2  N1  UNL     1      83.800 -55.084 -24.249  1.00  0.00    -0.203 NA
HETATM    3  S1  UNL     1      84.772 -55.015 -25.743  1.00  0.00    -0.072 SA
HETATM    4  C2  UNL     1      85.661 -53.415 -25.683  1.00  0.00     0.093 C 
HETATM    5  C3  UNL     1      84.579 -52.374 -25.436  1.00  0.00     0.023 C 
HETATM    6  C4  UNL     1      84.458 -52.213 -23.940  1.00  0.00     0.093 C 
HETATM    7  S2  UNL     1      84.226 -53.796 -23.146  1.00  0.00    -0.072 SA
ENDROOT
TORSDOF 0
ENDMDL
MODEL 2
REMARK VINA RESULT: -3.421805997      2.765      3.667
REMARK  0 active torsions:
REMARK  status: ('A' for Active; 'I' for Inactive)
ROOT
HETATM    1  C1  UNL     1      84.400 -55.163 -25.927  1.00  0.00     0.138 C 
HETATM    2  N1  UNL     1      85.738 -54.625 -25.959  1.00  0.00    -0.203 NA
HETATM    3  S1  UNL     1      85.565 -52.852 -25.851  1.00  0.00    -0.072 SA
HETATM    4  C2  UNL     1      86.620 -52.170 -27.183  1.00  0.00     0.093 C 
HETATM    5  C3  UNL     1      87.984 -52.811 -26.971  1.00  0.00     0.023 C 
HETATM    6  C4  UNL     1      88.003 -54.082 -27.787  1.00  0.00     0.093 C 
HETATM    7  S2  UNL     1      86.586 -55.100 -27.412  1.00  0.00    -0.072 SA
ENDROOT
TORSDOF 0
ENDMDL
MODEL 3
REMARK VINA RESULT: -3.324641977      1.471      2.397
REMARK  0 active torsions:
REMARK  status: ('A' for Active; 'I' for Inactive)
ROOT
HETATM    1  C1  UNL     1      83.244 -54.263 -22.601  1.00  0.00     0.138 C 
HETATM    2  N1  UNL     1      84.431 -54.142 -23.411  1.00  0.00    -0.203 NA
HETATM    3  S1  UNL     1      84.579 -52.413 -23.825  1.00  0.00    -0.072 SA
HETATM    4  C2  UNL     1      84.876 -52.360 -25.631  1.00  0.00     0.093 C 
HETATM    5  C3  UNL     1      86.052 -53.297 -25.864  1.00  0.00     0.023 C 
HETATM    6  C4  UNL     1      85.475 -54.667 -26.132  1.00  0.00     0.093 C 
HETATM    7  S2  UNL     1      84.333 -55.140 -24.843  1.00  0.00    -0.072 SA
ENDROOT
TORSDOF 0
ENDMDL
MODEL 4
REMARK VINA RESULT: -3.282190736      1.811      2.458
REMARK  0 active torsions:
REMARK  status: ('A' for Active; 'I' for Inactive)
ROOT
HETATM    1  C1  UNL     1      84.443 -55.380 -25.864  1.00  0.00     0.138 C 
HETATM    2  N1  UNL     1      84.888 -54.394 -24.910  1.00  0.00    -0.203 NA
HETATM    3  S1  UNL     1      84.211 -54.884 -23.334  1.00  0.00    -0.072 SA
HETATM    4  C2  UNL     1      83.452 -53.374 -22.630  1.00  0.00     0.093 C 
HETATM    5  C3  UNL     1      84.548 -52.320 -22.687  1.00  0.00     0.023 C 
HETATM    6  C4  UNL     1      84.407 -51.613 -24.014  1.00  0.00     0.093 C 
HETATM    7  S2  UNL     1      84.370 -52.786 -25.360  1.00  0.00    -0.072 SA
ENDROOT
TORSDOF 0
ENDMDL
MODEL 5
REMARK VINA RESULT: -3.262991565      1.908      3.072
REMARK  0 active torsions:
REMARK  status: ('A' for Active; 'I' for Inactive)
ROOT
HETATM    1  C1  UNL     1      86.317 -52.565 -26.668  1.00  0.00     0.138 C 
HETATM    2  N1  UNL     1      86.063 -53.517 -25.615  1.00  0.00    -0.203 NA
HETATM    3  S1  UNL     1      85.558 -55.027 -26.420  1.00  0.00    -0.072 SA
HETATM    4  C2  UNL     1      84.044 -55.571 -25.547  1.00  0.00     0.093 C 
HETATM    5  C3  UNL     1      84.424 -55.590 -24.074  1.00  0.00     0.023 C 
HETATM    6  C4  UNL     1      84.095 -54.224 -23.519  1.00  0.00     0.093 C 
HETATM    7  S2  UNL     1      84.839 -52.939 -24.509  1.00  0.00    -0.072 SA
ENDROOT
TORSDOF 0
ENDMDL
