MODEL 1
REMARK VINA RESULT: -7.146303508      0.000      0.000
REMARK  4 active torsions:
REMARK  status: ('A' for Active; 'I' for Inactive)
REMARK    1  A    between atoms: C2_2  and  C3_3 
REMARK    2  A    between atoms: C2_2  and  O1_12 
REMARK    3  A    between atoms: C4_4  and  C5_5 
REMARK    4  A    between atoms: O1_12  and  O2_13 
ROOT
HETATM    1  C5  UNL     1      86.437 -54.016 -26.253  1.00  0.00     0.086 A 
HETATM    2  C6  UNL     1      86.369 -55.155 -27.021  1.00  0.00     0.039 A 
HETATM    3  C7  UNL     1      87.274 -55.377 -28.039  1.00  0.00     0.004 A 
HETATM    4  C8  UNL     1      88.252 -54.415 -28.259  1.00  0.00     0.017 A 
HETATM    5  C9  UNL     1      88.308 -53.279 -27.482  1.00  0.00     0.089 A 
HETATM    6  N1  UNL     1      87.404 -53.116 -26.507  1.00  0.00    -0.359 N 
ATOM      7  H1  UNL     1      87.451 -52.274 -25.934  1.00  0.00     0.166 HD
ENDROOT
BRANCH   1   8
HETATM    8  C4  UNL     1      85.524 -53.733 -25.182  1.00  0.00    -0.041 C 
HETATM    9  C3  UNL     1      84.770 -53.497 -24.269  1.00  0.00    -0.033 C 
BRANCH   9  10
HETATM   10  C2  UNL     1      83.887 -53.229 -23.169  1.00  0.00     0.150 C 
HETATM   11  C1  UNL     1      83.865 -52.085 -22.524  1.00  0.00     0.064 C 
BRANCH  10  12
HETATM   12  O1  UNL     1      83.027 -54.251 -22.795  1.00  0.00    -0.192 OA
BRANCH  12  13
HETATM   13  O2  UNL     1      82.128 -54.029 -21.825  1.00  0.00    -0.244 OA
ATOM     14  H2  UNL     1      81.202 -54.089 -22.027  1.00  0.00     0.254 HD
ENDBRANCH  12  13
ENDBRANCH  10  12
ENDBRANCH   9  10
ENDBRANCH   1   8
TORSDOF 4
ENDMDL
MODEL 2
REMARK VINA RESULT: -6.929703017      0.779      1.375
REMARK  4 active torsions:
REMARK  status: ('A' for Active; 'I' for Inactive)
REMARK    1  A    between atoms: C2_2  and  C3_3 
REMARK    2  A    between atoms: C2_2  and  O1_12 
REMARK    3  A    between atoms: C4_4  and  C5_5 
REMARK    4  A    between atoms: O1_12  and  O2_13 
ROOT
HETATM    1  C5  UNL     1      86.399 -53.917 -26.166  1.00  0.00     0.086 A 
HETATM    2  C6  UNL     1      87.395 -53.045 -26.541  1.00  0.00     0.039 A 
HETATM    3  C7  UNL     1      88.247 -53.351 -27.582  1.00  0.00     0.004 A 
HETATM    4  C8  UNL     1      88.065 -54.564 -28.235  1.00  0.00     0.017 A 
HETATM    5  C9  UNL     1      87.063 -55.427 -27.848  1.00  0.00     0.089 A 
HETATM    6  N1  UNL     1      86.265 -55.078 -26.831  1.00  0.00    -0.359 N 
ATOM      7  H1  UNL     1      85.524 -55.720 -26.549  1.00  0.00     0.166 HD
ENDROOT
BRANCH   1   8
HETATM    8  C4  UNL     1      85.484 -53.651 -25.092  1.00  0.00    -0.041 C 
HETATM    9  C3  UNL     1      84.727 -53.434 -24.176  1.00  0.00    -0.033 C 
BRANCH   9  10
HETATM   10  C2  UNL     1      83.837 -53.194 -23.075  1.00  0.00     0.150 C 
HETATM   11  C1  UNL     1      83.785 -52.053 -22.426  1.00  0.00     0.064 C 
BRANCH  10  12
HETATM   12  O1  UNL     1      83.004 -54.239 -22.706  1.00  0.00    -0.192 OA
BRANCH  12  13
HETATM   13  O2  UNL     1      82.021 -54.013 -21.822  1.00  0.00    -0.244 OA
ATOM     14  H2  UNL     1      81.323 -53.410 -22.048  1.00  0.00     0.254 HD
ENDBRANCH  12  13
ENDBRANCH  10  12
ENDBRANCH   9  10
ENDBRANCH   1   8
TORSDOF 4
ENDMDL
MODEL 3
REMARK VINA RESULT: -6.542400417      1.931      2.141
REMARK  4 active torsions:
REMARK  status: ('A' for Active; 'I' for Inactive)
REMARK    1  A    between atoms: C2_2  and  C3_3 
REMARK    2  A    between atoms: C2_2  and  O1_12 
REMARK    3  A    between atoms: C4_4  and  C5_5 
REMARK    4  A    between atoms: O1_12  and  O2_13 
ROOT
HETATM    1  C5  UNL     1      86.977 -54.054 -26.870  1.00  0.00     0.086 A 
HETATM    2  C6  UNL     1      86.710 -55.263 -27.469  1.00  0.00     0.039 A 
HETATM    3  C7  UNL     1      87.597 -55.819 -28.368  1.00  0.00     0.004 A 
HETATM    4  C8  UNL     1      88.765 -55.119 -28.644  1.00  0.00     0.017 A 
HETATM    5  C9  UNL     1      89.019 -53.909 -28.036  1.00  0.00     0.089 A 
HETATM    6  N1  UNL     1      88.123 -53.417 -27.172  1.00  0.00    -0.359 N 
ATOM      7  H1  UNL     1      88.316 -52.521 -26.724  1.00  0.00     0.166 HD
ENDROOT
BRANCH   1   8
HETATM    8  C4  UNL     1      86.091 -53.429 -25.929  1.00  0.00    -0.041 C 
HETATM    9  C3  UNL     1      85.356 -52.887 -25.139  1.00  0.00    -0.033 C 
BRANCH   9  10
HETATM   10  C2  UNL     1      84.499 -52.228 -24.194  1.00  0.00     0.150 C 
HETATM   11  C1  UNL     1      84.325 -52.649 -22.962  1.00  0.00     0.064 C 
BRANCH  10  12
HETATM   12  O1  UNL     1      83.837 -51.093 -24.637  1.00  0.00    -0.192 OA
BRANCH  12  13
HETATM   13  O2  UNL     1      83.914 -50.752 -25.932  1.00  0.00    -0.244 OA
ATOM     14  H2  UNL     1      83.270 -51.093 -26.542  1.00  0.00     0.254 HD
ENDBRANCH  12  13
ENDBRANCH  10  12
ENDBRANCH   9  10
ENDBRANCH   1   8
TORSDOF 4
ENDMDL
MODEL 4
REMARK VINA RESULT: -6.268968625      2.081      2.588
REMARK  4 active torsions:
REMARK  status: ('A' for Active; 'I' for Inactive)
REMARK    1  A    between atoms: C2_2  and  C3_3 
REMARK    2  A    between atoms: C2_2  and  O1_12 
REMARK    3  A    between atoms: C4_4  and  C5_5 
REMARK    4  A    between atoms: O1_12  and  O2_13 
ROOT
HETATM    1  C5  UNL     1      87.000 -53.985 -26.881  1.00  0.00     0.086 A 
HETATM    2  C6  UNL     1      88.194 -53.433 -27.284  1.00  0.00     0.039 A 
HETATM    3  C7  UNL     1      89.015 -54.094 -28.173  1.00  0.00     0.004 A 
HETATM    4  C8  UNL     1      88.596 -55.331 -28.647  1.00  0.00     0.017 A 
HETATM    5  C9  UNL     1      87.398 -55.872 -28.236  1.00  0.00     0.089 A 
HETATM    6  N1  UNL     1      86.641 -55.186 -27.370  1.00  0.00    -0.359 N 
ATOM      7  H1  UNL     1      85.754 -55.590 -27.070  1.00  0.00     0.166 HD
ENDROOT
BRANCH   1   8
HETATM    8  C4  UNL     1      86.107 -53.343 -25.959  1.00  0.00    -0.041 C 
HETATM    9  C3  UNL     1      85.357 -52.787 -25.192  1.00  0.00    -0.033 C 
BRANCH   9  10
HETATM   10  C2  UNL     1      84.477 -52.105 -24.286  1.00  0.00     0.150 C 
HETATM   11  C1  UNL     1      84.324 -52.454 -23.029  1.00  0.00     0.064 C 
BRANCH  10  12
HETATM   12  O1  UNL     1      83.768 -51.028 -24.796  1.00  0.00    -0.192 OA
BRANCH  12  13
HETATM   13  O2  UNL     1      83.930 -50.686 -26.083  1.00  0.00    -0.244 OA
ATOM     14  H2  UNL     1      84.156 -49.790 -26.301  1.00  0.00     0.254 HD
ENDBRANCH  12  13
ENDBRANCH  10  12
ENDBRANCH   9  10
ENDBRANCH   1   8
TORSDOF 4
ENDMDL
MODEL 5
REMARK VINA RESULT: -6.045688168      3.602      5.884
REMARK  4 active torsions:
REMARK  status: ('A' for Active; 'I' for Inactive)
REMARK    1  A    between atoms: C2_2  and  C3_3 
REMARK    2  A    between atoms: C2_2  and  O1_12 
REMARK    3  A    between atoms: C4_4  and  C5_5 
REMARK    4  A    between atoms: O1_12  and  O2_13 
ROOT
HETATM    1  C5  UNL     1      85.073 -53.048 -24.599  1.00  0.00     0.086 A 
HETATM    2  C6  UNL     1      84.660 -53.864 -23.571  1.00  0.00     0.039 A 
HETATM    3  C7  UNL     1      83.834 -53.384 -22.575  1.00  0.00     0.004 A 
HETATM    4  C8  UNL     1      83.437 -52.055 -22.645  1.00  0.00     0.017 A 
HETATM    5  C9  UNL     1      83.859 -51.249 -23.680  1.00  0.00     0.089 A 
HETATM    6  N1  UNL     1      84.659 -51.768 -24.620  1.00  0.00    -0.359 N 
ATOM      7  H1  UNL     1      84.967 -51.168 -25.385  1.00  0.00     0.166 HD
ENDROOT
BRANCH   1   8
HETATM    8  C4  UNL     1      85.931 -53.492 -25.661  1.00  0.00    -0.041 C 
HETATM    9  C3  UNL     1      86.666 -53.869 -26.542  1.00  0.00    -0.033 C 
BRANCH   9  10
HETATM   10  C2  UNL     1      87.558 -54.309 -27.577  1.00  0.00     0.150 C 
HETATM   11  C1  UNL     1      87.421 -55.452 -28.210  1.00  0.00     0.064 C 
BRANCH  10  12
HETATM   12  O1  UNL     1      88.607 -53.461 -27.899  1.00  0.00    -0.192 OA
BRANCH  12  13
HETATM   13  O2  UNL     1      88.446 -52.137 -27.759  1.00  0.00    -0.244 OA
ATOM     14  H2  UNL     1      88.944 -51.548 -28.314  1.00  0.00     0.254 HD
ENDBRANCH  12  13
ENDBRANCH  10  12
ENDBRANCH   9  10
ENDBRANCH   1   8
TORSDOF 4
ENDMDL
