MODEL 1
REMARK VINA RESULT: -4.308117539      0.000      0.000
REMARK  0 active torsions:
REMARK  status: ('A' for Active; 'I' for Inactive)
ROOT
HETATM    1  C1  UNL     1      87.761 -55.694 -28.481  1.00  0.00     0.310 C 
HETATM    2  N1  UNL     1      87.479 -54.323 -28.066  1.00  0.00     0.086 N 
HETATM    3  C2  UNL     1      88.675 -53.642 -27.677  1.00  0.00     0.274 C 
HETATM    4  C3  UNL     1      88.258 -52.747 -26.537  1.00  0.00     0.064 C 
HETATM    5  C4  UNL     1      86.760 -52.997 -26.343  1.00  0.00     0.073 C 
HETATM    6  C5  UNL     1      85.937 -52.102 -27.198  1.00  0.00     0.036 C 
HETATM    7  C6  UNL     1      84.859 -51.345 -26.459  1.00  0.00     0.024 C 
HETATM    8  C7  UNL     1      84.267 -52.378 -25.489  1.00  0.00     0.139 C 
HETATM    9  N2  UNL     1      85.319 -52.676 -24.566  1.00  0.00    -0.340 N 
ATOM     10  H2  UNL     1      85.140 -52.659 -23.562  1.00  0.00     0.179 HD
HETATM   11  N3  UNL     1      86.428 -52.949 -24.985  1.00  0.00    -0.329 N 
ATOM     12  H3  UNL     1      87.160 -53.156 -24.305  1.00  0.00     0.180 HD
HETATM   13  C8  UNL     1      86.620 -54.413 -26.901  1.00  0.00     0.304 C 
ENDROOT
TORSDOF 0
ENDMDL
MODEL 2
REMARK VINA RESULT: -4.093373812      1.350      4.008
REMARK  0 active torsions:
REMARK  status: ('A' for Active; 'I' for Inactive)
ROOT
HETATM    1  C1  UNL     1      83.731 -50.681 -26.296  1.00  0.00     0.310 C 
HETATM    2  N1  UNL     1      84.372 -51.974 -26.077  1.00  0.00     0.086 N 
HETATM    3  C2  UNL     1      84.629 -52.198 -24.688  1.00  0.00     0.274 C 
HETATM    4  C3  UNL     1      85.936 -52.950 -24.652  1.00  0.00     0.064 C 
HETATM    5  C4  UNL     1      86.359 -53.112 -26.115  1.00  0.00     0.073 C 
HETATM    6  C5  UNL     1      85.793 -54.348 -26.717  1.00  0.00     0.036 C 
HETATM    7  C6  UNL     1      86.808 -55.236 -27.397  1.00  0.00     0.024 C 
HETATM    8  C7  UNL     1      87.719 -54.258 -28.154  1.00  0.00     0.139 C 
HETATM    9  N2  UNL     1      88.391 -53.505 -27.140  1.00  0.00    -0.340 N 
ATOM     10  H2  UNL     1      89.404 -53.389 -27.174  1.00  0.00     0.179 HD
HETATM   11  N3  UNL     1      87.748 -53.004 -26.237  1.00  0.00    -0.329 N 
ATOM     12  H3  UNL     1      88.252 -52.474 -25.526  1.00  0.00     0.180 HD
HETATM   13  C8  UNL     1      85.648 -51.925 -26.763  1.00  0.00     0.304 C 
ENDROOT
TORSDOF 0
ENDMDL
MODEL 3
REMARK VINA RESULT: -4.065231699      2.141      3.491
REMARK  0 active torsions:
REMARK  status: ('A' for Active; 'I' for Inactive)
ROOT
HETATM    1  C1  UNL     1      83.760 -56.090 -24.974  1.00  0.00     0.310 C 
HETATM    2  N1  UNL     1      84.823 -55.090 -24.946  1.00  0.00     0.086 N 
HETATM    3  C2  UNL     1      84.904 -54.453 -23.669  1.00  0.00     0.274 C 
HETATM    4  C3  UNL     1      85.277 -53.024 -23.971  1.00  0.00     0.064 C 
HETATM    5  C4  UNL     1      85.389 -52.940 -25.496  1.00  0.00     0.073 C 
HETATM    6  C5  UNL     1      86.758 -53.280 -25.966  1.00  0.00     0.036 C 
HETATM    7  C6  UNL     1      87.373 -52.259 -26.894  1.00  0.00     0.024 C 
HETATM    8  C7  UNL     1      86.224 -51.858 -27.832  1.00  0.00     0.139 C 
HETATM    9  N2  UNL     1      85.273 -51.190 -26.999  1.00  0.00    -0.340 N 
ATOM     10  H2  UNL     1      84.891 -50.286 -27.278  1.00  0.00     0.179 HD
HETATM   11  N3  UNL     1      84.920 -51.705 -25.954  1.00  0.00    -0.329 N 
ATOM     12  H3  UNL     1      84.241 -51.207 -25.379  1.00  0.00     0.180 HD
HETATM   13  C8  UNL     1      84.467 -54.081 -25.924  1.00  0.00     0.304 C 
ENDROOT
TORSDOF 0
ENDMDL
MODEL 4
REMARK VINA RESULT: -4.064823111      2.469      3.223
REMARK  0 active torsions:
REMARK  status: ('A' for Active; 'I' for Inactive)
ROOT
HETATM    1  C1  UNL     1      84.306 -55.955 -25.811  1.00  0.00     0.310 C 
HETATM    2  N1  UNL     1      84.532 -54.524 -25.638  1.00  0.00     0.086 N 
HETATM    3  C2  UNL     1      85.868 -54.161 -25.997  1.00  0.00     0.274 C 
HETATM    4  C3  UNL     1      86.247 -53.068 -25.029  1.00  0.00     0.064 C 
HETATM    5  C4  UNL     1      85.023 -52.872 -24.129  1.00  0.00     0.073 C 
HETATM    6  C5  UNL     1      84.073 -51.883 -24.702  1.00  0.00     0.036 C 
HETATM    7  C6  UNL     1      83.666 -50.782 -23.751  1.00  0.00     0.024 C 
HETATM    8  C7  UNL     1      83.446 -51.500 -22.411  1.00  0.00     0.139 C 
HETATM    9  N2  UNL     1      84.737 -51.975 -22.020  1.00  0.00    -0.340 N 
ATOM     10  H2  UNL     1      85.084 -51.801 -21.076  1.00  0.00     0.179 HD
HETATM   11  N3  UNL     1      85.421 -52.588 -22.819  1.00  0.00    -0.329 N 
ATOM     12  H3  UNL     1      86.338 -52.914 -22.514  1.00  0.00     0.180 HD
HETATM   13  C8  UNL     1      84.361 -54.246 -24.226  1.00  0.00     0.304 C 
ENDROOT
TORSDOF 0
ENDMDL
MODEL 5
REMARK VINA RESULT: -4.003535683      1.733      2.877
REMARK  0 active torsions:
REMARK  status: ('A' for Active; 'I' for Inactive)
ROOT
HETATM    1  C1  UNL     1      88.181 -52.374 -27.262  1.00  0.00     0.310 C 
HETATM    2  N1  UNL     1      86.801 -52.753 -26.977  1.00  0.00     0.086 N 
HETATM    3  C2  UNL     1      85.898 -51.682 -27.267  1.00  0.00     0.274 C 
HETATM    4  C3  UNL     1      84.826 -51.782 -26.211  1.00  0.00     0.064 C 
HETATM    5  C4  UNL     1      85.219 -52.976 -25.337  1.00  0.00     0.073 C 
HETATM    6  C5  UNL     1      84.661 -54.249 -25.863  1.00  0.00     0.036 C 
HETATM    7  C6  UNL     1      83.901 -55.068 -24.847  1.00  0.00     0.024 C 
HETATM    8  C7  UNL     1      84.750 -54.972 -23.571  1.00  0.00     0.139 C 
HETATM    9  N2  UNL     1      84.687 -53.599 -23.177  1.00  0.00    -0.340 N 
ATOM     10  H2  UNL     1      84.462 -53.351 -22.213  1.00  0.00     0.179 HD
HETATM   11  N3  UNL     1      84.903 -52.726 -23.997  1.00  0.00    -0.329 N 
ATOM     12  H3  UNL     1      84.849 -51.755 -23.690  1.00  0.00     0.180 HD
HETATM   13  C8  UNL     1      86.730 -53.019 -25.554  1.00  0.00     0.304 C 
ENDROOT
TORSDOF 0
ENDMDL
