MODEL 1
REMARK VINA RESULT: -2.729813541      0.000      0.000
REMARK  0 active torsions:
REMARK  status: ('A' for Active; 'I' for Inactive)
ROOT
HETATM    1  C1  UNL     1      89.892 -49.763 -28.912  1.00  0.00     0.056 C 
HETATM    2  C2  UNL     1      90.946 -50.096 -29.900  1.00  0.00     0.276 C 
HETATM    3  N1  UNL     1      92.089 -49.268 -29.916  1.00  0.00     0.106 N 
HETATM    4  C3  UNL     1      91.843 -48.038 -30.632  1.00  0.00     0.348 C 
HETATM    5  S1  UNL     1      90.342 -47.301 -29.873  1.00  0.00    -0.124 SA
HETATM    6  C4  UNL     1      90.045 -48.345 -28.393  1.00  0.00     0.113 C 
HETATM    7  S2  UNL     1      91.646 -48.339 -27.489  1.00  0.00    -0.124 SA
HETATM    8  C5  UNL     1      92.791 -49.114 -28.699  1.00  0.00     0.348 C 
ENDROOT
TORSDOF 0
ENDMDL
MODEL 2
REMARK VINA RESULT: -2.712119911      2.400      3.331
REMARK  0 active torsions:
REMARK  status: ('A' for Active; 'I' for Inactive)
ROOT
HETATM    1  C1  UNL     1      92.556 -48.459 -27.211  1.00  0.00     0.056 C 
HETATM    2  C2  UNL     1      94.032 -48.359 -27.112  1.00  0.00     0.276 C 
HETATM    3  N1  UNL     1      94.722 -47.942 -28.271  1.00  0.00     0.106 N 
HETATM    4  C3  UNL     1      94.884 -49.027 -29.210  1.00  0.00     0.348 C 
HETATM    5  S1  UNL     1      93.203 -49.711 -29.492  1.00  0.00    -0.124 SA
HETATM    6  C4  UNL     1      92.098 -48.506 -28.657  1.00  0.00     0.113 C 
HETATM    7  S2  UNL     1      92.571 -46.875 -29.360  1.00  0.00    -0.124 SA
HETATM    8  C5  UNL     1      94.328 -46.713 -28.849  1.00  0.00     0.348 C 
ENDROOT
TORSDOF 0
ENDMDL
MODEL 3
REMARK VINA RESULT: -2.656461737      2.459      3.326
REMARK  0 active torsions:
REMARK  status: ('A' for Active; 'I' for Inactive)
ROOT
HETATM    1  C1  UNL     1      94.020 -48.266 -27.036  1.00  0.00     0.056 C 
HETATM    2  C2  UNL     1      92.629 -48.628 -27.397  1.00  0.00     0.276 C 
HETATM    3  N1  UNL     1      92.351 -48.799 -28.770  1.00  0.00     0.106 N 
HETATM    4  C3  UNL     1      92.168 -47.532 -29.437  1.00  0.00     0.348 C 
HETATM    5  S1  UNL     1      93.660 -46.533 -29.049  1.00  0.00    -0.124 SA
HETATM    6  C4  UNL     1      94.785 -47.732 -28.233  1.00  0.00     0.113 C 
HETATM    7  S2  UNL     1      94.887 -49.147 -29.402  1.00  0.00    -0.124 SA
HETATM    8  C5  UNL     1      93.147 -49.730 -29.478  1.00  0.00     0.348 C 
ENDROOT
TORSDOF 0
ENDMDL
MODEL 4
REMARK VINA RESULT: -2.616334907      2.081      2.722
REMARK  0 active torsions:
REMARK  status: ('A' for Active; 'I' for Inactive)
ROOT
HETATM    1  C1  UNL     1      93.024 -49.741 -29.445  1.00  0.00     0.056 C 
HETATM    2  C2  UNL     1      94.433 -49.331 -29.232  1.00  0.00     0.276 C 
HETATM    3  N1  UNL     1      94.652 -48.211 -28.401  1.00  0.00     0.106 N 
HETATM    4  C3  UNL     1      94.425 -46.973 -29.109  1.00  0.00     0.348 C 
HETATM    5  S1  UNL     1      92.743 -47.103 -29.835  1.00  0.00    -0.124 SA
HETATM    6  C4  UNL     1      92.060 -48.629 -29.076  1.00  0.00     0.113 C 
HETATM    7  S2  UNL     1      92.278 -48.388 -27.267  1.00  0.00    -0.124 SA
HETATM    8  C5  UNL     1      94.103 -48.257 -27.098  1.00  0.00     0.348 C 
ENDROOT
TORSDOF 0
ENDMDL
MODEL 5
REMARK VINA RESULT: -2.598281891      1.563      2.045
REMARK  0 active torsions:
REMARK  status: ('A' for Active; 'I' for Inactive)
ROOT
HETATM    1  C1  UNL     1      92.068 -50.560 -30.119  1.00  0.00     0.056 C 
HETATM    2  C2  UNL     1      93.064 -49.754 -29.374  1.00  0.00     0.276 C 
HETATM    3  N1  UNL     1      92.604 -48.560 -28.781  1.00  0.00     0.106 N 
HETATM    4  C3  UNL     1      92.502 -47.492 -29.747  1.00  0.00     0.348 C 
HETATM    5  S1  UNL     1      91.469 -48.145 -31.119  1.00  0.00    -0.124 SA
HETATM    6  C4  UNL     1      90.838 -49.741 -30.466  1.00  0.00     0.113 C 
HETATM    7  S2  UNL     1      90.078 -49.314 -28.847  1.00  0.00    -0.124 SA
HETATM    8  C5  UNL     1      91.506 -48.661 -27.894  1.00  0.00     0.348 C 
ENDROOT
TORSDOF 0
ENDMDL
