MODEL 1
REMARK VINA RESULT: -4.559555407      0.000      0.000
REMARK  0 active torsions:
REMARK  status: ('A' for Active; 'I' for Inactive)
ROOT
HETATM    1  N1  UNL     1      86.601 -53.747 -26.748  1.00  0.00    -0.196 NA
HETATM    2  C1  UNL     1      85.954 -53.628 -25.803  1.00  0.00     0.080 C 
HETATM    3  C2  UNL     1      85.130 -53.481 -24.642  1.00  0.00     0.150 C 
HETATM    4  C3  UNL     1      85.823 -53.015 -23.371  1.00  0.00     0.308 C 
HETATM    5  N2  UNL     1      84.597 -52.321 -23.034  1.00  0.00     0.110 N 
HETATM    6  C4  UNL     1      83.551 -53.178 -22.543  1.00  0.00     0.395 C 
HETATM    7  N3  UNL     1      83.551 -54.473 -23.218  1.00  0.00    -0.361 N 
ATOM      8  H3  UNL     1      82.957 -55.231 -22.883  1.00  0.00     0.161 HD
HETATM    9  C5  UNL     1      84.306 -54.644 -24.234  1.00  0.00     0.081 C 
HETATM   10  S1  UNL     1      84.401 -56.162 -25.143  1.00  0.00    -0.036 SA
HETATM   11  C6  UNL     1      84.388 -52.177 -24.479  1.00  0.00     0.308 C 
ENDROOT
TORSDOF 0
ENDMDL
MODEL 2
REMARK VINA RESULT: -4.329724872      1.866      2.424
REMARK  0 active torsions:
REMARK  status: ('A' for Active; 'I' for Inactive)
ROOT
HETATM    1  N1  UNL     1      86.582 -53.831 -26.822  1.00  0.00    -0.196 NA
HETATM    2  C1  UNL     1      85.972 -53.480 -25.911  1.00  0.00     0.080 C 
HETATM    3  C2  UNL     1      85.229 -53.027 -24.775  1.00  0.00     0.150 C 
HETATM    4  C3  UNL     1      84.282 -54.031 -24.137  1.00  0.00     0.308 C 
HETATM    5  N2  UNL     1      84.583 -53.409 -22.864  1.00  0.00     0.110 N 
HETATM    6  C4  UNL     1      83.919 -52.151 -22.652  1.00  0.00     0.395 C 
HETATM    7  N3  UNL     1      83.812 -51.380 -23.888  1.00  0.00    -0.361 N 
ATOM      8  H3  UNL     1      83.248 -50.532 -23.921  1.00  0.00     0.161 HD
HETATM    9  C5  UNL     1      84.435 -51.783 -24.927  1.00  0.00     0.081 C 
HETATM   10  S1  UNL     1      84.391 -50.944 -26.487  1.00  0.00    -0.036 SA
HETATM   11  C6  UNL     1      85.903 -53.106 -23.428  1.00  0.00     0.308 C 
ENDROOT
TORSDOF 0
ENDMDL
MODEL 3
REMARK VINA RESULT: -4.064237363      1.982      2.385
REMARK  0 active torsions:
REMARK  status: ('A' for Active; 'I' for Inactive)
ROOT
HETATM    1  N1  UNL     1      87.299 -51.669 -27.634  1.00  0.00    -0.196 NA
HETATM    2  C1  UNL     1      86.662 -52.352 -26.959  1.00  0.00     0.080 C 
HETATM    3  C2  UNL     1      85.857 -53.204 -26.139  1.00  0.00     0.150 C 
HETATM    4  C3  UNL     1      86.083 -53.115 -24.638  1.00  0.00     0.308 C 
HETATM    5  N2  UNL     1      84.670 -53.384 -24.473  1.00  0.00     0.110 N 
HETATM    6  C4  UNL     1      84.306 -54.762 -24.671  1.00  0.00     0.395 C 
HETATM    7  N3  UNL     1      85.098 -55.385 -25.727  1.00  0.00    -0.361 N 
ATOM      8  H3  UNL     1      85.048 -56.391 -25.886  1.00  0.00     0.161 HD
HETATM    9  C5  UNL     1      85.855 -54.653 -26.450  1.00  0.00     0.081 C 
HETATM   10  S1  UNL     1      86.867 -55.281 -27.763  1.00  0.00    -0.036 SA
HETATM   11  C6  UNL     1      84.484 -52.705 -25.761  1.00  0.00     0.308 C 
ENDROOT
TORSDOF 0
ENDMDL
MODEL 4
REMARK VINA RESULT: -3.957737854      1.193      3.123
REMARK  0 active torsions:
REMARK  status: ('A' for Active; 'I' for Inactive)
ROOT
HETATM    1  N1  UNL     1      82.921 -54.294 -22.449  1.00  0.00    -0.196 NA
HETATM    2  C1  UNL     1      83.656 -54.071 -23.307  1.00  0.00     0.080 C 
HETATM    3  C2  UNL     1      84.586 -53.806 -24.362  1.00  0.00     0.150 C 
HETATM    4  C3  UNL     1      84.256 -52.640 -25.281  1.00  0.00     0.308 C 
HETATM    5  N2  UNL     1      85.682 -52.409 -25.392  1.00  0.00     0.110 N 
HETATM    6  C4  UNL     1      86.362 -53.332 -26.262  1.00  0.00     0.395 C 
HETATM    7  N3  UNL     1      85.797 -54.676 -26.173  1.00  0.00    -0.361 N 
ATOM      8  H3  UNL     1      86.085 -55.401 -26.829  1.00  0.00     0.161 HD
HETATM    9  C5  UNL     1      84.937 -54.929 -25.264  1.00  0.00     0.081 C 
HETATM   10  S1  UNL     1      84.174 -56.514 -25.047  1.00  0.00    -0.036 SA
HETATM   11  C6  UNL     1      85.783 -52.949 -24.032  1.00  0.00     0.308 C 
ENDROOT
TORSDOF 0
ENDMDL
MODEL 5
REMARK VINA RESULT: -3.715904417      8.928     10.552
REMARK  0 active torsions:
REMARK  status: ('A' for Active; 'I' for Inactive)
ROOT
HETATM    1  N1  UNL     1      89.704 -49.340 -28.537  1.00  0.00    -0.196 NA
HETATM    2  C1  UNL     1      90.842 -49.192 -28.635  1.00  0.00     0.080 C 
HETATM    3  C2  UNL     1      92.260 -49.028 -28.743  1.00  0.00     0.150 C 
HETATM    4  C3  UNL     1      92.751 -47.674 -29.230  1.00  0.00     0.308 C 
HETATM    5  N2  UNL     1      93.899 -47.851 -28.364  1.00  0.00     0.110 N 
HETATM    6  C4  UNL     1      94.887 -48.763 -28.874  1.00  0.00     0.395 C 
HETATM    7  N3  UNL     1      94.275 -49.878 -29.592  1.00  0.00    -0.361 N 
ATOM      8  H3  UNL     1      94.851 -50.529 -30.124  1.00  0.00     0.161 HD
HETATM    9  C5  UNL     1      93.007 -50.027 -29.544  1.00  0.00     0.081 C 
HETATM   10  S1  UNL     1      92.139 -51.334 -30.366  1.00  0.00    -0.036 SA
HETATM   11  C6  UNL     1      93.008 -48.628 -27.495  1.00  0.00     0.308 C 
ENDROOT
TORSDOF 0
ENDMDL
