MODEL 1
REMARK VINA RESULT: -6.787634587      0.000      0.000
REMARK  10 active torsions:
REMARK  status: ('A' for Active; 'I' for Inactive)
REMARK    1  A    between atoms: C2_2  and  C3_3 
REMARK    2  A    between atoms: C3_3  and  C4_4 
REMARK    3  A    between atoms: C4_4  and  C6_6 
REMARK    4  A    between atoms: C8_11  and  C9_12 
REMARK    5  A    between atoms: C9_12  and  C10_13 
REMARK    6  A    between atoms: C14_20  and  C15_21 
REMARK    7  A    between atoms: C15_21  and  C16_22 
REMARK    8  A    between atoms: C19_27  and  O3_28 
REMARK    9  A    between atoms: C20_30  and  C22_32 
REMARK   10  A    between atoms: C22_32  and  C23_33 
ROOT
HETATM    1  C6  UNL     1      11.553  65.839  25.712  1.00  0.00     0.180 C 
HETATM    2  N1  UNL     1      12.781  66.174  26.329  1.00  0.00    -0.346 N 
ATOM      3  H1  UNL     1      12.697  66.793  27.136  1.00  0.00     0.163 HD
HETATM    4  C7  UNL     1      14.103  65.796  26.012  1.00  0.00     0.241 C 
HETATM    5  O1  UNL     1      14.994  66.507  26.629  1.00  0.00    -0.271 OA
HETATM    6  C8  UNL     1      14.594  64.759  25.120  1.00  0.00     0.177 C 
HETATM    7  N2  UNL     1      14.283  64.929  23.716  1.00  0.00    -0.346 N 
ATOM      8  H2  UNL     1      13.393  64.542  23.402  1.00  0.00     0.163 HD
HETATM    9  C13 UNL     1      15.067  65.566  22.732  1.00  0.00     0.241 C 
HETATM   10  O2  UNL     1      15.285  65.040  21.579  1.00  0.00    -0.271 OA
HETATM   11  C14 UNL     1      15.733  66.913  22.899  1.00  0.00     0.175 C 
HETATM   12  N3  UNL     1      15.445  67.782  21.792  1.00  0.00    -0.359 N 
ATOM     13  H3  UNL     1      16.122  67.673  21.037  1.00  0.00     0.162 HD
HETATM   14  C19 UNL     1      14.485  68.727  21.490  1.00  0.00     0.140 C 
HETATM   15  C20 UNL     1      13.060  68.658  21.098  1.00  0.00     0.094 C 
HETATM   16  C21 UNL     1      12.460  67.281  21.115  1.00  0.00     0.048 C 
HETATM   17  N4  UNL     1      12.183  69.419  21.981  1.00  0.00    -0.343 N 
ATOM     18  H4  UNL     1      11.317  69.739  21.547  1.00  0.00     0.163 HD
HETATM   19  C26 UNL     1      12.329  69.781  23.307  1.00  0.00     0.241 C 
HETATM   20  O4  UNL     1      12.325  71.038  23.576  1.00  0.00    -0.271 OA
HETATM   21  C27 UNL     1      12.492  68.887  24.494  1.00  0.00     0.172 C 
HETATM   22  C28 UNL     1      12.974  69.656  25.690  1.00  0.00     0.042 C 
HETATM   23  N5  UNL     1      11.225  68.264  24.860  1.00  0.00    -0.346 N 
ATOM     24  H5  UNL     1      10.469  68.904  25.101  1.00  0.00     0.163 HD
HETATM   25  C29 UNL     1      10.913  66.900  24.924  1.00  0.00     0.241 C 
HETATM   26  O5  UNL     1       9.924  66.524  24.186  1.00  0.00    -0.271 OA
ENDROOT
BRANCH   1  27
HETATM   27  C4  UNL     1      10.575  65.222  26.722  1.00  0.00     0.013 C 
HETATM   28  C5  UNL     1      10.169  66.234  27.772  1.00  0.00     0.012 C 
BRANCH  27  29
HETATM   29  C3  UNL     1      11.183  64.043  27.411  1.00  0.00     0.006 C 
BRANCH  29  30
HETATM   30  C2  UNL     1      10.181  62.928  27.639  1.00  0.00    -0.004 C 
HETATM   31  C1  UNL     1      11.008  61.634  27.714  1.00  0.00     0.005 C 
ENDBRANCH  29  30
ENDBRANCH  27  29
ENDBRANCH   1  27
BRANCH   6  32
HETATM   32  C9  UNL     1      14.303  63.341  25.477  1.00  0.00     0.038 C 
BRANCH  32  33
HETATM   33  C10 UNL     1      15.130  62.662  26.471  1.00  0.00    -0.020 C 
HETATM   34  C11 UNL     1      16.524  63.189  26.652  1.00  0.00     0.009 C 
HETATM   35  C12 UNL     1      14.499  62.515  27.830  1.00  0.00     0.009 C 
ENDBRANCH  32  33
ENDBRANCH   6  32
BRANCH  11  36
HETATM   36  C15 UNL     1      17.200  66.560  23.035  1.00  0.00     0.038 C 
BRANCH  36  37
HETATM   37  C16 UNL     1      17.626  65.764  24.186  1.00  0.00    -0.020 C 
HETATM   38  C17 UNL     1      18.412  64.527  23.967  1.00  0.00     0.009 C 
HETATM   39  C18 UNL     1      18.266  66.618  25.298  1.00  0.00     0.009 C 
ENDBRANCH  36  37
ENDBRANCH  11  36
BRANCH  15  40
HETATM   40  C22 UNL     1      12.881  69.330  19.746  1.00  0.00     0.043 C 
BRANCH  40  41
HETATM   41  C23 UNL     1      13.167  68.615  18.516  1.00  0.00    -0.020 C 
HETATM   42  C24 UNL     1      14.389  69.004  17.736  1.00  0.00     0.009 C 
HETATM   43  C25 UNL     1      11.996  68.274  17.620  1.00  0.00     0.009 C 
ENDBRANCH  40  41
ENDBRANCH  15  40
BRANCH  14  44
HETATM   44  O3  UNL     1      14.833  69.982  21.535  1.00  0.00    -0.348 OA
ATOM     45  H3  UNL     1      14.858  70.463  20.716  1.00  0.00     0.219 HD
ENDBRANCH  14  44
TORSDOF 10
ENDMDL
MODEL 2
REMARK VINA RESULT: -6.701820400      2.626      7.567
REMARK  10 active torsions:
REMARK  status: ('A' for Active; 'I' for Inactive)
REMARK    1  A    between atoms: C2_2  and  C3_3 
REMARK    2  A    between atoms: C3_3  and  C4_4 
REMARK    3  A    between atoms: C4_4  and  C6_6 
REMARK    4  A    between atoms: C8_11  and  C9_12 
REMARK    5  A    between atoms: C9_12  and  C10_13 
REMARK    6  A    between atoms: C14_20  and  C15_21 
REMARK    7  A    between atoms: C15_21  and  C16_22 
REMARK    8  A    between atoms: C19_27  and  O3_28 
REMARK    9  A    between atoms: C20_30  and  C22_32 
REMARK   10  A    between atoms: C22_32  and  C23_33 
ROOT
HETATM    1  C6  UNL     1      15.740  67.763  23.468  1.00  0.00     0.180 C 
HETATM    2  N1  UNL     1      14.945  67.707  24.637  1.00  0.00    -0.346 N 
ATOM      3  H1  UNL     1      15.111  68.463  25.301  1.00  0.00     0.163 HD
HETATM    4  C7  UNL     1      13.962  66.778  25.036  1.00  0.00     0.241 C 
HETATM    5  O1  UNL     1      13.634  66.894  26.285  1.00  0.00    -0.271 OA
HETATM    6  C8  UNL     1      13.286  65.741  24.275  1.00  0.00     0.177 C 
HETATM    7  N2  UNL     1      14.124  64.671  23.775  1.00  0.00    -0.346 N 
ATOM      8  H2  UNL     1      14.555  64.825  22.863  1.00  0.00     0.163 HD
HETATM    9  C13 UNL     1      14.414  63.441  24.401  1.00  0.00     0.241 C 
HETATM   10  O2  UNL     1      14.354  62.320  23.776  1.00  0.00    -0.271 OA
HETATM   11  C14 UNL     1      14.825  63.287  25.849  1.00  0.00     0.175 C 
HETATM   12  N3  UNL     1      16.005  62.477  25.975  1.00  0.00    -0.359 N 
ATOM     13  H3  UNL     1      15.780  61.486  26.056  1.00  0.00     0.162 HD
HETATM   14  C19 UNL     1      17.367  62.700  26.015  1.00  0.00     0.140 C 
HETATM   15  C20 UNL     1      18.384  63.053  24.998  1.00  0.00     0.094 C 
HETATM   16  C21 UNL     1      17.841  63.336  23.627  1.00  0.00     0.048 C 
HETATM   17  N4  UNL     1      19.126  64.265  25.325  1.00  0.00    -0.343 N 
ATOM     18  H4  UNL     1      20.058  64.316  24.914  1.00  0.00     0.163 HD
HETATM   19  C26 UNL     1      18.779  65.358  26.098  1.00  0.00     0.241 C 
HETATM   20  O4  UNL     1      19.521  65.617  27.114  1.00  0.00    -0.271 OA
HETATM   21  C27 UNL     1      17.632  66.297  25.904  1.00  0.00     0.172 C 
HETATM   22  C28 UNL     1      17.389  67.119  27.136  1.00  0.00     0.042 C 
HETATM   23  N5  UNL     1      17.891  67.224  24.808  1.00  0.00    -0.346 N 
ATOM     24  H5  UNL     1      18.716  67.816  24.913  1.00  0.00     0.163 HD
HETATM   25  C29 UNL     1      17.156  67.408  23.631  1.00  0.00     0.241 C 
HETATM   26  O5  UNL     1      17.815  67.240  22.534  1.00  0.00    -0.271 OA
ENDROOT
BRANCH   1  27
HETATM   27  C4  UNL     1      15.579  69.110  22.750  1.00  0.00     0.013 C 
HETATM   28  C5  UNL     1      15.280  70.218  23.737  1.00  0.00     0.012 C 
BRANCH  27  29
HETATM   29  C3  UNL     1      14.471  69.058  21.748  1.00  0.00     0.006 C 
BRANCH  29  30
HETATM   30  C2  UNL     1      14.610  67.886  20.795  1.00  0.00    -0.004 C 
HETATM   31  C1  UNL     1      13.336  67.895  19.936  1.00  0.00     0.005 C 
ENDBRANCH  29  30
ENDBRANCH  27  29
ENDBRANCH   1  27
BRANCH   6  32
HETATM   32  C9  UNL     1      12.390  66.169  23.162  1.00  0.00     0.038 C 
BRANCH  32  33
HETATM   33  C10 UNL     1      11.269  67.062  23.440  1.00  0.00    -0.020 C 
HETATM   34  C11 UNL     1      10.416  67.450  22.268  1.00  0.00     0.009 C 
HETATM   35  C12 UNL     1      10.364  66.616  24.557  1.00  0.00     0.009 C 
ENDBRANCH  32  33
ENDBRANCH   6  32
BRANCH  11  36
HETATM   36  C15 UNL     1      13.595  62.682  26.495  1.00  0.00     0.038 C 
BRANCH  36  37
HETATM   37  C16 UNL     1      12.858  63.476  27.477  1.00  0.00    -0.020 C 
HETATM   38  C17 UNL     1      11.554  64.072  27.102  1.00  0.00     0.009 C 
HETATM   39  C18 UNL     1      12.757  62.782  28.850  1.00  0.00     0.009 C 
ENDBRANCH  36  37
ENDBRANCH  11  36
BRANCH  15  40
HETATM   40  C22 UNL     1      19.453  61.973  24.967  1.00  0.00     0.043 C 
BRANCH  40  41
HETATM   41  C23 UNL     1      19.092  60.570  24.880  1.00  0.00    -0.020 C 
HETATM   42  C24 UNL     1      19.787  59.601  25.791  1.00  0.00     0.009 C 
HETATM   43  C25 UNL     1      18.852  59.996  23.501  1.00  0.00     0.009 C 
ENDBRANCH  40  41
ENDBRANCH  15  40
BRANCH  14  44
HETATM   44  O3  UNL     1      17.966  62.593  27.167  1.00  0.00    -0.348 OA
ATOM     45  H3  UNL     1      18.915  62.640  27.178  1.00  0.00     0.219 HD
ENDBRANCH  14  44
TORSDOF 10
ENDMDL
MODEL 3
REMARK VINA RESULT: -6.676101589      2.206      7.771
REMARK  10 active torsions:
REMARK  status: ('A' for Active; 'I' for Inactive)
REMARK    1  A    between atoms: C2_2  and  C3_3 
REMARK    2  A    between atoms: C3_3  and  C4_4 
REMARK    3  A    between atoms: C4_4  and  C6_6 
REMARK    4  A    between atoms: C8_11  and  C9_12 
REMARK    5  A    between atoms: C9_12  and  C10_13 
REMARK    6  A    between atoms: C14_20  and  C15_21 
REMARK    7  A    between atoms: C15_21  and  C16_22 
REMARK    8  A    between atoms: C19_27  and  O3_28 
REMARK    9  A    between atoms: C20_30  and  C22_32 
REMARK   10  A    between atoms: C22_32  and  C23_33 
ROOT
HETATM    1  C6  UNL     1      16.081  67.312  21.394  1.00  0.00     0.180 C 
HETATM    2  N1  UNL     1      15.389  68.499  21.061  1.00  0.00    -0.346 N 
ATOM      3  H1  UNL     1      15.926  69.357  21.193  1.00  0.00     0.163 HD
HETATM    4  C7  UNL     1      14.078  68.695  20.578  1.00  0.00     0.241 C 
HETATM    5  O1  UNL     1      13.696  69.931  20.640  1.00  0.00    -0.271 OA
HETATM    6  C8  UNL     1      13.124  67.740  20.040  1.00  0.00     0.177 C 
HETATM    7  N2  UNL     1      12.657  66.722  20.958  1.00  0.00    -0.346 N 
ATOM      8  H2  UNL     1      13.220  65.873  21.014  1.00  0.00     0.163 HD
HETATM    9  C13 UNL     1      11.515  66.767  21.784  1.00  0.00     0.241 C 
HETATM   10  O2  UNL     1      10.688  65.786  21.868  1.00  0.00    -0.271 OA
HETATM   11  C14 UNL     1      11.126  67.941  22.654  1.00  0.00     0.175 C 
HETATM   12  N3  UNL     1      10.841  67.524  23.999  1.00  0.00    -0.359 N 
ATOM     13  H3  UNL     1       9.862  67.264  24.118  1.00  0.00     0.162 HD
HETATM   14  C19 UNL     1      11.556  67.387  25.173  1.00  0.00     0.140 C 
HETATM   15  C20 UNL     1      12.551  66.408  25.664  1.00  0.00     0.094 C 
HETATM   16  C21 UNL     1      12.979  65.376  24.660  1.00  0.00     0.048 C 
HETATM   17  N4  UNL     1      13.809  67.023  26.073  1.00  0.00    -0.343 N 
ATOM     18  H4  UNL     1      14.334  66.494  26.769  1.00  0.00     0.163 HD
HETATM   19  C26 UNL     1      14.409  68.204  25.677  1.00  0.00     0.241 C 
HETATM   20  O4  UNL     1      14.636  69.082  26.587  1.00  0.00    -0.271 OA
HETATM   21  C27 UNL     1      14.841  68.602  24.301  1.00  0.00     0.172 C 
HETATM   22  C28 UNL     1      15.113  70.076  24.224  1.00  0.00     0.042 C 
HETATM   23  N5  UNL     1      16.066  67.913  23.914  1.00  0.00    -0.346 N 
ATOM     24  H5  UNL     1      16.875  68.076  24.513  1.00  0.00     0.163 HD
HETATM   25  C29 UNL     1      16.276  67.056  22.827  1.00  0.00     0.241 C 
HETATM   26  O5  UNL     1      16.699  65.874  23.127  1.00  0.00    -0.271 OA
ENDROOT
BRANCH   1  27
HETATM   27  C4  UNL     1      17.403  67.204  20.621  1.00  0.00     0.013 C 
HETATM   28  C5  UNL     1      17.991  68.573  20.357  1.00  0.00     0.012 C 
BRANCH  27  29
HETATM   29  C3  UNL     1      17.205  66.514  19.309  1.00  0.00     0.006 C 
BRANCH  29  30
HETATM   30  C2  UNL     1      16.511  65.174  19.460  1.00  0.00    -0.004 C 
HETATM   31  C1  UNL     1      17.566  64.221  20.041  1.00  0.00     0.005 C 
ENDBRANCH  29  30
ENDBRANCH  27  29
ENDBRANCH   1  27
BRANCH   6  32
HETATM   32  C9  UNL     1      13.468  67.064  18.755  1.00  0.00     0.038 C 
BRANCH  32  33
HETATM   33  C10 UNL     1      13.182  67.732  17.489  1.00  0.00    -0.020 C 
HETATM   34  C11 UNL     1      11.841  68.396  17.371  1.00  0.00     0.009 C 
HETATM   35  C12 UNL     1      14.235  68.707  17.033  1.00  0.00     0.009 C 
ENDBRANCH  32  33
ENDBRANCH   6  32
BRANCH  11  36
HETATM   36  C15 UNL     1       9.933  68.529  21.930  1.00  0.00     0.038 C 
BRANCH  36  37
HETATM   37  C16 UNL     1       9.980  69.935  21.528  1.00  0.00    -0.020 C 
HETATM   38  C17 UNL     1      10.245  70.279  20.111  1.00  0.00     0.009 C 
HETATM   39  C18 UNL     1       8.788  70.749  22.066  1.00  0.00     0.009 C 
ENDBRANCH  36  37
ENDBRANCH  11  36
BRANCH  15  40
HETATM   40  C22 UNL     1      12.032  65.767  26.941  1.00  0.00     0.043 C 
BRANCH  40  41
HETATM   41  C23 UNL     1      11.038  64.710  26.892  1.00  0.00    -0.020 C 
HETATM   42  C24 UNL     1       9.636  65.035  27.318  1.00  0.00     0.009 C 
HETATM   43  C25 UNL     1      11.468  63.327  27.330  1.00  0.00     0.009 C 
ENDBRANCH  40  41
ENDBRANCH  15  40
BRANCH  14  44
HETATM   44  O3  UNL     1      11.366  68.276  26.106  1.00  0.00    -0.348 OA
ATOM     45  H3  UNL     1      10.555  68.233  26.599  1.00  0.00     0.219 HD
ENDBRANCH  14  44
TORSDOF 10
ENDMDL
MODEL 4
REMARK VINA RESULT: -6.674911603      1.578      2.202
REMARK  10 active torsions:
REMARK  status: ('A' for Active; 'I' for Inactive)
REMARK    1  A    between atoms: C2_2  and  C3_3 
REMARK    2  A    between atoms: C3_3  and  C4_4 
REMARK    3  A    between atoms: C4_4  and  C6_6 
REMARK    4  A    between atoms: C8_11  and  C9_12 
REMARK    5  A    between atoms: C9_12  and  C10_13 
REMARK    6  A    between atoms: C14_20  and  C15_21 
REMARK    7  A    between atoms: C15_21  and  C16_22 
REMARK    8  A    between atoms: C19_27  and  O3_28 
REMARK    9  A    between atoms: C20_30  and  C22_32 
REMARK   10  A    between atoms: C22_32  and  C23_33 
ROOT
HETATM    1  C6  UNL     1      12.048  66.242  24.619  1.00  0.00     0.180 C 
HETATM    2  N1  UNL     1      13.156  66.411  25.482  1.00  0.00    -0.346 N 
ATOM      3  H1  UNL     1      13.092  67.218  26.103  1.00  0.00     0.163 HD
HETATM    4  C7  UNL     1      14.333  65.648  25.627  1.00  0.00     0.241 C 
HETATM    5  O1  UNL     1      15.243  66.251  26.326  1.00  0.00    -0.271 OA
HETATM    6  C8  UNL     1      14.665  64.328  25.120  1.00  0.00     0.177 C 
HETATM    7  N2  UNL     1      14.733  64.199  23.679  1.00  0.00    -0.346 N 
ATOM      8  H2  UNL     1      13.857  63.977  23.205  1.00  0.00     0.163 HD
HETATM    9  C13 UNL     1      15.868  64.344  22.855  1.00  0.00     0.241 C 
HETATM   10  O2  UNL     1      16.159  63.501  21.929  1.00  0.00    -0.271 OA
HETATM   11  C14 UNL     1      16.862  65.481  22.948  1.00  0.00     0.175 C 
HETATM   12  N3  UNL     1      17.101  66.076  21.663  1.00  0.00    -0.359 N 
ATOM     13  H3  UNL     1      17.859  65.611  21.163  1.00  0.00     0.162 HD
HETATM   14  C19 UNL     1      16.565  67.117  20.932  1.00  0.00     0.140 C 
HETATM   15  C20 UNL     1      15.308  67.304  20.174  1.00  0.00     0.094 C 
HETATM   16  C21 UNL     1      14.327  66.171  20.279  1.00  0.00     0.048 C 
HETATM   17  N4  UNL     1      14.537  68.461  20.616  1.00  0.00    -0.343 N 
ATOM     18  H4  UNL     1      13.926  68.860  19.904  1.00  0.00     0.163 HD
HETATM   19  C26 UNL     1      14.495  69.106  21.837  1.00  0.00     0.241 C 
HETATM   20  O4  UNL     1      14.818  70.350  21.855  1.00  0.00    -0.271 OA
HETATM   21  C27 UNL     1      14.115  68.539  23.167  1.00  0.00     0.172 C 
HETATM   22  C28 UNL     1      14.538  69.447  24.285  1.00  0.00     0.042 C 
HETATM   23  N5  UNL     1      12.671  68.365  23.272  1.00  0.00    -0.346 N 
ATOM     24  H5  UNL     1      12.113  69.213  23.166  1.00  0.00     0.163 HD
HETATM   25  C29 UNL     1      11.950  67.186  23.499  1.00  0.00     0.241 C 
HETATM   26  O5  UNL     1      11.079  66.888  22.596  1.00  0.00    -0.271 OA
ENDROOT
BRANCH   1  27
HETATM   27  C4  UNL     1      10.733  66.170  25.408  1.00  0.00     0.013 C 
HETATM   28  C5  UNL     1      10.220  67.556  25.734  1.00  0.00     0.012 C 
BRANCH  27  29
HETATM   29  C3  UNL     1      10.914  65.420  26.689  1.00  0.00     0.006 C 
BRANCH  29  30
HETATM   30  C2  UNL     1       9.612  64.836  27.204  1.00  0.00    -0.004 C 
HETATM   31  C1  UNL     1       9.834  64.583  28.704  1.00  0.00     0.005 C 
ENDBRANCH  29  30
ENDBRANCH  27  29
ENDBRANCH   1  27
BRANCH   6  32
HETATM   32  C9  UNL     1      13.883  63.168  25.639  1.00  0.00     0.038 C 
BRANCH  32  33
HETATM   33  C10 UNL     1      13.556  63.097  27.060  1.00  0.00    -0.020 C 
HETATM   34  C11 UNL     1      12.417  62.196  27.440  1.00  0.00     0.009 C 
HETATM   35  C12 UNL     1      14.721  62.795  27.965  1.00  0.00     0.009 C 
ENDBRANCH  32  33
ENDBRANCH   6  32
BRANCH  11  36
HETATM   36  C15 UNL     1      18.084  64.823  23.556  1.00  0.00     0.038 C 
BRANCH  36  37
HETATM   37  C16 UNL     1      18.116  64.602  25.001  1.00  0.00    -0.020 C 
HETATM   38  C17 UNL     1      18.138  63.217  25.527  1.00  0.00     0.009 C 
HETATM   39  C18 UNL     1      19.177  65.464  25.712  1.00  0.00     0.009 C 
ENDBRANCH  36  37
ENDBRANCH  11  36
BRANCH  15  40
HETATM   40  C22 UNL     1      15.641  67.625  18.726  1.00  0.00     0.043 C 
BRANCH  40  41
HETATM   41  C23 UNL     1      14.999  68.733  18.042  1.00  0.00    -0.020 C 
HETATM   42  C24 UNL     1      13.959  68.420  17.006  1.00  0.00     0.009 C 
HETATM   43  C25 UNL     1      15.867  69.909  17.652  1.00  0.00     0.009 C 
ENDBRANCH  40  41
ENDBRANCH  15  40
BRANCH  14  44
HETATM   44  O3  UNL     1      17.262  68.214  20.838  1.00  0.00    -0.348 OA
ATOM     45  H3  UNL     1      18.182  68.135  20.615  1.00  0.00     0.219 HD
ENDBRANCH  14  44
TORSDOF 10
ENDMDL
MODEL 5
REMARK VINA RESULT: -6.575054521      2.593      3.860
REMARK  10 active torsions:
REMARK  status: ('A' for Active; 'I' for Inactive)
REMARK    1  A    between atoms: C2_2  and  C3_3 
REMARK    2  A    between atoms: C3_3  and  C4_4 
REMARK    3  A    between atoms: C4_4  and  C6_6 
REMARK    4  A    between atoms: C8_11  and  C9_12 
REMARK    5  A    between atoms: C9_12  and  C10_13 
REMARK    6  A    between atoms: C14_20  and  C15_21 
REMARK    7  A    between atoms: C15_21  and  C16_22 
REMARK    8  A    between atoms: C19_27  and  O3_28 
REMARK    9  A    between atoms: C20_30  and  C22_32 
REMARK   10  A    between atoms: C22_32  and  C23_33 
ROOT
HETATM    1  C6  UNL     1      11.640  65.581  25.981  1.00  0.00     0.180 C 
HETATM    2  N1  UNL     1      12.409  65.409  27.155  1.00  0.00    -0.346 N 
ATOM      3  H1  UNL     1      12.323  66.165  27.835  1.00  0.00     0.163 HD
HETATM    4  C7  UNL     1      13.275  64.365  27.542  1.00  0.00     0.241 C 
HETATM    5  O1  UNL     1      14.012  64.672  28.563  1.00  0.00    -0.271 OA
HETATM    6  C8  UNL     1      13.457  63.038  26.978  1.00  0.00     0.177 C 
HETATM    7  N2  UNL     1      13.967  62.988  25.622  1.00  0.00    -0.346 N 
ATOM      8  H2  UNL     1      13.270  63.026  24.878  1.00  0.00     0.163 HD
HETATM    9  C13 UNL     1      15.313  62.893  25.212  1.00  0.00     0.241 C 
HETATM   10  O2  UNL     1      15.700  62.064  24.310  1.00  0.00    -0.271 OA
HETATM   11  C14 UNL     1      16.443  63.732  25.764  1.00  0.00     0.175 C 
HETATM   12  N3  UNL     1      17.217  64.327  24.711  1.00  0.00    -0.359 N 
ATOM     13  H3  UNL     1      17.976  63.718  24.405  1.00  0.00     0.162 HD
HETATM   14  C19 UNL     1      17.195  65.515  24.006  1.00  0.00     0.140 C 
HETATM   15  C20 UNL     1      16.332  66.062  22.936  1.00  0.00     0.094 C 
HETATM   16  C21 UNL     1      15.148  65.211  22.576  1.00  0.00     0.048 C 
HETATM   17  N4  UNL     1      15.732  67.346  23.282  1.00  0.00    -0.343 N 
ATOM     18  H4  UNL     1      15.494  67.932  22.482  1.00  0.00     0.163 HD
HETATM   19  C26 UNL     1      15.433  67.902  24.511  1.00  0.00     0.241 C 
HETATM   20  O4  UNL     1      15.996  69.020  24.803  1.00  0.00    -0.271 OA
HETATM   21  C27 UNL     1      14.521  67.367  25.568  1.00  0.00     0.172 C 
HETATM   22  C28 UNL     1      14.740  68.065  26.879  1.00  0.00     0.042 C 
HETATM   23  N5  UNL     1      13.122  67.559  25.203  1.00  0.00    -0.346 N 
ATOM     24  H5  UNL     1      12.831  68.524  25.053  1.00  0.00     0.163 HD
HETATM   25  C29 UNL     1      12.127  66.589  25.030  1.00  0.00     0.241 C 
HETATM   26  O5  UNL     1      11.559  66.579  23.871  1.00  0.00    -0.271 OA
ENDROOT
BRANCH   1  27
HETATM   27  C4  UNL     1      10.157  65.795  26.314  1.00  0.00     0.013 C 
HETATM   28  C5  UNL     1       9.923  67.175  26.889  1.00  0.00     0.012 C 
BRANCH  27  29
HETATM   29  C3  UNL     1       9.675  64.783  27.303  1.00  0.00     0.006 C 
BRANCH  29  30
HETATM   30  C2  UNL     1       8.961  65.420  28.480  1.00  0.00    -0.004 C 
HETATM   31  C1  UNL     1       9.580  64.788  29.735  1.00  0.00     0.005 C 
ENDBRANCH  29  30
ENDBRANCH  27  29
ENDBRANCH   1  27
BRANCH   6  32
HETATM   32  C9  UNL     1      12.314  62.084  27.064  1.00  0.00     0.038 C 
BRANCH  32  33
HETATM   33  C10 UNL     1      11.519  62.020  28.287  1.00  0.00    -0.020 C 
HETATM   34  C11 UNL     1      10.288  61.163  28.240  1.00  0.00     0.009 C 
HETATM   35  C12 UNL     1      12.293  61.670  29.530  1.00  0.00     0.009 C 
ENDBRANCH  32  33
ENDBRANCH   6  32
BRANCH  11  36
HETATM   36  C15 UNL     1      17.221  62.749  26.615  1.00  0.00     0.038 C 
BRANCH  36  37
HETATM   37  C16 UNL     1      18.647  62.566  26.349  1.00  0.00    -0.020 C 
HETATM   38  C17 UNL     1      19.627  62.795  27.438  1.00  0.00     0.009 C 
HETATM   39  C18 UNL     1      18.954  61.245  25.619  1.00  0.00     0.009 C 
ENDBRANCH  36  37
ENDBRANCH  11  36
BRANCH  15  40
HETATM   40  C22 UNL     1      17.186  66.379  21.720  1.00  0.00     0.043 C 
BRANCH  40  41
HETATM   41  C23 UNL     1      16.872  65.812  20.421  1.00  0.00    -0.020 C 
HETATM   42  C24 UNL     1      17.709  64.670  19.925  1.00  0.00     0.009 C 
HETATM   43  C25 UNL     1      16.491  66.772  19.315  1.00  0.00     0.009 C 
ENDBRANCH  40  41
ENDBRANCH  15  40
BRANCH  14  44
HETATM   44  O3  UNL     1      18.107  66.403  24.286  1.00  0.00    -0.348 OA
ATOM     45  H3  UNL     1      17.832  67.310  24.361  1.00  0.00     0.219 HD
ENDBRANCH  14  44
TORSDOF 10
ENDMDL
