MODEL 1
REMARK VINA RESULT: -8.209547281      0.000      0.000
REMARK  12 active torsions:
REMARK  status: ('A' for Active; 'I' for Inactive)
REMARK    1  A    between atoms: C2_2  and  C3_3 
REMARK    2  A    between atoms: C3_3  and  C5_5 
REMARK    3  A    between atoms: C5_5  and  N1_6 
REMARK    4  A    between atoms: C5_5  and  C21_30 
REMARK       I    between atoms: N1_6  and  C6_8 
REMARK    5  A    between atoms: C6_8  and  C7_10 
REMARK    6  A    between atoms: C7_10  and  N2_11 
REMARK    7  A    between atoms: C7_10  and  C15_23 
REMARK       I    between atoms: N2_11  and  C8_13 
REMARK       I    between atoms: C8_13  and  N3_15 
REMARK    8  A    between atoms: N3_15  and  C9_17 
REMARK    9  A    between atoms: C21_30  and  O3_31 
REMARK   10  A    between atoms: C21_30  and  N5_33 
REMARK   11  A    between atoms: C27_39  and  C28_40 
REMARK   12  A    between atoms: C29_43  and  O5_44 
ROOT
HETATM    1  N1  UNL     1      13.449  65.971  23.598  1.00  0.00    -0.347 N 
ATOM      2  H1  UNL     1      13.019  66.269  24.474  1.00  0.00     0.163 HD
HETATM    3  C6  UNL     1      14.516  65.045  23.630  1.00  0.00     0.241 C 
HETATM    4  O1  UNL     1      14.994  64.719  22.499  1.00  0.00    -0.271 OA
ENDROOT
BRANCH   1   5
HETATM    5  C5  UNL     1      12.935  66.528  22.298  1.00  0.00     0.163 C 
BRANCH   5   6
HETATM    6  C3  UNL     1      11.425  66.491  22.401  1.00  0.00     0.012 C 
HETATM    7  C4  UNL     1      10.873  66.851  23.738  1.00  0.00     0.012 C 
BRANCH   6   8
HETATM    8  C2  UNL     1      10.634  67.069  21.302  1.00  0.00     0.002 C 
HETATM    9  C1  UNL     1       9.959  68.369  21.615  1.00  0.00     0.005 C 
ENDBRANCH   6   8
ENDBRANCH   5   6
BRANCH   5  10
HETATM   10  C21 UNL     1      13.532  67.861  22.217  1.00  0.00     0.139 C 
BRANCH  10  11
HETATM   11  O3  UNL     1      13.985  68.343  23.350  1.00  0.00    -0.348 OA
ATOM     12  H3  UNL     1      14.930  68.424  23.407  1.00  0.00     0.219 HD
ENDBRANCH  10  11
BRANCH  10  13
HETATM   13  N5  UNL     1      13.701  68.711  21.114  1.00  0.00    -0.331 N 
HETATM   14  C22 UNL     1      13.896  70.176  21.312  1.00  0.00     0.128 C 
HETATM   15  C23 UNL     1      12.793  70.676  20.367  1.00  0.00     0.029 C 
HETATM   16  C24 UNL     1      13.123  69.824  19.158  1.00  0.00     0.044 C 
HETATM   17  C25 UNL     1      11.926  69.350  18.411  1.00  0.00     0.010 C 
HETATM   18  C29 UNL     1      13.827  68.596  19.694  1.00  0.00     0.150 C 
HETATM   19  C26 UNL     1      12.394  68.047  17.818  1.00  0.00     0.019 C 
HETATM   20  C27 UNL     1      13.225  67.465  18.981  1.00  0.00     0.131 C 
BRANCH  20  21
HETATM   21  C28 UNL     1      14.254  66.545  18.387  1.00  0.00     0.240 C 
HETATM   22  N6  UNL     1      15.067  65.677  19.155  1.00  0.00    -0.062 NA
HETATM   23  O4  UNL     1      14.395  66.556  17.151  1.00  0.00    -0.276 OA
ENDBRANCH  20  21
BRANCH  18  24
HETATM   24  O5  UNL     1      15.189  68.783  19.332  1.00  0.00    -0.369 OA
ATOM     25  H5  UNL     1      15.550  67.953  19.043  1.00  0.00     0.212 HD
ENDBRANCH  18  24
ENDBRANCH  10  13
ENDBRANCH   5  10
ENDBRANCH   1   5
BRANCH   3  26
HETATM   26  C7  UNL     1      15.048  64.483  24.896  1.00  0.00     0.184 C 
BRANCH  26  27
HETATM   27  N2  UNL     1      14.292  63.321  25.328  1.00  0.00    -0.329 N 
HETATM   28  C8  UNL     1      13.444  63.385  26.464  1.00  0.00     0.317 C 
HETATM   29  O2  UNL     1      13.308  64.442  27.148  1.00  0.00    -0.247 OA
HETATM   30  N3  UNL     1      12.693  62.266  26.906  1.00  0.00    -0.339 N 
ATOM     31  H3  UNL     1      12.762  61.386  26.393  1.00  0.00     0.164 HD
ATOM     32  H2  UNL     1      14.372  62.448  24.808  1.00  0.00     0.165 HD
BRANCH  30  33
HETATM   33  C9  UNL     1      11.842  62.342  28.054  1.00  0.00     0.086 C 
HETATM   34  C10 UNL     1      12.597  61.713  29.213  1.00  0.00     0.025 C 
HETATM   35  C11 UNL     1      11.689  61.679  30.432  1.00  0.00     0.002 C 
HETATM   36  C12 UNL     1      10.410  60.969  30.149  1.00  0.00     0.000 C 
HETATM   37  C13 UNL     1      10.321  60.487  28.720  1.00  0.00     0.002 C 
HETATM   38  C14 UNL     1      10.545  61.650  27.773  1.00  0.00     0.025 C 
ENDBRANCH  30  33
ENDBRANCH  26  27
BRANCH  26  39
HETATM   39  C15 UNL     1      16.477  64.004  24.735  1.00  0.00     0.052 C 
HETATM   40  C16 UNL     1      17.382  64.376  25.882  1.00  0.00     0.280 C 
HETATM   41  N4  UNL     1      18.265  63.190  26.000  1.00  0.00     0.089 N 
HETATM   42  C17 UNL     1      18.885  63.040  24.682  1.00  0.00     0.273 C 
HETATM   43  C20 UNL     1      17.187  62.181  26.030  1.00  0.00     0.277 C 
HETATM   44  C18 UNL     1      17.889  62.253  23.837  1.00  0.00     0.037 C 
HETATM   45  C19 UNL     1      16.620  62.527  24.644  1.00  0.00     0.024 C 
ENDBRANCH  26  39
ENDBRANCH   3  26
TORSDOF 12
ENDMDL
MODEL 2
REMARK VINA RESULT: -8.118909386      1.375      2.221
REMARK  12 active torsions:
REMARK  status: ('A' for Active; 'I' for Inactive)
REMARK    1  A    between atoms: C2_2  and  C3_3 
REMARK    2  A    between atoms: C3_3  and  C5_5 
REMARK    3  A    between atoms: C5_5  and  N1_6 
REMARK    4  A    between atoms: C5_5  and  C21_30 
REMARK       I    between atoms: N1_6  and  C6_8 
REMARK    5  A    between atoms: C6_8  and  C7_10 
REMARK    6  A    between atoms: C7_10  and  N2_11 
REMARK    7  A    between atoms: C7_10  and  C15_23 
REMARK       I    between atoms: N2_11  and  C8_13 
REMARK       I    between atoms: C8_13  and  N3_15 
REMARK    8  A    between atoms: N3_15  and  C9_17 
REMARK    9  A    between atoms: C21_30  and  O3_31 
REMARK   10  A    between atoms: C21_30  and  N5_33 
REMARK   11  A    between atoms: C27_39  and  C28_40 
REMARK   12  A    between atoms: C29_43  and  O5_44 
ROOT
HETATM    1  N1  UNL     1      13.780  65.812  23.983  1.00  0.00    -0.347 N 
ATOM      2  H1  UNL     1      13.784  66.555  24.682  1.00  0.00     0.163 HD
HETATM    3  C6  UNL     1      14.434  64.591  24.267  1.00  0.00     0.241 C 
HETATM    4  O1  UNL     1      14.378  63.714  23.349  1.00  0.00    -0.271 OA
ENDROOT
BRANCH   1   5
HETATM    5  C5  UNL     1      13.079  66.038  22.671  1.00  0.00     0.163 C 
BRANCH   5   6
HETATM    6  C3  UNL     1      11.748  66.669  23.017  1.00  0.00     0.012 C 
HETATM    7  C4  UNL     1      10.618  66.298  22.117  1.00  0.00     0.012 C 
BRANCH   6   8
HETATM    8  C2  UNL     1      11.338  66.710  24.431  1.00  0.00     0.002 C 
HETATM    9  C1  UNL     1       9.860  66.666  24.669  1.00  0.00     0.005 C 
ENDBRANCH   6   8
ENDBRANCH   5   6
BRANCH   5  10
HETATM   10  C21 UNL     1      14.001  66.883  21.913  1.00  0.00     0.139 C 
BRANCH  10  11
HETATM   11  O3  UNL     1      14.402  67.970  22.528  1.00  0.00    -0.348 OA
ATOM     12  H3  UNL     1      14.583  68.713  21.963  1.00  0.00     0.219 HD
ENDBRANCH  10  11
BRANCH  10  13
HETATM   13  N5  UNL     1      14.532  66.714  20.625  1.00  0.00    -0.331 N 
HETATM   14  C22 UNL     1      15.627  65.732  20.382  1.00  0.00     0.128 C 
HETATM   15  C23 UNL     1      16.613  66.670  19.671  1.00  0.00     0.029 C 
HETATM   16  C24 UNL     1      15.657  67.298  18.678  1.00  0.00     0.044 C 
HETATM   17  C25 UNL     1      15.914  68.743  18.425  1.00  0.00     0.010 C 
HETATM   18  C29 UNL     1      14.282  67.195  19.301  1.00  0.00     0.150 C 
HETATM   19  C26 UNL     1      14.547  69.273  18.082  1.00  0.00     0.019 C 
HETATM   20  C27 UNL     1      13.663  68.508  19.090  1.00  0.00     0.131 C 
BRANCH  20  21
HETATM   21  C28 UNL     1      12.286  68.405  18.498  1.00  0.00     0.240 C 
HETATM   22  N6  UNL     1      11.103  68.328  19.272  1.00  0.00    -0.062 NA
HETATM   23  O4  UNL     1      12.189  68.386  17.258  1.00  0.00    -0.276 OA
ENDBRANCH  20  21
BRANCH  18  24
HETATM   24  O5  UNL     1      13.629  66.177  18.554  1.00  0.00    -0.369 OA
ATOM     25  H5  UNL     1      12.692  66.332  18.570  1.00  0.00     0.212 HD
ENDBRANCH  18  24
ENDBRANCH  10  13
ENDBRANCH   5  10
ENDBRANCH   1   5
BRANCH   3  26
HETATM   26  C7  UNL     1      15.137  64.340  25.548  1.00  0.00     0.184 C 
BRANCH  26  27
HETATM   27  N2  UNL     1      14.626  63.159  26.220  1.00  0.00    -0.329 N 
HETATM   28  C8  UNL     1      13.465  63.229  27.034  1.00  0.00     0.317 C 
HETATM   29  O2  UNL     1      12.829  64.309  27.214  1.00  0.00    -0.247 OA
HETATM   30  N3  UNL     1      12.943  62.090  27.700  1.00  0.00    -0.339 N 
ATOM     31  H3  UNL     1      13.413  61.191  27.592  1.00  0.00     0.164 HD
ATOM     32  H2  UNL     1      15.107  62.267  26.105  1.00  0.00     0.165 HD
BRANCH  30  33
HETATM   33  C9  UNL     1      11.773  62.173  28.519  1.00  0.00     0.086 C 
HETATM   34  C10 UNL     1      12.154  61.657  29.897  1.00  0.00     0.025 C 
HETATM   35  C11 UNL     1      10.913  61.631  30.774  1.00  0.00     0.002 C 
HETATM   36  C12 UNL     1       9.818  60.827  30.160  1.00  0.00     0.000 C 
HETATM   37  C13 UNL     1      10.202  60.264  28.811  1.00  0.00     0.002 C 
HETATM   38  C14 UNL     1      10.661  61.387  27.901  1.00  0.00     0.025 C 
ENDBRANCH  30  33
ENDBRANCH  26  27
BRANCH  26  39
HETATM   39  C15 UNL     1      16.613  64.079  25.330  1.00  0.00     0.052 C 
HETATM   40  C16 UNL     1      17.504  65.238  25.700  1.00  0.00     0.280 C 
HETATM   41  N4  UNL     1      18.696  64.567  26.274  1.00  0.00     0.089 N 
HETATM   42  C17 UNL     1      19.173  63.668  25.221  1.00  0.00     0.273 C 
HETATM   43  C20 UNL     1      17.961  63.695  27.212  1.00  0.00     0.277 C 
HETATM   44  C18 UNL     1      18.351  62.391  25.354  1.00  0.00     0.037 C 
HETATM   45  C19 UNL     1      17.160  62.952  26.132  1.00  0.00     0.024 C 
ENDBRANCH  26  39
ENDBRANCH   3  26
TORSDOF 12
ENDMDL
MODEL 3
REMARK VINA RESULT: -8.087025996      3.346      7.400
REMARK  12 active torsions:
REMARK  status: ('A' for Active; 'I' for Inactive)
REMARK    1  A    between atoms: C2_2  and  C3_3 
REMARK    2  A    between atoms: C3_3  and  C5_5 
REMARK    3  A    between atoms: C5_5  and  N1_6 
REMARK    4  A    between atoms: C5_5  and  C21_30 
REMARK       I    between atoms: N1_6  and  C6_8 
REMARK    5  A    between atoms: C6_8  and  C7_10 
REMARK    6  A    between atoms: C7_10  and  N2_11 
REMARK    7  A    between atoms: C7_10  and  C15_23 
REMARK       I    between atoms: N2_11  and  C8_13 
REMARK       I    between atoms: C8_13  and  N3_15 
REMARK    8  A    between atoms: N3_15  and  C9_17 
REMARK    9  A    between atoms: C21_30  and  O3_31 
REMARK   10  A    between atoms: C21_30  and  N5_33 
REMARK   11  A    between atoms: C27_39  and  C28_40 
REMARK   12  A    between atoms: C29_43  and  O5_44 
ROOT
HETATM    1  N1  UNL     1      16.116  64.205  27.394  1.00  0.00    -0.347 N 
ATOM      2  H1  UNL     1      15.674  63.285  27.390  1.00  0.00     0.163 HD
HETATM    3  C6  UNL     1      15.574  65.237  26.596  1.00  0.00     0.241 C 
HETATM    4  O1  UNL     1      16.176  66.354  26.660  1.00  0.00    -0.271 OA
ENDROOT
BRANCH   1   5
HETATM    5  C5  UNL     1      17.332  64.434  28.250  1.00  0.00     0.163 C 
BRANCH   5   6
HETATM    6  C3  UNL     1      16.963  63.944  29.633  1.00  0.00     0.012 C 
HETATM    7  C4  UNL     1      17.532  64.738  30.759  1.00  0.00     0.012 C 
BRANCH   6   8
HETATM    8  C2  UNL     1      15.568  63.547  29.887  1.00  0.00     0.002 C 
HETATM    9  C1  UNL     1      15.333  62.829  31.180  1.00  0.00     0.005 C 
ENDBRANCH   6   8
ENDBRANCH   5   6
BRANCH   5  10
HETATM   10  C21 UNL     1      18.392  63.683  27.575  1.00  0.00     0.139 C 
BRANCH  10  11
HETATM   11  O3  UNL     1      19.078  62.870  28.341  1.00  0.00    -0.348 OA
ATOM     12  H3  UNL     1      18.961  62.996  29.276  1.00  0.00     0.219 HD
ENDBRANCH  10  11
BRANCH  10  13
HETATM   13  N5  UNL     1      18.792  63.692  26.231  1.00  0.00    -0.331 N 
HETATM   14  C22 UNL     1      19.298  64.945  25.601  1.00  0.00     0.128 C 
HETATM   15  C23 UNL     1      18.374  64.965  24.374  1.00  0.00     0.029 C 
HETATM   16  C24 UNL     1      18.559  63.530  23.925  1.00  0.00     0.044 C 
HETATM   17  C25 UNL     1      17.319  62.902  23.390  1.00  0.00     0.010 C 
HETATM   18  C29 UNL     1      18.950  62.753  25.164  1.00  0.00     0.150 C 
HETATM   19  C26 UNL     1      17.512  61.445  23.716  1.00  0.00     0.019 C 
HETATM   20  C27 UNL     1      18.143  61.529  25.122  1.00  0.00     0.131 C 
BRANCH  20  21
HETATM   21  C28 UNL     1      18.968  60.290  25.324  1.00  0.00     0.240 C 
HETATM   22  N6  UNL     1      19.317  59.400  24.279  1.00  0.00    -0.062 NA
HETATM   23  O4  UNL     1      19.361  60.037  26.476  1.00  0.00    -0.276 OA
ENDBRANCH  20  21
BRANCH  18  24
HETATM   24  O5  UNL     1      20.334  62.479  24.987  1.00  0.00    -0.369 OA
ATOM     25  H5  UNL     1      20.725  63.174  24.471  1.00  0.00     0.212 HD
ENDBRANCH  18  24
ENDBRANCH  10  13
ENDBRANCH   5  10
ENDBRANCH   1   5
BRANCH   3  26
HETATM   26  C7  UNL     1      14.380  65.041  25.739  1.00  0.00     0.184 C 
BRANCH  26  27
HETATM   27  N2  UNL     1      13.195  64.746  26.526  1.00  0.00    -0.329 N 
HETATM   28  C8  UNL     1      12.985  63.452  27.068  1.00  0.00     0.317 C 
HETATM   29  O2  UNL     1      13.805  62.504  26.894  1.00  0.00    -0.247 OA
HETATM   30  N3  UNL     1      11.838  63.138  27.843  1.00  0.00    -0.339 N 
ATOM     31  H3  UNL     1      11.142  63.863  28.018  1.00  0.00     0.164 HD
ATOM     32  H2  UNL     1      12.506  65.480  26.690  1.00  0.00     0.165 HD
BRANCH  30  33
HETATM   33  C9  UNL     1      11.635  61.829  28.384  1.00  0.00     0.086 C 
HETATM   34  C10 UNL     1      10.190  61.449  28.106  1.00  0.00     0.025 C 
HETATM   35  C11 UNL     1       9.901  60.105  28.755  1.00  0.00     0.002 C 
HETATM   36  C12 UNL     1      10.204  60.118  30.214  1.00  0.00     0.000 C 
HETATM   37  C13 UNL     1      10.748  61.450  30.678  1.00  0.00     0.002 C 
HETATM   38  C14 UNL     1      11.958  61.826  29.845  1.00  0.00     0.025 C 
ENDBRANCH  30  33
ENDBRANCH  26  27
BRANCH  26  39
HETATM   39  C15 UNL     1      14.047  66.293  24.953  1.00  0.00     0.052 C 
HETATM   40  C16 UNL     1      14.585  66.295  23.544  1.00  0.00     0.280 C 
HETATM   41  N4  UNL     1      13.510  66.978  22.783  1.00  0.00     0.089 N 
HETATM   42  C17 UNL     1      13.344  68.278  23.436  1.00  0.00     0.273 C 
HETATM   43  C20 UNL     1      12.396  66.153  23.291  1.00  0.00     0.277 C 
HETATM   44  C18 UNL     1      12.403  68.039  24.612  1.00  0.00     0.037 C 
HETATM   45  C19 UNL     1      12.590  66.530  24.768  1.00  0.00     0.024 C 
ENDBRANCH  26  39
ENDBRANCH   3  26
TORSDOF 12
ENDMDL
MODEL 4
REMARK VINA RESULT: -8.083565084      1.134      1.382
REMARK  12 active torsions:
REMARK  status: ('A' for Active; 'I' for Inactive)
REMARK    1  A    between atoms: C2_2  and  C3_3 
REMARK    2  A    between atoms: C3_3  and  C5_5 
REMARK    3  A    between atoms: C5_5  and  N1_6 
REMARK    4  A    between atoms: C5_5  and  C21_30 
REMARK       I    between atoms: N1_6  and  C6_8 
REMARK    5  A    between atoms: C6_8  and  C7_10 
REMARK    6  A    between atoms: C7_10  and  N2_11 
REMARK    7  A    between atoms: C7_10  and  C15_23 
REMARK       I    between atoms: N2_11  and  C8_13 
REMARK       I    between atoms: C8_13  and  N3_15 
REMARK    8  A    between atoms: N3_15  and  C9_17 
REMARK    9  A    between atoms: C21_30  and  O3_31 
REMARK   10  A    between atoms: C21_30  and  N5_33 
REMARK   11  A    between atoms: C27_39  and  C28_40 
REMARK   12  A    between atoms: C29_43  and  O5_44 
ROOT
HETATM    1  N1  UNL     1      13.758  65.718  23.911  1.00  0.00    -0.347 N 
ATOM      2  H1  UNL     1      13.748  66.486  24.582  1.00  0.00     0.163 HD
HETATM    3  C6  UNL     1      14.422  64.515  24.245  1.00  0.00     0.241 C 
HETATM    4  O1  UNL     1      14.383  63.604  23.361  1.00  0.00    -0.271 OA
ENDROOT
BRANCH   1   5
HETATM    5  C5  UNL     1      13.067  65.888  22.586  1.00  0.00     0.163 C 
BRANCH   5   6
HETATM    6  C3  UNL     1      11.748  66.566  22.892  1.00  0.00     0.012 C 
HETATM    7  C4  UNL     1      10.658  66.305  21.908  1.00  0.00     0.012 C 
BRANCH   6   8
HETATM    8  C2  UNL     1      11.256  66.548  24.280  1.00  0.00     0.002 C 
HETATM    9  C1  UNL     1       9.811  66.901  24.450  1.00  0.00     0.005 C 
ENDBRANCH   6   8
ENDBRANCH   5   6
BRANCH   5  10
HETATM   10  C21 UNL     1      14.009  66.671  21.787  1.00  0.00     0.139 C 
BRANCH  10  11
HETATM   11  O3  UNL     1      15.147  66.075  21.519  1.00  0.00    -0.348 OA
ATOM     12  H3  UNL     1      15.277  65.839  20.608  1.00  0.00     0.219 HD
ENDBRANCH  10  11
BRANCH  10  13
HETATM   13  N5  UNL     1      13.890  67.963  21.255  1.00  0.00    -0.331 N 
HETATM   14  C22 UNL     1      14.147  69.158  22.108  1.00  0.00     0.128 C 
HETATM   15  C23 UNL     1      12.839  69.914  21.830  1.00  0.00     0.029 C 
HETATM   16  C24 UNL     1      12.828  69.805  20.319  1.00  0.00     0.044 C 
HETATM   17  C25 UNL     1      11.470  69.610  19.740  1.00  0.00     0.010 C 
HETATM   18  C29 UNL     1      13.635  68.569  19.985  1.00  0.00     0.150 C 
HETATM   19  C26 UNL     1      11.750  68.829  18.483  1.00  0.00     0.019 C 
HETATM   20  C27 UNL     1      12.853  67.862  18.965  1.00  0.00     0.131 C 
BRANCH  20  21
HETATM   21  C28 UNL     1      13.678  67.483  17.768  1.00  0.00     0.240 C 
HETATM   22  N6  UNL     1      14.538  66.359  17.732  1.00  0.00    -0.062 NA
HETATM   23  O4  UNL     1      13.597  68.203  16.757  1.00  0.00    -0.276 OA
ENDBRANCH  20  21
BRANCH  18  24
HETATM   24  O5  UNL     1      14.854  69.075  19.458  1.00  0.00    -0.369 OA
ATOM     25  H5  UNL     1      15.054  69.904  19.876  1.00  0.00     0.212 HD
ENDBRANCH  18  24
ENDBRANCH  10  13
ENDBRANCH   5  10
ENDBRANCH   1   5
BRANCH   3  26
HETATM   26  C7  UNL     1      15.116  64.320  25.541  1.00  0.00     0.184 C 
BRANCH  26  27
HETATM   27  N2  UNL     1      14.624  63.148  26.243  1.00  0.00    -0.329 N 
HETATM   28  C8  UNL     1      13.451  63.215  27.039  1.00  0.00     0.317 C 
HETATM   29  O2  UNL     1      12.786  64.284  27.175  1.00  0.00    -0.247 OA
HETATM   30  N3  UNL     1      12.947  62.085  27.734  1.00  0.00    -0.339 N 
ATOM     31  H3  UNL     1      13.440  61.195  27.661  1.00  0.00     0.164 HD
ATOM     32  H2  UNL     1      15.129  62.265  26.164  1.00  0.00     0.165 HD
BRANCH  30  33
HETATM   33  C9  UNL     1      11.763  62.166  28.534  1.00  0.00     0.086 C 
HETATM   34  C10 UNL     1      12.129  61.672  29.924  1.00  0.00     0.025 C 
HETATM   35  C11 UNL     1      10.875  61.643  30.782  1.00  0.00     0.002 C 
HETATM   36  C12 UNL     1       9.800  60.818  30.163  1.00  0.00     0.000 C 
HETATM   37  C13 UNL     1      10.211  60.242  28.827  1.00  0.00     0.002 C 
HETATM   38  C14 UNL     1      10.670  61.358  27.909  1.00  0.00     0.025 C 
ENDBRANCH  30  33
ENDBRANCH  26  27
BRANCH  26  39
HETATM   39  C15 UNL     1      16.601  64.085  25.346  1.00  0.00     0.052 C 
HETATM   40  C16 UNL     1      17.468  65.238  25.784  1.00  0.00     0.280 C 
HETATM   41  N4  UNL     1      18.655  64.558  26.357  1.00  0.00     0.089 N 
HETATM   42  C17 UNL     1      19.167  63.710  25.279  1.00  0.00     0.273 C 
HETATM   43  C20 UNL     1      17.911  63.639  27.241  1.00  0.00     0.277 C 
HETATM   44  C18 UNL     1      18.359  62.419  25.340  1.00  0.00     0.037 C 
HETATM   45  C19 UNL     1      17.143  62.932  26.113  1.00  0.00     0.024 C 
ENDBRANCH  26  39
ENDBRANCH   3  26
TORSDOF 12
ENDMDL
MODEL 5
REMARK VINA RESULT: -7.976084286      2.004      3.353
REMARK  12 active torsions:
REMARK  status: ('A' for Active; 'I' for Inactive)
REMARK    1  A    between atoms: C2_2  and  C3_3 
REMARK    2  A    between atoms: C3_3  and  C5_5 
REMARK    3  A    between atoms: C5_5  and  N1_6 
REMARK    4  A    between atoms: C5_5  and  C21_30 
REMARK       I    between atoms: N1_6  and  C6_8 
REMARK    5  A    between atoms: C6_8  and  C7_10 
REMARK    6  A    between atoms: C7_10  and  N2_11 
REMARK    7  A    between atoms: C7_10  and  C15_23 
REMARK       I    between atoms: N2_11  and  C8_13 
REMARK       I    between atoms: C8_13  and  N3_15 
REMARK    8  A    between atoms: N3_15  and  C9_17 
REMARK    9  A    between atoms: C21_30  and  O3_31 
REMARK   10  A    between atoms: C21_30  and  N5_33 
REMARK   11  A    between atoms: C27_39  and  C28_40 
REMARK   12  A    between atoms: C29_43  and  O5_44 
ROOT
HETATM    1  N1  UNL     1      15.670  65.502  22.668  1.00  0.00    -0.347 N 
ATOM      2  H1  UNL     1      15.409  64.602  22.263  1.00  0.00     0.163 HD
HETATM    3  C6  UNL     1      16.069  65.562  24.023  1.00  0.00     0.241 C 
HETATM    4  O1  UNL     1      16.386  66.716  24.450  1.00  0.00    -0.271 OA
ENDROOT
BRANCH   1   5
HETATM    5  C5  UNL     1      15.624  66.736  21.810  1.00  0.00     0.163 C 
BRANCH   5   6
HETATM    6  C3  UNL     1      16.785  66.615  20.847  1.00  0.00     0.012 C 
HETATM    7  C4  UNL     1      17.699  67.793  20.805  1.00  0.00     0.012 C 
BRANCH   6   8
HETATM    8  C2  UNL     1      17.523  65.342  20.795  1.00  0.00     0.002 C 
HETATM    9  C1  UNL     1      17.379  64.573  19.518  1.00  0.00     0.005 C 
ENDBRANCH   6   8
ENDBRANCH   5   6
BRANCH   5  10
HETATM   10  C21 UNL     1      14.293  66.702  21.203  1.00  0.00     0.139 C 
BRANCH  10  11
HETATM   11  O3  UNL     1      13.314  66.382  22.014  1.00  0.00    -0.348 OA
ATOM     12  H3  UNL     1      13.300  66.852  22.840  1.00  0.00     0.219 HD
ENDBRANCH  10  11
BRANCH  10  13
HETATM   13  N5  UNL     1      13.893  66.961  19.883  1.00  0.00    -0.331 N 
HETATM   14  C22 UNL     1      13.968  65.892  18.847  1.00  0.00     0.128 C 
HETATM   15  C23 UNL     1      14.765  66.667  17.787  1.00  0.00     0.029 C 
HETATM   16  C24 UNL     1      13.955  67.947  17.780  1.00  0.00     0.044 C 
HETATM   17  C25 UNL     1      14.776  69.178  17.609  1.00  0.00     0.010 C 
HETATM   18  C29 UNL     1      13.304  68.034  19.144  1.00  0.00     0.150 C 
HETATM   19  C26 UNL     1      13.973  70.221  18.340  1.00  0.00     0.019 C 
HETATM   20  C27 UNL     1      13.490  69.425  19.571  1.00  0.00     0.131 C 
BRANCH  20  21
HETATM   21  C28 UNL     1      12.212  70.056  20.046  1.00  0.00     0.240 C 
HETATM   22  N6  UNL     1      11.655  69.832  21.329  1.00  0.00    -0.062 NA
HETATM   23  O4  UNL     1      11.615  70.815  19.262  1.00  0.00    -0.276 OA
ENDBRANCH  20  21
BRANCH  18  24
HETATM   24  O5  UNL     1      11.935  67.735  18.902  1.00  0.00    -0.369 OA
ATOM     25  H5  UNL     1      11.488  67.634  19.734  1.00  0.00     0.212 HD
ENDBRANCH  18  24
ENDBRANCH  10  13
ENDBRANCH   5  10
ENDBRANCH   1   5
BRANCH   3  26
HETATM   26  C7  UNL     1      16.120  64.363  24.895  1.00  0.00     0.184 C 
BRANCH  26  27
HETATM   27  N2  UNL     1      14.821  63.725  25.007  1.00  0.00    -0.329 N 
HETATM   28  C8  UNL     1      14.162  63.630  26.262  1.00  0.00     0.317 C 
HETATM   29  O2  UNL     1      14.669  64.088  27.328  1.00  0.00    -0.247 OA
HETATM   30  N3  UNL     1      12.892  63.013  26.399  1.00  0.00    -0.339 N 
ATOM     31  H3  UNL     1      12.434  62.626  25.574  1.00  0.00     0.164 HD
ATOM     32  H2  UNL     1      14.375  63.340  24.175  1.00  0.00     0.165 HD
BRANCH  30  33
HETATM   33  C9  UNL     1      12.239  62.922  27.669  1.00  0.00     0.086 C 
HETATM   34  C10 UNL     1      13.041  61.948  28.516  1.00  0.00     0.025 C 
HETATM   35  C11 UNL     1      12.325  61.741  29.841  1.00  0.00     0.002 C 
HETATM   36  C12 UNL     1      10.920  61.284  29.645  1.00  0.00     0.000 C 
HETATM   37  C13 UNL     1      10.549  61.168  28.184  1.00  0.00     0.002 C 
HETATM   38  C14 UNL     1      10.820  62.484  27.482  1.00  0.00     0.025 C 
ENDBRANCH  30  33
ENDBRANCH  26  27
BRANCH  26  39
HETATM   39  C15 UNL     1      17.047  63.305  24.332  1.00  0.00     0.052 C 
HETATM   40  C16 UNL     1      18.511  63.598  24.539  1.00  0.00     0.280 C 
HETATM   41  N4  UNL     1      19.083  62.253  24.792  1.00  0.00     0.089 N 
HETATM   42  C17 UNL     1      18.722  61.456  23.619  1.00  0.00     0.273 C 
HETATM   43  C20 UNL     1      18.115  61.854  25.834  1.00  0.00     0.277 C 
HETATM   44  C18 UNL     1      17.310  60.940  23.880  1.00  0.00     0.037 C 
HETATM   45  C19 UNL     1      16.874  61.957  24.934  1.00  0.00     0.024 C 
ENDBRANCH  26  39
ENDBRANCH   3  26
TORSDOF 12
ENDMDL
