MODEL 1
REMARK VINA RESULT: -7.635173442      0.000      0.000
REMARK  11 active torsions:
REMARK  status: ('A' for Active; 'I' for Inactive)
REMARK    1  A    between atoms: C2_2  and  C4_4 
REMARK    2  A    between atoms: C4_4  and  C5_5 
REMARK    3  A    between atoms: C7_10  and  C8_11 
REMARK    4  A    between atoms: C8_11  and  C9_12 
REMARK    5  A    between atoms: C13_19  and  C14_20 
REMARK    6  A    between atoms: C14_20  and  C15_21 
REMARK    7  A    between atoms: C15_21  and  C16_22 
REMARK    8  A    between atoms: C16_22  and  C17_23 
REMARK    9  A    between atoms: C17_23  and  N3_24 
REMARK   10  A    between atoms: C18_30  and  O3_31 
REMARK   11  A    between atoms: C24_40  and  C25_41 
ROOT
HETATM    1  C5  UNL     1      13.752  65.971  23.624  1.00  0.00     0.177 C 
HETATM    2  N1  UNL     1      14.919  66.612  24.181  1.00  0.00    -0.346 N 
ATOM      3  H1  UNL     1      14.748  67.183  25.009  1.00  0.00     0.163 HD
HETATM    4  C6  UNL     1      16.258  66.563  23.750  1.00  0.00     0.241 C 
HETATM    5  O1  UNL     1      16.817  67.709  23.573  1.00  0.00    -0.271 OA
HETATM    6  C7  UNL     1      17.094  65.392  23.480  1.00  0.00     0.177 C 
HETATM    7  N2  UNL     1      17.205  64.947  22.128  1.00  0.00    -0.346 N 
ATOM      8  H2  UNL     1      17.620  64.021  22.025  1.00  0.00     0.163 HD
HETATM    9  C12 UNL     1      16.845  65.556  20.910  1.00  0.00     0.241 C 
HETATM   10  O2  UNL     1      15.933  64.914  20.275  1.00  0.00    -0.271 OA
HETATM   11  C13 UNL     1      17.341  66.762  20.290  1.00  0.00     0.175 C 
HETATM   12  N4  UNL     1      16.457  67.724  19.750  1.00  0.00    -0.359 N 
ATOM     13  H4  UNL     1      16.938  68.361  19.114  1.00  0.00     0.162 HD
HETATM   14  C18 UNL     1      15.112  68.027  19.855  1.00  0.00     0.135 C 
HETATM   15  C19 UNL     1      13.896  67.301  19.434  1.00  0.00     0.161 C 
HETATM   16  C20 UNL     1      13.949  66.820  17.980  1.00  0.00     0.035 C 
HETATM   17  C21 UNL     1      13.692  68.055  17.152  1.00  0.00     0.022 C 
HETATM   18  C22 UNL     1      13.083  69.049  18.096  1.00  0.00     0.127 C 
HETATM   19  N5  UNL     1      12.740  68.206  19.252  1.00  0.00    -0.340 N 
HETATM   20  C23 UNL     1      11.582  68.185  20.045  1.00  0.00     0.226 C 
HETATM   21  O4  UNL     1      10.454  68.148  19.432  1.00  0.00    -0.273 OA
HETATM   22  C24 UNL     1      11.518  68.201  21.524  1.00  0.00     0.099 C 
HETATM   23  C28 UNL     1      11.088  66.865  22.029  1.00  0.00     0.137 C 
HETATM   24  N6  UNL     1      11.290  66.634  23.433  1.00  0.00    -0.358 N 
ATOM     25  H6  UNL     1      10.454  66.459  23.990  1.00  0.00     0.162 HD
HETATM   26  C29 UNL     1      12.497  66.622  24.109  1.00  0.00     0.240 C 
HETATM   27  O5  UNL     1      12.607  67.203  25.248  1.00  0.00    -0.271 OA
ENDROOT
BRANCH  11  28
HETATM   28  C14 UNL     1      18.467  66.459  19.263  1.00  0.00     0.035 C 
BRANCH  28  29
HETATM   29  C15 UNL     1      18.464  67.332  18.086  1.00  0.00     0.004 C 
BRANCH  29  30
HETATM   30  C16 UNL     1      19.811  67.828  17.697  1.00  0.00     0.027 C 
BRANCH  30  31
HETATM   31  C17 UNL     1      20.961  66.902  17.771  1.00  0.00     0.229 C 
BRANCH  31  32
HETATM   32  N3  UNL     1      21.416  66.306  16.560  1.00  0.00    -0.079 N 
ATOM     33  H33 UNL     1      20.952  66.754  15.771  1.00  0.00     0.274 HD
ATOM     34  H32 UNL     1      22.386  66.579  16.397  1.00  0.00     0.274 HD
ATOM     35  H31 UNL     1      21.334  65.293  16.465  1.00  0.00     0.274 HD
ENDBRANCH  31  32
ENDBRANCH  30  31
ENDBRANCH  29  30
ENDBRANCH  28  29
ENDBRANCH  11  28
BRANCH  14  36
HETATM   36  O3  UNL     1      14.829  69.164  20.431  1.00  0.00    -0.348 OA
ATOM     37  H3  UNL     1      14.121  69.143  21.063  1.00  0.00     0.219 HD
ENDBRANCH  14  36
BRANCH   6  38
HETATM   38  C8  UNL     1      18.479  65.430  24.063  1.00  0.00     0.038 C 
BRANCH  38  39
HETATM   39  C9  UNL     1      18.743  64.630  25.274  1.00  0.00    -0.020 C 
HETATM   40  C10 UNL     1      18.727  63.152  24.805  1.00  0.00     0.009 C 
HETATM   41  C11 UNL     1      20.083  64.807  25.934  1.00  0.00     0.009 C 
ENDBRANCH  38  39
ENDBRANCH   6  38
BRANCH   1  42
HETATM   42  C4  UNL     1      13.699  64.503  23.733  1.00  0.00     0.038 C 
BRANCH  42  43
HETATM   43  C2  UNL     1      14.395  63.807  24.822  1.00  0.00    -0.020 C 
HETATM   44  C1  UNL     1      14.941  62.495  24.210  1.00  0.00     0.009 C 
HETATM   45  C3  UNL     1      13.581  63.382  26.003  1.00  0.00     0.009 C 
ENDBRANCH  42  43
ENDBRANCH   1  42
BRANCH  22  46
HETATM   46  C25 UNL     1      10.644  69.351  21.923  1.00  0.00    -0.008 C 
HETATM   47  C26 UNL     1      11.260  70.215  23.017  1.00  0.00     0.010 C 
HETATM   48  C27 UNL     1       9.258  69.001  22.342  1.00  0.00     0.010 C 
ENDBRANCH  22  46
TORSDOF 11
ENDMDL
MODEL 2
REMARK VINA RESULT: -7.308830333      3.257      6.033
REMARK  11 active torsions:
REMARK  status: ('A' for Active; 'I' for Inactive)
REMARK    1  A    between atoms: C2_2  and  C4_4 
REMARK    2  A    between atoms: C4_4  and  C5_5 
REMARK    3  A    between atoms: C7_10  and  C8_11 
REMARK    4  A    between atoms: C8_11  and  C9_12 
REMARK    5  A    between atoms: C13_19  and  C14_20 
REMARK    6  A    between atoms: C14_20  and  C15_21 
REMARK    7  A    between atoms: C15_21  and  C16_22 
REMARK    8  A    between atoms: C16_22  and  C17_23 
REMARK    9  A    between atoms: C17_23  and  N3_24 
REMARK   10  A    between atoms: C18_30  and  O3_31 
REMARK   11  A    between atoms: C24_40  and  C25_41 
ROOT
HETATM    1  C5  UNL     1      12.924  65.128  26.298  1.00  0.00     0.177 C 
HETATM    2  N1  UNL     1      13.676  65.517  27.467  1.00  0.00    -0.346 N 
ATOM      3  H1  UNL     1      13.374  66.385  27.910  1.00  0.00     0.163 HD
HETATM    4  C6  UNL     1      14.764  64.874  28.085  1.00  0.00     0.241 C 
HETATM    5  O1  UNL     1      15.801  65.614  28.274  1.00  0.00    -0.271 OA
HETATM    6  C7  UNL     1      14.875  63.486  28.539  1.00  0.00     0.177 C 
HETATM    7  N2  UNL     1      15.505  62.546  27.669  1.00  0.00    -0.346 N 
ATOM      8  H2  UNL     1      15.369  61.571  27.938  1.00  0.00     0.163 HD
HETATM    9  C12 UNL     1      16.280  62.720  26.506  1.00  0.00     0.241 C 
HETATM   10  O2  UNL     1      15.737  62.218  25.457  1.00  0.00    -0.271 OA
HETATM   11  C13 UNL     1      17.561  63.363  26.330  1.00  0.00     0.175 C 
HETATM   12  N4  UNL     1      17.783  64.273  25.270  1.00  0.00    -0.359 N 
ATOM     13  H4  UNL     1      18.779  64.423  25.106  1.00  0.00     0.162 HD
HETATM   14  C18 UNL     1      17.006  65.013  24.399  1.00  0.00     0.135 C 
HETATM   15  C19 UNL     1      16.100  64.619  23.299  1.00  0.00     0.161 C 
HETATM   16  C20 UNL     1      16.734  63.627  22.317  1.00  0.00     0.035 C 
HETATM   17  C21 UNL     1      17.662  64.459  21.469  1.00  0.00     0.022 C 
HETATM   18  C22 UNL     1      17.222  65.878  21.667  1.00  0.00     0.127 C 
HETATM   19  N5  UNL     1      15.911  65.706  22.315  1.00  0.00    -0.340 N 
HETATM   20  C23 UNL     1      14.696  66.370  22.086  1.00  0.00     0.226 C 
HETATM   21  O4  UNL     1      14.303  66.469  20.868  1.00  0.00    -0.273 OA
HETATM   22  C24 UNL     1      13.809  66.974  23.107  1.00  0.00     0.099 C 
HETATM   23  C28 UNL     1      12.572  66.153  23.254  1.00  0.00     0.137 C 
HETATM   24  N6  UNL     1      11.776  66.428  24.419  1.00  0.00    -0.358 N 
ATOM     25  H6  UNL     1      10.827  66.764  24.254  1.00  0.00     0.162 HD
HETATM   26  C29 UNL     1      12.160  66.286  25.741  1.00  0.00     0.240 C 
HETATM   27  O5  UNL     1      11.863  67.190  26.602  1.00  0.00    -0.271 OA
ENDROOT
BRANCH  11  28
HETATM   28  C14 UNL     1      18.729  62.339  26.386  1.00  0.00     0.035 C 
BRANCH  28  29
HETATM   29  C15 UNL     1      19.263  61.957  25.075  1.00  0.00     0.004 C 
BRANCH  29  30
HETATM   30  C16 UNL     1      19.000  60.540  24.706  1.00  0.00     0.027 C 
BRANCH  30  31
HETATM   31  C17 UNL     1      19.674  59.468  25.469  1.00  0.00     0.229 C 
BRANCH  31  32
HETATM   32  N3  UNL     1      19.656  58.151  24.928  1.00  0.00    -0.079 N 
ATOM     33  H33 UNL     1      18.788  57.690  25.199  1.00  0.00     0.274 HD
ATOM     34  H32 UNL     1      19.539  58.206  23.916  1.00  0.00     0.274 HD
ATOM     35  H31 UNL     1      20.442  57.536  25.140  1.00  0.00     0.274 HD
ENDBRANCH  31  32
ENDBRANCH  30  31
ENDBRANCH  29  30
ENDBRANCH  28  29
ENDBRANCH  11  28
BRANCH  14  36
HETATM   36  O3  UNL     1      17.059  66.309  24.549  1.00  0.00    -0.348 OA
ATOM     37  H3  UNL     1      17.457  66.792  23.835  1.00  0.00     0.219 HD
ENDBRANCH  14  36
BRANCH   6  38
HETATM   38  C8  UNL     1      15.451  63.293  29.914  1.00  0.00     0.038 C 
BRANCH  38  39
HETATM   39  C9  UNL     1      14.846  62.264  30.781  1.00  0.00    -0.020 C 
HETATM   40  C10 UNL     1      15.337  62.591  32.215  1.00  0.00     0.009 C 
HETATM   41  C11 UNL     1      13.346  62.250  30.884  1.00  0.00     0.009 C 
ENDBRANCH  38  39
ENDBRANCH   6  38
BRANCH   1  42
HETATM   42  C4  UNL     1      12.092  63.920  26.429  1.00  0.00     0.038 C 
BRANCH  42  43
HETATM   43  C2  UNL     1      11.301  63.683  27.643  1.00  0.00    -0.020 C 
HETATM   44  C1  UNL     1      11.238  62.147  27.818  1.00  0.00     0.009 C 
HETATM   45  C3  UNL     1       9.876  64.137  27.639  1.00  0.00     0.009 C 
ENDBRANCH  42  43
ENDBRANCH   1  42
BRANCH  22  46
HETATM   46  C25 UNL     1      13.589  68.405  22.720  1.00  0.00    -0.008 C 
HETATM   47  C26 UNL     1      13.812  69.374  23.875  1.00  0.00     0.010 C 
HETATM   48  C27 UNL     1      12.268  68.719  22.108  1.00  0.00     0.010 C 
ENDBRANCH  22  46
TORSDOF 11
ENDMDL
MODEL 3
REMARK VINA RESULT: -7.185585364      0.874      1.057
REMARK  11 active torsions:
REMARK  status: ('A' for Active; 'I' for Inactive)
REMARK    1  A    between atoms: C2_2  and  C4_4 
REMARK    2  A    between atoms: C4_4  and  C5_5 
REMARK    3  A    between atoms: C7_10  and  C8_11 
REMARK    4  A    between atoms: C8_11  and  C9_12 
REMARK    5  A    between atoms: C13_19  and  C14_20 
REMARK    6  A    between atoms: C14_20  and  C15_21 
REMARK    7  A    between atoms: C15_21  and  C16_22 
REMARK    8  A    between atoms: C16_22  and  C17_23 
REMARK    9  A    between atoms: C17_23  and  N3_24 
REMARK   10  A    between atoms: C18_30  and  O3_31 
REMARK   11  A    between atoms: C24_40  and  C25_41 
ROOT
HETATM    1  C5  UNL     1      13.738  66.092  23.640  1.00  0.00     0.177 C 
HETATM    2  N1  UNL     1      14.909  66.739  24.182  1.00  0.00    -0.346 N 
ATOM      3  H1  UNL     1      14.739  67.343  24.987  1.00  0.00     0.163 HD
HETATM    4  C6  UNL     1      16.249  66.657  23.764  1.00  0.00     0.241 C 
HETATM    5  O1  UNL     1      16.825  67.789  23.548  1.00  0.00    -0.271 OA
HETATM    6  C7  UNL     1      17.073  65.467  23.543  1.00  0.00     0.177 C 
HETATM    7  N2  UNL     1      17.188  64.971  22.209  1.00  0.00    -0.346 N 
ATOM      8  H2  UNL     1      17.591  64.036  22.144  1.00  0.00     0.163 HD
HETATM    9  C12 UNL     1      16.844  65.538  20.967  1.00  0.00     0.241 C 
HETATM   10  O2  UNL     1      15.928  64.885  20.349  1.00  0.00    -0.271 OA
HETATM   11  C13 UNL     1      17.360  66.715  20.307  1.00  0.00     0.175 C 
HETATM   12  N4  UNL     1      16.492  67.667  19.724  1.00  0.00    -0.359 N 
ATOM     13  H4  UNL     1      16.985  68.273  19.069  1.00  0.00     0.162 HD
HETATM   14  C18 UNL     1      15.151  67.991  19.809  1.00  0.00     0.135 C 
HETATM   15  C19 UNL     1      13.928  67.264  19.405  1.00  0.00     0.161 C 
HETATM   16  C20 UNL     1      13.985  66.729  17.970  1.00  0.00     0.035 C 
HETATM   17  C21 UNL     1      13.750  67.936  17.096  1.00  0.00     0.022 C 
HETATM   18  C22 UNL     1      13.148  68.972  17.997  1.00  0.00     0.127 C 
HETATM   19  N5  UNL     1      12.785  68.176  19.182  1.00  0.00    -0.340 N 
HETATM   20  C23 UNL     1      11.621  68.200  19.965  1.00  0.00     0.226 C 
HETATM   21  O4  UNL     1      10.498  68.155  19.346  1.00  0.00    -0.273 OA
HETATM   22  C24 UNL     1      11.547  68.272  21.443  1.00  0.00     0.099 C 
HETATM   23  C28 UNL     1      11.097  66.960  21.993  1.00  0.00     0.137 C 
HETATM   24  N6  UNL     1      11.285  66.779  23.406  1.00  0.00    -0.358 N 
ATOM     25  H6  UNL     1      10.443  66.636  23.964  1.00  0.00     0.162 HD
HETATM   26  C29 UNL     1      12.488  66.778  24.091  1.00  0.00     0.240 C 
HETATM   27  O5  UNL     1      12.597  67.399  25.209  1.00  0.00    -0.271 OA
ENDROOT
BRANCH  11  28
HETATM   28  C14 UNL     1      18.489  66.359  19.300  1.00  0.00     0.035 C 
BRANCH  28  29
HETATM   29  C15 UNL     1      18.535  67.219  18.114  1.00  0.00     0.004 C 
BRANCH  29  30
HETATM   30  C16 UNL     1      19.814  67.961  17.955  1.00  0.00     0.027 C 
BRANCH  30  31
HETATM   31  C17 UNL     1      19.839  69.409  18.251  1.00  0.00     0.229 C 
BRANCH  31  32
HETATM   32  N3  UNL     1      18.633  70.147  18.081  1.00  0.00    -0.079 N 
ATOM     33  H33 UNL     1      17.931  69.545  17.652  1.00  0.00     0.274 HD
ATOM     34  H32 UNL     1      18.212  70.316  18.995  1.00  0.00     0.274 HD
ATOM     35  H31 UNL     1      18.678  71.027  17.567  1.00  0.00     0.274 HD
ENDBRANCH  31  32
ENDBRANCH  30  31
ENDBRANCH  29  30
ENDBRANCH  28  29
ENDBRANCH  11  28
BRANCH  14  36
HETATM   36  O3  UNL     1      14.878  69.152  20.340  1.00  0.00    -0.348 OA
ATOM     37  H3  UNL     1      14.420  69.129  21.171  1.00  0.00     0.219 HD
ENDBRANCH  14  36
BRANCH   6  38
HETATM   38  C8  UNL     1      18.454  65.508  24.135  1.00  0.00     0.038 C 
BRANCH  38  39
HETATM   39  C9  UNL     1      18.809  64.487  25.138  1.00  0.00    -0.020 C 
HETATM   40  C10 UNL     1      17.693  64.557  26.212  1.00  0.00     0.009 C 
HETATM   41  C11 UNL     1      18.813  63.053  24.684  1.00  0.00     0.009 C 
ENDBRANCH  38  39
ENDBRANCH   6  38
BRANCH   1  42
HETATM   42  C4  UNL     1      13.664  64.631  23.803  1.00  0.00     0.038 C 
BRANCH  42  43
HETATM   43  C2  UNL     1      14.262  63.977  24.974  1.00  0.00    -0.020 C 
HETATM   44  C1  UNL     1      14.848  62.639  24.462  1.00  0.00     0.009 C 
HETATM   45  C3  UNL     1      13.350  63.602  26.099  1.00  0.00     0.009 C 
ENDBRANCH  42  43
ENDBRANCH   1  42
BRANCH  22  46
HETATM   46  C25 UNL     1      10.685  69.447  21.792  1.00  0.00    -0.008 C 
HETATM   47  C26 UNL     1      11.301  70.338  22.864  1.00  0.00     0.010 C 
HETATM   48  C27 UNL     1       9.290  69.131  22.205  1.00  0.00     0.010 C 
ENDBRANCH  22  46
TORSDOF 11
ENDMDL
MODEL 4
REMARK VINA RESULT: -7.184648341      2.172      6.371
REMARK  11 active torsions:
REMARK  status: ('A' for Active; 'I' for Inactive)
REMARK    1  A    between atoms: C2_2  and  C4_4 
REMARK    2  A    between atoms: C4_4  and  C5_5 
REMARK    3  A    between atoms: C7_10  and  C8_11 
REMARK    4  A    between atoms: C8_11  and  C9_12 
REMARK    5  A    between atoms: C13_19  and  C14_20 
REMARK    6  A    between atoms: C14_20  and  C15_21 
REMARK    7  A    between atoms: C15_21  and  C16_22 
REMARK    8  A    between atoms: C16_22  and  C17_23 
REMARK    9  A    between atoms: C17_23  and  N3_24 
REMARK   10  A    between atoms: C18_30  and  O3_31 
REMARK   11  A    between atoms: C24_40  and  C25_41 
ROOT
HETATM    1  C5  UNL     1      16.721  67.636  20.744  1.00  0.00     0.177 C 
HETATM    2  N1  UNL     1      16.866  66.200  20.723  1.00  0.00    -0.346 N 
ATOM      3  H1  UNL     1      17.153  65.804  19.828  1.00  0.00     0.163 HD
HETATM    4  C6  UNL     1      16.670  65.267  21.758  1.00  0.00     0.241 C 
HETATM    5  O1  UNL     1      15.877  64.293  21.473  1.00  0.00    -0.271 OA
HETATM    6  C7  UNL     1      17.244  65.254  23.105  1.00  0.00     0.177 C 
HETATM    7  N2  UNL     1      16.461  65.793  24.171  1.00  0.00    -0.346 N 
ATOM      8  H2  UNL     1      16.982  65.950  25.034  1.00  0.00     0.163 HD
HETATM    9  C12 UNL     1      15.100  66.147  24.245  1.00  0.00     0.241 C 
HETATM   10  O2  UNL     1      14.916  67.400  24.455  1.00  0.00    -0.271 OA
HETATM   11  C13 UNL     1      13.917  65.328  24.125  1.00  0.00     0.175 C 
HETATM   12  N4  UNL     1      12.829  65.729  23.316  1.00  0.00    -0.359 N 
ATOM     13  H4  UNL     1      11.980  65.211  23.545  1.00  0.00     0.162 HD
HETATM   14  C18 UNL     1      12.613  66.638  22.297  1.00  0.00     0.135 C 
HETATM   15  C19 UNL     1      12.623  68.116  22.268  1.00  0.00     0.161 C 
HETATM   16  C20 UNL     1      11.777  68.750  23.377  1.00  0.00     0.035 C 
HETATM   17  C21 UNL     1      10.349  68.591  22.917  1.00  0.00     0.022 C 
HETATM   18  C22 UNL     1      10.433  68.305  21.447  1.00  0.00     0.127 C 
HETATM   19  N5  UNL     1      11.829  68.657  21.143  1.00  0.00    -0.340 N 
HETATM   20  C23 UNL     1      12.367  69.369  20.060  1.00  0.00     0.226 C 
HETATM   21  O4  UNL     1      11.812  70.488  19.762  1.00  0.00    -0.273 OA
HETATM   22  C24 UNL     1      13.516  68.968  19.216  1.00  0.00     0.099 C 
HETATM   23  C28 UNL     1      14.694  69.833  19.517  1.00  0.00     0.137 C 
HETATM   24  N6  UNL     1      15.957  69.362  19.018  1.00  0.00    -0.358 N 
ATOM     25  H6  UNL     1      16.431  69.960  18.342  1.00  0.00     0.162 HD
HETATM   26  C29 UNL     1      16.598  68.184  19.358  1.00  0.00     0.240 C 
HETATM   27  O5  UNL     1      17.149  67.462  18.451  1.00  0.00    -0.271 OA
ENDROOT
BRANCH  11  28
HETATM   28  C14 UNL     1      13.390  64.875  25.515  1.00  0.00     0.035 C 
BRANCH  28  29
HETATM   29  C15 UNL     1      13.772  63.511  25.892  1.00  0.00     0.004 C 
BRANCH  29  30
HETATM   30  C16 UNL     1      12.930  62.922  26.967  1.00  0.00     0.027 C 
BRANCH  30  31
HETATM   31  C17 UNL     1      11.624  63.544  27.271  1.00  0.00     0.229 C 
BRANCH  31  32
HETATM   32  N3  UNL     1      10.499  62.687  27.442  1.00  0.00    -0.079 N 
ATOM     33  H33 UNL     1      10.672  61.808  26.954  1.00  0.00     0.274 HD
ATOM     34  H32 UNL     1      10.466  62.368  28.410  1.00  0.00     0.274 HD
ATOM     35  H31 UNL     1       9.581  63.043  27.176  1.00  0.00     0.274 HD
ENDBRANCH  31  32
ENDBRANCH  30  31
ENDBRANCH  29  30
ENDBRANCH  28  29
ENDBRANCH  11  28
BRANCH  14  36
HETATM   36  O3  UNL     1      12.347  66.126  21.126  1.00  0.00    -0.348 OA
ATOM     37  H3  UNL     1      12.225  66.750  20.420  1.00  0.00     0.219 HD
ENDBRANCH  14  36
BRANCH   6  38
HETATM   38  C8  UNL     1      17.797  63.935  23.567  1.00  0.00     0.038 C 
BRANCH  38  39
HETATM   39  C9  UNL     1      17.066  63.207  24.621  1.00  0.00    -0.020 C 
HETATM   40  C10 UNL     1      16.527  61.923  23.940  1.00  0.00     0.009 C 
HETATM   41  C11 UNL     1      17.867  62.711  25.793  1.00  0.00     0.009 C 
ENDBRANCH  38  39
ENDBRANCH   6  38
BRANCH   1  42
HETATM   42  C4  UNL     1      17.699  68.380  21.554  1.00  0.00     0.038 C 
BRANCH  42  43
HETATM   43  C2  UNL     1      17.256  69.274  22.631  1.00  0.00    -0.020 C 
HETATM   44  C1  UNL     1      17.516  70.712  22.126  1.00  0.00     0.009 C 
HETATM   45  C3  UNL     1      17.967  69.182  23.943  1.00  0.00     0.009 C 
ENDBRANCH  42  43
ENDBRANCH   1  42
BRANCH  22  46
HETATM   46  C25 UNL     1      13.053  68.984  17.791  1.00  0.00    -0.008 C 
HETATM   47  C26 UNL     1      11.725  68.262  17.590  1.00  0.00     0.010 C 
HETATM   48  C27 UNL     1      14.017  68.455  16.787  1.00  0.00     0.010 C 
ENDBRANCH  22  46
TORSDOF 11
ENDMDL
MODEL 5
REMARK VINA RESULT: -7.124541629      5.721     10.140
REMARK  11 active torsions:
REMARK  status: ('A' for Active; 'I' for Inactive)
REMARK    1  A    between atoms: C2_2  and  C4_4 
REMARK    2  A    between atoms: C4_4  and  C5_5 
REMARK    3  A    between atoms: C7_10  and  C8_11 
REMARK    4  A    between atoms: C8_11  and  C9_12 
REMARK    5  A    between atoms: C13_19  and  C14_20 
REMARK    6  A    between atoms: C14_20  and  C15_21 
REMARK    7  A    between atoms: C15_21  and  C16_22 
REMARK    8  A    between atoms: C16_22  and  C17_23 
REMARK    9  A    between atoms: C17_23  and  N3_24 
REMARK   10  A    between atoms: C18_30  and  O3_31 
REMARK   11  A    between atoms: C24_40  and  C25_41 
ROOT
HETATM    1  C5  UNL     1      16.976  65.658  29.566  1.00  0.00     0.177 C 
HETATM    2  N1  UNL     1      16.641  64.647  30.541  1.00  0.00    -0.346 N 
ATOM      3  H1  UNL     1      17.423  64.303  31.098  1.00  0.00     0.163 HD
HETATM    4  C6  UNL     1      15.393  64.069  30.836  1.00  0.00     0.241 C 
HETATM    5  O1  UNL     1      15.368  62.781  30.814  1.00  0.00    -0.271 OA
HETATM    6  C7  UNL     1      14.127  64.729  31.162  1.00  0.00     0.177 C 
HETATM    7  N2  UNL     1      13.184  64.926  30.108  1.00  0.00    -0.346 N 
ATOM      8  H2  UNL     1      12.425  65.567  30.340  1.00  0.00     0.163 HD
HETATM    9  C12 UNL     1      13.112  64.395  28.806  1.00  0.00     0.241 C 
HETATM   10  O2  UNL     1      13.216  65.288  27.890  1.00  0.00    -0.271 OA
HETATM   11  C13 UNL     1      12.942  63.030  28.365  1.00  0.00     0.175 C 
HETATM   12  N4  UNL     1      13.753  62.485  27.343  1.00  0.00    -0.359 N 
ATOM     13  H4  UNL     1      13.345  61.635  26.953  1.00  0.00     0.162 HD
HETATM   14  C18 UNL     1      14.953  62.800  26.734  1.00  0.00     0.135 C 
HETATM   15  C19 UNL     1      15.357  63.925  25.863  1.00  0.00     0.161 C 
HETATM   16  C20 UNL     1      14.392  64.166  24.697  1.00  0.00     0.035 C 
HETATM   17  C21 UNL     1      14.702  63.075  23.703  1.00  0.00     0.022 C 
HETATM   18  C22 UNL     1      16.053  62.552  24.091  1.00  0.00     0.127 C 
HETATM   19  N5  UNL     1      16.528  63.588  25.023  1.00  0.00    -0.340 N 
HETATM   20  C23 UNL     1      17.789  64.192  25.138  1.00  0.00     0.226 C 
HETATM   21  O4  UNL     1      18.324  64.638  24.059  1.00  0.00    -0.273 OA
HETATM   22  C24 UNL     1      18.577  64.375  26.378  1.00  0.00     0.099 C 
HETATM   23  C28 UNL     1      18.584  65.814  26.768  1.00  0.00     0.137 C 
HETATM   24  N6  UNL     1      19.029  66.096  28.106  1.00  0.00    -0.358 N 
ATOM     25  H6  UNL     1      19.864  66.674  28.196  1.00  0.00     0.162 HD
HETATM   26  C29 UNL     1      18.444  65.666  29.284  1.00  0.00     0.240 C 
HETATM   27  O5  UNL     1      19.172  65.229  30.247  1.00  0.00    -0.271 OA
ENDROOT
BRANCH  11  28
HETATM   28  C14 UNL     1      11.451  62.702  28.073  1.00  0.00     0.035 C 
BRANCH  28  29
HETATM   29  C15 UNL     1      11.193  61.296  27.751  1.00  0.00     0.004 C 
BRANCH  29  30
HETATM   30  C16 UNL     1       9.952  60.754  28.367  1.00  0.00     0.027 C 
BRANCH  30  31
HETATM   31  C17 UNL     1      10.025  60.170  29.723  1.00  0.00     0.229 C 
BRANCH  31  32
HETATM   32  N3  UNL     1       9.076  59.166  30.071  1.00  0.00    -0.079 N 
ATOM     33  H33 UNL     1       9.572  58.327  30.370  1.00  0.00     0.274 HD
ATOM     34  H32 UNL     1       8.608  59.434  30.937  1.00  0.00     0.274 HD
ATOM     35  H31 UNL     1       8.374  58.911  29.376  1.00  0.00     0.274 HD
ENDBRANCH  31  32
ENDBRANCH  30  31
ENDBRANCH  29  30
ENDBRANCH  28  29
ENDBRANCH  11  28
BRANCH  14  36
HETATM   36  O3  UNL     1      15.936  61.968  26.947  1.00  0.00    -0.348 OA
ATOM     37  H3  UNL     1      16.615  61.951  26.284  1.00  0.00     0.219 HD
ENDBRANCH  14  36
BRANCH   6  38
HETATM   38  C8  UNL     1      13.383  64.169  32.342  1.00  0.00     0.038 C 
BRANCH  38  39
HETATM   39  C9  UNL     1      12.005  63.689  32.128  1.00  0.00    -0.020 C 
HETATM   40  C10 UNL     1      12.125  62.153  31.949  1.00  0.00     0.009 C 
HETATM   41  C11 UNL     1      11.033  63.867  33.262  1.00  0.00     0.009 C 
ENDBRANCH  38  39
ENDBRANCH   6  38
BRANCH   1  42
HETATM   42  C4  UNL     1      16.447  67.009  29.818  1.00  0.00     0.038 C 
BRANCH  42  43
HETATM   43  C2  UNL     1      15.611  67.685  28.819  1.00  0.00    -0.020 C 
HETATM   44  C1  UNL     1      16.479  68.827  28.239  1.00  0.00     0.009 C 
HETATM   45  C3  UNL     1      14.358  68.347  29.298  1.00  0.00     0.009 C 
ENDBRANCH  42  43
ENDBRANCH   1  42
BRANCH  22  46
HETATM   46  C25 UNL     1      19.926  63.764  26.146  1.00  0.00    -0.008 C 
HETATM   47  C26 UNL     1      20.336  62.793  27.248  1.00  0.00     0.010 C 
HETATM   48  C27 UNL     1      21.047  64.721  25.939  1.00  0.00     0.010 C 
ENDBRANCH  22  46
TORSDOF 11
ENDMDL
