MODEL 1
REMARK VINA RESULT: -7.041628157      0.000      0.000
REMARK  9 active torsions:
REMARK  status: ('A' for Active; 'I' for Inactive)
REMARK    1  A    between atoms: C2_2  and  C4_4 
REMARK    2  A    between atoms: C4_4  and  C5_5 
REMARK    3  A    between atoms: C7_10  and  C8_11 
REMARK    4  A    between atoms: C8_11  and  C9_12 
REMARK    5  A    between atoms: C13_19  and  C14_20 
REMARK    6  A    between atoms: C14_20  and  C15_21 
REMARK    7  A    between atoms: C19_28  and  C20_29 
REMARK    8  A    between atoms: C24_36  and  C25_37 
REMARK    9  A    between atoms: C25_37  and  C26_38 
ROOT
HETATM    1  C5  UNL     1      15.246  64.153  24.618  1.00  0.00     0.177 C 
HETATM    2  N1  UNL     1      14.868  62.908  25.268  1.00  0.00    -0.346 N 
ATOM      3  H1  UNL     1      14.767  62.101  24.652  1.00  0.00     0.163 HD
HETATM    4  C6  UNL     1      14.624  62.670  26.618  1.00  0.00     0.241 C 
HETATM    5  O1  UNL     1      15.292  61.685  27.122  1.00  0.00    -0.271 OA
HETATM    6  C7  UNL     1      13.726  63.365  27.544  1.00  0.00     0.177 C 
HETATM    7  N2  UNL     1      13.782  64.789  27.555  1.00  0.00    -0.346 N 
ATOM      8  H2  UNL     1      13.444  65.236  26.703  1.00  0.00     0.163 HD
HETATM    9  C12 UNL     1      14.226  65.671  28.540  1.00  0.00     0.241 C 
HETATM   10  O2  UNL     1      13.481  66.730  28.636  1.00  0.00    -0.271 OA
HETATM   11  C13 UNL     1      15.367  65.572  29.447  1.00  0.00     0.177 C 
HETATM   12  N3  UNL     1      16.484  64.795  28.987  1.00  0.00    -0.346 N 
ATOM     13  H3  UNL     1      16.345  63.788  29.072  1.00  0.00     0.163 HD
HETATM   14  C18 UNL     1      17.717  65.149  28.449  1.00  0.00     0.241 C 
HETATM   15  O3  UNL     1      18.764  64.896  29.174  1.00  0.00    -0.271 OA
HETATM   16  C19 UNL     1      18.083  65.776  27.164  1.00  0.00     0.180 C 
HETATM   17  N4  UNL     1      19.275  65.118  26.604  1.00  0.00    -0.346 N 
ATOM     18  H4  UNL     1      20.129  65.674  26.543  1.00  0.00     0.163 HD
HETATM   19  C23 UNL     1      19.340  63.790  26.144  1.00  0.00     0.241 C 
HETATM   20  O4  UNL     1      20.269  63.013  26.585  1.00  0.00    -0.271 OA
HETATM   21  C24 UNL     1      18.435  63.132  25.170  1.00  0.00     0.177 C 
HETATM   22  N5  UNL     1      17.808  64.044  24.233  1.00  0.00    -0.346 N 
ATOM     23  H5  UNL     1      18.390  64.794  23.858  1.00  0.00     0.163 HD
HETATM   24  C29 UNL     1      16.466  63.992  23.790  1.00  0.00     0.241 C 
HETATM   25  O5  UNL     1      16.296  63.787  22.550  1.00  0.00    -0.271 OA
ENDROOT
BRANCH   1  26
HETATM   26  C4  UNL     1      14.069  64.506  23.718  1.00  0.00     0.038 C 
BRANCH  26  27
HETATM   27  C2  UNL     1      13.249  65.651  24.204  1.00  0.00    -0.020 C 
HETATM   28  C1  UNL     1      14.220  66.766  24.568  1.00  0.00     0.009 C 
HETATM   29  C3  UNL     1      12.347  66.226  23.134  1.00  0.00     0.009 C 
ENDBRANCH  26  27
ENDBRANCH   1  26
BRANCH   6  30
HETATM   30  C8  UNL     1      12.275  62.904  27.289  1.00  0.00     0.038 C 
BRANCH  30  31
HETATM   31  C9  UNL     1      11.963  61.697  28.115  1.00  0.00    -0.020 C 
HETATM   32  C10 UNL     1      12.261  61.958  29.563  1.00  0.00     0.009 C 
HETATM   33  C11 UNL     1      10.579  61.163  27.884  1.00  0.00     0.009 C 
ENDBRANCH  30  31
ENDBRANCH   6  30
BRANCH  21  34
HETATM   34  C25 UNL     1      19.112  61.956  24.492  1.00  0.00     0.038 C 
BRANCH  34  35
HETATM   35  C26 UNL     1      18.513  60.627  24.735  1.00  0.00    -0.020 C 
HETATM   36  C27 UNL     1      18.008  60.134  23.360  1.00  0.00     0.009 C 
HETATM   37  C28 UNL     1      19.481  59.598  25.220  1.00  0.00     0.009 C 
ENDBRANCH  34  35
ENDBRANCH  21  34
BRANCH  11  38
HETATM   38  C14 UNL     1      14.864  65.023  30.812  1.00  0.00     0.038 C 
BRANCH  38  39
HETATM   39  C15 UNL     1      15.916  64.066  31.377  1.00  0.00    -0.020 C 
HETATM   40  C16 UNL     1      16.546  64.652  32.616  1.00  0.00     0.009 C 
HETATM   41  C17 UNL     1      15.181  62.780  31.673  1.00  0.00     0.009 C 
ENDBRANCH  38  39
ENDBRANCH  11  38
BRANCH  16  42
HETATM   42  C20 UNL     1      18.442  67.240  27.267  1.00  0.00     0.009 C 
HETATM   43  C21 UNL     1      17.698  68.162  26.383  1.00  0.00     0.012 C 
HETATM   44  C22 UNL     1      19.945  67.319  26.974  1.00  0.00     0.012 C 
ENDBRANCH  16  42
TORSDOF 9
ENDMDL
MODEL 2
REMARK VINA RESULT: -6.999032660      0.947      1.191
REMARK  9 active torsions:
REMARK  status: ('A' for Active; 'I' for Inactive)
REMARK    1  A    between atoms: C2_2  and  C4_4 
REMARK    2  A    between atoms: C4_4  and  C5_5 
REMARK    3  A    between atoms: C7_10  and  C8_11 
REMARK    4  A    between atoms: C8_11  and  C9_12 
REMARK    5  A    between atoms: C13_19  and  C14_20 
REMARK    6  A    between atoms: C14_20  and  C15_21 
REMARK    7  A    between atoms: C19_28  and  C20_29 
REMARK    8  A    between atoms: C24_36  and  C25_37 
REMARK    9  A    between atoms: C25_37  and  C26_38 
ROOT
HETATM    1  C5  UNL     1      15.366  64.407  25.281  1.00  0.00     0.177 C 
HETATM    2  N1  UNL     1      14.895  63.078  25.640  1.00  0.00    -0.346 N 
ATOM      3  H1  UNL     1      14.837  62.408  24.874  1.00  0.00     0.163 HD
HETATM    4  C6  UNL     1      14.510  62.600  26.890  1.00  0.00     0.241 C 
HETATM    5  O1  UNL     1      15.100  61.509  27.255  1.00  0.00    -0.271 OA
HETATM    6  C7  UNL     1      13.540  63.144  27.844  1.00  0.00     0.177 C 
HETATM    7  N2  UNL     1      13.630  64.538  28.134  1.00  0.00    -0.346 N 
ATOM      8  H2  UNL     1      13.389  65.152  27.356  1.00  0.00     0.163 HD
HETATM    9  C12 UNL     1      13.993  65.198  29.307  1.00  0.00     0.241 C 
HETATM   10  O2  UNL     1      13.267  66.250  29.535  1.00  0.00    -0.271 OA
HETATM   11  C13 UNL     1      15.035  64.880  30.281  1.00  0.00     0.177 C 
HETATM   12  N3  UNL     1      16.173  64.157  29.789  1.00  0.00    -0.346 N 
ATOM     13  H3  UNL     1      16.003  63.159  29.664  1.00  0.00     0.163 HD
HETATM   14  C18 UNL     1      17.462  64.553  29.447  1.00  0.00     0.241 C 
HETATM   15  O3  UNL     1      18.424  64.123  30.205  1.00  0.00    -0.271 OA
HETATM   16  C19 UNL     1      17.971  65.395  28.347  1.00  0.00     0.180 C 
HETATM   17  N4  UNL     1      19.197  64.806  27.785  1.00  0.00    -0.346 N 
ATOM     18  H4  UNL     1      20.065  65.326  27.914  1.00  0.00     0.163 HD
HETATM   19  C23 UNL     1      19.276  63.587  27.086  1.00  0.00     0.241 C 
HETATM   20  O4  UNL     1      20.137  62.701  27.456  1.00  0.00    -0.271 OA
HETATM   21  C24 UNL     1      18.458  63.164  25.924  1.00  0.00     0.177 C 
HETATM   22  N5  UNL     1      17.951  64.263  25.125  1.00  0.00    -0.346 N 
ATOM     23  H5  UNL     1      18.585  65.045  24.958  1.00  0.00     0.163 HD
HETATM   24  C29 UNL     1      16.659  64.353  24.556  1.00  0.00     0.241 C 
HETATM   25  O5  UNL     1      16.610  64.393  23.288  1.00  0.00    -0.271 OA
ENDROOT
BRANCH   1  26
HETATM   26  C4  UNL     1      14.294  64.973  24.359  1.00  0.00     0.038 C 
BRANCH  26  27
HETATM   27  C2  UNL     1      13.813  66.330  24.742  1.00  0.00    -0.020 C 
HETATM   28  C1  UNL     1      12.388  66.166  25.253  1.00  0.00     0.009 C 
HETATM   29  C3  UNL     1      14.594  66.930  25.891  1.00  0.00     0.009 C 
ENDBRANCH  26  27
ENDBRANCH   1  26
BRANCH   6  30
HETATM   30  C8  UNL     1      12.112  62.803  27.369  1.00  0.00     0.038 C 
BRANCH  30  31
HETATM   31  C9  UNL     1      11.605  61.592  28.084  1.00  0.00    -0.020 C 
HETATM   32  C10 UNL     1      11.992  61.635  29.535  1.00  0.00     0.009 C 
HETATM   33  C11 UNL     1      10.140  61.348  27.872  1.00  0.00     0.009 C 
ENDBRANCH  30  31
ENDBRANCH   6  30
BRANCH  21  34
HETATM   34  C25 UNL     1      19.172  62.109  25.099  1.00  0.00     0.038 C 
BRANCH  34  35
HETATM   35  C26 UNL     1      18.497  60.800  24.986  1.00  0.00    -0.020 C 
HETATM   36  C27 UNL     1      17.787  60.807  23.613  1.00  0.00     0.009 C 
HETATM   37  C28 UNL     1      19.427  59.631  24.972  1.00  0.00     0.009 C 
ENDBRANCH  34  35
ENDBRANCH  21  34
BRANCH  11  38
HETATM   38  C14 UNL     1      14.384  64.105  31.462  1.00  0.00     0.038 C 
BRANCH  38  39
HETATM   39  C15 UNL     1      15.430  63.171  32.076  1.00  0.00    -0.020 C 
HETATM   40  C16 UNL     1      15.825  63.658  33.448  1.00  0.00     0.009 C 
HETATM   41  C17 UNL     1      14.781  61.808  32.127  1.00  0.00     0.009 C 
ENDBRANCH  38  39
ENDBRANCH  11  38
BRANCH  16  42
HETATM   42  C20 UNL     1      18.352  66.797  28.763  1.00  0.00     0.009 C 
HETATM   43  C21 UNL     1      17.236  67.724  29.046  1.00  0.00     0.012 C 
HETATM   44  C22 UNL     1      19.223  67.343  27.627  1.00  0.00     0.012 C 
ENDBRANCH  16  42
TORSDOF 9
ENDMDL
MODEL 3
REMARK VINA RESULT: -6.862160119      1.303      1.629
REMARK  9 active torsions:
REMARK  status: ('A' for Active; 'I' for Inactive)
REMARK    1  A    between atoms: C2_2  and  C4_4 
REMARK    2  A    between atoms: C4_4  and  C5_5 
REMARK    3  A    between atoms: C7_10  and  C8_11 
REMARK    4  A    between atoms: C8_11  and  C9_12 
REMARK    5  A    between atoms: C13_19  and  C14_20 
REMARK    6  A    between atoms: C14_20  and  C15_21 
REMARK    7  A    between atoms: C19_28  and  C20_29 
REMARK    8  A    between atoms: C24_36  and  C25_37 
REMARK    9  A    between atoms: C25_37  and  C26_38 
ROOT
HETATM    1  C5  UNL     1      15.414  64.432  25.417  1.00  0.00     0.177 C 
HETATM    2  N1  UNL     1      14.982  63.067  25.674  1.00  0.00    -0.346 N 
ATOM      3  H1  UNL     1      15.069  62.421  24.890  1.00  0.00     0.163 HD
HETATM    4  C6  UNL     1      14.467  62.523  26.849  1.00  0.00     0.241 C 
HETATM    5  O1  UNL     1      15.071  61.458  27.260  1.00  0.00    -0.271 OA
HETATM    6  C7  UNL     1      13.348  62.978  27.679  1.00  0.00     0.177 C 
HETATM    7  N2  UNL     1      13.312  64.363  28.015  1.00  0.00    -0.346 N 
ATOM      8  H2  UNL     1      13.138  64.988  27.228  1.00  0.00     0.163 HD
HETATM    9  C12 UNL     1      13.475  65.002  29.244  1.00  0.00     0.241 C 
HETATM   10  O2  UNL     1      12.662  66.002  29.400  1.00  0.00    -0.271 OA
HETATM   11  C13 UNL     1      14.397  64.711  30.339  1.00  0.00     0.177 C 
HETATM   12  N3  UNL     1      15.633  64.073  29.984  1.00  0.00    -0.346 N 
ATOM     13  H3  UNL     1      15.543  63.072  29.811  1.00  0.00     0.163 HD
HETATM   14  C18 UNL     1      16.929  64.556  29.828  1.00  0.00     0.241 C 
HETATM   15  O3  UNL     1      17.808  64.156  30.697  1.00  0.00    -0.271 OA
HETATM   16  C19 UNL     1      17.525  65.464  28.828  1.00  0.00     0.180 C 
HETATM   17  N4  UNL     1      18.849  64.967  28.420  1.00  0.00    -0.346 N 
ATOM     18  H4  UNL     1      19.658  65.532  28.678  1.00  0.00     0.163 HD
HETATM   19  C23 UNL     1      19.095  63.779  27.706  1.00  0.00     0.241 C 
HETATM   20  O4  UNL     1      19.953  62.933  28.164  1.00  0.00    -0.271 OA
HETATM   21  C24 UNL     1      18.465  63.350  26.434  1.00  0.00     0.177 C 
HETATM   22  N5  UNL     1      18.000  64.445  25.604  1.00  0.00    -0.346 N 
ATOM     23  H5  UNL     1      18.600  65.267  25.544  1.00  0.00     0.163 HD
HETATM   24  C29 UNL     1      16.791  64.479  24.870  1.00  0.00     0.241 C 
HETATM   25  O5  UNL     1      16.907  64.560  23.609  1.00  0.00    -0.271 OA
ENDROOT
BRANCH   1  26
HETATM   26  C4  UNL     1      14.439  64.967  24.375  1.00  0.00     0.038 C 
BRANCH  26  27
HETATM   27  C2  UNL     1      13.343  65.805  24.937  1.00  0.00    -0.020 C 
HETATM   28  C1  UNL     1      14.004  66.975  25.652  1.00  0.00     0.009 C 
HETATM   29  C3  UNL     1      12.465  66.421  23.868  1.00  0.00     0.009 C 
ENDBRANCH  26  27
ENDBRANCH   1  26
BRANCH   6  30
HETATM   30  C8  UNL     1      12.019  62.570  27.008  1.00  0.00     0.038 C 
BRANCH  30  31
HETATM   31  C9  UNL     1      10.939  62.446  28.035  1.00  0.00    -0.020 C 
HETATM   32  C10 UNL     1       9.890  63.501  27.829  1.00  0.00     0.009 C 
HETATM   33  C11 UNL     1      10.371  61.060  28.132  1.00  0.00     0.009 C 
ENDBRANCH  30  31
ENDBRANCH   6  30
BRANCH  21  34
HETATM   34  C25 UNL     1      19.346  62.368  25.684  1.00  0.00     0.038 C 
BRANCH  34  35
HETATM   35  C26 UNL     1      18.699  61.116  25.241  1.00  0.00    -0.020 C 
HETATM   36  C27 UNL     1      18.478  61.270  23.719  1.00  0.00     0.009 C 
HETATM   37  C28 UNL     1      19.540  59.895  25.422  1.00  0.00     0.009 C 
ENDBRANCH  34  35
ENDBRANCH  21  34
BRANCH  11  38
HETATM   38  C14 UNL     1      13.646  63.859  31.401  1.00  0.00     0.038 C 
BRANCH  38  39
HETATM   39  C15 UNL     1      14.019  62.387  31.206  1.00  0.00    -0.020 C 
HETATM   40  C16 UNL     1      14.848  61.899  32.366  1.00  0.00     0.009 C 
HETATM   41  C17 UNL     1      12.707  61.645  31.098  1.00  0.00     0.009 C 
ENDBRANCH  38  39
ENDBRANCH  11  38
BRANCH  16  42
HETATM   42  C20 UNL     1      17.760  66.870  29.329  1.00  0.00     0.009 C 
HETATM   43  C21 UNL     1      16.558  67.710  29.517  1.00  0.00     0.012 C 
HETATM   44  C22 UNL     1      18.708  67.517  28.314  1.00  0.00     0.012 C 
ENDBRANCH  16  42
TORSDOF 9
ENDMDL
MODEL 4
REMARK VINA RESULT: -6.601487612      2.163      7.058
REMARK  9 active torsions:
REMARK  status: ('A' for Active; 'I' for Inactive)
REMARK    1  A    between atoms: C2_2  and  C4_4 
REMARK    2  A    between atoms: C4_4  and  C5_5 
REMARK    3  A    between atoms: C7_10  and  C8_11 
REMARK    4  A    between atoms: C8_11  and  C9_12 
REMARK    5  A    between atoms: C13_19  and  C14_20 
REMARK    6  A    between atoms: C14_20  and  C15_21 
REMARK    7  A    between atoms: C19_28  and  C20_29 
REMARK    8  A    between atoms: C24_36  and  C25_37 
REMARK    9  A    between atoms: C25_37  and  C26_38 
ROOT
HETATM    1  C5  UNL     1      15.952  64.157  28.387  1.00  0.00     0.177 C 
HETATM    2  N1  UNL     1      15.822  62.893  27.679  1.00  0.00    -0.346 N 
ATOM      3  H1  UNL     1      15.440  62.119  28.223  1.00  0.00     0.163 HD
HETATM    4  C6  UNL     1      16.150  62.597  26.358  1.00  0.00     0.241 C 
HETATM    5  O1  UNL     1      15.200  62.047  25.676  1.00  0.00    -0.271 OA
HETATM    6  C7  UNL     1      17.406  62.812  25.634  1.00  0.00     0.177 C 
HETATM    7  N2  UNL     1      18.009  64.099  25.752  1.00  0.00    -0.346 N 
ATOM      8  H2  UNL     1      18.368  64.318  26.681  1.00  0.00     0.163 HD
HETATM    9  C12 UNL     1      18.187  65.106  24.805  1.00  0.00     0.241 C 
HETATM   10  O2  UNL     1      19.338  65.698  24.913  1.00  0.00    -0.271 OA
HETATM   11  C13 UNL     1      17.294  65.570  23.745  1.00  0.00     0.177 C 
HETATM   12  N3  UNL     1      15.887  65.393  23.971  1.00  0.00    -0.346 N 
ATOM     13  H3  UNL     1      15.562  64.440  23.810  1.00  0.00     0.163 HD
HETATM   14  C18 UNL     1      14.881  66.270  24.366  1.00  0.00     0.241 C 
HETATM   15  O3  UNL     1      13.971  66.549  23.484  1.00  0.00    -0.271 OA
HETATM   16  C19 UNL     1      14.635  66.968  25.644  1.00  0.00     0.180 C 
HETATM   17  N4  UNL     1      13.200  66.930  25.970  1.00  0.00    -0.346 N 
ATOM     18  H4  UNL     1      12.698  67.818  25.966  1.00  0.00     0.163 HD
HETATM   19  C23 UNL     1      12.461  65.776  26.288  1.00  0.00     0.241 C 
HETATM   20  O4  UNL     1      11.367  65.531  25.651  1.00  0.00    -0.271 OA
HETATM   21  C24 UNL     1      12.790  64.752  27.308  1.00  0.00     0.177 C 
HETATM   22  N5  UNL     1      13.600  65.247  28.405  1.00  0.00    -0.346 N 
ATOM     23  H5  UNL     1      13.372  66.173  28.767  1.00  0.00     0.163 HD
HETATM   24  C29 UNL     1      14.676  64.565  29.021  1.00  0.00     0.241 C 
HETATM   25  O5  UNL     1      14.525  64.278  30.248  1.00  0.00    -0.271 OA
ENDROOT
BRANCH   1  26
HETATM   26  C4  UNL     1      16.994  63.901  29.469  1.00  0.00     0.038 C 
BRANCH  26  27
HETATM   27  C2  UNL     1      18.222  64.734  29.344  1.00  0.00    -0.020 C 
HETATM   28  C1  UNL     1      17.797  66.058  28.724  1.00  0.00     0.009 C 
HETATM   29  C3  UNL     1      18.833  65.087  30.684  1.00  0.00     0.009 C 
ENDBRANCH  26  27
ENDBRANCH   1  26
BRANCH   6  30
HETATM   30  C8  UNL     1      18.422  61.723  26.041  1.00  0.00     0.038 C 
BRANCH  30  31
HETATM   31  C9  UNL     1      19.084  61.155  24.826  1.00  0.00    -0.020 C 
HETATM   32  C10 UNL     1      19.572  59.760  25.095  1.00  0.00     0.009 C 
HETATM   33  C11 UNL     1      18.240  61.257  23.589  1.00  0.00     0.009 C 
ENDBRANCH  30  31
ENDBRANCH   6  30
BRANCH  21  34
HETATM   34  C25 UNL     1      11.549  64.012  27.772  1.00  0.00     0.038 C 
BRANCH  34  35
HETATM   35  C26 UNL     1      11.483  62.573  27.443  1.00  0.00    -0.020 C 
HETATM   36  C27 UNL     1      12.579  61.895  28.296  1.00  0.00     0.009 C 
HETATM   37  C28 UNL     1      10.194  61.918  27.818  1.00  0.00     0.009 C 
ENDBRANCH  34  35
ENDBRANCH  21  34
BRANCH  11  38
HETATM   38  C14 UNL     1      17.709  64.879  22.416  1.00  0.00     0.038 C 
BRANCH  38  39
HETATM   39  C15 UNL     1      16.910  65.498  21.266  1.00  0.00    -0.020 C 
HETATM   40  C16 UNL     1      17.328  66.931  21.050  1.00  0.00     0.009 C 
HETATM   41  C17 UNL     1      17.198  64.638  20.058  1.00  0.00     0.009 C 
ENDBRANCH  38  39
ENDBRANCH  11  38
BRANCH  16  42
HETATM   42  C20 UNL     1      15.007  68.432  25.633  1.00  0.00     0.009 C 
HETATM   43  C21 UNL     1      16.451  68.742  25.561  1.00  0.00     0.012 C 
HETATM   44  C22 UNL     1      14.399  69.023  26.910  1.00  0.00     0.012 C 
ENDBRANCH  16  42
TORSDOF 9
ENDMDL
MODEL 5
REMARK VINA RESULT: -6.588576766      1.750      2.266
REMARK  9 active torsions:
REMARK  status: ('A' for Active; 'I' for Inactive)
REMARK    1  A    between atoms: C2_2  and  C4_4 
REMARK    2  A    between atoms: C4_4  and  C5_5 
REMARK    3  A    between atoms: C7_10  and  C8_11 
REMARK    4  A    between atoms: C8_11  and  C9_12 
REMARK    5  A    between atoms: C13_19  and  C14_20 
REMARK    6  A    between atoms: C14_20  and  C15_21 
REMARK    7  A    between atoms: C19_28  and  C20_29 
REMARK    8  A    between atoms: C24_36  and  C25_37 
REMARK    9  A    between atoms: C25_37  and  C26_38 
ROOT
HETATM    1  C5  UNL     1      14.648  65.842  26.102  1.00  0.00     0.177 C 
HETATM    2  N1  UNL     1      14.314  64.458  25.804  1.00  0.00    -0.346 N 
ATOM      3  H1  UNL     1      14.117  64.252  24.825  1.00  0.00     0.163 HD
HETATM    4  C6  UNL     1      14.227  63.376  26.678  1.00  0.00     0.241 C 
HETATM    5  O1  UNL     1      14.922  62.344  26.328  1.00  0.00    -0.271 OA
HETATM    6  C7  UNL     1      13.468  63.237  27.923  1.00  0.00     0.177 C 
HETATM    7  N2  UNL     1      13.567  64.303  28.865  1.00  0.00    -0.346 N 
ATOM      8  H2  UNL     1      13.141  65.179  28.564  1.00  0.00     0.163 HD
HETATM    9  C12 UNL     1      14.151  64.342  30.131  1.00  0.00     0.241 C 
HETATM   10  O2  UNL     1      13.454  65.031  30.982  1.00  0.00    -0.271 OA
HETATM   11  C13 UNL     1      15.390  63.736  30.614  1.00  0.00     0.177 C 
HETATM   12  N3  UNL     1      16.420  63.520  29.638  1.00  0.00    -0.346 N 
ATOM     13  H3  UNL     1      16.264  62.701  29.051  1.00  0.00     0.163 HD
HETATM   14  C18 UNL     1      17.590  64.211  29.336  1.00  0.00     0.241 C 
HETATM   15  O3  UNL     1      18.708  63.604  29.593  1.00  0.00    -0.271 OA
HETATM   16  C19 UNL     1      17.816  65.549  28.754  1.00  0.00     0.180 C 
HETATM   17  N4  UNL     1      18.913  65.493  27.774  1.00  0.00    -0.346 N 
ATOM     18  H4  UNL     1      19.769  65.999  28.003  1.00  0.00     0.163 HD
HETATM   19  C23 UNL     1      18.883  64.802  26.548  1.00  0.00     0.241 C 
HETATM   20  O4  UNL     1      19.836  63.982  26.261  1.00  0.00    -0.271 OA
HETATM   21  C24 UNL     1      17.849  64.897  25.490  1.00  0.00     0.177 C 
HETATM   22  N5  UNL     1      17.141  66.162  25.464  1.00  0.00    -0.346 N 
ATOM     23  H5  UNL     1      17.694  67.005  25.616  1.00  0.00     0.163 HD
HETATM   24  C29 UNL     1      15.754  66.337  25.247  1.00  0.00     0.241 C 
HETATM   25  O5  UNL     1      15.430  66.989  24.208  1.00  0.00    -0.271 OA
ENDROOT
BRANCH   1  26
HETATM   26  C4  UNL     1      13.382  66.632  25.795  1.00  0.00     0.038 C 
BRANCH  26  27
HETATM   27  C2  UNL     1      12.328  65.847  25.091  1.00  0.00    -0.020 C 
HETATM   28  C1  UNL     1      11.038  66.034  25.878  1.00  0.00     0.009 C 
HETATM   29  C3  UNL     1      12.038  66.367  23.699  1.00  0.00     0.009 C 
ENDBRANCH  26  27
ENDBRANCH   1  26
BRANCH   6  30
HETATM   30  C8  UNL     1      11.984  62.976  27.588  1.00  0.00     0.038 C 
BRANCH  30  31
HETATM   31  C9  UNL     1      11.560  61.644  28.121  1.00  0.00    -0.020 C 
HETATM   32  C10 UNL     1      11.914  61.522  29.576  1.00  0.00     0.009 C 
HETATM   33  C11 UNL     1      10.123  61.321  27.834  1.00  0.00     0.009 C 
ENDBRANCH  30  31
ENDBRANCH   6  30
BRANCH  21  34
HETATM   34  C25 UNL     1      18.405  64.499  24.135  1.00  0.00     0.038 C 
BRANCH  34  35
HETATM   35  C26 UNL     1      17.616  63.513  23.368  1.00  0.00    -0.020 C 
HETATM   36  C27 UNL     1      17.584  64.037  21.914  1.00  0.00     0.009 C 
HETATM   37  C28 UNL     1      18.227  62.151  23.310  1.00  0.00     0.009 C 
ENDBRANCH  34  35
ENDBRANCH  21  34
BRANCH  11  38
HETATM   38  C14 UNL     1      15.039  62.397  31.321  1.00  0.00     0.038 C 
BRANCH  38  39
HETATM   39  C15 UNL     1      15.267  62.559  32.826  1.00  0.00    -0.020 C 
HETATM   40  C16 UNL     1      15.996  63.848  33.110  1.00  0.00     0.009 C 
HETATM   41  C17 UNL     1      13.892  62.540  33.452  1.00  0.00     0.009 C 
ENDBRANCH  38  39
ENDBRANCH  11  38
BRANCH  16  42
HETATM   42  C20 UNL     1      18.228  66.600  29.758  1.00  0.00     0.009 C 
HETATM   43  C21 UNL     1      17.319  66.802  30.907  1.00  0.00     0.012 C 
HETATM   44  C22 UNL     1      18.373  67.900  28.959  1.00  0.00     0.012 C 
ENDBRANCH  16  42
TORSDOF 9
ENDMDL
