MODEL 1
REMARK VINA RESULT: -7.526216780      0.000      0.000
REMARK  11 active torsions:
REMARK  status: ('A' for Active; 'I' for Inactive)
REMARK    1  A    between atoms: C2_2  and  C3_3 
REMARK    2  A    between atoms: C3_3  and  C5_5 
REMARK    3  A    between atoms: C9_14  and  C10_15 
REMARK    4  A    between atoms: C14_22  and  C15_23 
REMARK    5  A    between atoms: C15_23  and  C16_24 
REMARK    6  A    between atoms: C16_24  and  C17_25 
REMARK    7  A    between atoms: C17_25  and  C18_26 
REMARK    8  A    between atoms: C18_26  and  N3_27 
REMARK    9  A    between atoms: N3_27  and  C19_29 
REMARK   10  A    between atoms: C19_29  and  N4_31 
REMARK   11  A    between atoms: N4_31  and  C20_33 
ROOT
HETATM    1  C5  UNL     1      16.121  64.235  28.030  1.00  0.00     0.099 C 
HETATM    2  C6  UNL     1      17.550  64.570  27.797  1.00  0.00     0.134 C 
HETATM    3  S1  UNL     1      18.566  63.188  27.353  1.00  0.00     0.025 S 
HETATM    4  O1  UNL     1      20.094  63.802  26.966  1.00  0.00    -0.258 OA
HETATM    5  C7  UNL     1      17.928  62.223  26.046  1.00  0.00     0.211 C 
HETATM    6  C8  UNL     1      18.651  62.573  24.785  1.00  0.00     0.230 C 
HETATM    7  O2  UNL     1      19.879  62.321  24.740  1.00  0.00    -0.273 OA
HETATM    8  N1  UNL     1      17.999  63.164  23.677  1.00  0.00    -0.347 N 
ATOM      9  H1  UNL     1      18.349  62.945  22.745  1.00  0.00     0.163 HD
HETATM   10  C9  UNL     1      16.862  64.065  23.782  1.00  0.00     0.180 C 
HETATM   11  C13 UNL     1      15.590  63.315  23.681  1.00  0.00     0.241 C 
HETATM   12  O3  UNL     1      15.689  62.164  23.113  1.00  0.00    -0.271 OA
HETATM   13  N2  UNL     1      14.324  63.720  24.128  1.00  0.00    -0.346 N 
ATOM     14  H2  UNL     1      13.599  63.763  23.411  1.00  0.00     0.163 HD
HETATM   15  C14 UNL     1      13.901  64.084  25.453  1.00  0.00     0.176 C 
HETATM   16  C26 UNL     1      14.638  65.134  26.128  1.00  0.00     0.240 C 
HETATM   17  O4  UNL     1      14.780  66.207  25.421  1.00  0.00    -0.271 OA
HETATM   18  N5  UNL     1      15.214  65.187  27.400  1.00  0.00    -0.354 N 
ATOM     19  H5  UNL     1      14.967  66.001  27.964  1.00  0.00     0.163 HD
ENDROOT
BRANCH  15  20
HETATM   20  C15 UNL     1      13.603  62.839  26.249  1.00  0.00     0.035 C 
BRANCH  20  21
HETATM   21  C16 UNL     1      12.279  63.132  26.985  1.00  0.00     0.004 C 
BRANCH  21  22
HETATM   22  C17 UNL     1      11.729  61.831  27.569  1.00  0.00     0.020 C 
BRANCH  22  23
HETATM   23  C18 UNL     1      10.272  61.990  27.837  1.00  0.00     0.122 C 
BRANCH  23  24
HETATM   24  N3  UNL     1      10.042  62.923  28.920  1.00  0.00    -0.367 N 
ATOM     25  H3  UNL     1       9.393  63.695  28.771  1.00  0.00     0.161 HD
BRANCH  24  26
HETATM   26  C19 UNL     1      10.694  62.805  30.197  1.00  0.00     0.167 C 
HETATM   27  S2  UNL     1      11.373  64.171  30.774  1.00  0.00    -0.041 SA
BRANCH  26  28
HETATM   28  N4  UNL     1      10.723  61.567  30.865  1.00  0.00    -0.363 N 
ATOM     29  H4  UNL     1      11.631  61.103  30.902  1.00  0.00     0.162 HD
BRANCH  28  30
HETATM   30  C20 UNL     1       9.647  60.875  31.499  1.00  0.00     0.083 C 
HETATM   31  C21 UNL     1       8.948  59.967  30.548  1.00  0.00     0.025 C 
HETATM   32  C22 UNL     1       7.752  59.282  31.193  1.00  0.00     0.002 C 
HETATM   33  C23 UNL     1       6.835  60.331  31.756  1.00  0.00     0.000 C 
HETATM   34  C24 UNL     1       7.589  61.072  32.853  1.00  0.00     0.002 C 
HETATM   35  C25 UNL     1       8.694  61.862  32.127  1.00  0.00     0.025 C 
ENDBRANCH  28  30
ENDBRANCH  26  28
ENDBRANCH  24  26
ENDBRANCH  23  24
ENDBRANCH  22  23
ENDBRANCH  21  22
ENDBRANCH  20  21
ENDBRANCH  15  20
BRANCH  10  36
HETATM   36  C10 UNL     1      16.935  65.072  22.624  1.00  0.00     0.009 C 
HETATM   37  C11 UNL     1      17.625  64.516  21.421  1.00  0.00     0.012 C 
HETATM   38  C12 UNL     1      17.594  66.354  23.080  1.00  0.00     0.012 C 
ENDBRANCH  10  36
BRANCH   1  39
HETATM   39  C3  UNL     1      15.694  63.915  29.408  1.00  0.00     0.005 C 
HETATM   40  C4  UNL     1      15.290  65.143  30.189  1.00  0.00     0.012 C 
BRANCH  39  41
HETATM   41  C2  UNL     1      14.766  62.788  29.641  1.00  0.00     0.002 C 
HETATM   42  C1  UNL     1      14.714  62.191  30.996  1.00  0.00     0.005 C 
ENDBRANCH  39  41
ENDBRANCH   1  39
TORSDOF 11
ENDMDL
MODEL 2
REMARK VINA RESULT: -7.522303557      5.316      8.795
REMARK  11 active torsions:
REMARK  status: ('A' for Active; 'I' for Inactive)
REMARK    1  A    between atoms: C2_2  and  C3_3 
REMARK    2  A    between atoms: C3_3  and  C5_5 
REMARK    3  A    between atoms: C9_14  and  C10_15 
REMARK    4  A    between atoms: C14_22  and  C15_23 
REMARK    5  A    between atoms: C15_23  and  C16_24 
REMARK    6  A    between atoms: C16_24  and  C17_25 
REMARK    7  A    between atoms: C17_25  and  C18_26 
REMARK    8  A    between atoms: C18_26  and  N3_27 
REMARK    9  A    between atoms: N3_27  and  C19_29 
REMARK   10  A    between atoms: C19_29  and  N4_31 
REMARK   11  A    between atoms: N4_31  and  C20_33 
ROOT
HETATM    1  C5  UNL     1      14.657  66.462  24.095  1.00  0.00     0.099 C 
HETATM    2  C6  UNL     1      14.725  66.141  25.544  1.00  0.00     0.134 C 
HETATM    3  S1  UNL     1      14.097  64.540  25.974  1.00  0.00     0.025 S 
HETATM    4  O1  UNL     1      14.423  64.305  27.616  1.00  0.00    -0.258 OA
HETATM    5  C7  UNL     1      14.746  63.236  25.011  1.00  0.00     0.211 C 
HETATM    6  C8  UNL     1      15.799  62.527  25.801  1.00  0.00     0.230 C 
HETATM    7  O2  UNL     1      15.433  61.942  26.848  1.00  0.00    -0.273 OA
HETATM    8  N1  UNL     1      17.156  62.504  25.404  1.00  0.00    -0.347 N 
ATOM      9  H1  UNL     1      17.709  61.680  25.639  1.00  0.00     0.163 HD
HETATM   10  C9  UNL     1      17.816  63.581  24.681  1.00  0.00     0.180 C 
HETATM   11  C13 UNL     1      17.751  63.347  23.222  1.00  0.00     0.241 C 
HETATM   12  O3  UNL     1      17.546  62.122  22.882  1.00  0.00    -0.271 OA
HETATM   13  N2  UNL     1      17.888  64.297  22.199  1.00  0.00    -0.346 N 
ATOM     14  H2  UNL     1      18.643  64.121  21.535  1.00  0.00     0.163 HD
HETATM   15  C14 UNL     1      17.116  65.485  21.953  1.00  0.00     0.176 C 
HETATM   16  C26 UNL     1      17.001  66.446  23.033  1.00  0.00     0.240 C 
HETATM   17  O4  UNL     1      18.135  66.781  23.554  1.00  0.00    -0.271 OA
HETATM   18  N5  UNL     1      15.885  67.069  23.599  1.00  0.00    -0.354 N 
ATOM     19  H5  UNL     1      15.938  68.085  23.675  1.00  0.00     0.163 HD
ENDROOT
BRANCH  15  20
HETATM   20  C15 UNL     1      15.847  65.123  21.223  1.00  0.00     0.035 C 
BRANCH  20  21
HETATM   21  C16 UNL     1      16.268  64.914  19.754  1.00  0.00     0.004 C 
BRANCH  21  22
HETATM   22  C17 UNL     1      15.794  66.104  18.920  1.00  0.00     0.020 C 
BRANCH  22  23
HETATM   23  C18 UNL     1      14.412  65.840  18.428  1.00  0.00     0.122 C 
BRANCH  23  24
HETATM   24  N3  UNL     1      13.477  66.804  18.968  1.00  0.00    -0.367 N 
ATOM     25  H3  UNL     1      13.302  66.806  19.972  1.00  0.00     0.161 HD
BRANCH  24  26
HETATM   26  C19 UNL     1      12.784  67.758  18.144  1.00  0.00     0.167 C 
HETATM   27  S2  UNL     1      13.686  68.495  17.002  1.00  0.00    -0.041 SA
BRANCH  26  28
HETATM   28  N4  UNL     1      11.415  68.010  18.350  1.00  0.00    -0.363 N 
ATOM     29  H4  UNL     1      10.777  67.566  17.689  1.00  0.00     0.162 HD
BRANCH  28  30
HETATM   30  C20 UNL     1      10.802  68.806  19.364  1.00  0.00     0.083 C 
HETATM   31  C21 UNL     1      11.644  69.984  19.716  1.00  0.00     0.025 C 
HETATM   32  C22 UNL     1      11.037  70.797  20.849  1.00  0.00     0.002 C 
HETATM   33  C23 UNL     1      10.803  69.893  22.027  1.00  0.00     0.000 C 
HETATM   34  C24 UNL     1       9.780  68.842  21.614  1.00  0.00     0.002 C 
HETATM   35  C25 UNL     1      10.497  67.960  20.576  1.00  0.00     0.025 C 
ENDBRANCH  28  30
ENDBRANCH  26  28
ENDBRANCH  24  26
ENDBRANCH  23  24
ENDBRANCH  22  23
ENDBRANCH  21  22
ENDBRANCH  20  21
ENDBRANCH  15  20
BRANCH  10  36
HETATM   36  C10 UNL     1      19.290  63.618  25.111  1.00  0.00     0.009 C 
HETATM   37  C11 UNL     1      19.762  62.314  25.666  1.00  0.00     0.012 C 
HETATM   38  C12 UNL     1      19.525  64.741  26.096  1.00  0.00     0.012 C 
ENDBRANCH  10  36
BRANCH   1  39
HETATM   39  C3  UNL     1      13.463  67.173  23.593  1.00  0.00     0.005 C 
HETATM   40  C4  UNL     1      13.765  68.029  22.385  1.00  0.00     0.012 C 
BRANCH  39  41
HETATM   41  C2  UNL     1      12.188  66.441  23.441  1.00  0.00     0.002 C 
HETATM   42  C1  UNL     1      11.118  66.682  24.437  1.00  0.00     0.005 C 
ENDBRANCH  39  41
ENDBRANCH   1  39
TORSDOF 11
ENDMDL
MODEL 3
REMARK VINA RESULT: -7.451258454      1.544      2.450
REMARK  11 active torsions:
REMARK  status: ('A' for Active; 'I' for Inactive)
REMARK    1  A    between atoms: C2_2  and  C3_3 
REMARK    2  A    between atoms: C3_3  and  C5_5 
REMARK    3  A    between atoms: C9_14  and  C10_15 
REMARK    4  A    between atoms: C14_22  and  C15_23 
REMARK    5  A    between atoms: C15_23  and  C16_24 
REMARK    6  A    between atoms: C16_24  and  C17_25 
REMARK    7  A    between atoms: C17_25  and  C18_26 
REMARK    8  A    between atoms: C18_26  and  N3_27 
REMARK    9  A    between atoms: N3_27  and  C19_29 
REMARK   10  A    between atoms: C19_29  and  N4_31 
REMARK   11  A    between atoms: N4_31  and  C20_33 
ROOT
HETATM    1  C5  UNL     1      16.164  64.753  27.850  1.00  0.00     0.099 C 
HETATM    2  C6  UNL     1      17.568  65.117  27.528  1.00  0.00     0.134 C 
HETATM    3  S1  UNL     1      18.647  63.734  27.274  1.00  0.00     0.025 S 
HETATM    4  O1  UNL     1      20.132  64.353  26.754  1.00  0.00    -0.258 OA
HETATM    5  C7  UNL     1      18.034  62.547  26.149  1.00  0.00     0.211 C 
HETATM    6  C8  UNL     1      18.712  62.732  24.830  1.00  0.00     0.230 C 
HETATM    7  O2  UNL     1      19.950  62.536  24.790  1.00  0.00    -0.273 OA
HETATM    8  N1  UNL     1      18.008  63.111  23.663  1.00  0.00    -0.347 N 
ATOM      9  H1  UNL     1      18.350  62.767  22.766  1.00  0.00     0.163 HD
HETATM   10  C9  UNL     1      16.827  63.962  23.660  1.00  0.00     0.180 C 
HETATM   11  C13 UNL     1      15.595  63.143  23.711  1.00  0.00     0.241 C 
HETATM   12  O3  UNL     1      15.742  61.924  23.325  1.00  0.00    -0.271 OA
HETATM   13  N2  UNL     1      14.318  63.551  24.126  1.00  0.00    -0.346 N 
ATOM     14  H2  UNL     1      13.578  63.447  23.431  1.00  0.00     0.163 HD
HETATM   15  C14 UNL     1      13.904  64.095  25.390  1.00  0.00     0.176 C 
HETATM   16  C26 UNL     1      14.598  65.273  25.874  1.00  0.00     0.240 C 
HETATM   17  O4  UNL     1      14.669  66.228  25.007  1.00  0.00    -0.271 OA
HETATM   18  N5  UNL     1      15.196  65.550  27.107  1.00  0.00    -0.354 N 
ATOM     19  H5  UNL     1      14.917  66.429  27.545  1.00  0.00     0.163 HD
ENDROOT
BRANCH  15  20
HETATM   20  C15 UNL     1      13.687  62.976  26.377  1.00  0.00     0.035 C 
BRANCH  20  21
HETATM   21  C16 UNL     1      12.316  63.261  27.022  1.00  0.00     0.004 C 
BRANCH  21  22
HETATM   22  C17 UNL     1      11.664  61.938  27.424  1.00  0.00     0.020 C 
BRANCH  22  23
HETATM   23  C18 UNL     1      10.239  62.181  27.786  1.00  0.00     0.122 C 
BRANCH  23  24
HETATM   24  N3  UNL     1       9.674  61.034  28.465  1.00  0.00    -0.367 N 
ATOM     25  H3  UNL     1       9.255  60.291  27.904  1.00  0.00     0.161 HD
BRANCH  24  26
HETATM   26  C19 UNL     1       9.678  60.900  29.897  1.00  0.00     0.167 C 
HETATM   27  S2  UNL     1       9.200  59.451  30.474  1.00  0.00    -0.041 SA
BRANCH  26  28
HETATM   28  N4  UNL     1      10.073  61.980  30.708  1.00  0.00    -0.363 N 
ATOM     29  H4  UNL     1       9.544  62.844  30.586  1.00  0.00     0.162 HD
BRANCH  28  30
HETATM   30  C20 UNL     1      11.117  62.025  31.681  1.00  0.00     0.083 C 
HETATM   31  C21 UNL     1      11.129  63.325  32.407  1.00  0.00     0.025 C 
HETATM   32  C22 UNL     1      12.285  63.413  33.392  1.00  0.00     0.002 C 
HETATM   33  C23 UNL     1      13.572  63.160  32.658  1.00  0.00     0.000 C 
HETATM   34  C24 UNL     1      13.531  61.735  32.121  1.00  0.00     0.002 C 
HETATM   35  C25 UNL     1      12.447  61.741  31.027  1.00  0.00     0.025 C 
ENDBRANCH  28  30
ENDBRANCH  26  28
ENDBRANCH  24  26
ENDBRANCH  23  24
ENDBRANCH  22  23
ENDBRANCH  21  22
ENDBRANCH  20  21
ENDBRANCH  15  20
BRANCH  10  36
HETATM   36  C10 UNL     1      16.824  64.778  22.359  1.00  0.00     0.009 C 
HETATM   37  C11 UNL     1      17.633  64.141  21.277  1.00  0.00     0.012 C 
HETATM   38  C12 UNL     1      17.293  66.191  22.621  1.00  0.00     0.012 C 
ENDBRANCH  10  36
BRANCH   1  39
HETATM   39  C3  UNL     1      15.782  64.630  29.272  1.00  0.00     0.005 C 
HETATM   40  C4  UNL     1      14.353  65.049  29.526  1.00  0.00     0.012 C 
BRANCH  39  41
HETATM   41  C2  UNL     1      16.135  63.404  30.018  1.00  0.00     0.002 C 
HETATM   42  C1  UNL     1      17.037  63.530  31.187  1.00  0.00     0.005 C 
ENDBRANCH  39  41
ENDBRANCH   1  39
TORSDOF 11
ENDMDL
MODEL 4
REMARK VINA RESULT: -7.402193869      1.497      2.407
REMARK  11 active torsions:
REMARK  status: ('A' for Active; 'I' for Inactive)
REMARK    1  A    between atoms: C2_2  and  C3_3 
REMARK    2  A    between atoms: C3_3  and  C5_5 
REMARK    3  A    between atoms: C9_14  and  C10_15 
REMARK    4  A    between atoms: C14_22  and  C15_23 
REMARK    5  A    between atoms: C15_23  and  C16_24 
REMARK    6  A    between atoms: C16_24  and  C17_25 
REMARK    7  A    between atoms: C17_25  and  C18_26 
REMARK    8  A    between atoms: C18_26  and  N3_27 
REMARK    9  A    between atoms: N3_27  and  C19_29 
REMARK   10  A    between atoms: C19_29  and  N4_31 
REMARK   11  A    between atoms: N4_31  and  C20_33 
ROOT
HETATM    1  C5  UNL     1      16.183  64.624  27.833  1.00  0.00     0.099 C 
HETATM    2  C6  UNL     1      17.601  64.953  27.533  1.00  0.00     0.134 C 
HETATM    3  S1  UNL     1      18.639  63.545  27.251  1.00  0.00     0.025 S 
HETATM    4  O1  UNL     1      20.147  64.132  26.760  1.00  0.00    -0.258 OA
HETATM    5  C7  UNL     1      18.001  62.408  26.090  1.00  0.00     0.211 C 
HETATM    6  C8  UNL     1      18.696  62.606  24.782  1.00  0.00     0.230 C 
HETATM    7  O2  UNL     1      19.928  62.374  24.747  1.00  0.00    -0.273 OA
HETATM    8  N1  UNL     1      18.014  63.038  23.620  1.00  0.00    -0.347 N 
ATOM      9  H1  UNL     1      18.354  62.707  22.717  1.00  0.00     0.163 HD
HETATM   10  C9  UNL     1      16.860  63.924  23.629  1.00  0.00     0.180 C 
HETATM   11  C13 UNL     1      15.603  63.142  23.649  1.00  0.00     0.241 C 
HETATM   12  O3  UNL     1      15.717  61.930  23.232  1.00  0.00    -0.271 OA
HETATM   13  N2  UNL     1      14.336  63.578  24.064  1.00  0.00    -0.346 N 
ATOM     14  H2  UNL     1      13.599  63.515  23.360  1.00  0.00     0.163 HD
HETATM   15  C14 UNL     1      13.927  64.101  25.339  1.00  0.00     0.176 C 
HETATM   16  C26 UNL     1      14.652  65.243  25.860  1.00  0.00     0.240 C 
HETATM   17  O4  UNL     1      14.759  66.218  25.019  1.00  0.00    -0.271 OA
HETATM   18  N5  UNL     1      15.247  65.469  27.104  1.00  0.00    -0.354 N 
ATOM     19  H5  UNL     1      14.991  66.344  27.563  1.00  0.00     0.163 HD
ENDROOT
BRANCH  15  20
HETATM   20  C15 UNL     1      13.667  62.963  26.294  1.00  0.00     0.035 C 
BRANCH  20  21
HETATM   21  C16 UNL     1      12.367  63.339  27.032  1.00  0.00     0.004 C 
BRANCH  21  22
HETATM   22  C17 UNL     1      11.591  62.064  27.365  1.00  0.00     0.020 C 
BRANCH  22  23
HETATM   23  C18 UNL     1      10.212  62.427  27.800  1.00  0.00     0.122 C 
BRANCH  23  24
HETATM   24  N3  UNL     1       9.632  61.379  28.612  1.00  0.00    -0.367 N 
ATOM     25  H3  UNL     1       9.064  60.664  28.156  1.00  0.00     0.161 HD
BRANCH  24  26
HETATM   26  C19 UNL     1       9.824  61.304  30.036  1.00  0.00     0.167 C 
HETATM   27  S2  UNL     1       9.380  59.900  30.737  1.00  0.00    -0.041 SA
BRANCH  26  28
HETATM   28  N4  UNL     1      10.358  62.401  30.737  1.00  0.00    -0.363 N 
ATOM     29  H4  UNL     1       9.716  63.176  30.905  1.00  0.00     0.162 HD
BRANCH  28  30
HETATM   30  C20 UNL     1      11.682  62.571  31.243  1.00  0.00     0.083 C 
HETATM   31  C21 UNL     1      12.636  61.620  30.606  1.00  0.00     0.025 C 
HETATM   32  C22 UNL     1      14.034  61.741  31.193  1.00  0.00     0.002 C 
HETATM   33  C23 UNL     1      13.955  61.555  32.683  1.00  0.00     0.000 C 
HETATM   34  C24 UNL     1      13.115  62.692  33.252  1.00  0.00     0.002 C 
HETATM   35  C25 UNL     1      11.684  62.436  32.746  1.00  0.00     0.025 C 
ENDBRANCH  28  30
ENDBRANCH  26  28
ENDBRANCH  24  26
ENDBRANCH  23  24
ENDBRANCH  22  23
ENDBRANCH  21  22
ENDBRANCH  20  21
ENDBRANCH  15  20
BRANCH  10  36
HETATM   36  C10 UNL     1      16.893  64.774  22.351  1.00  0.00     0.009 C 
HETATM   37  C11 UNL     1      17.700  64.145  21.262  1.00  0.00     0.012 C 
HETATM   38  C12 UNL     1      17.393  66.168  22.656  1.00  0.00     0.012 C 
ENDBRANCH  10  36
BRANCH   1  39
HETATM   39  C3  UNL     1      15.785  64.475  29.249  1.00  0.00     0.005 C 
HETATM   40  C4  UNL     1      16.872  64.911  30.204  1.00  0.00     0.012 C 
BRANCH  39  41
HETATM   41  C2  UNL     1      14.453  64.943  29.685  1.00  0.00     0.002 C 
HETATM   42  C1  UNL     1      14.301  65.427  31.077  1.00  0.00     0.005 C 
ENDBRANCH  39  41
ENDBRANCH   1  39
TORSDOF 11
ENDMDL
MODEL 5
REMARK VINA RESULT: -7.377210794      5.705      9.036
REMARK  11 active torsions:
REMARK  status: ('A' for Active; 'I' for Inactive)
REMARK    1  A    between atoms: C2_2  and  C3_3 
REMARK    2  A    between atoms: C3_3  and  C5_5 
REMARK    3  A    between atoms: C9_14  and  C10_15 
REMARK    4  A    between atoms: C14_22  and  C15_23 
REMARK    5  A    between atoms: C15_23  and  C16_24 
REMARK    6  A    between atoms: C16_24  and  C17_25 
REMARK    7  A    between atoms: C17_25  and  C18_26 
REMARK    8  A    between atoms: C18_26  and  N3_27 
REMARK    9  A    between atoms: N3_27  and  C19_29 
REMARK   10  A    between atoms: C19_29  and  N4_31 
REMARK   11  A    between atoms: N4_31  and  C20_33 
ROOT
HETATM    1  C5  UNL     1      15.852  67.404  21.243  1.00  0.00     0.099 C 
HETATM    2  C6  UNL     1      15.890  68.365  20.110  1.00  0.00     0.134 C 
HETATM    3  S1  UNL     1      15.127  67.779  18.622  1.00  0.00     0.025 S 
HETATM    4  O1  UNL     1      15.120  69.067  17.528  1.00  0.00    -0.258 OA
HETATM    5  C7  UNL     1      13.518  67.139  18.848  1.00  0.00     0.211 C 
HETATM    6  C8  UNL     1      12.521  68.163  18.410  1.00  0.00     0.230 C 
HETATM    7  O2  UNL     1      12.524  68.482  17.197  1.00  0.00    -0.273 OA
HETATM    8  N1  UNL     1      11.606  68.761  19.307  1.00  0.00    -0.347 N 
ATOM      9  H1  UNL     1      10.694  69.038  18.944  1.00  0.00     0.163 HD
HETATM   10  C9  UNL     1      11.881  69.007  20.714  1.00  0.00     0.180 C 
HETATM   11  C13 UNL     1      11.410  67.874  21.543  1.00  0.00     0.241 C 
HETATM   12  O3  UNL     1      10.512  67.138  20.988  1.00  0.00    -0.271 OA
HETATM   13  N2  UNL     1      11.832  67.533  22.837  1.00  0.00    -0.346 N 
ATOM     14  H2  UNL     1      11.097  67.507  23.544  1.00  0.00     0.163 HD
HETATM   15  C14 UNL     1      13.153  67.214  23.308  1.00  0.00     0.176 C 
HETATM   16  C26 UNL     1      14.205  68.181  23.061  1.00  0.00     0.240 C 
HETATM   17  O4  UNL     1      13.904  69.382  23.430  1.00  0.00    -0.271 OA
HETATM   18  N5  UNL     1      15.477  68.037  22.501  1.00  0.00    -0.354 N 
ATOM     19  H5  UNL     1      16.246  68.429  23.045  1.00  0.00     0.163 HD
ENDROOT
BRANCH  15  20
HETATM   20  C15 UNL     1      13.465  65.771  23.002  1.00  0.00     0.035 C 
BRANCH  20  21
HETATM   21  C16 UNL     1      14.091  65.207  24.293  1.00  0.00     0.004 C 
BRANCH  21  22
HETATM   22  C17 UNL     1      14.668  63.820  24.009  1.00  0.00     0.020 C 
BRANCH  22  23
HETATM   23  C18 UNL     1      14.773  63.059  25.286  1.00  0.00     0.122 C 
BRANCH  23  24
HETATM   24  N3  UNL     1      15.984  62.267  25.319  1.00  0.00    -0.367 N 
ATOM     25  H3  UNL     1      15.908  61.253  25.241  1.00  0.00     0.161 HD
BRANCH  24  26
HETATM   26  C19 UNL     1      17.291  62.853  25.459  1.00  0.00     0.167 C 
HETATM   27  S2  UNL     1      17.469  63.899  26.698  1.00  0.00    -0.041 SA
BRANCH  26  28
HETATM   28  N4  UNL     1      18.317  62.520  24.555  1.00  0.00    -0.363 N 
ATOM     29  H4  UNL     1      18.593  63.256  23.905  1.00  0.00     0.162 HD
BRANCH  28  30
HETATM   30  C20 UNL     1      19.021  61.284  24.428  1.00  0.00     0.083 C 
HETATM   31  C21 UNL     1      18.414  60.416  23.381  1.00  0.00     0.025 C 
HETATM   32  C22 UNL     1      19.109  59.066  23.291  1.00  0.00     0.002 C 
HETATM   33  C23 UNL     1      19.094  58.418  24.647  1.00  0.00     0.000 C 
HETATM   34  C24 UNL     1      19.906  59.293  25.593  1.00  0.00     0.002 C 
HETATM   35  C25 UNL     1      19.084  60.584  25.764  1.00  0.00     0.025 C 
ENDBRANCH  28  30
ENDBRANCH  26  28
ENDBRANCH  24  26
ENDBRANCH  23  24
ENDBRANCH  22  23
ENDBRANCH  21  22
ENDBRANCH  20  21
ENDBRANCH  15  20
BRANCH  10  36
HETATM   36  C10 UNL     1      11.127  70.276  21.139  1.00  0.00     0.009 C 
HETATM   37  C11 UNL     1       9.913  70.531  20.306  1.00  0.00     0.012 C 
HETATM   38  C12 UNL     1      12.054  71.471  21.121  1.00  0.00     0.012 C 
ENDBRANCH  10  36
BRANCH   1  39
HETATM   39  C3  UNL     1      17.000  66.489  21.421  1.00  0.00     0.005 C 
HETATM   40  C4  UNL     1      17.384  66.319  22.872  1.00  0.00     0.012 C 
BRANCH  39  41
HETATM   41  C2  UNL     1      17.027  65.203  20.693  1.00  0.00     0.002 C 
HETATM   42  C1  UNL     1      17.408  63.983  21.441  1.00  0.00     0.005 C 
ENDBRANCH  39  41
ENDBRANCH   1  39
TORSDOF 11
ENDMDL
