MODEL 1
REMARK VINA RESULT: -8.306667539      0.000      0.000
REMARK  10 active torsions:
REMARK  status: ('A' for Active; 'I' for Inactive)
REMARK    1  A    between atoms: C2_2  and  C3_4 
REMARK    2  A    between atoms: C6_14  and  N4_15 
REMARK    3  A    between atoms: N4_15  and  C7_17 
REMARK       I    between atoms: N5_20  and  C10_21 
REMARK       I    between atoms: C10_21  and  N6_23 
REMARK    4  A    between atoms: N6_23  and  C11_25 
REMARK    5  A    between atoms: C11_25  and  C13_27 
REMARK       I    between atoms: C13_27  and  N7_29 
REMARK    6  A    between atoms: N7_29  and  C14_31 
REMARK    7  A    between atoms: C14_31  and  C15_32 
REMARK    8  A    between atoms: C15_32  and  C16_33 
REMARK    9  A    between atoms: C16_33  and  N8_34 
REMARK       I    between atoms: N8_34  and  C17_36 
REMARK   10  A    between atoms: C17_36  and  C18_38 
ROOT
HETATM    1  C7  UNL     1      17.410  62.971  24.478  1.00  0.00     0.086 C 
HETATM    2  C8  UNL     1      15.981  62.652  24.201  1.00  0.00     0.045 C 
HETATM    3  C9  UNL     1      15.186  63.924  23.851  1.00  0.00     0.129 C 
HETATM    4  N5  UNL     1      15.454  64.959  24.802  1.00  0.00    -0.334 N 
HETATM    5  C10 UNL     1      14.426  65.622  25.482  1.00  0.00     0.319 C 
HETATM    6  O2  UNL     1      14.779  66.502  26.346  1.00  0.00    -0.247 OA
HETATM    7  N6  UNL     1      13.052  65.410  25.298  1.00  0.00    -0.330 N 
ATOM      8  H6  UNL     1      12.732  64.722  24.616  1.00  0.00     0.165 HD
HETATM    9  C19 UNL     1      16.858  65.304  25.012  1.00  0.00     0.129 C 
HETATM   10  C20 UNL     1      17.742  64.423  24.153  1.00  0.00     0.045 C 
ENDROOT
BRANCH   7  11
HETATM   11  C11 UNL     1      12.071  66.175  26.083  1.00  0.00     0.174 C 
HETATM   12  C12 UNL     1      11.094  66.850  25.083  1.00  0.00     0.042 C 
BRANCH  11  13
HETATM   13  C13 UNL     1      11.220  65.297  26.902  1.00  0.00     0.240 C 
HETATM   14  O3  UNL     1      10.079  65.675  27.235  1.00  0.00    -0.271 OA
HETATM   15  N7  UNL     1      11.692  64.035  27.311  1.00  0.00    -0.359 N 
ATOM     16  H7  UNL     1      12.627  63.759  27.010  1.00  0.00     0.162 HD
BRANCH  15  17
HETATM   17  C14 UNL     1      10.955  63.111  28.119  1.00  0.00     0.124 C 
BRANCH  17  18
HETATM   18  C15 UNL     1      11.411  61.668  27.908  1.00  0.00     0.039 C 
BRANCH  18  19
HETATM   19  C16 UNL     1      10.275  60.813  28.424  1.00  0.00     0.124 C 
BRANCH  19  20
HETATM   20  N8  UNL     1       9.660  61.350  29.598  1.00  0.00    -0.360 N 
HETATM   21  C17 UNL     1       9.332  60.533  30.706  1.00  0.00     0.227 C 
HETATM   22  O4  UNL     1       9.557  59.309  30.728  1.00  0.00    -0.273 OA
ATOM     23  H8  UNL     1       9.451  62.348  29.638  1.00  0.00     0.162 HD
BRANCH  21  24
HETATM   24  C18 UNL     1       8.685  61.162  31.909  1.00  0.00     0.187 C 
HETATM   25 BR1  UNL     1       7.043  60.230  32.306  1.00  0.00    -0.087 Br
ENDBRANCH  21  24
ENDBRANCH  19  20
ENDBRANCH  18  19
ENDBRANCH  17  18
ENDBRANCH  15  17
ENDBRANCH  11  13
ENDBRANCH   7  11
BRANCH   1  26
HETATM   26  N4  UNL     1      18.316  62.044  23.982  1.00  0.00    -0.370 N 
ATOM     27  H4  UNL     1      18.732  62.301  23.088  1.00  0.00     0.161 HD
BRANCH  26  28
HETATM   28  C6  UNL     1      18.714  60.942  24.440  1.00  0.00     0.132 A 
HETATM   29  C3  UNL     1      19.551  60.951  25.592  1.00  0.00     0.070 A 
HETATM   30  C4  UNL     1      20.029  59.785  26.135  1.00  0.00     0.125 A 
HETATM   31  N1  UNL     1      19.715  58.618  25.587  1.00  0.00    -0.201 N 
HETATM   32  C5  UNL     1      18.912  58.580  24.479  1.00  0.00     0.677 A 
ATOM     33  H1  UNL     1      20.070  57.751  25.991  1.00  0.00     0.183 HD
HETATM   34  N2  UNL     1      18.635  57.504  23.988  1.00  0.00    -0.234 N 
HETATM   35  N3  UNL     1      18.431  59.754  23.933  1.00  0.00    -0.176 N 
ATOM     36  H22 UNL     1      18.990  56.637  24.392  1.00  0.00     0.174 HD
ATOM     37  H21 UNL     1      18.037  57.476  23.163  1.00  0.00     0.174 HD
ATOM     38  H3  UNL     1      17.834  59.703  23.107  1.00  0.00     0.186 HD
BRANCH  29  39
HETATM   39  C2  UNL     1      19.862  62.255  26.136  1.00  0.00     0.160 C 
HETATM   40  C1  UNL     1      19.299  62.750  27.423  1.00  0.00     0.097 C 
HETATM   41  O1  UNL     1      20.634  63.047  25.542  1.00  0.00    -0.293 OA
ENDBRANCH  29  39
ENDBRANCH  26  28
ENDBRANCH   1  26
TORSDOF 10
ENDMDL
MODEL 2
REMARK VINA RESULT: -8.235607409      3.058      3.767
REMARK  10 active torsions:
REMARK  status: ('A' for Active; 'I' for Inactive)
REMARK    1  A    between atoms: C2_2  and  C3_4 
REMARK    2  A    between atoms: C6_14  and  N4_15 
REMARK    3  A    between atoms: N4_15  and  C7_17 
REMARK       I    between atoms: N5_20  and  C10_21 
REMARK       I    between atoms: C10_21  and  N6_23 
REMARK    4  A    between atoms: N6_23  and  C11_25 
REMARK    5  A    between atoms: C11_25  and  C13_27 
REMARK       I    between atoms: C13_27  and  N7_29 
REMARK    6  A    between atoms: N7_29  and  C14_31 
REMARK    7  A    between atoms: C14_31  and  C15_32 
REMARK    8  A    between atoms: C15_32  and  C16_33 
REMARK    9  A    between atoms: C16_33  and  N8_34 
REMARK       I    between atoms: N8_34  and  C17_36 
REMARK   10  A    between atoms: C17_36  and  C18_38 
ROOT
HETATM    1  C7  UNL     1      17.292  64.553  23.928  1.00  0.00     0.086 C 
HETATM    2  C8  UNL     1      15.987  64.328  24.610  1.00  0.00     0.045 C 
HETATM    3  C9  UNL     1      14.831  64.282  23.594  1.00  0.00     0.129 C 
HETATM    4  N5  UNL     1      14.916  65.389  22.691  1.00  0.00    -0.334 N 
HETATM    5  C10 UNL     1      13.836  66.256  22.480  1.00  0.00     0.319 C 
HETATM    6  O2  UNL     1      14.035  67.242  21.683  1.00  0.00    -0.247 OA
HETATM    7  N6  UNL     1      12.565  66.136  23.059  1.00  0.00    -0.330 N 
ATOM      8  H6  UNL     1      12.368  65.363  23.694  1.00  0.00     0.165 HD
HETATM    9  C19 UNL     1      16.182  65.556  21.981  1.00  0.00     0.129 C 
HETATM   10  C20 UNL     1      17.161  64.484  22.412  1.00  0.00     0.045 C 
ENDROOT
BRANCH   7  11
HETATM   11  C11 UNL     1      11.516  67.121  22.756  1.00  0.00     0.174 C 
HETATM   12  C12 UNL     1      10.366  66.373  22.029  1.00  0.00     0.042 C 
BRANCH  11  13
HETATM   13  C13 UNL     1      10.898  67.659  23.978  1.00  0.00     0.240 C 
HETATM   14  O3  UNL     1      11.156  68.823  24.343  1.00  0.00    -0.271 OA
HETATM   15  N7  UNL     1      10.019  66.861  24.737  1.00  0.00    -0.359 N 
ATOM     16  H7  UNL     1       9.827  65.918  24.400  1.00  0.00     0.162 HD
BRANCH  15  17
HETATM   17  C14 UNL     1       9.377  67.279  25.947  1.00  0.00     0.124 C 
BRANCH  17  18
HETATM   18  C15 UNL     1       9.297  66.152  26.976  1.00  0.00     0.039 C 
BRANCH  18  19
HETATM   19  C16 UNL     1      10.591  66.234  27.755  1.00  0.00     0.124 C 
BRANCH  19  20
HETATM   20  N8  UNL     1      11.299  64.992  27.796  1.00  0.00    -0.360 N 
HETATM   21  C17 UNL     1      12.329  64.691  26.874  1.00  0.00     0.227 C 
HETATM   22  O4  UNL     1      12.680  65.481  25.977  1.00  0.00    -0.273 OA
ATOM     23  H8  UNL     1      11.055  64.304  28.510  1.00  0.00     0.162 HD
BRANCH  21  24
HETATM   24  C18 UNL     1      13.032  63.366  26.973  1.00  0.00     0.187 C 
HETATM   25 BR1  UNL     1      11.845  62.076  27.776  1.00  0.00    -0.087 Br
ENDBRANCH  21  24
ENDBRANCH  19  20
ENDBRANCH  18  19
ENDBRANCH  17  18
ENDBRANCH  15  17
ENDBRANCH  11  13
ENDBRANCH   7  11
BRANCH   1  26
HETATM   26  N4  UNL     1      18.352  63.827  24.453  1.00  0.00    -0.370 N 
ATOM     27  H4  UNL     1      19.109  64.400  24.825  1.00  0.00     0.161 HD
BRANCH  26  28
HETATM   28  C6  UNL     1      18.545  62.588  24.552  1.00  0.00     0.132 A 
HETATM   29  C3  UNL     1      19.354  62.113  25.622  1.00  0.00     0.070 A 
HETATM   30  C4  UNL     1      19.613  60.774  25.780  1.00  0.00     0.125 A 
HETATM   31  N1  UNL     1      19.105  59.893  24.927  1.00  0.00    -0.201 N 
HETATM   32  C5  UNL     1      18.324  60.322  23.890  1.00  0.00     0.677 A 
ATOM     33  H1  UNL     1      19.297  58.898  25.045  1.00  0.00     0.183 HD
HETATM   34  N2  UNL     1      17.868  59.503  23.117  1.00  0.00    -0.234 N 
HETATM   35  N3  UNL     1      18.063  61.670  23.731  1.00  0.00    -0.176 N 
ATOM     36  H22 UNL     1      18.060  58.509  23.235  1.00  0.00     0.174 HD
ATOM     37  H21 UNL     1      17.285  59.824  22.343  1.00  0.00     0.174 HD
ATOM     38  H3  UNL     1      17.478  61.968  22.951  1.00  0.00     0.186 HD
BRANCH  29  39
HETATM   39  C2  UNL     1      19.883  63.124  26.512  1.00  0.00     0.160 C 
HETATM   40  C1  UNL     1      19.409  63.296  27.914  1.00  0.00     0.097 C 
HETATM   41  O1  UNL     1      20.780  63.920  26.141  1.00  0.00    -0.293 OA
ENDBRANCH  29  39
ENDBRANCH  26  28
ENDBRANCH   1  26
TORSDOF 10
ENDMDL
MODEL 3
REMARK VINA RESULT: -8.216919934      5.122      7.815
REMARK  10 active torsions:
REMARK  status: ('A' for Active; 'I' for Inactive)
REMARK    1  A    between atoms: C2_2  and  C3_4 
REMARK    2  A    between atoms: C6_14  and  N4_15 
REMARK    3  A    between atoms: N4_15  and  C7_17 
REMARK       I    between atoms: N5_20  and  C10_21 
REMARK       I    between atoms: C10_21  and  N6_23 
REMARK    4  A    between atoms: N6_23  and  C11_25 
REMARK    5  A    between atoms: C11_25  and  C13_27 
REMARK       I    between atoms: C13_27  and  N7_29 
REMARK    6  A    between atoms: N7_29  and  C14_31 
REMARK    7  A    between atoms: C14_31  and  C15_32 
REMARK    8  A    between atoms: C15_32  and  C16_33 
REMARK    9  A    between atoms: C16_33  and  N8_34 
REMARK       I    between atoms: N8_34  and  C17_36 
REMARK   10  A    between atoms: C17_36  and  C18_38 
ROOT
HETATM    1  C7  UNL     1      15.669  63.465  23.452  1.00  0.00     0.086 C 
HETATM    2  C8  UNL     1      16.909  64.200  23.079  1.00  0.00     0.045 C 
HETATM    3  C9  UNL     1      16.768  65.707  23.365  1.00  0.00     0.129 C 
HETATM    4  N5  UNL     1      15.531  66.201  22.842  1.00  0.00    -0.334 N 
HETATM    5  C10 UNL     1      15.480  67.304  21.980  1.00  0.00     0.319 C 
HETATM    6  O2  UNL     1      14.324  67.636  21.535  1.00  0.00    -0.247 OA
HETATM    7  N6  UNL     1      16.578  68.073  21.570  1.00  0.00    -0.330 N 
ATOM      8  H6  UNL     1      17.513  67.843  21.907  1.00  0.00     0.165 HD
HETATM    9  C19 UNL     1      14.318  65.508  23.270  1.00  0.00     0.129 C 
HETATM   10  C20 UNL     1      14.678  64.358  24.188  1.00  0.00     0.045 C 
ENDROOT
BRANCH   7  11
HETATM   11  C11 UNL     1      16.388  69.209  20.656  1.00  0.00     0.174 C 
HETATM   12  C12 UNL     1      17.781  69.847  20.402  1.00  0.00     0.042 C 
BRANCH  11  13
HETATM   13  C13 UNL     1      15.929  68.773  19.327  1.00  0.00     0.240 C 
HETATM   14  O3  UNL     1      16.636  68.002  18.649  1.00  0.00    -0.271 OA
HETATM   15  N7  UNL     1      14.696  69.227  18.820  1.00  0.00    -0.359 N 
ATOM     16  H7  UNL     1      14.143  69.850  19.409  1.00  0.00     0.162 HD
BRANCH  15  17
HETATM   17  C14 UNL     1      14.163  68.878  17.538  1.00  0.00     0.124 C 
BRANCH  17  18
HETATM   18  C15 UNL     1      13.105  67.779  17.633  1.00  0.00     0.039 C 
BRANCH  18  19
HETATM   19  C16 UNL     1      11.778  68.503  17.612  1.00  0.00     0.124 C 
BRANCH  19  20
HETATM   20  N8  UNL     1      10.887  68.070  18.644  1.00  0.00    -0.360 N 
HETATM   21  C17 UNL     1      10.963  68.589  19.958  1.00  0.00     0.227 C 
HETATM   22  O4  UNL     1      11.801  69.446  20.295  1.00  0.00    -0.273 OA
ATOM     23  H8  UNL     1      10.178  67.369  18.427  1.00  0.00     0.162 HD
BRANCH  21  24
HETATM   24  C18 UNL     1       9.996  68.090  20.995  1.00  0.00     0.187 C 
HETATM   25 BR1  UNL     1      10.781  66.594  21.926  1.00  0.00    -0.087 Br
ENDBRANCH  21  24
ENDBRANCH  19  20
ENDBRANCH  18  19
ENDBRANCH  17  18
ENDBRANCH  15  17
ENDBRANCH  11  13
ENDBRANCH   7  11
BRANCH   1  26
HETATM   26  N4  UNL     1      15.885  62.228  24.042  1.00  0.00    -0.370 N 
ATOM     27  H4  UNL     1      15.034  61.742  24.322  1.00  0.00     0.161 HD
BRANCH  26  28
HETATM   28  C6  UNL     1      16.945  61.599  24.294  1.00  0.00     0.132 A 
HETATM   29  C3  UNL     1      17.575  61.812  25.552  1.00  0.00     0.070 A 
HETATM   30  C4  UNL     1      18.740  61.165  25.885  1.00  0.00     0.125 A 
HETATM   31  N1  UNL     1      19.301  60.322  25.027  1.00  0.00    -0.201 N 
HETATM   32  C5  UNL     1      18.717  60.099  23.811  1.00  0.00     0.677 A 
ATOM     33  H1  UNL     1      20.167  59.842  25.275  1.00  0.00     0.183 HD
HETATM   34  N2  UNL     1      19.245  59.326  23.036  1.00  0.00    -0.234 N 
HETATM   35  N3  UNL     1      17.545  60.750  23.476  1.00  0.00    -0.176 N 
ATOM     36  H22 UNL     1      20.110  58.846  23.284  1.00  0.00     0.174 HD
ATOM     37  H21 UNL     1      18.809  59.160  22.129  1.00  0.00     0.174 HD
ATOM     38  H3  UNL     1      17.126  60.568  22.564  1.00  0.00     0.186 HD
BRANCH  29  39
HETATM   39  C2  UNL     1      16.917  62.747  26.438  1.00  0.00     0.160 C 
HETATM   40  C1  UNL     1      17.502  64.069  26.800  1.00  0.00     0.097 C 
HETATM   41  O1  UNL     1      15.803  62.487  26.956  1.00  0.00    -0.293 OA
ENDBRANCH  29  39
ENDBRANCH  26  28
ENDBRANCH   1  26
TORSDOF 10
ENDMDL
MODEL 4
REMARK VINA RESULT: -8.216081419      5.549      7.983
REMARK  10 active torsions:
REMARK  status: ('A' for Active; 'I' for Inactive)
REMARK    1  A    between atoms: C2_2  and  C3_4 
REMARK    2  A    between atoms: C6_14  and  N4_15 
REMARK    3  A    between atoms: N4_15  and  C7_17 
REMARK       I    between atoms: N5_20  and  C10_21 
REMARK       I    between atoms: C10_21  and  N6_23 
REMARK    4  A    between atoms: N6_23  and  C11_25 
REMARK    5  A    between atoms: C11_25  and  C13_27 
REMARK       I    between atoms: C13_27  and  N7_29 
REMARK    6  A    between atoms: N7_29  and  C14_31 
REMARK    7  A    between atoms: C14_31  and  C15_32 
REMARK    8  A    between atoms: C15_32  and  C16_33 
REMARK    9  A    between atoms: C16_33  and  N8_34 
REMARK       I    between atoms: N8_34  and  C17_36 
REMARK   10  A    between atoms: C17_36  and  C18_38 
ROOT
HETATM    1  C7  UNL     1      16.486  62.630  23.477  1.00  0.00     0.086 C 
HETATM    2  C8  UNL     1      17.332  63.785  23.064  1.00  0.00     0.045 C 
HETATM    3  C9  UNL     1      16.756  65.111  23.593  1.00  0.00     0.129 C 
HETATM    4  N5  UNL     1      15.355  65.193  23.316  1.00  0.00    -0.334 N 
HETATM    5  C10 UNL     1      14.796  66.290  22.647  1.00  0.00     0.319 C 
HETATM    6  O2  UNL     1      13.536  66.241  22.411  1.00  0.00    -0.247 OA
HETATM    7  N6  UNL     1      15.491  67.430  22.221  1.00  0.00    -0.330 N 
ATOM      8  H6  UNL     1      16.493  67.507  22.395  1.00  0.00     0.165 HD
HETATM    9  C19 UNL     1      14.531  64.083  23.787  1.00  0.00     0.129 C 
HETATM   10  C20 UNL     1      15.401  63.044  24.464  1.00  0.00     0.045 C 
ENDROOT
BRANCH   7  11
HETATM   11  C11 UNL     1      14.783  68.514  21.523  1.00  0.00     0.174 C 
HETATM   12  C12 UNL     1      15.544  69.835  21.814  1.00  0.00     0.042 C 
BRANCH  11  13
HETATM   13  C13 UNL     1      14.848  68.359  20.061  1.00  0.00     0.240 C 
HETATM   14  O3  UNL     1      15.699  68.994  19.407  1.00  0.00    -0.271 OA
HETATM   15  N7  UNL     1      13.949  67.499  19.400  1.00  0.00    -0.359 N 
ATOM     16  H7  UNL     1      13.274  66.991  19.971  1.00  0.00     0.162 HD
BRANCH  15  17
HETATM   17  C14 UNL     1      13.916  67.287  17.984  1.00  0.00     0.124 C 
BRANCH  17  18
HETATM   18  C15 UNL     1      13.178  68.407  17.250  1.00  0.00     0.039 C 
BRANCH  18  19
HETATM   19  C16 UNL     1      11.738  68.290  17.696  1.00  0.00     0.124 C 
BRANCH  19  20
HETATM   20  N8  UNL     1      11.277  69.441  18.409  1.00  0.00    -0.360 N 
HETATM   21  C17 UNL     1      11.057  69.411  19.807  1.00  0.00     0.227 C 
HETATM   22  O4  UNL     1      11.249  68.391  20.496  1.00  0.00    -0.273 OA
ATOM     23  H8  UNL     1      11.103  70.306  17.898  1.00  0.00     0.162 HD
BRANCH  21  24
HETATM   24  C18 UNL     1      10.572  70.656  20.495  1.00  0.00     0.187 C 
HETATM   25 BR1  UNL     1      12.076  71.576  21.277  1.00  0.00    -0.087 Br
ENDBRANCH  21  24
ENDBRANCH  19  20
ENDBRANCH  18  19
ENDBRANCH  17  18
ENDBRANCH  15  17
ENDBRANCH  11  13
ENDBRANCH   7  11
BRANCH   1  26
HETATM   26  N4  UNL     1      17.196  61.493  23.839  1.00  0.00    -0.370 N 
ATOM     27  H4  UNL     1      17.001  60.677  23.261  1.00  0.00     0.161 HD
BRANCH  26  28
HETATM   28  C6  UNL     1      18.037  61.292  24.752  1.00  0.00     0.132 A 
HETATM   29  C3  UNL     1      18.852  60.128  24.676  1.00  0.00     0.070 A 
HETATM   30  C4  UNL     1      19.781  59.844  25.646  1.00  0.00     0.125 A 
HETATM   31  N1  UNL     1      19.934  60.660  26.681  1.00  0.00    -0.201 N 
HETATM   32  C5  UNL     1      19.163  61.785  26.780  1.00  0.00     0.677 A 
ATOM     33  H1  UNL     1      20.624  60.448  27.402  1.00  0.00     0.183 HD
HETATM   34  N2  UNL     1      19.313  62.522  27.734  1.00  0.00    -0.234 N 
HETATM   35  N3  UNL     1      18.228  62.072  25.803  1.00  0.00    -0.176 N 
ATOM     36  H22 UNL     1      20.004  62.310  28.455  1.00  0.00     0.174 HD
ATOM     37  H21 UNL     1      18.738  63.361  27.808  1.00  0.00     0.174 HD
ATOM     38  H3  UNL     1      17.664  62.917  25.896  1.00  0.00     0.186 HD
BRANCH  29  39
HETATM   39  C2  UNL     1      18.632  59.276  23.527  1.00  0.00     0.160 C 
HETATM   40  C1  UNL     1      18.245  57.843  23.644  1.00  0.00     0.097 C 
HETATM   41  O1  UNL     1      18.760  59.709  22.356  1.00  0.00    -0.293 OA
ENDBRANCH  29  39
ENDBRANCH  26  28
ENDBRANCH   1  26
TORSDOF 10
ENDMDL
MODEL 5
REMARK VINA RESULT: -8.197162617      2.136      2.771
REMARK  10 active torsions:
REMARK  status: ('A' for Active; 'I' for Inactive)
REMARK    1  A    between atoms: C2_2  and  C3_4 
REMARK    2  A    between atoms: C6_14  and  N4_15 
REMARK    3  A    between atoms: N4_15  and  C7_17 
REMARK       I    between atoms: N5_20  and  C10_21 
REMARK       I    between atoms: C10_21  and  N6_23 
REMARK    4  A    between atoms: N6_23  and  C11_25 
REMARK    5  A    between atoms: C11_25  and  C13_27 
REMARK       I    between atoms: C13_27  and  N7_29 
REMARK    6  A    between atoms: N7_29  and  C14_31 
REMARK    7  A    between atoms: C14_31  and  C15_32 
REMARK    8  A    between atoms: C15_32  and  C16_33 
REMARK    9  A    between atoms: C16_33  and  N8_34 
REMARK       I    between atoms: N8_34  and  C17_36 
REMARK   10  A    between atoms: C17_36  and  C18_38 
ROOT
HETATM    1  C7  UNL     1      17.295  64.491  23.924  1.00  0.00     0.086 C 
HETATM    2  C8  UNL     1      16.028  64.193  24.649  1.00  0.00     0.045 C 
HETATM    3  C9  UNL     1      14.825  64.195  23.688  1.00  0.00     0.129 C 
HETATM    4  N5  UNL     1      14.848  65.362  22.860  1.00  0.00    -0.334 N 
HETATM    5  C10 UNL     1      13.746  66.220  22.761  1.00  0.00     0.319 C 
HETATM    6  O2  UNL     1      13.889  67.261  22.026  1.00  0.00    -0.247 OA
HETATM    7  N6  UNL     1      12.506  66.036  23.390  1.00  0.00    -0.330 N 
ATOM      8  H6  UNL     1      12.352  65.217  23.978  1.00  0.00     0.165 HD
HETATM    9  C19 UNL     1      16.076  65.602  22.105  1.00  0.00     0.129 C 
HETATM   10  C20 UNL     1      17.092  64.522  22.414  1.00  0.00     0.045 C 
ENDROOT
BRANCH   7  11
HETATM   11  C11 UNL     1      11.427  67.018  23.204  1.00  0.00     0.174 C 
HETATM   12  C12 UNL     1      10.411  66.415  22.197  1.00  0.00     0.042 C 
BRANCH  11  13
HETATM   13  C13 UNL     1      10.654  67.222  24.440  1.00  0.00     0.240 C 
HETATM   14  O3  UNL     1       9.631  67.936  24.420  1.00  0.00    -0.271 OA
HETATM   15  N7  UNL     1      11.067  66.616  25.642  1.00  0.00    -0.359 N 
ATOM     16  H7  UNL     1      11.903  66.032  25.614  1.00  0.00     0.162 HD
BRANCH  15  17
HETATM   17  C14 UNL     1      10.398  66.760  26.900  1.00  0.00     0.124 C 
BRANCH  17  18
HETATM   18  C15 UNL     1       9.647  65.491  27.302  1.00  0.00     0.039 C 
BRANCH  18  19
HETATM   19  C16 UNL     1      10.721  64.500  27.687  1.00  0.00     0.124 C 
BRANCH  19  20
HETATM   20  N8  UNL     1      10.198  63.218  28.047  1.00  0.00    -0.360 N 
HETATM   21  C17 UNL     1      10.982  62.043  27.963  1.00  0.00     0.227 C 
HETATM   22  O4  UNL     1      12.166  62.052  27.575  1.00  0.00    -0.273 OA
ATOM     23  H8  UNL     1       9.233  63.149  28.373  1.00  0.00     0.162 HD
BRANCH  21  24
HETATM   24  C18 UNL     1      10.370  60.728  28.356  1.00  0.00     0.187 C 
HETATM   25 BR1  UNL     1      10.491  60.518  30.270  1.00  0.00    -0.087 Br
ENDBRANCH  21  24
ENDBRANCH  19  20
ENDBRANCH  18  19
ENDBRANCH  17  18
ENDBRANCH  15  17
ENDBRANCH  11  13
ENDBRANCH   7  11
BRANCH   1  26
HETATM   26  N4  UNL     1      18.391  63.751  24.347  1.00  0.00    -0.370 N 
ATOM     27  H4  UNL     1      19.199  64.313  24.612  1.00  0.00     0.161 HD
BRANCH  26  28
HETATM   28  C6  UNL     1      18.564  62.511  24.462  1.00  0.00     0.132 A 
HETATM   29  C3  UNL     1      19.379  62.037  25.528  1.00  0.00     0.070 A 
HETATM   30  C4  UNL     1      19.617  60.697  25.703  1.00  0.00     0.125 A 
HETATM   31  N1  UNL     1      19.085  59.812  24.869  1.00  0.00    -0.201 N 
HETATM   32  C5  UNL     1      18.298  60.239  23.835  1.00  0.00     0.677 A 
ATOM     33  H1  UNL     1      19.262  58.816  24.999  1.00  0.00     0.183 HD
HETATM   34  N2  UNL     1      17.819  59.417  23.079  1.00  0.00    -0.234 N 
HETATM   35  N3  UNL     1      18.057  61.589  23.660  1.00  0.00    -0.176 N 
ATOM     36  H22 UNL     1      17.996  58.421  23.210  1.00  0.00     0.174 HD
ATOM     37  H21 UNL     1      17.232  59.736  22.309  1.00  0.00     0.174 HD
ATOM     38  H3  UNL     1      17.467  61.885  22.882  1.00  0.00     0.186 HD
BRANCH  29  39
HETATM   39  C2  UNL     1      19.935  63.052  26.397  1.00  0.00     0.160 C 
HETATM   40  C1  UNL     1      19.489  63.245  27.805  1.00  0.00     0.097 C 
HETATM   41  O1  UNL     1      20.834  63.834  26.001  1.00  0.00    -0.293 OA
ENDBRANCH  29  39
ENDBRANCH  26  28
ENDBRANCH   1  26
TORSDOF 10
ENDMDL
