MODEL 1
REMARK VINA RESULT: -6.133218820      0.000      0.000
REMARK  12 active torsions:
REMARK  status: ('A' for Active; 'I' for Inactive)
REMARK    1  A    between atoms: C2_2  and  C3_3 
REMARK    2  A    between atoms: C3_3  and  C5_5 
REMARK    3  A    between atoms: C6_6  and  O1_7 
REMARK    4  A    between atoms: C7_11  and  C8_12 
REMARK    5  A    between atoms: C8_12  and  C9_13 
REMARK    6  A    between atoms: C9_13  and  C10_14 
REMARK    7  A    between atoms: C10_14  and  C11_15 
REMARK    8  A    between atoms: C11_15  and  N2_16 
REMARK    9  A    between atoms: C13_24  and  C14_25 
REMARK   10  A    between atoms: C15_29  and  O3_30 
REMARK   11  A    between atoms: C16_34  and  C17_35 
REMARK   12  A    between atoms: C21_39  and  O4_40 
ROOT
HETATM    1  C5  UNL     1      14.409  68.206  19.111  1.00  0.00     0.163 C 
HETATM    2  C6  UNL     1      15.152  67.513  20.197  1.00  0.00     0.136 C 
HETATM    3  N1  UNL     1      15.351  66.168  20.438  1.00  0.00    -0.359 N 
ATOM      4  H1  UNL     1      14.580  65.763  20.969  1.00  0.00     0.162 HD
HETATM    5  C7  UNL     1      16.362  65.187  20.134  1.00  0.00     0.176 C 
HETATM    6  C12 UNL     1      17.061  64.777  21.412  1.00  0.00     0.246 C 
HETATM    7  O2  UNL     1      17.919  63.864  21.228  1.00  0.00    -0.271 OA
HETATM    8  N3  UNL     1      16.849  65.294  22.704  1.00  0.00    -0.311 N 
ATOM      9  H3  UNL     1      17.632  65.845  23.058  1.00  0.00     0.170 HD
HETATM   10  C13 UNL     1      15.743  65.198  23.624  1.00  0.00     0.117 C 
HETATM   11  N4  UNL     1      14.965  66.398  23.823  1.00  0.00    -0.308 N 
ATOM     12  H4  UNL     1      15.554  67.195  24.066  1.00  0.00     0.171 HD
HETATM   13  C15 UNL     1      13.616  66.749  23.769  1.00  0.00     0.219 C 
HETATM   14  N5  UNL     1      12.691  67.083  22.788  1.00  0.00    -0.341 N 
ATOM     15  H5  UNL     1      12.019  66.346  22.577  1.00  0.00     0.164 HD
HETATM   16  C16 UNL     1      12.505  68.335  21.987  1.00  0.00     0.183 C 
HETATM   17  C21 UNL     1      12.304  67.974  20.573  1.00  0.00     0.141 C 
HETATM   18  N6  UNL     1      12.982  68.307  19.385  1.00  0.00    -0.355 N 
HETATM   19  C22 UNL     1      12.234  68.781  18.206  1.00  0.00     0.152 C 
ENDROOT
BRANCH   5  20
HETATM   20  C8  UNL     1      17.236  65.635  19.047  1.00  0.00     0.035 C 
BRANCH  20  21
HETATM   21  C9  UNL     1      18.445  66.411  19.323  1.00  0.00     0.004 C 
BRANCH  21  22
HETATM   22  C10 UNL     1      18.486  67.564  18.300  1.00  0.00     0.027 C 
BRANCH  22  23
HETATM   23  C11 UNL     1      18.887  68.850  18.975  1.00  0.00     0.229 C 
BRANCH  23  24
HETATM   24  N2  UNL     1      18.515  68.836  20.361  1.00  0.00    -0.079 N 
ATOM     25  H23 UNL     1      18.724  67.938  20.799  1.00  0.00     0.274 HD
ATOM     26  H22 UNL     1      19.127  69.428  20.922  1.00  0.00     0.274 HD
ATOM     27  H21 UNL     1      17.534  69.092  20.476  1.00  0.00     0.274 HD
ENDBRANCH  23  24
ENDBRANCH  22  23
ENDBRANCH  21  22
ENDBRANCH  20  21
ENDBRANCH   5  20
BRANCH   2  28
HETATM   28  O1  UNL     1      15.654  68.415  20.996  1.00  0.00    -0.348 OA
ATOM     29  H1  UNL     1      16.525  68.136  21.257  1.00  0.00     0.219 HD
ENDBRANCH   2  28
BRANCH   1  30
HETATM   30  C3  UNL     1      15.014  69.528  18.737  1.00  0.00     0.012 C 
HETATM   31  C4  UNL     1      15.607  69.628  17.384  1.00  0.00     0.012 C 
BRANCH  30  32
HETATM   32  C2  UNL     1      14.028  70.661  18.941  1.00  0.00     0.002 C 
HETATM   33  C1  UNL     1      14.533  71.559  20.048  1.00  0.00     0.005 C 
ENDBRANCH  30  32
ENDBRANCH   1  30
BRANCH  10  34
HETATM   34  C14 UNL     1      15.131  63.872  23.817  1.00  0.00     0.104 C 
HETATM   35 BR1  UNL     1      16.102  62.354  24.296  1.00  0.00    -0.060 Br
ENDBRANCH  10  34
BRANCH  17  36
HETATM   36  O4  UNL     1      11.280  67.180  20.445  1.00  0.00    -0.348 OA
ATOM     37  H4  UNL     1      11.117  66.991  19.529  1.00  0.00     0.219 HD
ENDBRANCH  17  36
BRANCH  13  38
HETATM   38  O3  UNL     1      13.071  66.768  24.990  1.00  0.00    -0.332 OA
ATOM     39  H3  UNL     1      12.297  66.219  25.029  1.00  0.00     0.220 HD
ENDBRANCH  13  38
BRANCH  16  40
HETATM   40  C17 UNL     1      11.236  68.922  22.565  1.00  0.00     0.008 C 
HETATM   41  C18 UNL     1      10.759  70.241  22.255  1.00  0.00    -0.089 C 
HETATM   42  C19 UNL     1      11.680  71.401  22.559  1.00  0.00     0.042 C 
HETATM   43  C20 UNL     1      10.046  70.494  20.975  1.00  0.00     0.042 C 
ENDBRANCH  16  40
TORSDOF 12
ENDMDL
MODEL 2
REMARK VINA RESULT: -6.044464271      2.959      7.827
REMARK  12 active torsions:
REMARK  status: ('A' for Active; 'I' for Inactive)
REMARK    1  A    between atoms: C2_2  and  C3_3 
REMARK    2  A    between atoms: C3_3  and  C5_5 
REMARK    3  A    between atoms: C6_6  and  O1_7 
REMARK    4  A    between atoms: C7_11  and  C8_12 
REMARK    5  A    between atoms: C8_12  and  C9_13 
REMARK    6  A    between atoms: C9_13  and  C10_14 
REMARK    7  A    between atoms: C10_14  and  C11_15 
REMARK    8  A    between atoms: C11_15  and  N2_16 
REMARK    9  A    between atoms: C13_24  and  C14_25 
REMARK   10  A    between atoms: C15_29  and  O3_30 
REMARK   11  A    between atoms: C16_34  and  C17_35 
REMARK   12  A    between atoms: C21_39  and  O4_40 
ROOT
HETATM    1  C5  UNL     1      14.231  65.233  25.166  1.00  0.00     0.163 C 
HETATM    2  C6  UNL     1      14.511  66.038  23.947  1.00  0.00     0.136 C 
HETATM    3  N1  UNL     1      13.843  66.105  22.739  1.00  0.00    -0.359 N 
ATOM      4  H1  UNL     1      14.155  65.377  22.096  1.00  0.00     0.162 HD
HETATM    5  C7  UNL     1      12.823  66.935  22.151  1.00  0.00     0.176 C 
HETATM    6  C12 UNL     1      13.429  67.759  21.036  1.00  0.00     0.246 C 
HETATM    7  O2  UNL     1      12.571  68.464  20.427  1.00  0.00    -0.271 OA
HETATM    8  N3  UNL     1      14.781  67.803  20.646  1.00  0.00    -0.311 N 
ATOM      9  H3  UNL     1      15.240  68.690  20.857  1.00  0.00     0.170 HD
HETATM   10  C13 UNL     1      15.644  66.840  20.007  1.00  0.00     0.117 C 
HETATM   11  N4  UNL     1      16.672  66.251  20.832  1.00  0.00    -0.308 N 
ATOM     12  H4  UNL     1      17.231  66.960  21.306  1.00  0.00     0.171 HD
HETATM   13  C15 UNL     1      17.099  64.961  21.147  1.00  0.00     0.219 C 
HETATM   14  N5  UNL     1      16.720  63.949  22.020  1.00  0.00    -0.341 N 
ATOM     15  H5  UNL     1      16.238  63.169  21.574  1.00  0.00     0.164 HD
HETATM   16  C16 UNL     1      16.894  63.801  23.501  1.00  0.00     0.183 C 
HETATM   17  C21 UNL     1      15.621  63.352  24.090  1.00  0.00     0.141 C 
HETATM   18  N6  UNL     1      14.776  63.884  25.083  1.00  0.00    -0.355 N 
HETATM   19  C22 UNL     1      14.293  63.034  26.187  1.00  0.00     0.152 C 
ENDROOT
BRANCH   5  20
HETATM   20  C8  UNL     1      12.089  67.688  23.170  1.00  0.00     0.035 C 
BRANCH  20  21
HETATM   21  C9  UNL     1      10.735  67.301  23.565  1.00  0.00     0.004 C 
BRANCH  21  22
HETATM   22  C10 UNL     1       9.996  66.866  22.283  1.00  0.00     0.027 C 
BRANCH  22  23
HETATM   23  C11 UNL     1       9.243  68.029  21.691  1.00  0.00     0.229 C 
BRANCH  23  24
HETATM   24  N2  UNL     1       8.474  68.704  22.697  1.00  0.00    -0.079 N 
ATOM     25  H23 UNL     1       8.104  68.052  23.390  1.00  0.00     0.274 HD
ATOM     26  H22 UNL     1       9.064  69.263  23.312  1.00  0.00     0.274 HD
ATOM     27  H21 UNL     1       7.733  69.263  22.273  1.00  0.00     0.274 HD
ENDBRANCH  23  24
ENDBRANCH  22  23
ENDBRANCH  21  22
ENDBRANCH  20  21
ENDBRANCH   5  20
BRANCH   2  28
HETATM   28  O1  UNL     1      15.579  66.757  24.161  1.00  0.00    -0.348 OA
ATOM     29  H1  UNL     1      15.317  67.665  24.255  1.00  0.00     0.219 HD
ENDBRANCH   2  28
BRANCH   1  30
HETATM   30  C3  UNL     1      14.629  65.932  26.434  1.00  0.00     0.012 C 
HETATM   31  C4  UNL     1      13.534  66.290  27.365  1.00  0.00     0.012 C 
BRANCH  30  32
HETATM   32  C2  UNL     1      15.692  65.153  27.181  1.00  0.00     0.002 C 
HETATM   33  C1  UNL     1      16.980  65.945  27.172  1.00  0.00     0.005 C 
ENDBRANCH  30  32
ENDBRANCH   1  30
BRANCH  10  34
HETATM   34  C14 UNL     1      15.107  66.107  18.847  1.00  0.00     0.104 C 
HETATM   35 BR1  UNL     1      14.111  66.916  17.494  1.00  0.00    -0.060 Br
ENDBRANCH  10  34
BRANCH  17  36
HETATM   36  O4  UNL     1      15.236  62.233  23.550  1.00  0.00    -0.348 OA
ATOM     37  H4  UNL     1      15.284  61.524  24.180  1.00  0.00     0.219 HD
ENDBRANCH  17  36
BRANCH  13  38
HETATM   38  O3  UNL     1      18.158  64.607  20.411  1.00  0.00    -0.332 OA
ATOM     39  H3  UNL     1      18.006  63.782  19.965  1.00  0.00     0.220 HD
ENDBRANCH  13  38
BRANCH  16  40
HETATM   40  C17 UNL     1      17.937  62.710  23.611  1.00  0.00     0.008 C 
HETATM   41  C18 UNL     1      18.596  62.365  24.839  1.00  0.00    -0.089 C 
HETATM   42  C19 UNL     1      19.365  63.458  25.546  1.00  0.00     0.042 C 
HETATM   43  C20 UNL     1      17.902  61.515  25.844  1.00  0.00     0.042 C 
ENDBRANCH  16  40
TORSDOF 12
ENDMDL
MODEL 3
REMARK VINA RESULT: -6.001412080      3.074      6.796
REMARK  12 active torsions:
REMARK  status: ('A' for Active; 'I' for Inactive)
REMARK    1  A    between atoms: C2_2  and  C3_3 
REMARK    2  A    between atoms: C3_3  and  C5_5 
REMARK    3  A    between atoms: C6_6  and  O1_7 
REMARK    4  A    between atoms: C7_11  and  C8_12 
REMARK    5  A    between atoms: C8_12  and  C9_13 
REMARK    6  A    between atoms: C9_13  and  C10_14 
REMARK    7  A    between atoms: C10_14  and  C11_15 
REMARK    8  A    between atoms: C11_15  and  N2_16 
REMARK    9  A    between atoms: C13_24  and  C14_25 
REMARK   10  A    between atoms: C15_29  and  O3_30 
REMARK   11  A    between atoms: C16_34  and  C17_35 
REMARK   12  A    between atoms: C21_39  and  O4_40 
ROOT
HETATM    1  C5  UNL     1      13.522  66.656  24.171  1.00  0.00     0.163 C 
HETATM    2  C6  UNL     1      14.185  65.329  24.281  1.00  0.00     0.136 C 
HETATM    3  N1  UNL     1      15.174  64.884  25.135  1.00  0.00    -0.359 N 
ATOM      4  H1  UNL     1      16.105  65.104  24.781  1.00  0.00     0.162 HD
HETATM    5  C7  UNL     1      15.236  64.189  26.396  1.00  0.00     0.176 C 
HETATM    6  C12 UNL     1      15.810  62.806  26.178  1.00  0.00     0.246 C 
HETATM    7  O2  UNL     1      15.956  62.162  27.259  1.00  0.00    -0.271 OA
HETATM    8  N3  UNL     1      16.170  62.215  24.952  1.00  0.00    -0.311 N 
ATOM      9  H3  UNL     1      15.560  61.447  24.673  1.00  0.00     0.170 HD
HETATM   10  C13 UNL     1      17.233  62.484  24.015  1.00  0.00     0.117 C 
HETATM   11  N4  UNL     1      16.848  63.087  22.761  1.00  0.00    -0.308 N 
ATOM     12  H4  UNL     1      16.101  62.564  22.303  1.00  0.00     0.171 HD
HETATM   13  C15 UNL     1      17.233  64.200  22.014  1.00  0.00     0.219 C 
HETATM   14  N5  UNL     1      16.969  65.564  22.012  1.00  0.00    -0.341 N 
ATOM     15  H5  UNL     1      17.729  66.138  22.377  1.00  0.00     0.164 HD
HETATM   16  C16 UNL     1      15.768  66.341  21.569  1.00  0.00     0.183 C 
HETATM   17  C21 UNL     1      15.439  67.343  22.597  1.00  0.00     0.141 C 
HETATM   18  N6  UNL     1      14.286  67.598  23.364  1.00  0.00    -0.355 N 
HETATM   19  C22 UNL     1      13.738  68.964  23.458  1.00  0.00     0.152 C 
ENDROOT
BRANCH   5  20
HETATM   20  C8  UNL     1      13.953  64.241  27.101  1.00  0.00     0.035 C 
BRANCH  20  21
HETATM   21  C9  UNL     1      12.879  63.301  26.782  1.00  0.00     0.004 C 
BRANCH  21  22
HETATM   22  C10 UNL     1      12.456  62.630  28.105  1.00  0.00     0.027 C 
BRANCH  22  23
HETATM   23  C11 UNL     1      11.313  61.678  27.868  1.00  0.00     0.229 C 
BRANCH  23  24
HETATM   24  N2  UNL     1      10.063  62.279  28.239  1.00  0.00    -0.079 N 
ATOM     25  H23 UNL     1       9.284  61.629  28.127  1.00  0.00     0.274 HD
ATOM     26  H22 UNL     1       9.999  62.424  29.246  1.00  0.00     0.274 HD
ATOM     27  H21 UNL     1       9.909  63.145  27.722  1.00  0.00     0.274 HD
ENDBRANCH  23  24
ENDBRANCH  22  23
ENDBRANCH  21  22
ENDBRANCH  20  21
ENDBRANCH   5  20
BRANCH   2  28
HETATM   28  O1  UNL     1      13.677  64.536  23.377  1.00  0.00    -0.348 OA
ATOM     29  H1  UNL     1      14.212  64.587  22.594  1.00  0.00     0.219 HD
ENDBRANCH   2  28
BRANCH   1  30
HETATM   30  C3  UNL     1      12.089  66.561  23.735  1.00  0.00     0.012 C 
HETATM   31  C4  UNL     1      11.097  67.299  24.551  1.00  0.00     0.012 C 
BRANCH  30  32
HETATM   32  C2  UNL     1      11.930  66.947  22.278  1.00  0.00     0.002 C 
HETATM   33  C1  UNL     1      10.587  66.458  21.783  1.00  0.00     0.005 C 
ENDBRANCH  30  32
ENDBRANCH   1  30
BRANCH  10  34
HETATM   34  C14 UNL     1      18.585  62.697  24.561  1.00  0.00     0.104 C 
HETATM   35 BR1  UNL     1      19.414  61.511  25.737  1.00  0.00    -0.060 Br
ENDBRANCH  10  34
BRANCH  17  36
HETATM   36  O4  UNL     1      16.453  68.131  22.808  1.00  0.00    -0.348 OA
ATOM     37  H4  UNL     1      17.149  67.665  23.258  1.00  0.00     0.219 HD
ENDBRANCH  17  36
BRANCH  13  38
HETATM   38  O3  UNL     1      18.082  63.859  21.039  1.00  0.00    -0.332 OA
ATOM     39  H3  UNL     1      18.031  64.466  20.311  1.00  0.00     0.220 HD
ENDBRANCH  13  38
BRANCH  16  40
HETATM   40  C17 UNL     1      16.251  67.022  20.307  1.00  0.00     0.008 C 
HETATM   41  C18 UNL     1      15.397  67.332  19.196  1.00  0.00    -0.089 C 
HETATM   42  C19 UNL     1      14.663  66.182  18.542  1.00  0.00     0.042 C 
HETATM   43  C20 UNL     1      14.507  68.523  19.249  1.00  0.00     0.042 C 
ENDBRANCH  16  40
TORSDOF 12
ENDMDL
MODEL 4
REMARK VINA RESULT: -5.940436767      6.744     10.528
REMARK  12 active torsions:
REMARK  status: ('A' for Active; 'I' for Inactive)
REMARK    1  A    between atoms: C2_2  and  C3_3 
REMARK    2  A    between atoms: C3_3  and  C5_5 
REMARK    3  A    between atoms: C6_6  and  O1_7 
REMARK    4  A    between atoms: C7_11  and  C8_12 
REMARK    5  A    between atoms: C8_12  and  C9_13 
REMARK    6  A    between atoms: C9_13  and  C10_14 
REMARK    7  A    between atoms: C10_14  and  C11_15 
REMARK    8  A    between atoms: C11_15  and  N2_16 
REMARK    9  A    between atoms: C13_24  and  C14_25 
REMARK   10  A    between atoms: C15_29  and  O3_30 
REMARK   11  A    between atoms: C16_34  and  C17_35 
REMARK   12  A    between atoms: C21_39  and  O4_40 
ROOT
HETATM    1  C5  UNL     1      14.871  63.917  26.521  1.00  0.00     0.163 C 
HETATM    2  C6  UNL     1      14.599  63.337  27.863  1.00  0.00     0.136 C 
HETATM    3  N1  UNL     1      13.849  63.819  28.918  1.00  0.00    -0.359 N 
ATOM      4  H1  UNL     1      14.393  64.446  29.511  1.00  0.00     0.162 HD
HETATM    5  C7  UNL     1      12.499  63.668  29.399  1.00  0.00     0.176 C 
HETATM    6  C12 UNL     1      12.517  62.905  30.706  1.00  0.00     0.246 C 
HETATM    7  O2  UNL     1      11.365  62.794  31.222  1.00  0.00    -0.271 OA
HETATM    8  N3  UNL     1      13.635  62.344  31.352  1.00  0.00    -0.311 N 
ATOM      9  H3  UNL     1      13.641  61.324  31.348  1.00  0.00     0.170 HD
HETATM   10  C13 UNL     1      14.772  62.930  32.017  1.00  0.00     0.117 C 
HETATM   11  N4  UNL     1      16.042  62.821  31.338  1.00  0.00    -0.308 N 
ATOM     12  H4  UNL     1      16.249  61.858  31.076  1.00  0.00     0.171 HD
HETATM   13  C15 UNL     1      17.059  63.693  30.949  1.00  0.00     0.219 C 
HETATM   14  N5  UNL     1      17.301  64.568  29.898  1.00  0.00    -0.341 N 
ATOM     15  H5  UNL     1      17.197  65.553  30.139  1.00  0.00     0.164 HD
HETATM   16  C16 UNL     1      17.689  64.320  28.472  1.00  0.00     0.183 C 
HETATM   17  C21 UNL     1      16.852  65.158  27.596  1.00  0.00     0.141 C 
HETATM   18  N6  UNL     1      15.973  64.868  26.535  1.00  0.00    -0.355 N 
HETATM   19  C22 UNL     1      16.076  65.601  25.259  1.00  0.00     0.152 C 
ENDROOT
BRANCH   5  20
HETATM   20  C8  UNL     1      11.616  63.130  28.361  1.00  0.00     0.035 C 
BRANCH  20  21
HETATM   21  C9  UNL     1      11.671  61.719  27.981  1.00  0.00     0.004 C 
BRANCH  21  22
HETATM   22  C10 UNL     1      10.255  61.141  28.180  1.00  0.00     0.027 C 
BRANCH  22  23
HETATM   23  C11 UNL     1      10.194  60.332  29.450  1.00  0.00     0.229 C 
BRANCH  23  24
HETATM   24  N2  UNL     1       9.181  60.839  30.330  1.00  0.00    -0.079 N 
ATOM     25  H23 UNL     1       8.501  61.414  29.831  1.00  0.00     0.274 HD
ATOM     26  H22 UNL     1       8.554  60.101  30.650  1.00  0.00     0.274 HD
ATOM     27  H21 UNL     1       9.599  61.343  31.113  1.00  0.00     0.274 HD
ENDBRANCH  23  24
ENDBRANCH  22  23
ENDBRANCH  21  22
ENDBRANCH  20  21
ENDBRANCH   5  20
BRANCH   2  28
HETATM   28  O1  UNL     1      15.219  62.192  27.953  1.00  0.00    -0.348 OA
ATOM     29  H1  UNL     1      14.695  61.607  28.489  1.00  0.00     0.219 HD
ENDBRANCH   2  28
BRANCH   1  30
HETATM   30  C3  UNL     1      15.031  62.873  25.453  1.00  0.00     0.012 C 
HETATM   31  C4  UNL     1      14.591  63.247  24.089  1.00  0.00     0.012 C 
BRANCH  30  32
HETATM   32  C2  UNL     1      16.453  62.355  25.400  1.00  0.00     0.002 C 
HETATM   33  C1  UNL     1      16.839  62.125  23.955  1.00  0.00     0.005 C 
ENDBRANCH  30  32
ENDBRANCH   1  30
BRANCH  10  34
HETATM   34  C14 UNL     1      14.518  64.044  32.948  1.00  0.00     0.104 C 
HETATM   35 BR1  UNL     1      14.265  65.806  32.394  1.00  0.00    -0.060 Br
ENDBRANCH  10  34
BRANCH  17  36
HETATM   36  O4  UNL     1      16.983  66.415  27.905  1.00  0.00    -0.348 OA
ATOM     37  H4  UNL     1      17.772  66.774  27.516  1.00  0.00     0.219 HD
ENDBRANCH  17  36
BRANCH  13  38
HETATM   38  O3  UNL     1      18.069  63.680  31.825  1.00  0.00    -0.332 OA
ATOM     39  H3  UNL     1      18.802  64.196  31.512  1.00  0.00     0.220 HD
ENDBRANCH  13  38
BRANCH  16  40
HETATM   40  C17 UNL     1      19.128  64.786  28.427  1.00  0.00     0.008 C 
HETATM   41  C18 UNL     1      19.987  64.597  27.292  1.00  0.00    -0.089 C 
HETATM   42  C19 UNL     1      20.214  63.178  26.821  1.00  0.00     0.042 C 
HETATM   43  C20 UNL     1      19.876  65.500  26.115  1.00  0.00     0.042 C 
ENDBRANCH  16  40
TORSDOF 12
ENDMDL
MODEL 5
REMARK VINA RESULT: -5.940393151      2.900      7.700
REMARK  12 active torsions:
REMARK  status: ('A' for Active; 'I' for Inactive)
REMARK    1  A    between atoms: C2_2  and  C3_3 
REMARK    2  A    between atoms: C3_3  and  C5_5 
REMARK    3  A    between atoms: C6_6  and  O1_7 
REMARK    4  A    between atoms: C7_11  and  C8_12 
REMARK    5  A    between atoms: C8_12  and  C9_13 
REMARK    6  A    between atoms: C9_13  and  C10_14 
REMARK    7  A    between atoms: C10_14  and  C11_15 
REMARK    8  A    between atoms: C11_15  and  N2_16 
REMARK    9  A    between atoms: C13_24  and  C14_25 
REMARK   10  A    between atoms: C15_29  and  O3_30 
REMARK   11  A    between atoms: C16_34  and  C17_35 
REMARK   12  A    between atoms: C21_39  and  O4_40 
ROOT
HETATM    1  C5  UNL     1      14.185  65.247  25.168  1.00  0.00     0.163 C 
HETATM    2  C6  UNL     1      14.468  66.051  23.949  1.00  0.00     0.136 C 
HETATM    3  N1  UNL     1      13.810  66.111  22.736  1.00  0.00    -0.359 N 
ATOM      4  H1  UNL     1      14.134  65.384  22.097  1.00  0.00     0.162 HD
HETATM    5  C7  UNL     1      12.788  66.930  22.136  1.00  0.00     0.176 C 
HETATM    6  C12 UNL     1      13.397  67.756  21.024  1.00  0.00     0.246 C 
HETATM    7  O2  UNL     1      12.538  68.453  20.407  1.00  0.00    -0.271 OA
HETATM    8  N3  UNL     1      14.752  67.811  20.646  1.00  0.00    -0.311 N 
ATOM      9  H3  UNL     1      15.201  68.702  20.859  1.00  0.00     0.170 HD
HETATM   10  C13 UNL     1      15.628  66.854  20.017  1.00  0.00     0.117 C 
HETATM   11  N4  UNL     1      16.654  66.275  20.851  1.00  0.00    -0.308 N 
ATOM     12  H4  UNL     1      17.203  66.990  21.328  1.00  0.00     0.171 HD
HETATM   13  C15 UNL     1      17.089  64.989  21.174  1.00  0.00     0.219 C 
HETATM   14  N5  UNL     1      16.710  63.976  22.046  1.00  0.00    -0.341 N 
ATOM     15  H5  UNL     1      16.239  63.191  21.598  1.00  0.00     0.164 HD
HETATM   16  C16 UNL     1      16.873  63.833  23.529  1.00  0.00     0.183 C 
HETATM   17  C21 UNL     1      15.599  63.375  24.108  1.00  0.00     0.141 C 
HETATM   18  N6  UNL     1      14.741  63.903  25.093  1.00  0.00    -0.355 N 
HETATM   19  C22 UNL     1      14.256  63.051  26.195  1.00  0.00     0.152 C 
ENDROOT
BRANCH   5  20
HETATM   20  C8  UNL     1      12.039  67.680  23.148  1.00  0.00     0.035 C 
BRANCH  20  21
HETATM   21  C9  UNL     1      10.682  67.287  23.527  1.00  0.00     0.004 C 
BRANCH  21  22
HETATM   22  C10 UNL     1       9.928  66.948  22.225  1.00  0.00     0.027 C 
BRANCH  22  23
HETATM   23  C11 UNL     1       9.211  68.166  21.703  1.00  0.00     0.229 C 
BRANCH  23  24
HETATM   24  N2  UNL     1       8.403  68.762  22.729  1.00  0.00    -0.079 N 
ATOM     25  H23 UNL     1       7.558  69.186  22.346  1.00  0.00     0.274 HD
ATOM     26  H22 UNL     1       7.966  68.057  23.322  1.00  0.00     0.274 HD
ATOM     27  H21 UNL     1       8.947  69.430  23.277  1.00  0.00     0.274 HD
ENDBRANCH  23  24
ENDBRANCH  22  23
ENDBRANCH  21  22
ENDBRANCH  20  21
ENDBRANCH   5  20
BRANCH   2  28
HETATM   28  O1  UNL     1      15.528  66.780  24.170  1.00  0.00    -0.348 OA
ATOM     29  H1  UNL     1      15.299  67.467  24.785  1.00  0.00     0.219 HD
ENDBRANCH   2  28
BRANCH   1  30
HETATM   30  C3  UNL     1      14.565  65.952  26.437  1.00  0.00     0.012 C 
HETATM   31  C4  UNL     1      16.009  66.213  26.644  1.00  0.00     0.012 C 
BRANCH  30  32
HETATM   32  C2  UNL     1      13.791  67.244  26.602  1.00  0.00     0.002 C 
HETATM   33  C1  UNL     1      12.344  66.917  26.895  1.00  0.00     0.005 C 
ENDBRANCH  30  32
ENDBRANCH   1  30
BRANCH  10  34
HETATM   34  C14 UNL     1      15.107  66.113  18.854  1.00  0.00     0.104 C 
HETATM   35 BR1  UNL     1      14.118  66.912  17.490  1.00  0.00    -0.060 Br
ENDBRANCH  10  34
BRANCH  17  36
HETATM   36  O4  UNL     1      15.228  62.251  23.567  1.00  0.00    -0.348 OA
ATOM     37  H4  UNL     1      15.580  61.515  24.053  1.00  0.00     0.219 HD
ENDBRANCH  17  36
BRANCH  13  38
HETATM   38  O3  UNL     1      18.157  64.643  20.447  1.00  0.00    -0.332 OA
ATOM     39  H3  UNL     1      18.233  63.698  20.377  1.00  0.00     0.220 HD
ENDBRANCH  13  38
BRANCH  16  40
HETATM   40  C17 UNL     1      17.924  62.752  23.651  1.00  0.00     0.008 C 
HETATM   41  C18 UNL     1      18.610  62.446  24.875  1.00  0.00    -0.089 C 
HETATM   42  C19 UNL     1      19.386  63.564  25.533  1.00  0.00     0.042 C 
HETATM   43  C20 UNL     1      17.941  61.624  25.918  1.00  0.00     0.042 C 
ENDBRANCH  16  40
TORSDOF 12
ENDMDL
