MODEL 1
REMARK VINA RESULT: -7.856196483      0.000      0.000
REMARK  9 active torsions:
REMARK  status: ('A' for Active; 'I' for Inactive)
REMARK    1  A    between atoms: C2_2  and  N1_3 
REMARK    2  A    between atoms: C2_2  and  C8_18 
REMARK       I    between atoms: N1_3  and  C3_5 
REMARK    3  A    between atoms: C3_5  and  C4_7 
REMARK    4  A    between atoms: C6_12  and  C7_13 
REMARK       I    between atoms: C8_18  and  N4_20 
REMARK    5  A    between atoms: C12_24  and  C13_25 
REMARK       I    between atoms: C13_25  and  N5_27 
REMARK    6  A    between atoms: N5_27  and  C14_29 
REMARK    7  A    between atoms: C14_29  and  C15_30 
REMARK    8  A    between atoms: C14_29  and  C22_37 
REMARK    9  A    between atoms: C15_30  and  C16_31 
ROOT
HETATM    1  C8  UNL     1      16.495  65.070  20.701  1.00  0.00     0.243 C 
HETATM    2  O2  UNL     1      16.452  64.106  19.902  1.00  0.00    -0.271 OA
HETATM    3  N4  UNL     1      16.352  64.880  22.090  1.00  0.00    -0.337 N 
HETATM    4  C9  UNL     1      16.423  65.980  23.062  1.00  0.00     0.127 C 
HETATM    5  C10 UNL     1      15.793  65.480  24.337  1.00  0.00     0.022 C 
HETATM    6  C11 UNL     1      15.116  64.209  23.886  1.00  0.00     0.037 C 
HETATM    7  C12 UNL     1      16.100  63.708  22.857  1.00  0.00     0.179 C 
ENDROOT
BRANCH   1   8
HETATM    8  C2  UNL     1      16.700  66.436  20.097  1.00  0.00     0.172 C 
HETATM    9  C1  UNL     1      17.937  66.556  19.289  1.00  0.00     0.042 C 
BRANCH   8  10
HETATM   10  N1  UNL     1      15.530  66.849  19.348  1.00  0.00    -0.345 N 
HETATM   11  C3  UNL     1      15.013  68.191  19.460  1.00  0.00     0.277 C 
HETATM   12  O1  UNL     1      15.625  68.967  20.249  1.00  0.00    -0.269 OA
ATOM     13  H1  UNL     1      15.065  66.182  18.733  1.00  0.00     0.163 HD
BRANCH  11  14
HETATM   14  C4  UNL     1      13.842  68.633  18.703  1.00  0.00     0.473 C 
HETATM   15  N2  UNL     1      13.041  67.502  18.169  1.00  0.00    -0.035 N 
HETATM   16  C5  UNL     1      11.804  68.231  17.827  1.00  0.00     0.269 C 
ATOM     17  H22 UNL     1      13.469  66.963  17.416  1.00  0.00     0.280 HD
ATOM     18  H21 UNL     1      12.933  66.696  18.786  1.00  0.00     0.280 HD
HETATM   19  C6  UNL     1      11.677  69.272  18.900  1.00  0.00     0.224 C 
HETATM   20  N3  UNL     1      12.855  69.094  19.714  1.00  0.00    -0.031 N 
ATOM     21  H32 UNL     1      12.738  68.480  20.522  1.00  0.00     0.280 HD
ATOM     22  H31 UNL     1      13.136  69.909  20.259  1.00  0.00     0.280 HD
BRANCH  19  23
HETATM   23  C7  UNL     1      10.397  69.105  19.695  1.00  0.00     0.120 C 
HETATM   24 BR1  UNL     1      10.723  67.856  21.143  1.00  0.00    -0.094 Br
ENDBRANCH  19  23
ENDBRANCH  11  14
ENDBRANCH   8  10
ENDBRANCH   1   8
BRANCH   7  25
HETATM   25  C13 UNL     1      17.255  63.007  23.397  1.00  0.00     0.241 C 
HETATM   26  O3  UNL     1      18.385  63.135  22.794  1.00  0.00    -0.271 OA
HETATM   27  N5  UNL     1      17.289  62.176  24.542  1.00  0.00    -0.346 N 
ATOM     28  H5  UNL     1      16.426  62.037  25.067  1.00  0.00     0.163 HD
BRANCH  27  29
HETATM   29  C14 UNL     1      18.491  61.514  25.003  1.00  0.00     0.174 C 
BRANCH  29  30
HETATM   30  C15 UNL     1      18.773  61.737  26.445  1.00  0.00     0.039 C 
BRANCH  30  31
HETATM   31  C16 UNL     1      19.803  62.725  26.821  1.00  0.00    -0.012 C 
HETATM   32  C17 UNL     1      20.202  63.748  25.833  1.00  0.00     0.005 C 
HETATM   33  C18 UNL     1      19.257  64.932  25.763  1.00  0.00     0.000 C 
HETATM   34  C19 UNL     1      19.018  65.508  27.146  1.00  0.00     0.000 C 
HETATM   35  C20 UNL     1      18.363  64.374  27.935  1.00  0.00     0.000 C 
HETATM   36  C21 UNL     1      19.452  63.357  28.155  1.00  0.00     0.005 C 
ENDBRANCH  30  31
ENDBRANCH  29  30
BRANCH  29  37
HETATM   37  C22 UNL     1      18.613  60.168  24.496  1.00  0.00     0.254 C 
HETATM   38  N6  UNL     1      18.273  59.697  23.206  1.00  0.00    -0.060 NA
HETATM   39  O4  UNL     1      19.077  59.277  25.289  1.00  0.00    -0.275 OA
ENDBRANCH  29  37
ENDBRANCH  27  29
ENDBRANCH   7  25
TORSDOF 9
ENDMDL
MODEL 2
REMARK VINA RESULT: -7.621731979      1.491      1.736
REMARK  9 active torsions:
REMARK  status: ('A' for Active; 'I' for Inactive)
REMARK    1  A    between atoms: C2_2  and  N1_3 
REMARK    2  A    between atoms: C2_2  and  C8_18 
REMARK       I    between atoms: N1_3  and  C3_5 
REMARK    3  A    between atoms: C3_5  and  C4_7 
REMARK    4  A    between atoms: C6_12  and  C7_13 
REMARK       I    between atoms: C8_18  and  N4_20 
REMARK    5  A    between atoms: C12_24  and  C13_25 
REMARK       I    between atoms: C13_25  and  N5_27 
REMARK    6  A    between atoms: N5_27  and  C14_29 
REMARK    7  A    between atoms: C14_29  and  C15_30 
REMARK    8  A    between atoms: C14_29  and  C22_37 
REMARK    9  A    between atoms: C15_30  and  C16_31 
ROOT
HETATM    1  C8  UNL     1      16.317  64.914  21.686  1.00  0.00     0.243 C 
HETATM    2  O2  UNL     1      16.605  64.243  20.669  1.00  0.00    -0.271 OA
HETATM    3  N4  UNL     1      16.126  64.303  22.941  1.00  0.00    -0.337 N 
HETATM    4  C9  UNL     1      15.815  65.059  24.162  1.00  0.00     0.127 C 
HETATM    5  C10 UNL     1      15.251  64.074  25.155  1.00  0.00     0.022 C 
HETATM    6  C11 UNL     1      14.988  62.862  24.295  1.00  0.00     0.037 C 
HETATM    7  C12 UNL     1      16.150  62.935  23.332  1.00  0.00     0.179 C 
ENDROOT
BRANCH   1   8
HETATM    8  C2  UNL     1      16.182  66.404  21.492  1.00  0.00     0.172 C 
HETATM    9  C1  UNL     1      17.292  67.012  20.719  1.00  0.00     0.042 C 
BRANCH   8  10
HETATM   10  N1  UNL     1      14.891  66.735  20.924  1.00  0.00    -0.345 N 
HETATM   11  C3  UNL     1      13.923  67.496  21.675  1.00  0.00     0.277 C 
HETATM   12  O1  UNL     1      14.260  67.838  22.845  1.00  0.00    -0.269 OA
ATOM     13  H1  UNL     1      14.662  66.425  19.980  1.00  0.00     0.163 HD
BRANCH  11  14
HETATM   14  C4  UNL     1      12.619  67.852  21.116  1.00  0.00     0.473 C 
HETATM   15  N2  UNL     1      12.445  69.317  20.950  1.00  0.00    -0.035 N 
HETATM   16  C5  UNL     1      11.270  69.314  20.055  1.00  0.00     0.269 C 
ATOM     17  H22 UNL     1      12.355  69.860  21.809  1.00  0.00     0.280 HD
ATOM     18  H21 UNL     1      13.261  69.833  20.620  1.00  0.00     0.280 HD
HETATM   19  C6  UNL     1      11.474  68.114  19.179  1.00  0.00     0.224 C 
HETATM   20  N3  UNL     1      12.689  67.511  19.671  1.00  0.00    -0.031 N 
ATOM     21  H32 UNL     1      13.544  67.802  19.195  1.00  0.00     0.280 HD
ATOM     22  H31 UNL     1      12.800  66.519  19.461  1.00  0.00     0.280 HD
BRANCH  19  23
HETATM   23  C7  UNL     1      11.573  68.498  17.716  1.00  0.00     0.120 C 
HETATM   24 BR1  UNL     1      13.417  68.301  17.146  1.00  0.00    -0.094 Br
ENDBRANCH  19  23
ENDBRANCH  11  14
ENDBRANCH   8  10
ENDBRANCH   1   8
BRANCH   7  25
HETATM   25  C13 UNL     1      17.408  62.413  23.842  1.00  0.00     0.241 C 
HETATM   26  O3  UNL     1      18.471  62.580  23.136  1.00  0.00    -0.271 OA
HETATM   27  N5  UNL     1      17.613  61.722  25.060  1.00  0.00    -0.346 N 
ATOM     28  H5  UNL     1      16.810  61.561  25.668  1.00  0.00     0.163 HD
BRANCH  27  29
HETATM   29  C14 UNL     1      18.908  61.233  25.485  1.00  0.00     0.174 C 
BRANCH  29  30
HETATM   30  C15 UNL     1      19.247  61.596  26.885  1.00  0.00     0.039 C 
BRANCH  30  31
HETATM   31  C16 UNL     1      20.055  62.807  27.128  1.00  0.00    -0.012 C 
HETATM   32  C17 UNL     1      20.332  63.715  25.996  1.00  0.00     0.005 C 
HETATM   33  C18 UNL     1      19.198  64.674  25.688  1.00  0.00     0.000 C 
HETATM   34  C19 UNL     1      18.764  65.408  26.943  1.00  0.00     0.000 C 
HETATM   35  C20 UNL     1      18.268  64.312  27.888  1.00  0.00     0.000 C 
HETATM   36  C21 UNL     1      19.504  63.567  28.320  1.00  0.00     0.005 C 
ENDBRANCH  30  31
ENDBRANCH  29  30
BRANCH  29  37
HETATM   37  C22 UNL     1      19.153  59.874  25.065  1.00  0.00     0.254 C 
HETATM   38  N6  UNL     1      19.033  59.338  23.761  1.00  0.00    -0.060 NA
HETATM   39  O4  UNL     1      19.519  59.036  25.960  1.00  0.00    -0.275 OA
ENDBRANCH  29  37
ENDBRANCH  27  29
ENDBRANCH   7  25
TORSDOF 9
ENDMDL
MODEL 3
REMARK VINA RESULT: -7.486124033      8.465     11.088
REMARK  9 active torsions:
REMARK  status: ('A' for Active; 'I' for Inactive)
REMARK    1  A    between atoms: C2_2  and  N1_3 
REMARK    2  A    between atoms: C2_2  and  C8_18 
REMARK       I    between atoms: N1_3  and  C3_5 
REMARK    3  A    between atoms: C3_5  and  C4_7 
REMARK    4  A    between atoms: C6_12  and  C7_13 
REMARK       I    between atoms: C8_18  and  N4_20 
REMARK    5  A    between atoms: C12_24  and  C13_25 
REMARK       I    between atoms: C13_25  and  N5_27 
REMARK    6  A    between atoms: N5_27  and  C14_29 
REMARK    7  A    between atoms: C14_29  and  C15_30 
REMARK    8  A    between atoms: C14_29  and  C22_37 
REMARK    9  A    between atoms: C15_30  and  C16_31 
ROOT
HETATM    1  C8  UNL     1      13.704  62.548  28.333  1.00  0.00     0.243 C 
HETATM    2  O2  UNL     1      14.639  62.239  29.106  1.00  0.00    -0.271 OA
HETATM    3  N4  UNL     1      12.364  62.241  28.640  1.00  0.00    -0.337 N 
HETATM    4  C9  UNL     1      11.237  62.612  27.772  1.00  0.00     0.127 C 
HETATM    5  C10 UNL     1      10.069  61.750  28.179  1.00  0.00     0.022 C 
HETATM    6  C11 UNL     1      10.723  60.713  29.059  1.00  0.00     0.037 C 
HETATM    7  C12 UNL     1      11.788  61.541  29.737  1.00  0.00     0.179 C 
ENDROOT
BRANCH   1   8
HETATM    8  C2  UNL     1      14.091  63.259  27.060  1.00  0.00     0.172 C 
HETATM    9  C1  UNL     1      13.839  64.720  27.088  1.00  0.00     0.042 C 
BRANCH   8  10
HETATM   10  N1  UNL     1      15.463  62.960  26.700  1.00  0.00    -0.345 N 
HETATM   11  C3  UNL     1      15.820  62.639  25.341  1.00  0.00     0.277 C 
HETATM   12  O1  UNL     1      14.876  62.620  24.500  1.00  0.00    -0.269 OA
ATOM     13  H1  UNL     1      16.187  62.977  27.419  1.00  0.00     0.163 HD
BRANCH  11  14
HETATM   14  C4  UNL     1      17.200  62.347  24.953  1.00  0.00     0.473 C 
HETATM   15  N2  UNL     1      17.945  61.598  25.997  1.00  0.00    -0.035 N 
HETATM   16  C5  UNL     1      19.093  61.144  25.186  1.00  0.00     0.269 C 
ATOM     17  H22 UNL     1      18.171  62.115  26.847  1.00  0.00     0.280 HD
ATOM     18  H21 UNL     1      17.424  60.870  26.488  1.00  0.00     0.280 HD
HETATM   19  C6  UNL     1      18.508  60.875  23.832  1.00  0.00     0.224 C 
HETATM   20  N3  UNL     1      17.119  61.243  23.961  1.00  0.00    -0.031 N 
ATOM     21  H32 UNL     1      16.486  60.481  24.207  1.00  0.00     0.280 HD
ATOM     22  H31 UNL     1      16.646  61.476  23.087  1.00  0.00     0.280 HD
BRANCH  19  23
HETATM   23  C7  UNL     1      18.684  59.425  23.424  1.00  0.00     0.120 C 
HETATM   24 BR1  UNL     1      19.519  58.465  24.888  1.00  0.00    -0.094 Br
ENDBRANCH  19  23
ENDBRANCH  11  14
ENDBRANCH   8  10
ENDBRANCH   1   8
BRANCH   7  25
HETATM   25  C13 UNL     1      11.327  62.338  30.863  1.00  0.00     0.241 C 
HETATM   26  O3  UNL     1      11.182  63.606  30.697  1.00  0.00    -0.271 OA
HETATM   27  N5  UNL     1      11.009  61.874  32.162  1.00  0.00    -0.346 N 
ATOM     28  H5  UNL     1      11.100  60.877  32.357  1.00  0.00     0.163 HD
BRANCH  27  29
HETATM   29  C14 UNL     1      10.560  62.747  33.227  1.00  0.00     0.174 C 
BRANCH  29  30
HETATM   30  C15 UNL     1       9.372  62.229  33.954  1.00  0.00     0.039 C 
BRANCH  30  31
HETATM   31  C16 UNL     1       8.027  62.596  33.468  1.00  0.00    -0.012 C 
HETATM   32  C17 UNL     1       7.588  62.096  32.150  1.00  0.00     0.005 C 
HETATM   33  C18 UNL     1       7.063  60.673  32.179  1.00  0.00     0.000 C 
HETATM   34  C19 UNL     1       6.004  60.516  33.255  1.00  0.00     0.000 C 
HETATM   35  C20 UNL     1       6.728  60.823  34.566  1.00  0.00     0.000 C 
HETATM   36  C21 UNL     1       6.993  62.306  34.540  1.00  0.00     0.005 C 
ENDBRANCH  30  31
ENDBRANCH  29  30
BRANCH  29  37
HETATM   37  C22 UNL     1      11.652  63.272  34.010  1.00  0.00     0.254 C 
HETATM   38  N6  UNL     1      12.605  62.545  34.761  1.00  0.00    -0.060 NA
HETATM   39  O4  UNL     1      11.793  64.544  34.048  1.00  0.00    -0.275 OA
ENDBRANCH  29  37
ENDBRANCH  27  29
ENDBRANCH   7  25
TORSDOF 9
ENDMDL
MODEL 4
REMARK VINA RESULT: -7.356335205      3.449      9.563
REMARK  9 active torsions:
REMARK  status: ('A' for Active; 'I' for Inactive)
REMARK    1  A    between atoms: C2_2  and  N1_3 
REMARK    2  A    between atoms: C2_2  and  C8_18 
REMARK       I    between atoms: N1_3  and  C3_5 
REMARK    3  A    between atoms: C3_5  and  C4_7 
REMARK    4  A    between atoms: C6_12  and  C7_13 
REMARK       I    between atoms: C8_18  and  N4_20 
REMARK    5  A    between atoms: C12_24  and  C13_25 
REMARK       I    between atoms: C13_25  and  N5_27 
REMARK    6  A    between atoms: N5_27  and  C14_29 
REMARK    7  A    between atoms: C14_29  and  C15_30 
REMARK    8  A    between atoms: C14_29  and  C22_37 
REMARK    9  A    between atoms: C15_30  and  C16_31 
ROOT
HETATM    1  C8  UNL     1      16.215  66.219  21.953  1.00  0.00     0.243 C 
HETATM    2  O2  UNL     1      16.948  67.140  21.526  1.00  0.00    -0.271 OA
HETATM    3  N4  UNL     1      15.136  66.479  22.821  1.00  0.00    -0.337 N 
HETATM    4  C9  UNL     1      14.237  65.430  23.322  1.00  0.00     0.127 C 
HETATM    5  C10 UNL     1      13.531  65.996  24.528  1.00  0.00     0.022 C 
HETATM    6  C11 UNL     1      14.330  67.245  24.813  1.00  0.00     0.037 C 
HETATM    7  C12 UNL     1      14.679  67.690  23.413  1.00  0.00     0.179 C 
ENDROOT
BRANCH   1   8
HETATM    8  C2  UNL     1      16.553  64.822  21.494  1.00  0.00     0.172 C 
HETATM    9  C1  UNL     1      16.983  64.744  20.078  1.00  0.00     0.042 C 
BRANCH   8  10
HETATM   10  N1  UNL     1      17.521  64.209  22.382  1.00  0.00    -0.345 N 
HETATM   11  C3  UNL     1      17.194  63.020  23.129  1.00  0.00     0.277 C 
HETATM   12  O1  UNL     1      16.025  62.561  22.975  1.00  0.00    -0.269 OA
ATOM     13  H1  UNL     1      18.447  64.624  22.480  1.00  0.00     0.163 HD
BRANCH  11  14
HETATM   14  C4  UNL     1      18.160  62.377  24.020  1.00  0.00     0.473 C 
HETATM   15  N2  UNL     1      17.540  61.872  25.271  1.00  0.00    -0.035 N 
HETATM   16  C5  UNL     1      18.630  60.988  25.732  1.00  0.00     0.269 C 
ATOM     17  H22 UNL     1      17.224  62.580  25.934  1.00  0.00     0.280 HD
ATOM     18  H21 UNL     1      16.620  61.442  25.176  1.00  0.00     0.280 HD
HETATM   19  C6  UNL     1      19.203  60.417  24.469  1.00  0.00     0.224 C 
HETATM   20  N3  UNL     1      18.452  61.051  23.414  1.00  0.00    -0.031 N 
ATOM     21  H32 UNL     1      17.637  60.532  23.085  1.00  0.00     0.280 HD
ATOM     22  H31 UNL     1      18.914  61.079  22.504  1.00  0.00     0.280 HD
BRANCH  19  23
HETATM   23  C7  UNL     1      19.085  58.906  24.432  1.00  0.00     0.120 C 
HETATM   24 BR1  UNL     1      19.965  58.176  26.000  1.00  0.00    -0.094 Br
ENDBRANCH  19  23
ENDBRANCH  11  14
ENDBRANCH   8  10
ENDBRANCH   1   8
BRANCH   7  25
HETATM   25  C13 UNL     1      13.627  68.413  22.716  1.00  0.00     0.241 C 
HETATM   26  O3  UNL     1      13.689  69.699  22.679  1.00  0.00    -0.271 OA
HETATM   27  N5  UNL     1      12.507  67.858  22.051  1.00  0.00    -0.346 N 
ATOM     28  H5  UNL     1      12.402  66.844  22.041  1.00  0.00     0.163 HD
BRANCH  27  29
HETATM   29  C14 UNL     1      11.504  68.662  21.384  1.00  0.00     0.174 C 
BRANCH  29  30
HETATM   30  C15 UNL     1      11.284  68.277  19.966  1.00  0.00     0.039 C 
BRANCH  30  31
HETATM   31  C16 UNL     1      11.634  69.244  18.907  1.00  0.00    -0.012 C 
HETATM   32  C17 UNL     1      12.737  70.196  19.150  1.00  0.00     0.005 C 
HETATM   33  C18 UNL     1      14.115  69.611  18.910  1.00  0.00     0.000 C 
HETATM   34  C19 UNL     1      14.187  68.958  17.541  1.00  0.00     0.000 C 
HETATM   35  C20 UNL     1      13.152  67.833  17.588  1.00  0.00     0.000 C 
HETATM   36  C21 UNL     1      11.812  68.521  17.585  1.00  0.00     0.005 C 
ENDBRANCH  30  31
ENDBRANCH  29  30
BRANCH  29  37
HETATM   37  C22 UNL     1      10.340  68.890  22.207  1.00  0.00     0.254 C 
HETATM   38  N6  UNL     1      10.167  69.877  23.206  1.00  0.00    -0.060 NA
HETATM   39  O4  UNL     1       9.333  68.119  22.032  1.00  0.00    -0.275 OA
ENDBRANCH  29  37
ENDBRANCH  27  29
ENDBRANCH   7  25
TORSDOF 9
ENDMDL
MODEL 5
REMARK VINA RESULT: -7.315186209      3.240      9.844
REMARK  9 active torsions:
REMARK  status: ('A' for Active; 'I' for Inactive)
REMARK    1  A    between atoms: C2_2  and  N1_3 
REMARK    2  A    between atoms: C2_2  and  C8_18 
REMARK       I    between atoms: N1_3  and  C3_5 
REMARK    3  A    between atoms: C3_5  and  C4_7 
REMARK    4  A    between atoms: C6_12  and  C7_13 
REMARK       I    between atoms: C8_18  and  N4_20 
REMARK    5  A    between atoms: C12_24  and  C13_25 
REMARK       I    between atoms: C13_25  and  N5_27 
REMARK    6  A    between atoms: N5_27  and  C14_29 
REMARK    7  A    between atoms: C14_29  and  C15_30 
REMARK    8  A    between atoms: C14_29  and  C22_37 
REMARK    9  A    between atoms: C15_30  and  C16_31 
ROOT
HETATM    1  C8  UNL     1      16.271  64.640  22.483  1.00  0.00     0.243 C 
HETATM    2  O2  UNL     1      16.428  63.799  21.568  1.00  0.00    -0.271 OA
HETATM    3  N4  UNL     1      16.343  66.024  22.230  1.00  0.00    -0.337 N 
HETATM    4  C9  UNL     1      16.137  67.041  23.271  1.00  0.00     0.127 C 
HETATM    5  C10 UNL     1      16.723  68.328  22.749  1.00  0.00     0.022 C 
HETATM    6  C11 UNL     1      17.515  67.860  21.552  1.00  0.00     0.037 C 
HETATM    7  C12 UNL     1      16.631  66.748  21.040  1.00  0.00     0.179 C 
ENDROOT
BRANCH   1   8
HETATM    8  C2  UNL     1      16.006  64.091  23.862  1.00  0.00     0.172 C 
HETATM    9  C1  UNL     1      14.595  63.696  24.091  1.00  0.00     0.042 C 
BRANCH   8  10
HETATM   10  N1  UNL     1      16.921  63.010  24.170  1.00  0.00    -0.345 N 
HETATM   11  C3  UNL     1      18.189  63.269  24.804  1.00  0.00     0.277 C 
HETATM   12  O1  UNL     1      18.456  64.479  25.057  1.00  0.00    -0.269 OA
ATOM     13  H1  UNL     1      16.664  62.051  23.936  1.00  0.00     0.163 HD
BRANCH  11  14
HETATM   14  C4  UNL     1      19.122  62.192  25.136  1.00  0.00     0.473 C 
HETATM   15  N2  UNL     1      18.762  61.486  26.391  1.00  0.00    -0.035 N 
HETATM   16  C5  UNL     1      19.609  60.286  26.237  1.00  0.00     0.269 C 
ATOM     17  H22 UNL     1      18.883  62.014  27.256  1.00  0.00     0.280 HD
ATOM     18  H21 UNL     1      17.767  61.318  26.545  1.00  0.00     0.280 HD
HETATM   19  C6  UNL     1      19.593  60.008  24.763  1.00  0.00     0.224 C 
HETATM   20  N3  UNL     1      18.805  61.078  24.203  1.00  0.00    -0.031 N 
ATOM     21  H32 UNL     1      17.812  60.875  24.088  1.00  0.00     0.280 HD
ATOM     22  H31 UNL     1      18.974  61.275  23.216  1.00  0.00     0.280 HD
BRANCH  19  23
HETATM   23  C7  UNL     1      19.009  58.642  24.457  1.00  0.00     0.120 C 
HETATM   24 BR1  UNL     1      19.722  57.363  25.730  1.00  0.00    -0.094 Br
ENDBRANCH  19  23
ENDBRANCH  11  14
ENDBRANCH   8  10
ENDBRANCH   1   8
BRANCH   7  25
HETATM   25  C13 UNL     1      15.498  67.180  20.236  1.00  0.00     0.241 C 
HETATM   26  O3  UNL     1      14.763  66.280  19.681  1.00  0.00    -0.271 OA
HETATM   27  N5  UNL     1      15.092  68.511  19.980  1.00  0.00    -0.346 N 
ATOM     28  H5  UNL     1      15.632  69.271  20.394  1.00  0.00     0.163 HD
BRANCH  27  29
HETATM   29  C14 UNL     1      13.947  68.846  19.159  1.00  0.00     0.174 C 
BRANCH  29  30
HETATM   30  C15 UNL     1      13.061  69.870  19.771  1.00  0.00     0.039 C 
BRANCH  30  31
HETATM   31  C16 UNL     1      11.648  69.929  19.346  1.00  0.00    -0.012 C 
HETATM   32  C17 UNL     1      10.903  68.665  19.179  1.00  0.00     0.005 C 
HETATM   33  C18 UNL     1      10.368  68.093  20.477  1.00  0.00     0.000 C 
HETATM   34  C19 UNL     1       9.585  69.145  21.242  1.00  0.00     0.000 C 
HETATM   35  C20 UNL     1      10.601  70.247  21.546  1.00  0.00     0.000 C 
HETATM   36  C21 UNL     1      10.885  70.906  20.221  1.00  0.00     0.005 C 
ENDBRANCH  30  31
ENDBRANCH  29  30
BRANCH  29  37
HETATM   37  C22 UNL     1      14.291  69.001  17.766  1.00  0.00     0.254 C 
HETATM   38  N6  UNL     1      13.746  68.308  16.660  1.00  0.00    -0.060 NA
HETATM   39  O4  UNL     1      15.194  69.858  17.472  1.00  0.00    -0.275 OA
ENDBRANCH  29  37
ENDBRANCH  27  29
ENDBRANCH   7  25
TORSDOF 9
ENDMDL
