MODEL 1
REMARK VINA RESULT: -7.989217806      0.000      0.000
REMARK  9 active torsions:
REMARK  status: ('A' for Active; 'I' for Inactive)
REMARK    1  A    between atoms: C2_2  and  C3_3 
REMARK    2  A    between atoms: C3_3  and  C4_4 
REMARK    3  A    between atoms: C4_4  and  N1_5 
REMARK    4  A    between atoms: C9_13  and  C10_14 
REMARK    5  A    between atoms: C10_14  and  C11_15 
REMARK    6  A    between atoms: C11_15  and  C12_16 
REMARK    7  A    between atoms: C12_16  and  N3_17 
REMARK    8  A    between atoms: C15_28  and  C16_29 
REMARK    9  A    between atoms: C16_29  and  C17_30 
ROOT
HETATM    1  N1  UNL     1      13.433  64.433  27.141  1.00  0.00    -0.256 N 
HETATM    2  C5  UNL     1      12.509  65.408  26.576  1.00  0.00     0.244 C 
HETATM    3  O1  UNL     1      11.420  65.660  27.084  1.00  0.00    -0.271 OA
HETATM    4  C6  UNL     1      13.260  65.868  25.399  1.00  0.00     0.105 C 
HETATM    5  C7  UNL     1      14.625  66.037  26.088  1.00  0.00     0.167 C 
HETATM    6  N2  UNL     1      14.707  64.682  26.614  1.00  0.00    -0.254 N 
HETATM    7  C8  UNL     1      15.917  63.957  26.505  1.00  0.00     0.261 C 
HETATM    8  O2  UNL     1      16.079  62.960  27.259  1.00  0.00    -0.269 OA
HETATM    9  C9  UNL     1      17.021  64.280  25.565  1.00  0.00     0.180 C 
HETATM   10  N6  UNL     1      16.953  63.583  24.311  1.00  0.00    -0.330 N 
ATOM     11  H6  UNL     1      17.757  62.985  24.117  1.00  0.00     0.165 HD
HETATM   12  C14 UNL     1      15.985  63.582  23.321  1.00  0.00     0.317 C 
HETATM   13  O3  UNL     1      15.459  62.438  23.028  1.00  0.00    -0.247 OA
HETATM   14  N7  UNL     1      15.456  64.659  22.547  1.00  0.00    -0.330 N 
ATOM     15  H7  UNL     1      14.565  64.488  22.081  1.00  0.00     0.165 HD
HETATM   16  C15 UNL     1      16.030  65.938  22.355  1.00  0.00     0.178 C 
HETATM   17  C20 UNL     1      15.103  67.091  22.364  1.00  0.00     0.240 C 
HETATM   18  O4  UNL     1      15.729  68.224  22.403  1.00  0.00    -0.271 OA
HETATM   19  N8  UNL     1      13.724  67.164  22.336  1.00  0.00    -0.359 N 
ATOM     20  H8  UNL     1      13.352  67.742  21.582  1.00  0.00     0.162 HD
HETATM   21  C21 UNL     1      12.727  66.583  23.165  1.00  0.00     0.127 C 
HETATM   22  C22 UNL     1      12.787  67.016  24.640  1.00  0.00     0.014 C 
HETATM   23  C23 UNL     1      13.564  68.300  24.812  1.00  0.00     0.012 C 
ENDROOT
BRANCH   9  24
HETATM   24  C10 UNL     1      18.296  63.924  26.352  1.00  0.00     0.037 C 
BRANCH  24  25
HETATM   25  C11 UNL     1      19.309  63.200  25.531  1.00  0.00     0.022 C 
BRANCH  25  26
HETATM   26  C12 UNL     1      19.208  61.733  25.927  1.00  0.00     0.122 C 
BRANCH  26  27
HETATM   27  N3  UNL     1      19.249  60.868  24.768  1.00  0.00    -0.367 N 
HETATM   28  C13 UNL     1      19.570  59.637  24.976  1.00  0.00     0.196 C 
HETATM   29  N4  UNL     1      19.618  58.768  23.855  1.00  0.00    -0.067 NA
HETATM   30  N5  UNL     1      19.882  59.086  26.247  1.00  0.00    -0.067 NA
ATOM     31  H3  UNL     1      19.033  61.215  23.834  1.00  0.00     0.161 HD
ENDBRANCH  26  27
ENDBRANCH  25  26
ENDBRANCH  24  25
ENDBRANCH   9  24
BRANCH   1  32
HETATM   32  C4  UNL     1      13.145  63.386  28.081  1.00  0.00     0.152 C 
BRANCH  32  33
HETATM   33  C3  UNL     1      12.423  62.216  27.503  1.00  0.00     0.022 C 
BRANCH  33  34
HETATM   34  C2  UNL     1      10.965  62.238  27.957  1.00  0.00    -0.003 C 
HETATM   35  C1  UNL     1      10.509  60.849  28.351  1.00  0.00     0.005 C 
ENDBRANCH  33  34
ENDBRANCH  32  33
ENDBRANCH   1  32
BRANCH  16  36
HETATM   36  C16 UNL     1      16.858  66.019  21.115  1.00  0.00     0.038 C 
BRANCH  36  37
HETATM   37  C17 UNL     1      16.480  65.157  19.972  1.00  0.00    -0.020 C 
HETATM   38  C18 UNL     1      15.792  66.004  18.869  1.00  0.00     0.009 C 
HETATM   39  C19 UNL     1      17.609  64.468  19.256  1.00  0.00     0.009 C 
ENDBRANCH  36  37
ENDBRANCH  16  36
TORSDOF 9
ENDMDL
MODEL 2
REMARK VINA RESULT: -7.534189593      3.560      6.219
REMARK  9 active torsions:
REMARK  status: ('A' for Active; 'I' for Inactive)
REMARK    1  A    between atoms: C2_2  and  C3_3 
REMARK    2  A    between atoms: C3_3  and  C4_4 
REMARK    3  A    between atoms: C4_4  and  N1_5 
REMARK    4  A    between atoms: C9_13  and  C10_14 
REMARK    5  A    between atoms: C10_14  and  C11_15 
REMARK    6  A    between atoms: C11_15  and  C12_16 
REMARK    7  A    between atoms: C12_16  and  N3_17 
REMARK    8  A    between atoms: C15_28  and  C16_29 
REMARK    9  A    between atoms: C16_29  and  C17_30 
ROOT
HETATM    1  N1  UNL     1      16.222  63.963  23.099  1.00  0.00    -0.256 N 
HETATM    2  C5  UNL     1      15.077  64.248  23.954  1.00  0.00     0.244 C 
HETATM    3  O1  UNL     1      14.836  63.608  24.974  1.00  0.00    -0.271 OA
HETATM    4  C6  UNL     1      14.462  65.379  23.244  1.00  0.00     0.105 C 
HETATM    5  C7  UNL     1      15.754  66.169  22.972  1.00  0.00     0.167 C 
HETATM    6  N2  UNL     1      16.464  65.089  22.301  1.00  0.00    -0.254 N 
HETATM    7  C8  UNL     1      17.179  65.351  21.109  1.00  0.00     0.261 C 
HETATM    8  O2  UNL     1      18.055  64.519  20.750  1.00  0.00    -0.269 OA
HETATM    9  C9  UNL     1      16.977  66.538  20.239  1.00  0.00     0.180 C 
HETATM   10  N6  UNL     1      16.045  66.334  19.165  1.00  0.00    -0.330 N 
ATOM     11  H6  UNL     1      16.441  66.457  18.234  1.00  0.00     0.165 HD
HETATM   12  C14 UNL     1      14.701  65.998  19.177  1.00  0.00     0.317 C 
HETATM   13  O3  UNL     1      14.370  64.915  18.553  1.00  0.00    -0.247 OA
HETATM   14  N7  UNL     1      13.590  66.663  19.778  1.00  0.00    -0.330 N 
ATOM     15  H7  UNL     1      12.744  66.107  19.906  1.00  0.00     0.165 HD
HETATM   16  C15 UNL     1      13.531  68.007  20.216  1.00  0.00     0.178 C 
HETATM   17  C20 UNL     1      12.818  68.262  21.487  1.00  0.00     0.240 C 
HETATM   18  O4  UNL     1      13.000  69.469  21.919  1.00  0.00    -0.271 OA
HETATM   19  N8  UNL     1      12.012  67.457  22.268  1.00  0.00    -0.359 N 
ATOM     20  H8  UNL     1      11.092  67.852  22.462  1.00  0.00     0.162 HD
HETATM   21  C21 UNL     1      12.228  66.180  22.852  1.00  0.00     0.127 C 
HETATM   22  C22 UNL     1      13.382  66.126  23.868  1.00  0.00     0.014 C 
HETATM   23  C23 UNL     1      13.730  67.502  24.387  1.00  0.00     0.012 C 
ENDROOT
BRANCH   9  24
HETATM   24  C10 UNL     1      18.390  66.863  19.719  1.00  0.00     0.037 C 
BRANCH  24  25
HETATM   25  C11 UNL     1      18.403  67.947  18.696  1.00  0.00     0.022 C 
BRANCH  25  26
HETATM   26  C12 UNL     1      19.652  67.721  17.853  1.00  0.00     0.122 C 
BRANCH  26  27
HETATM   27  N3  UNL     1      20.837  67.629  18.677  1.00  0.00    -0.367 N 
HETATM   28  C13 UNL     1      21.833  66.975  18.186  1.00  0.00     0.196 C 
HETATM   29  N4  UNL     1      23.008  66.869  18.976  1.00  0.00    -0.067 NA
HETATM   30  N5  UNL     1      21.842  66.352  16.911  1.00  0.00    -0.067 NA
ATOM     31  H3  UNL     1      20.881  68.060  19.601  1.00  0.00     0.161 HD
ENDBRANCH  26  27
ENDBRANCH  25  26
ENDBRANCH  24  25
ENDBRANCH   9  24
BRANCH   1  32
HETATM   32  C4  UNL     1      17.007  62.760  23.047  1.00  0.00     0.152 C 
BRANCH  32  33
HETATM   33  C3  UNL     1      18.211  62.769  23.925  1.00  0.00     0.022 C 
BRANCH  33  34
HETATM   34  C2  UNL     1      18.282  61.461  24.710  1.00  0.00    -0.003 C 
HETATM   35  C1  UNL     1      18.399  60.280  23.769  1.00  0.00     0.005 C 
ENDBRANCH  33  34
ENDBRANCH  32  33
ENDBRANCH   1  32
BRANCH  16  36
HETATM   36  C16 UNL     1      12.974  68.928  19.179  1.00  0.00     0.038 C 
BRANCH  36  37
HETATM   37  C17 UNL     1      13.923  69.569  18.241  1.00  0.00    -0.020 C 
HETATM   38  C18 UNL     1      15.250  69.907  18.971  1.00  0.00     0.009 C 
HETATM   39  C19 UNL     1      14.354  68.742  17.061  1.00  0.00     0.009 C 
ENDBRANCH  36  37
ENDBRANCH  16  36
TORSDOF 9
ENDMDL
MODEL 3
REMARK VINA RESULT: -7.481797430      3.461      7.628
REMARK  9 active torsions:
REMARK  status: ('A' for Active; 'I' for Inactive)
REMARK    1  A    between atoms: C2_2  and  C3_3 
REMARK    2  A    between atoms: C3_3  and  C4_4 
REMARK    3  A    between atoms: C4_4  and  N1_5 
REMARK    4  A    between atoms: C9_13  and  C10_14 
REMARK    5  A    between atoms: C10_14  and  C11_15 
REMARK    6  A    between atoms: C11_15  and  C12_16 
REMARK    7  A    between atoms: C12_16  and  N3_17 
REMARK    8  A    between atoms: C15_28  and  C16_29 
REMARK    9  A    between atoms: C16_29  and  C17_30 
ROOT
HETATM    1  N1  UNL     1      17.354  68.181  19.291  1.00  0.00    -0.256 N 
HETATM    2  C5  UNL     1      16.642  69.070  18.382  1.00  0.00     0.244 C 
HETATM    3  O1  UNL     1      17.192  69.629  17.437  1.00  0.00    -0.271 OA
HETATM    4  C6  UNL     1      15.285  69.030  18.944  1.00  0.00     0.105 C 
HETATM    5  C7  UNL     1      15.201  67.508  19.154  1.00  0.00     0.167 C 
HETATM    6  N2  UNL     1      16.408  67.392  19.961  1.00  0.00    -0.254 N 
HETATM    7  C8  UNL     1      16.398  66.599  21.131  1.00  0.00     0.261 C 
HETATM    8  O2  UNL     1      17.506  66.227  21.604  1.00  0.00    -0.269 OA
HETATM    9  C9  UNL     1      15.175  66.165  21.855  1.00  0.00     0.180 C 
HETATM   10  N6  UNL     1      14.777  67.040  22.923  1.00  0.00    -0.330 N 
ATOM     11  H6  UNL     1      14.760  66.601  23.843  1.00  0.00     0.165 HD
HETATM   12  C14 UNL     1      14.412  68.376  22.917  1.00  0.00     0.317 C 
HETATM   13  O3  UNL     1      15.118  69.171  23.654  1.00  0.00    -0.247 OA
HETATM   14  N7  UNL     1      13.361  69.042  22.218  1.00  0.00    -0.330 N 
ATOM     15  H7  UNL     1      13.443  70.055  22.134  1.00  0.00     0.165 HD
HETATM   16  C15 UNL     1      12.217  68.453  21.628  1.00  0.00     0.178 C 
HETATM   17  C20 UNL     1      11.790  68.996  20.320  1.00  0.00     0.240 C 
HETATM   18  O4  UNL     1      10.883  68.263  19.757  1.00  0.00    -0.271 OA
HETATM   19  N8  UNL     1      12.180  70.119  19.617  1.00  0.00    -0.359 N 
ATOM     20  H8  UNL     1      11.410  70.736  19.357  1.00  0.00     0.162 HD
HETATM   21  C21 UNL     1      13.456  70.574  19.189  1.00  0.00     0.127 C 
HETATM   22  C22 UNL     1      14.179  69.630  18.212  1.00  0.00     0.014 C 
HETATM   23  C23 UNL     1      13.216  68.674  17.548  1.00  0.00     0.012 C 
ENDROOT
BRANCH   9  24
HETATM   24  C10 UNL     1      15.526  64.756  22.368  1.00  0.00     0.037 C 
BRANCH  24  25
HETATM   25  C11 UNL     1      14.850  64.414  23.653  1.00  0.00     0.022 C 
BRANCH  25  26
HETATM   26  C12 UNL     1      15.100  62.929  23.883  1.00  0.00     0.122 C 
BRANCH  26  27
HETATM   27  N3  UNL     1      16.270  62.472  23.166  1.00  0.00    -0.367 N 
HETATM   28  C13 UNL     1      17.180  61.881  23.861  1.00  0.00     0.196 C 
HETATM   29  N4  UNL     1      18.339  61.423  23.180  1.00  0.00    -0.067 NA
HETATM   30  N5  UNL     1      17.109  61.653  25.260  1.00  0.00    -0.067 NA
ATOM     31  H3  UNL     1      16.369  62.611  22.160  1.00  0.00     0.161 HD
ENDBRANCH  26  27
ENDBRANCH  25  26
ENDBRANCH  24  25
ENDBRANCH   9  24
BRANCH   1  32
HETATM   32  C4  UNL     1      18.772  68.081  19.499  1.00  0.00     0.152 C 
BRANCH  32  33
HETATM   33  C3  UNL     1      19.452  67.065  18.646  1.00  0.00     0.022 C 
BRANCH  33  34
HETATM   34  C2  UNL     1      20.266  67.769  17.563  1.00  0.00    -0.003 C 
HETATM   35  C1  UNL     1      20.657  69.162  18.010  1.00  0.00     0.005 C 
ENDBRANCH  33  34
ENDBRANCH  32  33
ENDBRANCH   1  32
BRANCH  16  36
HETATM   36  C16 UNL     1      11.034  68.453  22.539  1.00  0.00     0.038 C 
BRANCH  36  37
HETATM   37  C17 UNL     1      10.625  67.165  23.143  1.00  0.00    -0.020 C 
HETATM   38  C18 UNL     1      11.232  65.983  22.343  1.00  0.00     0.009 C 
HETATM   39  C19 UNL     1      11.076  66.920  24.557  1.00  0.00     0.009 C 
ENDBRANCH  36  37
ENDBRANCH  16  36
TORSDOF 9
ENDMDL
MODEL 4
REMARK VINA RESULT: -7.435695980      2.469      6.774
REMARK  9 active torsions:
REMARK  status: ('A' for Active; 'I' for Inactive)
REMARK    1  A    between atoms: C2_2  and  C3_3 
REMARK    2  A    between atoms: C3_3  and  C4_4 
REMARK    3  A    between atoms: C4_4  and  N1_5 
REMARK    4  A    between atoms: C9_13  and  C10_14 
REMARK    5  A    between atoms: C10_14  and  C11_15 
REMARK    6  A    between atoms: C11_15  and  C12_16 
REMARK    7  A    between atoms: C12_16  and  N3_17 
REMARK    8  A    between atoms: C15_28  and  C16_29 
REMARK    9  A    between atoms: C16_29  and  C17_30 
ROOT
HETATM    1  N1  UNL     1      18.554  62.564  24.127  1.00  0.00    -0.256 N 
HETATM    2  C5  UNL     1      19.388  62.790  25.300  1.00  0.00     0.244 C 
HETATM    3  O1  UNL     1      20.455  62.208  25.476  1.00  0.00    -0.271 OA
HETATM    4  C6  UNL     1      18.596  63.791  26.029  1.00  0.00     0.105 C 
HETATM    5  C7  UNL     1      18.259  64.691  24.827  1.00  0.00     0.167 C 
HETATM    6  N2  UNL     1      17.671  63.645  24.003  1.00  0.00    -0.254 N 
HETATM    7  C8  UNL     1      16.460  63.890  23.315  1.00  0.00     0.261 C 
HETATM    8  O2  UNL     1      16.163  63.131  22.353  1.00  0.00    -0.269 OA
HETATM    9  C9  UNL     1      15.502  64.978  23.638  1.00  0.00     0.180 C 
HETATM   10  N6  UNL     1      14.451  64.594  24.538  1.00  0.00    -0.330 N 
ATOM     11  H6  UNL     1      13.511  64.687  24.153  1.00  0.00     0.165 HD
HETATM   12  C14 UNL     1      14.493  64.119  25.838  1.00  0.00     0.317 C 
HETATM   13  O3  UNL     1      13.954  62.963  26.049  1.00  0.00    -0.247 OA
HETATM   14  N7  UNL     1      15.045  64.706  27.017  1.00  0.00    -0.330 N 
ATOM     15  H7  UNL     1      15.218  64.075  27.799  1.00  0.00     0.165 HD
HETATM   16  C15 UNL     1      15.379  66.066  27.221  1.00  0.00     0.178 C 
HETATM   17  C20 UNL     1      16.629  66.340  27.963  1.00  0.00     0.240 C 
HETATM   18  O4  UNL     1      16.967  67.589  27.912  1.00  0.00    -0.271 OA
HETATM   19  N8  UNL     1      17.473  65.515  28.682  1.00  0.00    -0.359 N 
ATOM     20  H8  UNL     1      17.639  65.824  29.640  1.00  0.00     0.162 HD
HETATM   21  C21 UNL     1      18.151  64.318  28.333  1.00  0.00     0.127 C 
HETATM   22  C22 UNL     1      19.165  64.465  27.186  1.00  0.00     0.014 C 
HETATM   23  C23 UNL     1      19.576  65.905  26.988  1.00  0.00     0.012 C 
ENDROOT
BRANCH   9  24
HETATM   24  C10 UNL     1      14.954  65.411  22.265  1.00  0.00     0.037 C 
BRANCH  24  25
HETATM   25  C11 UNL     1      15.583  66.662  21.750  1.00  0.00     0.022 C 
BRANCH  25  26
HETATM   26  C12 UNL     1      15.829  66.433  20.264  1.00  0.00     0.122 C 
BRANCH  26  27
HETATM   27  N3  UNL     1      16.324  65.098  20.009  1.00  0.00    -0.367 N 
HETATM   28  C13 UNL     1      17.529  65.004  19.562  1.00  0.00     0.196 C 
HETATM   29  N4  UNL     1      18.038  63.704  19.303  1.00  0.00    -0.067 NA
HETATM   30  N5  UNL     1      18.386  66.106  19.309  1.00  0.00    -0.067 NA
ATOM     31  H3  UNL     1      15.748  64.273  20.175  1.00  0.00     0.161 HD
ENDBRANCH  26  27
ENDBRANCH  25  26
ENDBRANCH  24  25
ENDBRANCH   9  24
BRANCH   1  32
HETATM   32  C4  UNL     1      18.591  61.452  23.218  1.00  0.00     0.152 C 
BRANCH  32  33
HETATM   33  C3  UNL     1      18.052  60.178  23.776  1.00  0.00     0.022 C 
BRANCH  33  34
HETATM   34  C2  UNL     1      19.161  59.129  23.820  1.00  0.00    -0.003 C 
HETATM   35  C1  UNL     1      19.539  58.813  25.252  1.00  0.00     0.005 C 
ENDBRANCH  33  34
ENDBRANCH  32  33
ENDBRANCH   1  32
BRANCH  16  36
HETATM   36  C16 UNL     1      14.277  66.840  27.868  1.00  0.00     0.038 C 
BRANCH  36  37
HETATM   37  C17 UNL     1      13.369  67.615  26.992  1.00  0.00    -0.020 C 
HETATM   38  C18 UNL     1      14.100  68.015  25.684  1.00  0.00     0.009 C 
HETATM   39  C19 UNL     1      12.133  66.902  26.518  1.00  0.00     0.009 C 
ENDBRANCH  36  37
ENDBRANCH  16  36
TORSDOF 9
ENDMDL
MODEL 5
REMARK VINA RESULT: -7.418329103      2.388      5.978
REMARK  9 active torsions:
REMARK  status: ('A' for Active; 'I' for Inactive)
REMARK    1  A    between atoms: C2_2  and  C3_3 
REMARK    2  A    between atoms: C3_3  and  C4_4 
REMARK    3  A    between atoms: C4_4  and  N1_5 
REMARK    4  A    between atoms: C9_13  and  C10_14 
REMARK    5  A    between atoms: C10_14  and  C11_15 
REMARK    6  A    between atoms: C11_15  and  C12_16 
REMARK    7  A    between atoms: C12_16  and  N3_17 
REMARK    8  A    between atoms: C15_28  and  C16_29 
REMARK    9  A    between atoms: C16_29  and  C17_30 
ROOT
HETATM    1  N1  UNL     1      16.063  65.147  21.103  1.00  0.00    -0.256 N 
HETATM    2  C5  UNL     1      15.089  66.226  21.204  1.00  0.00     0.244 C 
HETATM    3  O1  UNL     1      14.601  66.772  20.218  1.00  0.00    -0.271 OA
HETATM    4  C6  UNL     1      14.960  66.362  22.662  1.00  0.00     0.105 C 
HETATM    5  C7  UNL     1      14.858  64.862  22.992  1.00  0.00     0.167 C 
HETATM    6  N2  UNL     1      16.093  64.468  22.329  1.00  0.00    -0.254 N 
HETATM    7  C8  UNL     1      16.985  63.580  22.973  1.00  0.00     0.261 C 
HETATM    8  O2  UNL     1      17.841  62.984  22.265  1.00  0.00    -0.269 OA
HETATM    9  C9  UNL     1      16.994  63.290  24.430  1.00  0.00     0.180 C 
HETATM   10  N6  UNL     1      17.892  64.113  25.192  1.00  0.00    -0.330 N 
ATOM     11  H6  UNL     1      18.619  63.598  25.687  1.00  0.00     0.165 HD
HETATM   12  C14 UNL     1      17.939  65.486  25.369  1.00  0.00     0.317 C 
HETATM   13  O3  UNL     1      19.034  66.077  25.016  1.00  0.00    -0.247 OA
HETATM   14  N7  UNL     1      16.958  66.384  25.890  1.00  0.00    -0.330 N 
ATOM     15  H7  UNL     1      17.088  67.372  25.673  1.00  0.00     0.165 HD
HETATM   16  C15 UNL     1      15.827  66.055  26.674  1.00  0.00     0.178 C 
HETATM   17  C20 UNL     1      14.576  66.784  26.374  1.00  0.00     0.240 C 
HETATM   18  O4  UNL     1      13.551  66.271  26.978  1.00  0.00    -0.271 OA
HETATM   19  N8  UNL     1      14.319  67.888  25.584  1.00  0.00    -0.359 N 
ATOM     20  H8  UNL     1      13.843  68.647  26.071  1.00  0.00     0.162 HD
HETATM   21  C21 UNL     1      14.597  68.160  24.218  1.00  0.00     0.127 C 
HETATM   22  C22 UNL     1      13.915  67.206  23.221  1.00  0.00     0.014 C 
HETATM   23  C23 UNL     1      12.741  66.493  23.850  1.00  0.00     0.012 C 
ENDROOT
BRANCH   9  24
HETATM   24  C10 UNL     1      17.373  61.800  24.512  1.00  0.00     0.037 C 
BRANCH  24  25
HETATM   25  C11 UNL     1      18.278  61.487  25.654  1.00  0.00     0.022 C 
BRANCH  25  26
HETATM   26  C12 UNL     1      19.502  60.807  25.053  1.00  0.00     0.122 C 
BRANCH  26  27
HETATM   27  N3  UNL     1      19.878  59.631  25.807  1.00  0.00    -0.367 N 
HETATM   28  C13 UNL     1      19.576  58.491  25.288  1.00  0.00     0.196 C 
HETATM   29  N4  UNL     1      19.934  57.321  26.009  1.00  0.00    -0.067 NA
HETATM   30  N5  UNL     1      18.910  58.318  24.046  1.00  0.00    -0.067 NA
ATOM     31  H3  UNL     1      20.358  59.701  26.704  1.00  0.00     0.161 HD
ENDBRANCH  26  27
ENDBRANCH  25  26
ENDBRANCH  24  25
ENDBRANCH   9  24
BRANCH   1  32
HETATM   32  C4  UNL     1      16.872  64.790  19.970  1.00  0.00     0.152 C 
BRANCH  32  33
HETATM   33  C3  UNL     1      18.083  65.640  19.783  1.00  0.00     0.022 C 
BRANCH  33  34
HETATM   34  C2  UNL     1      17.820  66.671  18.688  1.00  0.00    -0.003 C 
HETATM   35  C1  UNL     1      17.834  68.073  19.262  1.00  0.00     0.005 C 
ENDBRANCH  33  34
ENDBRANCH  32  33
ENDBRANCH   1  32
BRANCH  16  36
HETATM   36  C16 UNL     1      16.089  66.166  28.140  1.00  0.00     0.038 C 
BRANCH  36  37
HETATM   37  C17 UNL     1      16.398  64.925  28.885  1.00  0.00    -0.020 C 
HETATM   38  C18 UNL     1      15.777  63.700  28.163  1.00  0.00     0.009 C 
HETATM   39  C19 UNL     1      17.854  64.574  29.018  1.00  0.00     0.009 C 
ENDBRANCH  36  37
ENDBRANCH  16  36
TORSDOF 9
ENDMDL
