MODEL 1
REMARK VINA RESULT: -7.682342975      0.000      0.000
REMARK  11 active torsions:
REMARK  status: ('A' for Active; 'I' for Inactive)
REMARK    1  A    between atoms: C3_3  and  C4_4 
REMARK    2  A    between atoms: N2_9  and  C7_10 
REMARK    3  A    between atoms: C7_10  and  C8_11 
REMARK    4  A    between atoms: C8_11  and  C9_12 
REMARK    5  A    between atoms: C9_12  and  C10_13 
REMARK    6  A    between atoms: C12_18  and  C13_19 
REMARK    7  A    between atoms: C13_19  and  C14_20 
REMARK    8  A    between atoms: C14_20  and  C15_21 
REMARK    9  A    between atoms: C15_21  and  C16_22 
REMARK   10  A    between atoms: C16_22  and  N4_23 
REMARK   11  A    between atoms: C17_29  and  O2_30 
ROOT
HETATM    1  C1  UNL     1      11.426  66.110  31.550  1.00  0.00     0.112 C 
HETATM    2  C2  UNL     1      11.128  64.797  30.983  1.00  0.00    -0.103 C 
HETATM    3  C3  UNL     1      10.895  63.709  30.530  1.00  0.00    -0.030 C 
ENDROOT
BRANCH   3   4
HETATM    4  C4  UNL     1      10.631  62.408  30.009  1.00  0.00     0.163 A 
HETATM    5  N1  UNL     1      10.250  61.365  30.777  1.00  0.00    -0.344 N 
HETATM    6  C5  UNL     1      10.088  60.308  29.979  1.00  0.00     0.107 A 
ATOM      7  H1  UNL     1      10.110  61.382  31.787  1.00  0.00     0.167 HD
HETATM    8  C6  UNL     1      10.379  60.730  28.706  1.00  0.00     0.110 A 
HETATM    9  N2  UNL     1      10.715  62.033  28.725  1.00  0.00    -0.335 N 
BRANCH   9  10
HETATM   10  C7  UNL     1      11.091  62.867  27.615  1.00  0.00     0.131 C 
BRANCH  10  11
HETATM   11  C8  UNL     1      12.568  62.653  27.338  1.00  0.00     0.023 C 
BRANCH  11  12
HETATM   12  C9  UNL     1      13.265  63.932  27.638  1.00  0.00     0.036 C 
BRANCH  12  13
HETATM   13  C10 UNL     1      14.586  64.060  26.842  1.00  0.00     0.176 C 
HETATM   14  N3  UNL     1      14.771  62.894  26.046  1.00  0.00    -0.346 N 
HETATM   15  C11 UNL     1      15.638  62.611  24.983  1.00  0.00     0.241 C 
ATOM     16  H3  UNL     1      14.158  62.118  26.298  1.00  0.00     0.163 HD
HETATM   17  O1  UNL     1      15.124  62.393  23.810  1.00  0.00    -0.271 OA
HETATM   18  C12 UNL     1      17.124  62.510  24.955  1.00  0.00     0.175 C 
HETATM   19  N5  UNL     1      17.721  62.264  26.230  1.00  0.00    -0.359 N 
HETATM   20  C17 UNL     1      18.874  62.708  26.845  1.00  0.00     0.135 C 
ATOM     21  H5  UNL     1      17.179  61.623  26.810  1.00  0.00     0.162 HD
HETATM   22  C18 UNL     1      19.636  63.902  26.960  1.00  0.00     0.161 C 
HETATM   23  C19 UNL     1      20.971  63.532  26.267  1.00  0.00     0.035 C 
HETATM   24  N6  UNL     1      19.373  65.176  26.479  1.00  0.00    -0.338 N 
HETATM   25  C20 UNL     1      21.624  64.800  25.902  1.00  0.00     0.022 C 
HETATM   26  C21 UNL     1      20.725  65.814  26.571  1.00  0.00     0.127 C 
HETATM   27  C22 UNL     1      18.238  65.838  26.012  1.00  0.00     0.243 C 
HETATM   28  O3  UNL     1      18.379  66.439  24.874  1.00  0.00    -0.271 OA
HETATM   29  C23 UNL     1      16.889  65.996  26.561  1.00  0.00     0.172 C 
HETATM   30  C24 UNL     1      16.711  67.513  26.784  1.00  0.00     0.042 C 
HETATM   31  N7  UNL     1      16.587  65.378  27.790  1.00  0.00    -0.346 N 
HETATM   32  C25 UNL     1      15.591  64.354  27.858  1.00  0.00     0.241 C 
ATOM     33  H7  UNL     1      17.081  65.663  28.636  1.00  0.00     0.163 HD
HETATM   34  O4  UNL     1      15.607  63.643  28.922  1.00  0.00    -0.271 OA
BRANCH  18  35
HETATM   35  C13 UNL     1      17.374  61.223  24.106  1.00  0.00     0.035 C 
BRANCH  35  36
HETATM   36  C14 UNL     1      18.808  60.998  23.831  1.00  0.00     0.004 C 
BRANCH  36  37
HETATM   37  C15 UNL     1      19.151  59.555  23.709  1.00  0.00     0.027 C 
BRANCH  37  38
HETATM   38  C16 UNL     1      19.376  58.775  24.948  1.00  0.00     0.229 C 
BRANCH  38  39
HETATM   39  N4  UNL     1      20.297  59.326  25.877  1.00  0.00    -0.079 N 
ATOM     40  H43 UNL     1      21.049  59.799  25.377  1.00  0.00     0.274 HD
ATOM     41  H42 UNL     1      19.869  60.116  26.358  1.00  0.00     0.274 HD
ATOM     42  H41 UNL     1      20.690  58.678  26.560  1.00  0.00     0.274 HD
ENDBRANCH  38  39
ENDBRANCH  37  38
ENDBRANCH  36  37
ENDBRANCH  35  36
ENDBRANCH  18  35
BRANCH  20  43
HETATM   43  O2  UNL     1      19.454  61.752  27.540  1.00  0.00    -0.348 OA
ATOM     44  H2  UNL     1      20.384  61.699  27.354  1.00  0.00     0.219 HD
ENDBRANCH  20  43
ENDBRANCH  12  13
ENDBRANCH  11  12
ENDBRANCH  10  11
ENDBRANCH   9  10
ENDBRANCH   3   4
TORSDOF 11
ENDMDL
MODEL 2
REMARK VINA RESULT: -7.594321409      5.117      8.602
REMARK  11 active torsions:
REMARK  status: ('A' for Active; 'I' for Inactive)
REMARK    1  A    between atoms: C3_3  and  C4_4 
REMARK    2  A    between atoms: N2_9  and  C7_10 
REMARK    3  A    between atoms: C7_10  and  C8_11 
REMARK    4  A    between atoms: C8_11  and  C9_12 
REMARK    5  A    between atoms: C9_12  and  C10_13 
REMARK    6  A    between atoms: C12_18  and  C13_19 
REMARK    7  A    between atoms: C13_19  and  C14_20 
REMARK    8  A    between atoms: C14_20  and  C15_21 
REMARK    9  A    between atoms: C15_21  and  C16_22 
REMARK   10  A    between atoms: C16_22  and  N4_23 
REMARK   11  A    between atoms: C17_29  and  O2_30 
ROOT
HETATM    1  C1  UNL     1      19.703  63.408  28.193  1.00  0.00     0.112 C 
HETATM    2  C2  UNL     1      19.535  62.356  27.194  1.00  0.00    -0.103 C 
HETATM    3  C3  UNL     1      19.397  61.477  26.387  1.00  0.00    -0.030 C 
ENDROOT
BRANCH   3   4
HETATM    4  C4  UNL     1      19.232  60.417  25.446  1.00  0.00     0.163 A 
HETATM    5  N1  UNL     1      19.896  59.244  25.527  1.00  0.00    -0.344 N 
HETATM    6  C5  UNL     1      19.510  58.486  24.500  1.00  0.00     0.107 A 
ATOM      7  H1  UNL     1      20.571  58.984  26.246  1.00  0.00     0.167 HD
HETATM    8  C6  UNL     1      18.596  59.222  23.789  1.00  0.00     0.110 A 
HETATM    9  N2  UNL     1      18.424  60.421  24.377  1.00  0.00    -0.335 N 
BRANCH   9  10
HETATM   10  C7  UNL     1      17.560  61.495  23.963  1.00  0.00     0.131 C 
BRANCH  10  11
HETATM   11  C8  UNL     1      18.356  62.425  23.065  1.00  0.00     0.023 C 
BRANCH  11  12
HETATM   12  C9  UNL     1      18.169  63.807  23.579  1.00  0.00     0.036 C 
BRANCH  12  13
HETATM   13  C10 UNL     1      16.965  64.506  22.905  1.00  0.00     0.176 C 
HETATM   14  N3  UNL     1      17.224  64.653  21.513  1.00  0.00    -0.346 N 
HETATM   15  C11 UNL     1      16.395  64.976  20.432  1.00  0.00     0.241 C 
ATOM     16  H3  UNL     1      18.198  64.493  21.254  1.00  0.00     0.163 HD
HETATM   17  O1  UNL     1      16.198  64.077  19.515  1.00  0.00    -0.271 OA
HETATM   18  C12 UNL     1      15.658  66.236  20.129  1.00  0.00     0.175 C 
HETATM   19  N5  UNL     1      16.173  67.393  20.791  1.00  0.00    -0.359 N 
HETATM   20  C17 UNL     1      15.588  68.501  21.369  1.00  0.00     0.135 C 
ATOM     21  H5  UNL     1      17.191  67.401  20.848  1.00  0.00     0.162 HD
HETATM   22  C18 UNL     1      14.449  68.825  22.155  1.00  0.00     0.161 C 
HETATM   23  C19 UNL     1      13.623  69.736  21.212  1.00  0.00     0.035 C 
HETATM   24  N6  UNL     1      13.489  67.995  22.715  1.00  0.00    -0.338 N 
HETATM   25  C20 UNL     1      12.240  69.727  21.720  1.00  0.00     0.022 C 
HETATM   26  C21 UNL     1      12.394  68.972  23.020  1.00  0.00     0.127 C 
HETATM   27  C22 UNL     1      13.406  66.632  22.994  1.00  0.00     0.243 C 
HETATM   28  O3  UNL     1      12.335  66.045  22.566  1.00  0.00    -0.271 OA
HETATM   29  C23 UNL     1      14.305  65.708  23.689  1.00  0.00     0.172 C 
HETATM   30  C24 UNL     1      13.508  65.198  24.908  1.00  0.00     0.042 C 
HETATM   31  N7  UNL     1      15.521  66.208  24.194  1.00  0.00    -0.346 N 
HETATM   32  C25 UNL     1      16.768  65.720  23.689  1.00  0.00     0.241 C 
ATOM     33  H7  UNL     1      15.513  66.920  24.924  1.00  0.00     0.163 HD
HETATM   34  O4  UNL     1      17.790  66.438  23.967  1.00  0.00    -0.271 OA
BRANCH  18  35
HETATM   35  C13 UNL     1      15.936  66.450  18.607  1.00  0.00     0.035 C 
BRANCH  35  36
HETATM   36  C14 UNL     1      15.150  67.564  18.040  1.00  0.00     0.004 C 
BRANCH  36  37
HETATM   37  C15 UNL     1      13.684  67.380  18.211  1.00  0.00     0.027 C 
BRANCH  37  38
HETATM   38  C16 UNL     1      12.777  68.460  17.761  1.00  0.00     0.229 C 
BRANCH  38  39
HETATM   39  N4  UNL     1      11.395  68.141  17.719  1.00  0.00    -0.079 N 
ATOM     40  H43 UNL     1      11.275  67.129  17.687  1.00  0.00     0.274 HD
ATOM     41  H42 UNL     1      10.965  68.350  18.620  1.00  0.00     0.274 HD
ATOM     42  H41 UNL     1      10.854  68.576  16.971  1.00  0.00     0.274 HD
ENDBRANCH  38  39
ENDBRANCH  37  38
ENDBRANCH  36  37
ENDBRANCH  35  36
ENDBRANCH  18  35
BRANCH  20  43
HETATM   43  O2  UNL     1      16.280  69.596  21.133  1.00  0.00    -0.348 OA
ATOM     44  H2  UNL     1      16.876  69.484  20.402  1.00  0.00     0.219 HD
ENDBRANCH  20  43
ENDBRANCH  12  13
ENDBRANCH  11  12
ENDBRANCH  10  11
ENDBRANCH   9  10
ENDBRANCH   3   4
TORSDOF 11
ENDMDL
MODEL 3
REMARK VINA RESULT: -7.507514892      5.697      9.173
REMARK  11 active torsions:
REMARK  status: ('A' for Active; 'I' for Inactive)
REMARK    1  A    between atoms: C3_3  and  C4_4 
REMARK    2  A    between atoms: N2_9  and  C7_10 
REMARK    3  A    between atoms: C7_10  and  C8_11 
REMARK    4  A    between atoms: C8_11  and  C9_12 
REMARK    5  A    between atoms: C9_12  and  C10_13 
REMARK    6  A    between atoms: C12_18  and  C13_19 
REMARK    7  A    between atoms: C13_19  and  C14_20 
REMARK    8  A    between atoms: C14_20  and  C15_21 
REMARK    9  A    between atoms: C15_21  and  C16_22 
REMARK   10  A    between atoms: C16_22  and  N4_23 
REMARK   11  A    between atoms: C17_29  and  O2_30 
ROOT
HETATM    1  C1  UNL     1      18.959  58.831  23.805  1.00  0.00     0.112 C 
HETATM    2  C2  UNL     1      19.003  60.000  24.679  1.00  0.00    -0.103 C 
HETATM    3  C3  UNL     1      19.031  60.950  25.413  1.00  0.00    -0.030 C 
ENDROOT
BRANCH   3   4
HETATM    4  C4  UNL     1      19.056  62.066  26.302  1.00  0.00     0.163 A 
HETATM    5  N1  UNL     1      19.570  62.008  27.549  1.00  0.00    -0.344 N 
HETATM    6  C5  UNL     1      19.436  63.215  28.102  1.00  0.00     0.107 A 
ATOM      7  H1  UNL     1      19.986  61.188  27.990  1.00  0.00     0.167 HD
HETATM    8  C6  UNL     1      18.829  64.012  27.163  1.00  0.00     0.110 A 
HETATM    9  N2  UNL     1      18.594  63.297  26.046  1.00  0.00    -0.335 N 
BRANCH   9  10
HETATM   10  C7  UNL     1      17.978  63.742  24.824  1.00  0.00     0.131 C 
BRANCH  10  11
HETATM   11  C8  UNL     1      16.490  63.911  25.077  1.00  0.00     0.023 C 
BRANCH  11  12
HETATM   12  C9  UNL     1      15.799  63.775  23.768  1.00  0.00     0.036 C 
BRANCH  12  13
HETATM   13  C10 UNL     1      15.280  65.139  23.254  1.00  0.00     0.176 C 
HETATM   14  N3  UNL     1      13.860  65.097  23.158  1.00  0.00    -0.346 N 
HETATM   15  C11 UNL     1      12.900  66.103  22.997  1.00  0.00     0.241 C 
ATOM     16  H3  UNL     1      13.469  64.156  23.218  1.00  0.00     0.163 HD
HETATM   17  O1  UNL     1      12.059  66.313  23.964  1.00  0.00    -0.271 OA
HETATM   18  C12 UNL     1      12.656  67.025  21.852  1.00  0.00     0.175 C 
HETATM   19  N5  UNL     1      13.189  66.570  20.606  1.00  0.00    -0.359 N 
HETATM   20  C17 UNL     1      13.801  67.201  19.543  1.00  0.00     0.135 C 
ATOM     21  H5  UNL     1      13.097  65.562  20.476  1.00  0.00     0.162 HD
HETATM   22  C18 UNL     1      14.731  68.250  19.310  1.00  0.00     0.161 C 
HETATM   23  C19 UNL     1      13.883  69.307  18.558  1.00  0.00     0.035 C 
HETATM   24  N6  UNL     1      15.458  69.013  20.212  1.00  0.00    -0.338 N 
HETATM   25  C20 UNL     1      14.587  70.593  18.699  1.00  0.00     0.022 C 
HETATM   26  C21 UNL     1      15.880  70.166  19.354  1.00  0.00     0.127 C 
HETATM   27  C22 UNL     1      15.801  68.886  21.557  1.00  0.00     0.243 C 
HETATM   28  O3  UNL     1      15.558  69.926  22.289  1.00  0.00    -0.271 OA
HETATM   29  C23 UNL     1      16.395  67.791  22.328  1.00  0.00     0.172 C 
HETATM   30  C24 UNL     1      17.736  68.341  22.857  1.00  0.00     0.042 C 
HETATM   31  N7  UNL     1      16.697  66.587  21.662  1.00  0.00    -0.346 N 
HETATM   32  C25 UNL     1      16.035  65.373  22.028  1.00  0.00     0.241 C 
ATOM     33  H7  UNL     1      17.391  66.582  20.914  1.00  0.00     0.163 HD
HETATM   34  O4  UNL     1      16.132  64.419  21.181  1.00  0.00    -0.271 OA
BRANCH  18  35
HETATM   35  C13 UNL     1      11.103  66.991  21.695  1.00  0.00     0.035 C 
BRANCH  35  36
HETATM   36  C14 UNL     1      10.584  68.161  20.958  1.00  0.00     0.004 C 
BRANCH  36  37
HETATM   37  C15 UNL     1      11.294  69.421  21.306  1.00  0.00     0.027 C 
BRANCH  37  38
HETATM   38  C16 UNL     1      10.966  70.651  20.548  1.00  0.00     0.229 C 
BRANCH  38  39
HETATM   39  N4  UNL     1       9.723  70.652  19.864  1.00  0.00    -0.079 N 
ATOM     40  H43 UNL     1       9.727  71.372  19.142  1.00  0.00     0.274 HD
ATOM     41  H42 UNL     1       9.645  69.814  19.288  1.00  0.00     0.274 HD
ATOM     42  H41 UNL     1       8.889  70.749  20.444  1.00  0.00     0.274 HD
ENDBRANCH  38  39
ENDBRANCH  37  38
ENDBRANCH  36  37
ENDBRANCH  35  36
ENDBRANCH  18  35
BRANCH  20  43
HETATM   43  O2  UNL     1      13.423  66.690  18.390  1.00  0.00    -0.348 OA
ATOM     44  H2  UNL     1      13.214  65.767  18.468  1.00  0.00     0.219 HD
ENDBRANCH  20  43
ENDBRANCH  12  13
ENDBRANCH  11  12
ENDBRANCH  10  11
ENDBRANCH   9  10
ENDBRANCH   3   4
TORSDOF 11
ENDMDL
MODEL 4
REMARK VINA RESULT: -7.407480505      5.519      9.046
REMARK  11 active torsions:
REMARK  status: ('A' for Active; 'I' for Inactive)
REMARK    1  A    between atoms: C3_3  and  C4_4 
REMARK    2  A    between atoms: N2_9  and  C7_10 
REMARK    3  A    between atoms: C7_10  and  C8_11 
REMARK    4  A    between atoms: C8_11  and  C9_12 
REMARK    5  A    between atoms: C9_12  and  C10_13 
REMARK    6  A    between atoms: C12_18  and  C13_19 
REMARK    7  A    between atoms: C13_19  and  C14_20 
REMARK    8  A    between atoms: C14_20  and  C15_21 
REMARK    9  A    between atoms: C15_21  and  C16_22 
REMARK   10  A    between atoms: C16_22  and  N4_23 
REMARK   11  A    between atoms: C17_29  and  O2_30 
ROOT
HETATM    1  C1  UNL     1      19.004  58.831  23.817  1.00  0.00     0.112 C 
HETATM    2  C2  UNL     1      19.016  60.009  24.680  1.00  0.00    -0.103 C 
HETATM    3  C3  UNL     1      19.023  60.966  25.405  1.00  0.00    -0.030 C 
ENDROOT
BRANCH   3   4
HETATM    4  C4  UNL     1      19.028  62.090  26.285  1.00  0.00     0.163 A 
HETATM    5  N1  UNL     1      19.539  62.050  27.534  1.00  0.00    -0.344 N 
HETATM    6  C5  UNL     1      19.384  63.259  28.076  1.00  0.00     0.107 A 
ATOM      7  H1  UNL     1      19.967  61.240  27.982  1.00  0.00     0.167 HD
HETATM    8  C6  UNL     1      18.767  64.038  27.130  1.00  0.00     0.110 A 
HETATM    9  N2  UNL     1      18.546  63.311  26.018  1.00  0.00    -0.335 N 
BRANCH   9  10
HETATM   10  C7  UNL     1      17.926  63.736  24.791  1.00  0.00     0.131 C 
BRANCH  10  11
HETATM   11  C8  UNL     1      16.447  63.951  25.056  1.00  0.00     0.023 C 
BRANCH  11  12
HETATM   12  C9  UNL     1      15.735  63.786  23.762  1.00  0.00     0.036 C 
BRANCH  12  13
HETATM   13  C10 UNL     1      15.235  65.142  23.211  1.00  0.00     0.176 C 
HETATM   14  N3  UNL     1      13.819  65.100  23.070  1.00  0.00    -0.346 N 
HETATM   15  C11 UNL     1      12.866  66.105  22.862  1.00  0.00     0.241 C 
ATOM     16  H3  UNL     1      13.424  64.161  23.131  1.00  0.00     0.163 HD
HETATM   17  O1  UNL     1      11.994  66.330  23.799  1.00  0.00    -0.271 OA
HETATM   18  C12 UNL     1      12.661  67.010  21.696  1.00  0.00     0.175 C 
HETATM   19  N5  UNL     1      13.233  66.535  20.475  1.00  0.00    -0.359 N 
HETATM   20  C17 UNL     1      13.880  67.150  19.423  1.00  0.00     0.135 C 
ATOM     21  H5  UNL     1      13.144  65.526  20.357  1.00  0.00     0.162 HD
HETATM   22  C18 UNL     1      14.819  68.194  19.204  1.00  0.00     0.161 C 
HETATM   23  C19 UNL     1      13.997  69.240  18.409  1.00  0.00     0.035 C 
HETATM   24  N6  UNL     1      15.517  68.969  20.117  1.00  0.00    -0.338 N 
HETATM   25  C20 UNL     1      14.698  70.527  18.553  1.00  0.00     0.022 C 
HETATM   26  C21 UNL     1      15.969  70.109  19.256  1.00  0.00     0.127 C 
HETATM   27  C22 UNL     1      15.816  68.863  21.475  1.00  0.00     0.243 C 
HETATM   28  O3  UNL     1      15.551  69.913  22.182  1.00  0.00    -0.271 OA
HETATM   29  C23 UNL     1      16.383  67.778  22.281  1.00  0.00     0.172 C 
HETATM   30  C24 UNL     1      17.708  68.335  22.844  1.00  0.00     0.042 C 
HETATM   31  N7  UNL     1      16.704  66.564  21.643  1.00  0.00    -0.346 N 
HETATM   32  C25 UNL     1      16.030  65.357  22.006  1.00  0.00     0.241 C 
ATOM     33  H7  UNL     1      17.422  66.547  20.918  1.00  0.00     0.163 HD
HETATM   34  O4  UNL     1      16.152  64.390  21.177  1.00  0.00    -0.271 OA
BRANCH  18  35
HETATM   35  C13 UNL     1      11.113  66.975  21.490  1.00  0.00     0.035 C 
BRANCH  35  36
HETATM   36  C14 UNL     1      10.568  68.287  21.087  1.00  0.00     0.004 C 
BRANCH  36  37
HETATM   37  C15 UNL     1       9.415  68.713  21.925  1.00  0.00     0.027 C 
BRANCH  37  38
HETATM   38  C16 UNL     1       9.613  68.848  23.386  1.00  0.00     0.229 C 
BRANCH  38  39
HETATM   39  N4  UNL     1       9.040  67.830  24.193  1.00  0.00    -0.079 N 
ATOM     40  H43 UNL     1       8.072  68.066  24.410  1.00  0.00     0.274 HD
ATOM     41  H42 UNL     1       8.904  66.986  23.638  1.00  0.00     0.274 HD
ATOM     42  H41 UNL     1       9.540  67.601  25.052  1.00  0.00     0.274 HD
ENDBRANCH  38  39
ENDBRANCH  37  38
ENDBRANCH  36  37
ENDBRANCH  35  36
ENDBRANCH  18  35
BRANCH  20  43
HETATM   43  O2  UNL     1      13.538  66.621  18.266  1.00  0.00    -0.348 OA
ATOM     44  H2  UNL     1      13.620  65.675  18.275  1.00  0.00     0.219 HD
ENDBRANCH  20  43
ENDBRANCH  12  13
ENDBRANCH  11  12
ENDBRANCH  10  11
ENDBRANCH   9  10
ENDBRANCH   3   4
TORSDOF 11
ENDMDL
MODEL 5
REMARK VINA RESULT: -7.385313950      5.265      8.874
REMARK  11 active torsions:
REMARK  status: ('A' for Active; 'I' for Inactive)
REMARK    1  A    between atoms: C3_3  and  C4_4 
REMARK    2  A    between atoms: N2_9  and  C7_10 
REMARK    3  A    between atoms: C7_10  and  C8_11 
REMARK    4  A    between atoms: C8_11  and  C9_12 
REMARK    5  A    between atoms: C9_12  and  C10_13 
REMARK    6  A    between atoms: C12_18  and  C13_19 
REMARK    7  A    between atoms: C13_19  and  C14_20 
REMARK    8  A    between atoms: C14_20  and  C15_21 
REMARK    9  A    between atoms: C15_21  and  C16_22 
REMARK   10  A    between atoms: C16_22  and  N4_23 
REMARK   11  A    between atoms: C17_29  and  O2_30 
ROOT
HETATM    1  C1  UNL     1      19.542  63.331  28.297  1.00  0.00     0.112 C 
HETATM    2  C2  UNL     1      19.378  62.391  27.191  1.00  0.00    -0.103 C 
HETATM    3  C3  UNL     1      19.227  61.628  26.276  1.00  0.00    -0.030 C 
ENDROOT
BRANCH   3   4
HETATM    4  C4  UNL     1      19.029  60.734  25.181  1.00  0.00     0.163 A 
HETATM    5  N1  UNL     1      19.673  59.553  25.064  1.00  0.00    -0.344 N 
HETATM    6  C5  UNL     1      19.257  58.973  23.936  1.00  0.00     0.107 A 
ATOM      7  H1  UNL     1      20.354  59.172  25.720  1.00  0.00     0.167 HD
HETATM    8  C6  UNL     1      18.345  59.826  23.369  1.00  0.00     0.110 A 
HETATM    9  N2  UNL     1      18.203  60.919  24.143  1.00  0.00    -0.335 N 
BRANCH   9  10
HETATM   10  C7  UNL     1      17.353  62.058  23.920  1.00  0.00     0.131 C 
BRANCH  10  11
HETATM   11  C8  UNL     1      18.228  63.237  23.534  1.00  0.00     0.023 C 
BRANCH  11  12
HETATM   12  C9  UNL     1      17.927  63.568  22.117  1.00  0.00     0.036 C 
BRANCH  12  13
HETATM   13  C10 UNL     1      17.367  65.003  21.974  1.00  0.00     0.176 C 
HETATM   14  N3  UNL     1      16.395  65.233  22.989  1.00  0.00    -0.346 N 
HETATM   15  C11 UNL     1      15.787  66.403  23.459  1.00  0.00     0.241 C 
ATOM     16  H3  UNL     1      16.083  64.385  23.464  1.00  0.00     0.163 HD
HETATM   17  O1  UNL     1      16.026  66.775  24.681  1.00  0.00    -0.271 OA
HETATM   18  C12 UNL     1      14.864  67.349  22.771  1.00  0.00     0.175 C 
HETATM   19  N5  UNL     1      14.187  66.795  21.641  1.00  0.00    -0.359 N 
HETATM   20  C17 UNL     1      13.830  67.293  20.405  1.00  0.00     0.135 C 
ATOM     21  H5  UNL     1      13.910  65.823  21.777  1.00  0.00     0.162 HD
HETATM   22  C18 UNL     1      14.360  68.143  19.397  1.00  0.00     0.161 C 
HETATM   23  C19 UNL     1      13.375  69.339  19.397  1.00  0.00     0.035 C 
HETATM   24  N6  UNL     1      15.602  68.757  19.313  1.00  0.00    -0.338 N 
HETATM   25  C20 UNL     1      14.079  70.467  18.764  1.00  0.00     0.022 C 
HETATM   26  C21 UNL     1      15.344  69.804  18.272  1.00  0.00     0.127 C 
HETATM   27  C22 UNL     1      16.836  68.574  19.934  1.00  0.00     0.243 C 
HETATM   28  O3  UNL     1      17.368  69.644  20.430  1.00  0.00    -0.271 OA
HETATM   29  C23 UNL     1      17.671  67.389  20.144  1.00  0.00     0.172 C 
HETATM   30  C24 UNL     1      18.987  67.674  19.389  1.00  0.00     0.042 C 
HETATM   31  N7  UNL     1      17.206  66.146  19.671  1.00  0.00    -0.346 N 
HETATM   32  C25 UNL     1      16.928  65.083  20.586  1.00  0.00     0.241 C 
ATOM     33  H7  UNL     1      17.068  66.005  18.670  1.00  0.00     0.163 HD
HETATM   34  O4  UNL     1      16.224  64.124  20.114  1.00  0.00    -0.271 OA
BRANCH  18  35
HETATM   35  C13 UNL     1      13.762  67.613  23.847  1.00  0.00     0.035 C 
BRANCH  35  36
HETATM   36  C14 UNL     1      12.677  66.612  23.800  1.00  0.00     0.004 C 
BRANCH  36  37
HETATM   37  C15 UNL     1      11.327  67.219  23.952  1.00  0.00     0.027 C 
BRANCH  37  38
HETATM   38  C16 UNL     1      10.418  67.223  22.783  1.00  0.00     0.229 C 
BRANCH  38  39
HETATM   39  N4  UNL     1      10.519  66.111  21.907  1.00  0.00    -0.079 N 
ATOM     40  H43 UNL     1      11.444  66.092  21.479  1.00  0.00     0.274 HD
ATOM     41  H42 UNL     1      10.548  65.247  22.448  1.00  0.00     0.274 HD
ATOM     42  H41 UNL     1       9.803  66.040  21.184  1.00  0.00     0.274 HD
ENDBRANCH  38  39
ENDBRANCH  37  38
ENDBRANCH  36  37
ENDBRANCH  35  36
ENDBRANCH  18  35
BRANCH  20  43
HETATM   43  O2  UNL     1      12.646  66.857  20.028  1.00  0.00    -0.348 OA
ATOM     44  H2  UNL     1      12.664  66.513  19.143  1.00  0.00     0.219 HD
ENDBRANCH  20  43
ENDBRANCH  12  13
ENDBRANCH  11  12
ENDBRANCH  10  11
ENDBRANCH   9  10
ENDBRANCH   3   4
TORSDOF 11
ENDMDL
