MODEL 1
REMARK VINA RESULT: -6.938397197      0.000      0.000
REMARK  11 active torsions:
REMARK  status: ('A' for Active; 'I' for Inactive)
REMARK       I    between atoms: N1_2  and  C2_4 
REMARK    1  A    between atoms: C2_4  and  C3_6 
REMARK    2  A    between atoms: C4_7  and  C5_8 
REMARK    3  A    between atoms: C5_8  and  C6_9 
REMARK       I    between atoms: C6_9  and  N2_11 
REMARK       I    between atoms: N5_16  and  C8_17 
REMARK       I    between atoms: C8_17  and  N6_19 
REMARK    4  A    between atoms: N6_19  and  C9_21 
REMARK    5  A    between atoms: N7_24  and  C12_25 
REMARK    6  A    between atoms: C12_25  and  O4_26 
REMARK    7  A    between atoms: C12_25  and  C13_28 
REMARK    8  A    between atoms: C17_32  and  C18_33 
REMARK    9  A    between atoms: C18_33  and  C19_34 
REMARK   10  A    between atoms: C19_34  and  C20_35 
REMARK   11  A    between atoms: C20_35  and  N8_36 
ROOT
HETATM    1  C3  UNL     1      14.426  66.038  22.433  1.00  0.00     0.128 C 
HETATM    2  C4  UNL     1      15.644  65.695  21.546  1.00  0.00     0.137 C 
HETATM    3  N5  UNL     1      15.665  66.945  20.778  1.00  0.00    -0.232 N 
HETATM    4  C8  UNL     1      16.764  67.763  20.552  1.00  0.00     0.338 C 
HETATM    5  O3  UNL     1      17.905  67.309  20.914  1.00  0.00    -0.245 OA
HETATM    6  N6  UNL     1      16.806  69.050  19.983  1.00  0.00    -0.338 N 
ATOM      7  H6  UNL     1      15.941  69.493  19.673  1.00  0.00     0.164 HD
HETATM    8  N7  UNL     1      14.323  67.077  20.328  1.00  0.00    -0.262 N 
HETATM    9  C17 UNL     1      13.562  66.829  21.560  1.00  0.00     0.126 C 
ENDROOT
BRANCH   2  10
HETATM   10  C5  UNL     1      16.861  65.367  22.289  1.00  0.00     0.131 C 
BRANCH  10  11
HETATM   11  C6  UNL     1      16.836  63.959  22.781  1.00  0.00     0.225 C 
HETATM   12  O2  UNL     1      16.072  63.083  22.324  1.00  0.00    -0.273 OA
HETATM   13  N2  UNL     1      17.728  63.605  23.820  1.00  0.00    -0.304 N 
HETATM   14  C7  UNL     1      18.538  62.610  23.804  1.00  0.00     0.203 C 
ATOM     15  H2  UNL     1      17.727  64.192  24.655  1.00  0.00     0.171 HD
HETATM   16  N3  UNL     1      18.643  61.713  22.713  1.00  0.00    -0.066 NA
HETATM   17  N4  UNL     1      19.366  62.395  24.937  1.00  0.00    -0.066 NA
ENDBRANCH  10  11
ENDBRANCH   2  10
BRANCH   1  18
HETATM   18  C2  UNL     1      14.985  66.747  23.604  1.00  0.00     0.225 C 
HETATM   19  N1  UNL     1      15.648  67.974  23.625  1.00  0.00    -0.365 N 
HETATM   20  C1  UNL     1      16.140  68.546  24.848  1.00  0.00     0.149 C 
ATOM     21  H1  UNL     1      15.788  68.477  22.749  1.00  0.00     0.161 HD
HETATM   22  O1  UNL     1      14.835  66.154  24.725  1.00  0.00    -0.273 OA
ENDBRANCH   1  18
BRANCH   9  23
HETATM   23  C18 UNL     1      12.884  68.031  22.065  1.00  0.00     0.030 C 
BRANCH  23  24
HETATM   24  C19 UNL     1      11.437  68.152  21.751  1.00  0.00     0.022 C 
BRANCH  24  25
HETATM   25  C20 UNL     1      10.759  66.899  22.314  1.00  0.00     0.122 C 
BRANCH  25  26
HETATM   26  N8  UNL     1       9.683  67.262  23.217  1.00  0.00    -0.367 N 
HETATM   27  C21 UNL     1       9.938  67.151  24.489  1.00  0.00     0.196 C 
HETATM   28  N9  UNL     1      11.196  66.703  24.987  1.00  0.00    -0.067 NA
HETATM   29  N10 UNL     1       8.952  67.477  25.458  1.00  0.00    -0.067 NA
ATOM     30  H8  UNL     1       8.777  67.586  22.875  1.00  0.00     0.161 HD
ENDBRANCH  25  26
ENDBRANCH  24  25
ENDBRANCH  23  24
ENDBRANCH   9  23
BRANCH   8  31
HETATM   31  C12 UNL     1      13.825  67.267  19.035  1.00  0.00     0.141 C 
BRANCH  31  32
HETATM   32  O4  UNL     1      13.842  66.188  18.281  1.00  0.00    -0.348 OA
ATOM     33  H4  UNL     1      12.986  65.815  18.110  1.00  0.00     0.219 HD
ENDBRANCH  31  32
BRANCH  31  34
HETATM   34  C13 UNL     1      13.290  68.416  18.327  1.00  0.00     0.015 C 
HETATM   35  C14 UNL     1      13.601  69.762  18.872  1.00  0.00     0.023 C 
HETATM   36  C15 UNL     1      13.976  68.450  16.891  1.00  0.00     0.023 C 
HETATM   37  C16 UNL     1      11.838  68.314  17.964  1.00  0.00     0.023 C 
ENDBRANCH  31  34
ENDBRANCH   8  31
BRANCH   6  38
HETATM   38  C9  UNL     1      18.052  69.742  19.835  1.00  0.00     0.078 C 
HETATM   39  C10 UNL     1      18.506  69.784  18.400  1.00  0.00     0.032 C 
HETATM   40  C11 UNL     1      17.972  71.166  20.361  1.00  0.00     0.032 C 
ENDBRANCH   6  38
TORSDOF 11
ENDMDL
MODEL 2
REMARK VINA RESULT: -6.914970054      5.098      9.314
REMARK  11 active torsions:
REMARK  status: ('A' for Active; 'I' for Inactive)
REMARK       I    between atoms: N1_2  and  C2_4 
REMARK    1  A    between atoms: C2_4  and  C3_6 
REMARK    2  A    between atoms: C4_7  and  C5_8 
REMARK    3  A    between atoms: C5_8  and  C6_9 
REMARK       I    between atoms: C6_9  and  N2_11 
REMARK       I    between atoms: N5_16  and  C8_17 
REMARK       I    between atoms: C8_17  and  N6_19 
REMARK    4  A    between atoms: N6_19  and  C9_21 
REMARK    5  A    between atoms: N7_24  and  C12_25 
REMARK    6  A    between atoms: C12_25  and  O4_26 
REMARK    7  A    between atoms: C12_25  and  C13_28 
REMARK    8  A    between atoms: C17_32  and  C18_33 
REMARK    9  A    between atoms: C18_33  and  C19_34 
REMARK   10  A    between atoms: C19_34  and  C20_35 
REMARK   11  A    between atoms: C20_35  and  N8_36 
ROOT
HETATM    1  C3  UNL     1      18.694  64.884  26.858  1.00  0.00     0.128 C 
HETATM    2  C4  UNL     1      18.133  63.445  26.816  1.00  0.00     0.137 C 
HETATM    3  N5  UNL     1      16.888  63.716  27.542  1.00  0.00    -0.232 N 
HETATM    4  C8  UNL     1      15.604  63.353  27.155  1.00  0.00     0.338 C 
HETATM    5  O3  UNL     1      15.506  62.570  26.147  1.00  0.00    -0.245 OA
HETATM    6  N6  UNL     1      14.371  63.738  27.713  1.00  0.00    -0.338 N 
ATOM      7  H6  UNL     1      14.355  64.368  28.516  1.00  0.00     0.164 HD
HETATM    8  N7  UNL     1      17.329  64.400  28.707  1.00  0.00    -0.262 N 
HETATM    9  C17 UNL     1      18.242  65.405  28.144  1.00  0.00     0.126 C 
ENDROOT
BRANCH   2  10
HETATM   10  C5  UNL     1      17.995  62.888  25.470  1.00  0.00     0.131 C 
BRANCH  10  11
HETATM   11  C6  UNL     1      19.147  62.007  25.123  1.00  0.00     0.225 C 
HETATM   12  O2  UNL     1      20.338  62.311  25.346  1.00  0.00    -0.273 OA
HETATM   13  N2  UNL     1      18.868  60.763  24.510  1.00  0.00    -0.304 N 
HETATM   14  C7  UNL     1      19.305  59.621  24.901  1.00  0.00     0.203 C 
ATOM     15  H2  UNL     1      18.268  60.775  23.684  1.00  0.00     0.171 HD
HETATM   16  N3  UNL     1      20.146  59.458  26.029  1.00  0.00    -0.066 NA
HETATM   17  N4  UNL     1      18.929  58.467  24.166  1.00  0.00    -0.066 NA
ENDBRANCH  10  11
ENDBRANCH   2  10
BRANCH   1  18
HETATM   18  C2  UNL     1      18.142  65.552  25.659  1.00  0.00     0.225 C 
HETATM   19  N1  UNL     1      16.811  65.872  25.395  1.00  0.00    -0.365 N 
HETATM   20  C1  UNL     1      16.418  66.527  24.178  1.00  0.00     0.149 C 
ATOM     21  H1  UNL     1      16.097  65.634  26.084  1.00  0.00     0.161 HD
HETATM   22  O1  UNL     1      18.999  65.869  24.767  1.00  0.00    -0.273 OA
ENDBRANCH   1  18
BRANCH   9  23
HETATM   23  C18 UNL     1      17.722  66.776  28.258  1.00  0.00     0.030 C 
BRANCH  23  24
HETATM   24  C19 UNL     1      18.308  67.614  29.335  1.00  0.00     0.022 C 
BRANCH  24  25
HETATM   25  C20 UNL     1      19.109  68.722  28.643  1.00  0.00     0.122 C 
BRANCH  25  26
HETATM   26  N8  UNL     1      20.454  68.269  28.340  1.00  0.00    -0.367 N 
HETATM   27  C21 UNL     1      20.828  68.372  27.098  1.00  0.00     0.196 C 
HETATM   28  N9  UNL     1      19.983  68.900  26.078  1.00  0.00    -0.067 NA
HETATM   29  N10 UNL     1      22.124  67.954  26.693  1.00  0.00    -0.067 NA
ATOM     30  H8  UNL     1      21.071  67.890  29.060  1.00  0.00     0.161 HD
ENDBRANCH  25  26
ENDBRANCH  24  25
ENDBRANCH  23  24
ENDBRANCH   9  23
BRANCH   8  31
HETATM   31  C12 UNL     1      17.077  64.129  30.056  1.00  0.00     0.141 C 
BRANCH  31  32
HETATM   32  O4  UNL     1      17.992  63.388  30.643  1.00  0.00    -0.348 OA
ATOM     33  H4  UNL     1      17.682  62.906  31.400  1.00  0.00     0.219 HD
ENDBRANCH  31  32
BRANCH  31  34
HETATM   34  C13 UNL     1      16.003  64.487  30.965  1.00  0.00     0.015 C 
HETATM   35  C14 UNL     1      15.062  65.550  30.529  1.00  0.00     0.023 C 
HETATM   36  C15 UNL     1      15.057  63.214  31.106  1.00  0.00     0.023 C 
HETATM   37  C16 UNL     1      16.427  64.704  32.388  1.00  0.00     0.023 C 
ENDBRANCH  31  34
ENDBRANCH   8  31
BRANCH   6  38
HETATM   38  C9  UNL     1      13.139  63.253  27.165  1.00  0.00     0.078 C 
HETATM   39  C10 UNL     1      12.516  62.192  28.032  1.00  0.00     0.032 C 
HETATM   40  C11 UNL     1      12.131  64.373  26.967  1.00  0.00     0.032 C 
ENDBRANCH   6  38
TORSDOF 11
ENDMDL
MODEL 3
REMARK VINA RESULT: -6.863462022      1.248      1.329
REMARK  11 active torsions:
REMARK  status: ('A' for Active; 'I' for Inactive)
REMARK       I    between atoms: N1_2  and  C2_4 
REMARK    1  A    between atoms: C2_4  and  C3_6 
REMARK    2  A    between atoms: C4_7  and  C5_8 
REMARK    3  A    between atoms: C5_8  and  C6_9 
REMARK       I    between atoms: C6_9  and  N2_11 
REMARK       I    between atoms: N5_16  and  C8_17 
REMARK       I    between atoms: C8_17  and  N6_19 
REMARK    4  A    between atoms: N6_19  and  C9_21 
REMARK    5  A    between atoms: N7_24  and  C12_25 
REMARK    6  A    between atoms: C12_25  and  O4_26 
REMARK    7  A    between atoms: C12_25  and  C13_28 
REMARK    8  A    between atoms: C17_32  and  C18_33 
REMARK    9  A    between atoms: C18_33  and  C19_34 
REMARK   10  A    between atoms: C19_34  and  C20_35 
REMARK   11  A    between atoms: C20_35  and  N8_36 
ROOT
HETATM    1  C3  UNL     1      13.153  66.192  22.609  1.00  0.00     0.128 C 
HETATM    2  C4  UNL     1      14.559  65.772  22.123  1.00  0.00     0.137 C 
HETATM    3  N5  UNL     1      14.863  66.995  21.373  1.00  0.00    -0.232 N 
HETATM    4  C8  UNL     1      16.018  67.760  21.464  1.00  0.00     0.338 C 
HETATM    5  O3  UNL     1      16.981  67.270  22.151  1.00  0.00    -0.245 OA
HETATM    6  N6  UNL     1      16.286  69.025  20.908  1.00  0.00    -0.338 N 
ATOM      7  H6  UNL     1      15.571  69.494  20.351  1.00  0.00     0.164 HD
HETATM    8  N7  UNL     1      13.718  67.168  20.549  1.00  0.00    -0.262 N 
HETATM    9  C17 UNL     1      12.620  66.990  21.509  1.00  0.00     0.126 C 
ENDROOT
BRANCH   2  10
HETATM   10  C5  UNL     1      15.490  65.417  23.195  1.00  0.00     0.131 C 
BRANCH  10  11
HETATM   11  C6  UNL     1      15.968  64.011  23.058  1.00  0.00     0.225 C 
HETATM   12  O2  UNL     1      16.259  63.485  21.963  1.00  0.00    -0.273 OA
HETATM   13  N2  UNL     1      16.096  63.237  24.237  1.00  0.00    -0.304 N 
HETATM   14  C7  UNL     1      17.140  62.582  24.591  1.00  0.00     0.203 C 
ATOM     15  H2  UNL     1      15.287  63.197  24.858  1.00  0.00     0.171 HD
HETATM   16  N3  UNL     1      18.331  62.547  23.825  1.00  0.00    -0.066 NA
HETATM   17  N4  UNL     1      17.099  61.852  25.808  1.00  0.00    -0.066 NA
ENDBRANCH  10  11
ENDBRANCH   2  10
BRANCH   1  18
HETATM   18  C2  UNL     1      13.381  66.913  23.880  1.00  0.00     0.225 C 
HETATM   19  N1  UNL     1      13.917  68.189  24.056  1.00  0.00    -0.365 N 
HETATM   20  C1  UNL     1      14.080  68.768  25.361  1.00  0.00     0.149 C 
ATOM     21  H1  UNL     1      14.201  68.725  23.236  1.00  0.00     0.161 HD
HETATM   22  O1  UNL     1      13.041  66.281  24.936  1.00  0.00    -0.273 OA
ENDBRANCH   1  18
BRANCH   9  23
HETATM   23  C18 UNL     1      11.884  68.234  21.772  1.00  0.00     0.030 C 
BRANCH  23  24
HETATM   24  C19 UNL     1      10.477  68.279  21.299  1.00  0.00     0.022 C 
BRANCH  24  25
HETATM   25  C20 UNL     1       9.618  68.656  22.511  1.00  0.00     0.122 C 
BRANCH  25  26
HETATM   26  N8  UNL     1       9.441  67.513  23.388  1.00  0.00    -0.367 N 
HETATM   27  C21 UNL     1       9.803  67.680  24.627  1.00  0.00     0.196 C 
HETATM   28  N9  UNL     1      10.342  68.906  25.116  1.00  0.00    -0.067 NA
HETATM   29  N10 UNL     1       9.676  66.624  25.568  1.00  0.00    -0.067 NA
ATOM     30  H8  UNL     1       9.055  66.630  23.053  1.00  0.00     0.161 HD
ENDBRANCH  25  26
ENDBRANCH  24  25
ENDBRANCH  23  24
ENDBRANCH   9  23
BRANCH   8  31
HETATM   31  C12 UNL     1      13.627  67.338  19.163  1.00  0.00     0.141 C 
BRANCH  31  32
HETATM   32  O4  UNL     1      13.969  66.278  18.461  1.00  0.00    -0.348 OA
ATOM     33  H4  UNL     1      13.783  66.346  17.532  1.00  0.00     0.219 HD
ENDBRANCH  31  32
BRANCH  31  34
HETATM   34  C13 UNL     1      13.239  68.450  18.315  1.00  0.00     0.015 C 
HETATM   35  C14 UNL     1      13.586  69.818  18.776  1.00  0.00     0.023 C 
HETATM   36  C15 UNL     1      14.056  68.317  16.955  1.00  0.00     0.023 C 
HETATM   37  C16 UNL     1      11.823  68.401  17.820  1.00  0.00     0.023 C 
ENDBRANCH  31  34
ENDBRANCH   8  31
BRANCH   6  38
HETATM   38  C9  UNL     1      17.554  69.661  21.118  1.00  0.00     0.078 C 
HETATM   39  C10 UNL     1      18.440  69.564  19.905  1.00  0.00     0.032 C 
HETATM   40  C11 UNL     1      17.395  71.126  21.489  1.00  0.00     0.032 C 
ENDBRANCH   6  38
TORSDOF 11
ENDMDL
MODEL 4
REMARK VINA RESULT: -6.819578250      1.211      1.522
REMARK  11 active torsions:
REMARK  status: ('A' for Active; 'I' for Inactive)
REMARK       I    between atoms: N1_2  and  C2_4 
REMARK    1  A    between atoms: C2_4  and  C3_6 
REMARK    2  A    between atoms: C4_7  and  C5_8 
REMARK    3  A    between atoms: C5_8  and  C6_9 
REMARK       I    between atoms: C6_9  and  N2_11 
REMARK       I    between atoms: N5_16  and  C8_17 
REMARK       I    between atoms: C8_17  and  N6_19 
REMARK    4  A    between atoms: N6_19  and  C9_21 
REMARK    5  A    between atoms: N7_24  and  C12_25 
REMARK    6  A    between atoms: C12_25  and  O4_26 
REMARK    7  A    between atoms: C12_25  and  C13_28 
REMARK    8  A    between atoms: C17_32  and  C18_33 
REMARK    9  A    between atoms: C18_33  and  C19_34 
REMARK   10  A    between atoms: C19_34  and  C20_35 
REMARK   11  A    between atoms: C20_35  and  N8_36 
ROOT
HETATM    1  C3  UNL     1      14.729  65.793  22.285  1.00  0.00     0.128 C 
HETATM    2  C4  UNL     1      15.914  65.671  21.301  1.00  0.00     0.137 C 
HETATM    3  N5  UNL     1      15.757  66.985  20.666  1.00  0.00    -0.232 N 
HETATM    4  C8  UNL     1      16.750  67.934  20.466  1.00  0.00     0.338 C 
HETATM    5  O3  UNL     1      17.953  67.572  20.714  1.00  0.00    -0.245 OA
HETATM    6  N6  UNL     1      16.624  69.267  20.031  1.00  0.00    -0.338 N 
ATOM      7  H6  UNL     1      15.700  69.643  19.817  1.00  0.00     0.164 HD
HETATM    8  N7  UNL     1      14.382  67.014  20.309  1.00  0.00    -0.262 N 
HETATM    9  C17 UNL     1      13.733  66.567  21.549  1.00  0.00     0.126 C 
ENDROOT
BRANCH   2  10
HETATM   10  C5  UNL     1      17.205  65.405  21.937  1.00  0.00     0.131 C 
BRANCH  10  11
HETATM   11  C6  UNL     1      17.496  63.943  21.986  1.00  0.00     0.225 C 
HETATM   12  O2  UNL     1      18.226  63.357  21.160  1.00  0.00    -0.273 OA
HETATM   13  N2  UNL     1      16.910  63.187  23.029  1.00  0.00    -0.304 N 
HETATM   14  C7  UNL     1      17.538  62.400  23.826  1.00  0.00     0.203 C 
ATOM     15  H2  UNL     1      15.902  63.274  23.159  1.00  0.00     0.171 HD
HETATM   16  N3  UNL     1      18.936  62.181  23.759  1.00  0.00    -0.066 NA
HETATM   17  N4  UNL     1      16.794  61.711  24.819  1.00  0.00    -0.066 NA
ENDBRANCH  10  11
ENDBRANCH   2  10
BRANCH   1  18
HETATM   18  C2  UNL     1      15.290  66.441  23.491  1.00  0.00     0.225 C 
HETATM   19  N1  UNL     1      15.656  67.777  23.652  1.00  0.00    -0.365 N 
HETATM   20  C1  UNL     1      16.191  68.271  24.891  1.00  0.00     0.149 C 
ATOM     21  H1  UNL     1      15.541  68.421  22.869  1.00  0.00     0.161 HD
HETATM   22  O1  UNL     1      15.453  65.674  24.498  1.00  0.00    -0.273 OA
ENDBRANCH   1  18
BRANCH   9  23
HETATM   23  C18 UNL     1      12.972  67.636  22.213  1.00  0.00     0.030 C 
BRANCH  23  24
HETATM   24  C19 UNL     1      11.734  67.219  22.920  1.00  0.00     0.022 C 
BRANCH  24  25
HETATM   25  C20 UNL     1      10.603  67.262  21.888  1.00  0.00     0.122 C 
BRANCH  25  26
HETATM   26  N8  UNL     1       9.472  68.014  22.399  1.00  0.00    -0.367 N 
HETATM   27  C21 UNL     1       9.297  69.202  21.895  1.00  0.00     0.196 C 
HETATM   28  N9  UNL     1      10.155  69.751  20.897  1.00  0.00    -0.067 NA
HETATM   29  N10 UNL     1       8.222  70.023  22.328  1.00  0.00    -0.067 NA
ATOM     30  H8  UNL     1       8.849  67.634  23.112  1.00  0.00     0.161 HD
ENDBRANCH  25  26
ENDBRANCH  24  25
ENDBRANCH  23  24
ENDBRANCH   9  23
BRANCH   8  31
HETATM   31  C12 UNL     1      13.782  67.274  19.072  1.00  0.00     0.141 C 
BRANCH  31  32
HETATM   32  O4  UNL     1      13.665  66.221  18.292  1.00  0.00    -0.348 OA
ATOM     33  H4  UNL     1      14.373  66.113  17.668  1.00  0.00     0.219 HD
ENDBRANCH  31  32
BRANCH  31  34
HETATM   34  C13 UNL     1      13.259  68.475  18.446  1.00  0.00     0.015 C 
HETATM   35  C14 UNL     1      13.439  69.759  19.170  1.00  0.00     0.023 C 
HETATM   36  C15 UNL     1      14.082  68.709  17.104  1.00  0.00     0.023 C 
HETATM   37  C16 UNL     1      11.859  68.354  17.921  1.00  0.00     0.023 C 
ENDBRANCH  31  34
ENDBRANCH   8  31
BRANCH   6  38
HETATM   38  C9  UNL     1      17.781  70.100  19.886  1.00  0.00     0.078 C 
HETATM   39  C10 UNL     1      17.983  70.540  18.461  1.00  0.00     0.032 C 
HETATM   40  C11 UNL     1      17.701  71.334  20.769  1.00  0.00     0.032 C 
ENDBRANCH   6  38
TORSDOF 11
ENDMDL
MODEL 5
REMARK VINA RESULT: -6.797548955      3.463      6.553
REMARK  11 active torsions:
REMARK  status: ('A' for Active; 'I' for Inactive)
REMARK       I    between atoms: N1_2  and  C2_4 
REMARK    1  A    between atoms: C2_4  and  C3_6 
REMARK    2  A    between atoms: C4_7  and  C5_8 
REMARK    3  A    between atoms: C5_8  and  C6_9 
REMARK       I    between atoms: C6_9  and  N2_11 
REMARK       I    between atoms: N5_16  and  C8_17 
REMARK       I    between atoms: C8_17  and  N6_19 
REMARK    4  A    between atoms: N6_19  and  C9_21 
REMARK    5  A    between atoms: N7_24  and  C12_25 
REMARK    6  A    between atoms: C12_25  and  O4_26 
REMARK    7  A    between atoms: C12_25  and  C13_28 
REMARK    8  A    between atoms: C17_32  and  C18_33 
REMARK    9  A    between atoms: C18_33  and  C19_34 
REMARK   10  A    between atoms: C19_34  and  C20_35 
REMARK   11  A    between atoms: C20_35  and  N8_36 
ROOT
HETATM    1  C3  UNL     1      17.870  63.774  26.121  1.00  0.00     0.128 C 
HETATM    2  C4  UNL     1      17.439  63.007  24.851  1.00  0.00     0.137 C 
HETATM    3  N5  UNL     1      16.836  64.146  24.149  1.00  0.00    -0.232 N 
HETATM    4  C8  UNL     1      17.080  64.538  22.839  1.00  0.00     0.338 C 
HETATM    5  O3  UNL     1      17.777  63.741  22.119  1.00  0.00    -0.245 OA
HETATM    6  N6  UNL     1      16.672  65.711  22.178  1.00  0.00    -0.338 N 
ATOM      7  H6  UNL     1      16.118  66.407  22.679  1.00  0.00     0.164 HD
HETATM    8  N7  UNL     1      15.959  64.702  25.119  1.00  0.00    -0.262 N 
HETATM    9  C17 UNL     1      16.821  64.774  26.306  1.00  0.00     0.126 C 
ENDROOT
BRANCH   2  10
HETATM   10  C5  UNL     1      18.530  62.319  24.160  1.00  0.00     0.131 C 
BRANCH  10  11
HETATM   11  C6  UNL     1      18.223  60.873  23.961  1.00  0.00     0.225 C 
HETATM   12  O2  UNL     1      17.539  60.437  23.011  1.00  0.00    -0.273 OA
HETATM   13  N2  UNL     1      18.737  59.952  24.905  1.00  0.00    -0.304 N 
HETATM   14  C7  UNL     1      19.413  58.897  24.627  1.00  0.00     0.203 C 
ATOM     15  H2  UNL     1      18.554  60.143  25.890  1.00  0.00     0.171 HD
HETATM   16  N3  UNL     1      19.739  58.509  23.305  1.00  0.00    -0.066 NA
HETATM   17  N4  UNL     1      19.853  58.076  25.699  1.00  0.00    -0.066 NA
ENDBRANCH  10  11
ENDBRANCH   2  10
BRANCH   1  18
HETATM   18  C2  UNL     1      19.219  64.300  25.819  1.00  0.00     0.225 C 
HETATM   19  N1  UNL     1      20.436  63.899  26.367  1.00  0.00    -0.365 N 
HETATM   20  C1  UNL     1      21.679  64.504  25.974  1.00  0.00     0.149 C 
ATOM     21  H1  UNL     1      20.445  63.156  27.067  1.00  0.00     0.161 HD
HETATM   22  O1  UNL     1      19.259  65.233  24.948  1.00  0.00    -0.273 OA
ENDBRANCH   1  18
BRANCH   9  23
HETATM   23  C18 UNL     1      17.158  66.153  26.686  1.00  0.00     0.030 C 
BRANCH  23  24
HETATM   24  C19 UNL     1      17.158  66.454  28.141  1.00  0.00     0.022 C 
BRANCH  24  25
HETATM   25  C20 UNL     1      18.619  66.399  28.600  1.00  0.00     0.122 C 
BRANCH  25  26
HETATM   26  N8  UNL     1      18.699  66.103  30.018  1.00  0.00    -0.367 N 
HETATM   27  C21 UNL     1      18.956  64.866  30.333  1.00  0.00     0.196 C 
HETATM   28  N9  UNL     1      19.154  63.846  29.357  1.00  0.00    -0.067 NA
HETATM   29  N10 UNL     1      19.052  64.469  31.693  1.00  0.00    -0.067 NA
ATOM     30  H8  UNL     1      18.561  66.823  30.729  1.00  0.00     0.161 HD
ENDBRANCH  25  26
ENDBRANCH  24  25
ENDBRANCH  23  24
ENDBRANCH   9  23
BRANCH   8  31
HETATM   31  C12 UNL     1      14.594  64.997  25.030  1.00  0.00     0.141 C 
BRANCH  31  32
HETATM   32  O4  UNL     1      13.809  64.121  25.620  1.00  0.00    -0.348 OA
ATOM     33  H4  UNL     1      12.881  64.296  25.520  1.00  0.00     0.219 HD
ENDBRANCH  31  32
BRANCH  31  34
HETATM   34  C13 UNL     1      13.841  66.072  24.411  1.00  0.00     0.015 C 
HETATM   35  C14 UNL     1      13.266  65.821  23.065  1.00  0.00     0.023 C 
HETATM   36  C15 UNL     1      12.549  66.323  25.306  1.00  0.00     0.023 C 
HETATM   37  C16 UNL     1      14.505  67.417  24.461  1.00  0.00     0.023 C 
ENDBRANCH  31  34
ENDBRANCH   8  31
BRANCH   6  38
HETATM   38  C9  UNL     1      17.029  65.939  20.808  1.00  0.00     0.078 C 
HETATM   39  C10 UNL     1      15.852  65.771  19.885  1.00  0.00     0.032 C 
HETATM   40  C11 UNL     1      17.616  67.325  20.601  1.00  0.00     0.032 C 
ENDBRANCH   6  38
TORSDOF 11
ENDMDL
