MODEL 1
REMARK VINA RESULT: -7.830180720      0.000      0.000
REMARK  8 active torsions:
REMARK  status: ('A' for Active; 'I' for Inactive)
REMARK    1  A    between atoms: C2_2  and  C3_3 
REMARK    2  A    between atoms: C3_3  and  C4_4 
REMARK    3  A    between atoms: C3_3  and  N3_14 
REMARK    4  A    between atoms: C4_4  and  N1_5 
REMARK       I    between atoms: N3_14  and  C9_16 
REMARK    5  A    between atoms: C9_16  and  C10_18 
REMARK    6  A    between atoms: C10_18  and  C11_19 
REMARK    7  A    between atoms: C10_18  and  N8_35 
REMARK    8  A    between atoms: C11_19  and  C12_20 
REMARK       I    between atoms: N5_25  and  C15_26 
REMARK       I    between atoms: C15_26  and  N6_28 
REMARK       I    between atoms: N8_35  and  C21_37 
ROOT
HETATM    1  C10 UNL     1      17.747  64.194  22.551  1.00  0.00     0.085 C 
ENDROOT
BRANCH   1   2
HETATM    2  C9  UNL     1      17.608  64.459  21.124  1.00  0.00     0.264 C 
HETATM    3  N3  UNL     1      16.841  65.561  20.660  1.00  0.00    -0.350 N 
ATOM      4  H3  UNL     1      16.386  66.168  21.341  1.00  0.00     0.163 HD
HETATM    5  O2  UNL     1      18.147  63.743  20.263  1.00  0.00    -0.266 OA
BRANCH   3   6
HETATM    6  C3  UNL     1      16.684  65.851  19.241  1.00  0.00     0.103 C 
BRANCH   6   7
HETATM    7  C2  UNL     1      17.169  67.250  18.917  1.00  0.00     0.022 C 
HETATM    8  C1  UNL     1      18.662  67.228  18.580  1.00  0.00     0.007 C 
ENDBRANCH   6   7
BRANCH   6   9
HETATM    9  C4  UNL     1      15.292  65.600  18.763  1.00  0.00     0.167 C 
BRANCH   9  10
HETATM   10  N1  UNL     1      14.372  66.657  19.125  1.00  0.00    -0.269 N 
HETATM   11  S1  UNL     1      13.596  67.782  17.976  1.00  0.00    -0.018 SA
HETATM   12  C5  UNL     1      12.816  68.828  19.238  1.00  0.00     0.095 C 
HETATM   13  C6  UNL     1      13.236  70.253  18.956  1.00  0.00     0.052 C 
HETATM   14  C7  UNL     1      11.306  68.690  19.221  1.00  0.00     0.052 C 
HETATM   15  N2  UNL     1      13.332  68.305  20.453  1.00  0.00    -0.323 N 
HETATM   16  C8  UNL     1      13.892  67.036  20.382  1.00  0.00     0.329 C 
ATOM     17  H2  UNL     1      13.293  68.830  21.327  1.00  0.00     0.166 HD
HETATM   18  O1  UNL     1      13.981  66.240  21.378  1.00  0.00    -0.246 OA
ENDBRANCH   9  10
ENDBRANCH   6   9
ENDBRANCH   3   6
ENDBRANCH   1   2
BRANCH   1  19
HETATM   19  C11 UNL     1      17.490  65.377  23.457  1.00  0.00     0.122 C 
BRANCH  19  20
HETATM   20  C12 UNL     1      17.838  65.117  24.865  1.00  0.00     0.043 A 
HETATM   21  C13 UNL     1      19.141  65.308  25.364  1.00  0.00     0.115 A 
HETATM   22  N4  UNL     1      19.161  65.020  26.647  1.00  0.00    -0.360 N 
HETATM   23  C14 UNL     1      17.928  64.646  27.026  1.00  0.00     0.193 A 
ATOM     24  H4  UNL     1      19.978  65.073  27.255  1.00  0.00     0.166 HD
HETATM   25  N5  UNL     1      17.118  64.707  25.937  1.00  0.00    -0.263 N 
HETATM   26  C15 UNL     1      15.734  64.437  25.864  1.00  0.00     0.331 C 
HETATM   27  O3  UNL     1      15.120  64.571  24.733  1.00  0.00    -0.246 OA
HETATM   28  N6  UNL     1      14.898  64.024  26.909  1.00  0.00    -0.307 N 
HETATM   29  C16 UNL     1      13.437  63.769  26.702  1.00  0.00     0.157 C 
HETATM   30  C20 UNL     1      15.168  63.766  28.279  1.00  0.00     0.365 C 
HETATM   31  C17 UNL     1      13.116  62.879  27.871  1.00  0.00     0.258 C 
HETATM   32  N7  UNL     1      13.940  63.403  28.945  1.00  0.00    -0.057 N 
HETATM   33  C18 UNL     1      13.355  64.553  29.564  1.00  0.00     0.274 C 
HETATM   34  C19 UNL     1      14.183  62.314  29.886  1.00  0.00     0.274 C 
ENDBRANCH  19  20
ENDBRANCH   1  19
BRANCH   1  35
HETATM   35  N8  UNL     1      17.286  62.926  22.933  1.00  0.00    -0.329 N 
HETATM   36  C21 UNL     1      17.908  61.851  23.571  1.00  0.00     0.186 C 
HETATM   37  N9  UNL     1      17.336  60.699  23.620  1.00  0.00    -0.374 N 
HETATM   38  N10 UNL     1      19.169  61.954  24.181  1.00  0.00    -0.064 NA
ATOM     39  H92 UNL     1      16.420  60.624  23.178  1.00  0.00     0.158 HD
ATOM     40  H91 UNL     1      17.790  59.914  24.086  1.00  0.00     0.158 HD
ATOM     41  H8  UNL     1      16.307  62.756  22.700  1.00  0.00     0.168 HD
ENDBRANCH   1  35
TORSDOF 8
ENDMDL
MODEL 2
REMARK VINA RESULT: -7.767535044      2.935      7.584
REMARK  8 active torsions:
REMARK  status: ('A' for Active; 'I' for Inactive)
REMARK    1  A    between atoms: C2_2  and  C3_3 
REMARK    2  A    between atoms: C3_3  and  C4_4 
REMARK    3  A    between atoms: C3_3  and  N3_14 
REMARK    4  A    between atoms: C4_4  and  N1_5 
REMARK       I    between atoms: N3_14  and  C9_16 
REMARK    5  A    between atoms: C9_16  and  C10_18 
REMARK    6  A    between atoms: C10_18  and  C11_19 
REMARK    7  A    between atoms: C10_18  and  N8_35 
REMARK    8  A    between atoms: C11_19  and  C12_20 
REMARK       I    between atoms: N5_25  and  C15_26 
REMARK       I    between atoms: C15_26  and  N6_28 
REMARK       I    between atoms: N8_35  and  C21_37 
ROOT
HETATM    1  C10 UNL     1      17.339  62.205  24.187  1.00  0.00     0.085 C 
ENDROOT
BRANCH   1   2
HETATM    2  C9  UNL     1      15.971  62.679  24.360  1.00  0.00     0.264 C 
HETATM    3  N3  UNL     1      15.597  63.415  25.516  1.00  0.00    -0.350 N 
ATOM      4  H3  UNL     1      16.301  63.609  26.227  1.00  0.00     0.163 HD
HETATM    5  O2  UNL     1      15.084  62.462  23.516  1.00  0.00    -0.266 OA
BRANCH   3   6
HETATM    6  C3  UNL     1      14.238  63.901  25.718  1.00  0.00     0.103 C 
BRANCH   6   7
HETATM    7  C2  UNL     1      13.909  65.009  24.738  1.00  0.00     0.022 C 
HETATM    8  C1  UNL     1      14.193  66.375  25.368  1.00  0.00     0.007 C 
ENDBRANCH   6   7
BRANCH   6   9
HETATM    9  C4  UNL     1      13.982  64.292  27.136  1.00  0.00     0.167 C 
BRANCH   9  10
HETATM   10  N1  UNL     1      12.764  63.718  27.667  1.00  0.00    -0.269 N 
HETATM   11  S1  UNL     1      12.683  62.296  28.745  1.00  0.00    -0.018 SA
HETATM   12  C5  UNL     1      10.873  62.168  28.748  1.00  0.00     0.095 C 
HETATM   13  C6  UNL     1      10.526  60.754  28.341  1.00  0.00     0.052 C 
HETATM   14  C7  UNL     1      10.292  62.504  30.108  1.00  0.00     0.052 C 
HETATM   15  N2  UNL     1      10.479  63.152  27.803  1.00  0.00    -0.323 N 
HETATM   16  C8  UNL     1      11.434  64.108  27.483  1.00  0.00     0.329 C 
ATOM     17  H2  UNL     1       9.549  63.157  27.383  1.00  0.00     0.166 HD
HETATM   18  O1  UNL     1      11.155  65.277  27.046  1.00  0.00    -0.246 OA
ENDBRANCH   9  10
ENDBRANCH   6   9
ENDBRANCH   3   6
ENDBRANCH   1   2
BRANCH   1  19
HETATM   19  C11 UNL     1      18.204  63.045  23.275  1.00  0.00     0.122 C 
BRANCH  19  20
HETATM   20  C12 UNL     1      17.960  64.491  23.414  1.00  0.00     0.043 A 
HETATM   21  C13 UNL     1      18.452  65.235  24.505  1.00  0.00     0.115 A 
HETATM   22  N4  UNL     1      18.105  66.495  24.363  1.00  0.00    -0.360 N 
HETATM   23  C14 UNL     1      17.403  66.625  23.226  1.00  0.00     0.193 A 
ATOM     24  H4  UNL     1      18.332  67.250  25.011  1.00  0.00     0.166 HD
HETATM   25  N5  UNL     1      17.316  65.401  22.644  1.00  0.00    -0.263 N 
HETATM   26  C15 UNL     1      16.702  65.060  21.419  1.00  0.00     0.331 C 
HETATM   27  O3  UNL     1      16.739  63.833  21.012  1.00  0.00    -0.246 OA
HETATM   28  N6  UNL     1      16.026  65.920  20.545  1.00  0.00    -0.307 N 
HETATM   29  C16 UNL     1      15.413  65.433  19.269  1.00  0.00     0.157 C 
HETATM   30  C20 UNL     1      15.766  67.314  20.617  1.00  0.00     0.365 C 
HETATM   31  C17 UNL     1      14.403  66.510  18.985  1.00  0.00     0.258 C 
HETATM   32  N7  UNL     1      15.059  67.728  19.428  1.00  0.00    -0.057 N 
HETATM   33  C18 UNL     1      15.979  68.231  18.456  1.00  0.00     0.274 C 
HETATM   34  C19 UNL     1      14.016  68.689  19.774  1.00  0.00     0.274 C 
ENDBRANCH  19  20
ENDBRANCH   1  19
BRANCH   1  35
HETATM   35  N8  UNL     1      17.897  61.664  25.354  1.00  0.00    -0.329 N 
HETATM   36  C21 UNL     1      19.197  61.664  25.863  1.00  0.00     0.186 C 
HETATM   37  N9  UNL     1      19.510  60.908  26.857  1.00  0.00    -0.374 N 
HETATM   38  N10 UNL     1      20.221  62.466  25.335  1.00  0.00    -0.064 NA
ATOM     39  H92 UNL     1      18.767  60.325  27.241  1.00  0.00     0.158 HD
ATOM     40  H91 UNL     1      20.460  60.907  27.229  1.00  0.00     0.158 HD
ATOM     41  H8  UNL     1      17.223  61.177  25.945  1.00  0.00     0.168 HD
ENDBRANCH   1  35
TORSDOF 8
ENDMDL
MODEL 3
REMARK VINA RESULT: -7.765643664      1.959      2.716
REMARK  8 active torsions:
REMARK  status: ('A' for Active; 'I' for Inactive)
REMARK    1  A    between atoms: C2_2  and  C3_3 
REMARK    2  A    between atoms: C3_3  and  C4_4 
REMARK    3  A    between atoms: C3_3  and  N3_14 
REMARK    4  A    between atoms: C4_4  and  N1_5 
REMARK       I    between atoms: N3_14  and  C9_16 
REMARK    5  A    between atoms: C9_16  and  C10_18 
REMARK    6  A    between atoms: C10_18  and  C11_19 
REMARK    7  A    between atoms: C10_18  and  N8_35 
REMARK    8  A    between atoms: C11_19  and  C12_20 
REMARK       I    between atoms: N5_25  and  C15_26 
REMARK       I    between atoms: C15_26  and  N6_28 
REMARK       I    between atoms: N8_35  and  C21_37 
ROOT
HETATM    1  C10 UNL     1      16.306  62.759  24.069  1.00  0.00     0.085 C 
ENDROOT
BRANCH   1   2
HETATM    2  C9  UNL     1      16.220  63.714  22.971  1.00  0.00     0.264 C 
HETATM    3  N3  UNL     1      15.765  65.041  23.195  1.00  0.00    -0.350 N 
ATOM      4  H3  UNL     1      15.497  65.319  24.140  1.00  0.00     0.163 HD
HETATM    5  O2  UNL     1      16.536  63.414  21.807  1.00  0.00    -0.266 OA
BRANCH   3   6
HETATM    6  C3  UNL     1      15.667  66.018  22.119  1.00  0.00     0.103 C 
BRANCH   6   7
HETATM    7  C2  UNL     1      16.519  67.236  22.414  1.00  0.00     0.022 C 
HETATM    8  C1  UNL     1      17.557  67.438  21.308  1.00  0.00     0.007 C 
ENDBRANCH   6   7
BRANCH   6   9
HETATM    9  C4  UNL     1      14.252  66.369  21.800  1.00  0.00     0.167 C 
BRANCH   9  10
HETATM   10  N1  UNL     1      14.081  66.849  20.445  1.00  0.00    -0.269 N 
HETATM   11  S1  UNL     1      13.453  68.459  19.996  1.00  0.00    -0.018 SA
HETATM   12  C5  UNL     1      13.393  68.144  18.209  1.00  0.00     0.095 C 
HETATM   13  C6  UNL     1      11.989  68.462  17.748  1.00  0.00     0.052 C 
HETATM   14  C7  UNL     1      14.417  68.978  17.462  1.00  0.00     0.052 C 
HETATM   15  N2  UNL     1      13.735  66.769  18.114  1.00  0.00    -0.323 N 
HETATM   16  C8  UNL     1      14.348  66.213  19.228  1.00  0.00     0.329 C 
ATOM     17  H2  UNL     1      13.540  66.221  17.275  1.00  0.00     0.166 HD
HETATM   18  O1  UNL     1      15.112  65.189  19.185  1.00  0.00    -0.246 OA
ENDBRANCH   9  10
ENDBRANCH   6   9
ENDBRANCH   3   6
ENDBRANCH   1   2
BRANCH   1  19
HETATM   19  C11 UNL     1      15.212  62.866  25.107  1.00  0.00     0.122 C 
BRANCH  19  20
HETATM   20  C12 UNL     1      15.720  63.172  26.456  1.00  0.00     0.043 A 
HETATM   21  C13 UNL     1      17.070  63.491  26.696  1.00  0.00     0.115 A 
HETATM   22  N4  UNL     1      17.238  63.737  27.977  1.00  0.00    -0.360 N 
HETATM   23  C14 UNL     1      16.057  63.595  28.602  1.00  0.00     0.193 A 
ATOM     24  H4  UNL     1      18.118  63.992  28.423  1.00  0.00     0.166 HD
HETATM   25  N5  UNL     1      15.129  63.253  27.673  1.00  0.00    -0.263 N 
HETATM   26  C15 UNL     1      13.746  63.033  27.861  1.00  0.00     0.331 C 
HETATM   27  O3  UNL     1      13.007  62.733  26.843  1.00  0.00    -0.246 OA
HETATM   28  N6  UNL     1      13.037  63.105  29.066  1.00  0.00    -0.307 N 
HETATM   29  C16 UNL     1      11.563  62.849  29.135  1.00  0.00     0.157 C 
HETATM   30  C20 UNL     1      13.462  63.401  30.388  1.00  0.00     0.365 C 
HETATM   31  C17 UNL     1      11.381  62.510  30.588  1.00  0.00     0.258 C 
HETATM   32  N7  UNL     1      12.319  63.383  31.270  1.00  0.00    -0.057 N 
HETATM   33  C18 UNL     1      11.804  64.708  31.437  1.00  0.00     0.274 C 
HETATM   34  C19 UNL     1      12.673  62.749  32.536  1.00  0.00     0.274 C 
ENDBRANCH  19  20
ENDBRANCH   1  19
BRANCH   1  35
HETATM   35  N8  UNL     1      16.754  61.490  23.674  1.00  0.00    -0.329 N 
HETATM   36  C21 UNL     1      18.023  60.909  23.636  1.00  0.00     0.186 C 
HETATM   37  N9  UNL     1      18.213  59.793  23.024  1.00  0.00    -0.374 N 
HETATM   38  N10 UNL     1      19.145  61.493  24.246  1.00  0.00    -0.064 NA
ATOM     39  H92 UNL     1      17.399  59.369  22.581  1.00  0.00     0.158 HD
ATOM     40  H91 UNL     1      19.140  59.368  22.996  1.00  0.00     0.158 HD
ATOM     41  H8  UNL     1      16.008  60.872  23.352  1.00  0.00     0.168 HD
ENDBRANCH   1  35
TORSDOF 8
ENDMDL
MODEL 4
REMARK VINA RESULT: -7.691228287      2.929      4.115
REMARK  8 active torsions:
REMARK  status: ('A' for Active; 'I' for Inactive)
REMARK    1  A    between atoms: C2_2  and  C3_3 
REMARK    2  A    between atoms: C3_3  and  C4_4 
REMARK    3  A    between atoms: C3_3  and  N3_14 
REMARK    4  A    between atoms: C4_4  and  N1_5 
REMARK       I    between atoms: N3_14  and  C9_16 
REMARK    5  A    between atoms: C9_16  and  C10_18 
REMARK    6  A    between atoms: C10_18  and  C11_19 
REMARK    7  A    between atoms: C10_18  and  N8_35 
REMARK    8  A    between atoms: C11_19  and  C12_20 
REMARK       I    between atoms: N5_25  and  C15_26 
REMARK       I    between atoms: C15_26  and  N6_28 
REMARK       I    between atoms: N8_35  and  C21_37 
ROOT
HETATM    1  C10 UNL     1      17.930  62.948  23.500  1.00  0.00     0.085 C 
ENDROOT
BRANCH   1   2
HETATM    2  C9  UNL     1      17.612  63.877  22.421  1.00  0.00     0.264 C 
HETATM    3  N3  UNL     1      16.730  64.969  22.638  1.00  0.00    -0.350 N 
ATOM      4  H3  UNL     1      16.320  65.097  23.563  1.00  0.00     0.163 HD
HETATM    5  O2  UNL     1      18.093  63.755  21.281  1.00  0.00    -0.266 OA
BRANCH   3   6
HETATM    6  C3  UNL     1      16.393  65.913  21.580  1.00  0.00     0.103 C 
BRANCH   6   7
HETATM    7  C2  UNL     1      17.220  67.177  21.700  1.00  0.00     0.022 C 
HETATM    8  C1  UNL     1      17.949  67.460  20.384  1.00  0.00     0.007 C 
ENDBRANCH   6   7
BRANCH   6   9
HETATM    9  C4  UNL     1      14.928  66.188  21.514  1.00  0.00     0.167 C 
BRANCH   9  10
HETATM   10  N1  UNL     1      14.507  66.694  20.225  1.00  0.00    -0.269 N 
HETATM   11  S1  UNL     1      13.929  68.355  19.912  1.00  0.00    -0.018 SA
HETATM   12  C5  UNL     1      13.459  68.066  18.183  1.00  0.00     0.095 C 
HETATM   13  C6  UNL     1      12.019  68.501  18.036  1.00  0.00     0.052 C 
HETATM   14  C7  UNL     1      14.360  68.822  17.226  1.00  0.00     0.052 C 
HETATM   15  N2  UNL     1      13.658  66.668  18.025  1.00  0.00    -0.323 N 
HETATM   16  C8  UNL     1      14.451  66.053  18.984  1.00  0.00     0.329 C 
ATOM     17  H2  UNL     1      13.242  66.148  17.253  1.00  0.00     0.166 HD
HETATM   18  O1  UNL     1      15.101  64.970  18.783  1.00  0.00    -0.246 OA
ENDBRANCH   9  10
ENDBRANCH   6   9
ENDBRANCH   3   6
ENDBRANCH   1   2
BRANCH   1  19
HETATM   19  C11 UNL     1      17.705  63.479  24.897  1.00  0.00     0.122 C 
BRANCH  19  20
HETATM   20  C12 UNL     1      18.900  64.120  25.474  1.00  0.00     0.043 A 
HETATM   21  C13 UNL     1      20.086  63.406  25.732  1.00  0.00     0.115 A 
HETATM   22  N4  UNL     1      20.989  64.225  26.225  1.00  0.00    -0.360 N 
HETATM   23  C14 UNL     1      20.456  65.455  26.307  1.00  0.00     0.193 A 
ATOM     24  H4  UNL     1      21.936  63.969  26.500  1.00  0.00     0.166 HD
HETATM   25  N5  UNL     1      19.181  65.392  25.846  1.00  0.00    -0.263 N 
HETATM   26  C15 UNL     1      18.249  66.445  25.712  1.00  0.00     0.331 C 
HETATM   27  O3  UNL     1      17.075  66.196  25.229  1.00  0.00    -0.246 OA
HETATM   28  N6  UNL     1      18.440  67.790  26.051  1.00  0.00    -0.307 N 
HETATM   29  C16 UNL     1      17.367  68.817  25.861  1.00  0.00     0.157 C 
HETATM   30  C20 UNL     1      19.562  68.468  26.599  1.00  0.00     0.365 C 
HETATM   31  C17 UNL     1      17.805  69.895  26.812  1.00  0.00     0.258 C 
HETATM   32  N7  UNL     1      19.255  69.874  26.720  1.00  0.00    -0.057 N 
HETATM   33  C18 UNL     1      19.735  70.584  25.575  1.00  0.00     0.274 C 
HETATM   34  C19 UNL     1      19.784  70.396  27.976  1.00  0.00     0.274 C 
ENDBRANCH  19  20
ENDBRANCH   1  19
BRANCH   1  35
HETATM   35  N8  UNL     1      17.597  61.618  23.210  1.00  0.00    -0.329 N 
HETATM   36  C21 UNL     1      18.215  60.404  23.517  1.00  0.00     0.186 C 
HETATM   37  N9  UNL     1      17.832  59.313  22.951  1.00  0.00    -0.374 N 
HETATM   38  N10 UNL     1      19.269  60.299  24.439  1.00  0.00    -0.064 NA
ATOM     39  H92 UNL     1      17.066  59.389  22.282  1.00  0.00     0.158 HD
ATOM     40  H91 UNL     1      18.283  58.426  23.175  1.00  0.00     0.158 HD
ATOM     41  H8  UNL     1      16.737  61.517  22.670  1.00  0.00     0.168 HD
ENDBRANCH   1  35
TORSDOF 8
ENDMDL
MODEL 5
REMARK VINA RESULT: -7.582085134      2.830      7.888
REMARK  8 active torsions:
REMARK  status: ('A' for Active; 'I' for Inactive)
REMARK    1  A    between atoms: C2_2  and  C3_3 
REMARK    2  A    between atoms: C3_3  and  C4_4 
REMARK    3  A    between atoms: C3_3  and  N3_14 
REMARK    4  A    between atoms: C4_4  and  N1_5 
REMARK       I    between atoms: N3_14  and  C9_16 
REMARK    5  A    between atoms: C9_16  and  C10_18 
REMARK    6  A    between atoms: C10_18  and  C11_19 
REMARK    7  A    between atoms: C10_18  and  N8_35 
REMARK    8  A    between atoms: C11_19  and  C12_20 
REMARK       I    between atoms: N5_25  and  C15_26 
REMARK       I    between atoms: C15_26  and  N6_28 
REMARK       I    between atoms: N8_35  and  C21_37 
ROOT
HETATM    1  C10 UNL     1      17.619  61.968  24.568  1.00  0.00     0.085 C 
ENDROOT
BRANCH   1   2
HETATM    2  C9  UNL     1      16.445  62.527  25.226  1.00  0.00     0.264 C 
HETATM    3  N3  UNL     1      16.540  63.096  26.524  1.00  0.00    -0.350 N 
ATOM      4  H3  UNL     1      17.445  63.109  26.993  1.00  0.00     0.163 HD
HETATM    5  O2  UNL     1      15.324  62.530  24.688  1.00  0.00    -0.266 OA
BRANCH   3   6
HETATM    6  C3  UNL     1      15.384  63.663  27.208  1.00  0.00     0.103 C 
BRANCH   6   7
HETATM    7  C2  UNL     1      15.517  65.166  27.340  1.00  0.00     0.022 C 
HETATM    8  C1  UNL     1      15.029  65.856  26.064  1.00  0.00     0.007 C 
ENDBRANCH   6   7
BRANCH   6   9
HETATM    9  C4  UNL     1      15.114  62.991  28.513  1.00  0.00     0.167 C 
BRANCH   9  10
HETATM   10  N1  UNL     1      13.720  62.649  28.693  1.00  0.00    -0.269 N 
HETATM   11  S1  UNL     1      12.516  62.514  27.380  1.00  0.00    -0.018 SA
HETATM   12  C5  UNL     1      11.084  62.262  28.466  1.00  0.00     0.095 C 
HETATM   13  C6  UNL     1      10.051  63.298  28.087  1.00  0.00     0.052 C 
HETATM   14  C7  UNL     1      10.524  60.858  28.335  1.00  0.00     0.052 C 
HETATM   15  N2  UNL     1      11.629  62.440  29.765  1.00  0.00    -0.323 N 
HETATM   16  C8  UNL     1      13.012  62.356  29.863  1.00  0.00     0.329 C 
ATOM     17  H2  UNL     1      11.040  62.619  30.579  1.00  0.00     0.166 HD
HETATM   18  O1  UNL     1      13.632  62.037  30.935  1.00  0.00    -0.246 OA
ENDBRANCH   9  10
ENDBRANCH   6   9
ENDBRANCH   3   6
ENDBRANCH   1   2
BRANCH   1  19
HETATM   19  C11 UNL     1      18.118  62.741  23.369  1.00  0.00     0.122 C 
BRANCH  19  20
HETATM   20  C12 UNL     1      18.025  64.201  23.539  1.00  0.00     0.043 A 
HETATM   21  C13 UNL     1      18.616  64.870  24.629  1.00  0.00     0.115 A 
HETATM   22  N4  UNL     1      18.393  66.162  24.519  1.00  0.00    -0.360 N 
HETATM   23  C14 UNL     1      17.680  66.384  23.403  1.00  0.00     0.193 A 
ATOM     24  H4  UNL     1      18.710  66.877  25.173  1.00  0.00     0.166 HD
HETATM   25  N5  UNL     1      17.457  65.186  22.802  1.00  0.00    -0.263 N 
HETATM   26  C15 UNL     1      16.781  64.932  21.588  1.00  0.00     0.331 C 
HETATM   27  O3  UNL     1      16.685  63.716  21.159  1.00  0.00    -0.246 OA
HETATM   28  N6  UNL     1      16.174  65.873  20.748  1.00  0.00    -0.307 N 
HETATM   29  C16 UNL     1      15.484  65.475  19.479  1.00  0.00     0.157 C 
HETATM   30  C20 UNL     1      16.057  67.285  20.850  1.00  0.00     0.365 C 
HETATM   31  C17 UNL     1      14.581  66.653  19.241  1.00  0.00     0.258 C 
HETATM   32  N7  UNL     1      15.366  67.790  19.687  1.00  0.00    -0.057 N 
HETATM   33  C18 UNL     1      16.309  68.218  18.700  1.00  0.00     0.274 C 
HETATM   34  C19 UNL     1      14.434  68.844  20.077  1.00  0.00     0.274 C 
ENDBRANCH  19  20
ENDBRANCH   1  19
BRANCH   1  35
HETATM   35  N8  UNL     1      18.548  61.410  25.458  1.00  0.00    -0.329 N 
HETATM   36  C21 UNL     1      19.302  60.235  25.419  1.00  0.00     0.186 C 
HETATM   37  N9  UNL     1      19.931  59.826  26.465  1.00  0.00    -0.374 N 
HETATM   38  N10 UNL     1      19.417  59.444  24.265  1.00  0.00    -0.064 NA
ATOM     39  H92 UNL     1      19.848  60.401  27.303  1.00  0.00     0.158 HD
ATOM     40  H91 UNL     1      20.481  58.968  26.437  1.00  0.00     0.158 HD
ATOM     41  H8  UNL     1      18.703  61.971  26.297  1.00  0.00     0.168 HD
ENDBRANCH   1  35
TORSDOF 8
ENDMDL
