MODEL 1
REMARK VINA RESULT: -7.693778887      0.000      0.000
REMARK  4 active torsions:
REMARK  status: ('A' for Active; 'I' for Inactive)
REMARK    1  A    between atoms: C2_2  and  C3_3 
REMARK    2  A    between atoms: C2_2  and  C5_6 
REMARK    3  A    between atoms: C12_13  and  C13_14 
REMARK    4  A    between atoms: N1_16  and  N2_18 
ROOT
HETATM    1  C5  UNL     1      41.129  18.209  -5.755  1.00  0.00     0.030 C 
HETATM    2  C6  UNL     1      42.127  17.183  -6.386  1.00  0.00     0.010 C 
HETATM    3  C7  UNL     1      43.029  18.108  -7.165  1.00  0.00     0.006 C 
HETATM    4  C8  UNL     1      43.347  19.110  -6.040  1.00  0.00    -0.001 C 
HETATM    5  C9  UNL     1      44.190  20.176  -6.522  1.00  0.00    -0.005 C 
HETATM    6  C10 UNL     1      45.431  20.260  -5.617  1.00  0.00     0.006 C 
HETATM    7  C11 UNL     1      45.453  21.708  -5.136  1.00  0.00     0.011 C 
HETATM    8  C12 UNL     1      44.881  22.390  -6.375  1.00  0.00     0.037 C 
HETATM    9  C21 UNL     1      43.666  21.559  -6.611  1.00  0.00    -0.000 C 
HETATM   10  C22 UNL     1      42.527  21.747  -5.691  1.00  0.00     0.006 C 
HETATM   11  C23 UNL     1      41.459  20.725  -6.148  1.00  0.00     0.010 C 
HETATM   12  C24 UNL     1      41.923  19.415  -5.611  1.00  0.00    -0.032 C 
HETATM   13  C25 UNL     1      42.033  19.663  -4.071  1.00  0.00     0.016 C 
ENDROOT
BRANCH   8  14
HETATM   14  C13 UNL     1      44.742  23.812  -6.253  1.00  0.00     0.004 C 
HETATM   15  C14 UNL     1      43.677  24.515  -5.464  1.00  0.00     0.065 C 
HETATM   16  N1  UNL     1      45.559  24.595  -6.842  1.00  0.00    -0.311 N 
ATOM     17  H1  UNL     1      45.375  25.587  -6.695  1.00  0.00     0.186 HD
BRANCH  16  18
HETATM   18  N2  UNL     1      46.634  24.334  -7.631  1.00  0.00    -0.320 N 
HETATM   19  C15 UNL     1      46.553  24.161  -9.057  1.00  0.00     0.173 C 
HETATM   20  C16 UNL     1      47.576  24.949  -9.807  1.00  0.00     0.293 C 
HETATM   21  N3  UNL     1      48.329  25.772  -8.896  1.00  0.00     0.087 N 
HETATM   22  C17 UNL     1      47.577  26.852  -8.338  1.00  0.00     0.310 C 
HETATM   23  C18 UNL     1      48.981  24.954  -7.892  1.00  0.00     0.298 C 
HETATM   24  C19 UNL     1      47.967  24.232  -7.028  1.00  0.00     0.126 C 
HETATM   25  C20 UNL     1      48.394  22.787  -6.924  1.00  0.00     0.036 C 
ENDBRANCH  16  18
ENDBRANCH   8  14
BRANCH   1  26
HETATM   26  C2  UNL     1      39.883  18.059  -6.449  1.00  0.00    -0.017 C 
HETATM   27  C1  UNL     1      39.611  18.067  -7.694  1.00  0.00     0.023 C 
BRANCH  26  28
HETATM   28  C3  UNL     1      38.696  17.884  -5.546  1.00  0.00     0.151 C 
HETATM   29  C4  UNL     1      38.307  19.004  -4.681  1.00  0.00     0.096 C 
HETATM   30  O1  UNL     1      38.051  16.832  -5.516  1.00  0.00    -0.293 OA
ENDBRANCH  26  28
ENDBRANCH   1  26
TORSDOF 4
ENDMDL
MODEL 2
REMARK VINA RESULT: -7.207378688      1.982      3.039
REMARK  4 active torsions:
REMARK  status: ('A' for Active; 'I' for Inactive)
REMARK    1  A    between atoms: C2_2  and  C3_3 
REMARK    2  A    between atoms: C2_2  and  C5_6 
REMARK    3  A    between atoms: C12_13  and  C13_14 
REMARK    4  A    between atoms: N1_16  and  N2_18 
ROOT
HETATM    1  C5  UNL     1      42.955  20.616  -4.998  1.00  0.00     0.030 C 
HETATM    2  C6  UNL     1      43.648  19.429  -5.744  1.00  0.00     0.010 C 
HETATM    3  C7  UNL     1      44.516  20.178  -6.725  1.00  0.00     0.006 C 
HETATM    4  C8  UNL     1      45.189  21.145  -5.734  1.00  0.00    -0.001 C 
HETATM    5  C9  UNL     1      46.077  22.050  -6.422  1.00  0.00    -0.005 C 
HETATM    6  C10 UNL     1      47.465  21.960  -5.765  1.00  0.00     0.006 C 
HETATM    7  C11 UNL     1      47.797  23.397  -5.377  1.00  0.00     0.011 C 
HETATM    8  C12 UNL     1      47.111  24.129  -6.526  1.00  0.00     0.037 C 
HETATM    9  C21 UNL     1      45.762  23.496  -6.489  1.00  0.00    -0.000 C 
HETATM   10  C22 UNL     1      44.859  23.887  -5.387  1.00  0.00     0.006 C 
HETATM   11  C23 UNL     1      43.582  23.037  -5.583  1.00  0.00     0.010 C 
HETATM   12  C24 UNL     1      43.936  21.684  -5.069  1.00  0.00    -0.032 C 
HETATM   13  C25 UNL     1      44.372  21.951  -3.591  1.00  0.00     0.016 C 
ENDROOT
BRANCH   8  14
HETATM   14  C13 UNL     1      47.215  25.559  -6.460  1.00  0.00     0.004 C 
HETATM   15  C14 UNL     1      47.416  26.356  -5.205  1.00  0.00     0.065 C 
HETATM   16  N1  UNL     1      47.136  26.262  -7.520  1.00  0.00    -0.311 N 
ATOM     17  H1  UNL     1      47.219  27.268  -7.367  1.00  0.00     0.186 HD
BRANCH  16  18
HETATM   18  N2  UNL     1      46.959  25.904  -8.819  1.00  0.00    -0.320 N 
HETATM   19  C15 UNL     1      45.675  25.613  -9.399  1.00  0.00     0.173 C 
HETATM   20  C16 UNL     1      45.446  26.305 -10.703  1.00  0.00     0.293 C 
HETATM   21  N3  UNL     1      46.552  27.179 -10.998  1.00  0.00     0.087 N 
HETATM   22  C17 UNL     1      46.626  28.324 -10.146  1.00  0.00     0.310 C 
HETATM   23  C18 UNL     1      47.792  26.430 -11.053  1.00  0.00     0.298 C 
HETATM   24  C19 UNL     1      48.122  25.814  -9.708  1.00  0.00     0.126 C 
HETATM   25  C20 UNL     1      48.501  24.371  -9.942  1.00  0.00     0.036 C 
ENDBRANCH  16  18
ENDBRANCH   8  14
BRANCH   1  26
HETATM   26  C2  UNL     1      41.592  20.649  -5.442  1.00  0.00    -0.017 C 
HETATM   27  C1  UNL     1      41.073  21.088  -6.520  1.00  0.00     0.023 C 
BRANCH  26  28
HETATM   28  C3  UNL     1      40.613  20.086  -4.454  1.00  0.00     0.151 C 
HETATM   29  C4  UNL     1      40.957  18.837  -3.765  1.00  0.00     0.096 C 
HETATM   30  O1  UNL     1      39.537  20.644  -4.214  1.00  0.00    -0.293 OA
ENDBRANCH  26  28
ENDBRANCH   1  26
TORSDOF 4
ENDMDL
MODEL 3
REMARK VINA RESULT: -6.881594232      2.292      3.400
REMARK  4 active torsions:
REMARK  status: ('A' for Active; 'I' for Inactive)
REMARK    1  A    between atoms: C2_2  and  C3_3 
REMARK    2  A    between atoms: C2_2  and  C5_6 
REMARK    3  A    between atoms: C12_13  and  C13_14 
REMARK    4  A    between atoms: N1_16  and  N2_18 
ROOT
HETATM    1  C5  UNL     1      39.962  19.519  -5.334  1.00  0.00     0.030 C 
HETATM    2  C6  UNL     1      40.296  19.024  -3.889  1.00  0.00     0.010 C 
HETATM    3  C7  UNL     1      41.803  18.982  -3.944  1.00  0.00     0.006 C 
HETATM    4  C8  UNL     1      42.045  20.398  -4.497  1.00  0.00    -0.001 C 
HETATM    5  C9  UNL     1      43.453  20.637  -4.703  1.00  0.00    -0.005 C 
HETATM    6  C10 UNL     1      43.842  21.921  -3.952  1.00  0.00     0.006 C 
HETATM    7  C11 UNL     1      44.480  22.807  -5.017  1.00  0.00     0.011 C 
HETATM    8  C12 UNL     1      45.136  21.730  -5.875  1.00  0.00     0.037 C 
HETATM    9  C21 UNL     1      43.988  20.800  -6.075  1.00  0.00    -0.000 C 
HETATM   10  C22 UNL     1      42.924  21.227  -7.005  1.00  0.00     0.006 C 
HETATM   11  C23 UNL     1      41.864  20.101  -6.959  1.00  0.00     0.010 C 
HETATM   12  C24 UNL     1      41.113  20.328  -5.693  1.00  0.00    -0.032 C 
HETATM   13  C25 UNL     1      40.570  21.787  -5.840  1.00  0.00     0.016 C 
ENDROOT
BRANCH   8  14
HETATM   14  C13 UNL     1      45.835  22.234  -7.022  1.00  0.00     0.004 C 
HETATM   15  C14 UNL     1      45.323  23.294  -7.953  1.00  0.00     0.065 C 
HETATM   16  N1  UNL     1      46.988  21.782  -7.327  1.00  0.00    -0.311 N 
ATOM     17  H1  UNL     1      47.401  22.204  -8.160  1.00  0.00     0.186 HD
BRANCH  16  18
HETATM   18  N2  UNL     1      47.763  20.837  -6.733  1.00  0.00    -0.320 N 
HETATM   19  C15 UNL     1      47.488  19.426  -6.795  1.00  0.00     0.173 C 
HETATM   20  C16 UNL     1      48.683  18.607  -7.157  1.00  0.00     0.293 C 
HETATM   21  N3  UNL     1      49.799  19.468  -7.452  1.00  0.00     0.087 N 
HETATM   22  C17 UNL     1      49.655  20.203  -8.669  1.00  0.00     0.310 C 
HETATM   23  C18 UNL     1      50.109  20.309  -6.312  1.00  0.00     0.298 C 
HETATM   24  C19 UNL     1      48.960  21.245  -5.992  1.00  0.00     0.126 C 
HETATM   25  C20 UNL     1      48.712  21.179  -4.504  1.00  0.00     0.036 C 
ENDBRANCH  16  18
ENDBRANCH   8  14
BRANCH   1  26
HETATM   26  C2  UNL     1      39.427  18.396  -6.047  1.00  0.00    -0.017 C 
HETATM   27  C1  UNL     1      39.968  17.304  -6.420  1.00  0.00     0.023 C 
BRANCH  26  28
HETATM   28  C3  UNL     1      37.984  18.548  -6.434  1.00  0.00     0.151 C 
HETATM   29  C4  UNL     1      36.956  18.179  -5.454  1.00  0.00     0.096 C 
HETATM   30  O1  UNL     1      37.650  18.971  -7.546  1.00  0.00    -0.293 OA
ENDBRANCH  26  28
ENDBRANCH   1  26
TORSDOF 4
ENDMDL
MODEL 4
REMARK VINA RESULT: -6.778472803      3.937      8.583
REMARK  4 active torsions:
REMARK  status: ('A' for Active; 'I' for Inactive)
REMARK    1  A    between atoms: C2_2  and  C3_3 
REMARK    2  A    between atoms: C2_2  and  C5_6 
REMARK    3  A    between atoms: C12_13  and  C13_14 
REMARK    4  A    between atoms: N1_16  and  N2_18 
ROOT
HETATM    1  C5  UNL     1      47.599  23.950  -7.180  1.00  0.00     0.030 C 
HETATM    2  C6  UNL     1      46.722  25.232  -6.990  1.00  0.00     0.010 C 
HETATM    3  C7  UNL     1      45.340  24.662  -7.191  1.00  0.00     0.006 C 
HETATM    4  C8  UNL     1      45.442  23.478  -6.212  1.00  0.00    -0.001 C 
HETATM    5  C9  UNL     1      44.231  22.694  -6.224  1.00  0.00    -0.005 C 
HETATM    6  C10 UNL     1      43.713  22.578  -4.781  1.00  0.00     0.006 C 
HETATM    7  C11 UNL     1      43.585  21.077  -4.541  1.00  0.00     0.011 C 
HETATM    8  C12 UNL     1      43.190  20.635  -5.946  1.00  0.00     0.037 C 
HETATM    9  C21 UNL     1      44.245  21.311  -6.754  1.00  0.00    -0.000 C 
HETATM   10  C22 UNL     1      45.607  20.743  -6.703  1.00  0.00     0.006 C 
HETATM   11  C23 UNL     1      46.473  21.677  -7.581  1.00  0.00     0.010 C 
HETATM   12  C24 UNL     1      46.733  22.874  -6.734  1.00  0.00    -0.032 C 
HETATM   13  C25 UNL     1      47.421  22.284  -5.459  1.00  0.00     0.016 C 
ENDROOT
BRANCH   8  14
HETATM   14  C13 UNL     1      43.001  19.219  -6.087  1.00  0.00     0.004 C 
HETATM   15  C14 UNL     1      44.069  18.235  -6.466  1.00  0.00     0.065 C 
HETATM   16  N1  UNL     1      41.855  18.697  -5.888  1.00  0.00    -0.311 N 
ATOM     17  H1  UNL     1      41.824  17.685  -6.015  1.00  0.00     0.186 HD
BRANCH  16  18
HETATM   18  N2  UNL     1      40.668  19.256  -5.536  1.00  0.00    -0.320 N 
HETATM   19  C15 UNL     1      40.165  20.482  -6.098  1.00  0.00     0.173 C 
HETATM   20  C16 UNL     1      38.740  20.389  -6.536  1.00  0.00     0.293 C 
HETATM   21  N3  UNL     1      38.260  19.042  -6.370  1.00  0.00     0.087 N 
HETATM   22  C17 UNL     1      38.837  18.107  -7.285  1.00  0.00     0.310 C 
HETATM   23  C18 UNL     1      38.373  18.627  -4.986  1.00  0.00     0.298 C 
HETATM   24  C19 UNL     1      39.822  18.590  -4.541  1.00  0.00     0.126 C 
HETATM   25  C20 UNL     1      39.914  19.294  -3.208  1.00  0.00     0.036 C 
ENDBRANCH  16  18
ENDBRANCH   8  14
BRANCH   1  26
HETATM   26  C2  UNL     1      48.253  24.076  -8.450  1.00  0.00    -0.017 C 
HETATM   27  C1  UNL     1      48.004  24.827  -9.450  1.00  0.00     0.023 C 
BRANCH  26  28
HETATM   28  C3  UNL     1      49.417  23.147  -8.634  1.00  0.00     0.151 C 
HETATM   29  C4  UNL     1      49.477  22.337  -9.856  1.00  0.00     0.096 C 
HETATM   30  O1  UNL     1      50.313  23.052  -7.789  1.00  0.00    -0.293 OA
ENDBRANCH  26  28
ENDBRANCH   1  26
TORSDOF 4
ENDMDL
MODEL 5
REMARK VINA RESULT: -6.625282524      3.921      8.468
REMARK  4 active torsions:
REMARK  status: ('A' for Active; 'I' for Inactive)
REMARK    1  A    between atoms: C2_2  and  C3_3 
REMARK    2  A    between atoms: C2_2  and  C5_6 
REMARK    3  A    between atoms: C12_13  and  C13_14 
REMARK    4  A    between atoms: N1_16  and  N2_18 
ROOT
HETATM    1  C5  UNL     1      47.429  25.531  -9.175  1.00  0.00     0.030 C 
HETATM    2  C6  UNL     1      47.507  26.379  -7.862  1.00  0.00     0.010 C 
HETATM    3  C7  UNL     1      46.641  25.556  -6.941  1.00  0.00     0.006 C 
HETATM    4  C8  UNL     1      47.301  24.186  -7.178  1.00  0.00    -0.001 C 
HETATM    5  C9  UNL     1      46.626  23.153  -6.431  1.00  0.00    -0.005 C 
HETATM    6  C10 UNL     1      47.669  22.415  -5.574  1.00  0.00     0.006 C 
HETATM    7  C11 UNL     1      47.512  20.948  -5.964  1.00  0.00     0.011 C 
HETATM    8  C12 UNL     1      46.010  20.921  -6.228  1.00  0.00     0.037 C 
HETATM    9  C21 UNL     1      45.870  22.094  -7.138  1.00  0.00    -0.000 C 
HETATM   10  C22 UNL     1      46.356  21.939  -8.524  1.00  0.00     0.006 C 
HETATM   11  C23 UNL     1      46.131  23.316  -9.193  1.00  0.00     0.010 C 
HETATM   12  C24 UNL     1      47.241  24.174  -8.695  1.00  0.00    -0.032 C 
HETATM   13  C25 UNL     1      48.530  23.397  -9.122  1.00  0.00     0.016 C 
ENDROOT
BRANCH   8  14
HETATM   14  C13 UNL     1      45.509  19.645  -6.650  1.00  0.00     0.004 C 
HETATM   15  C14 UNL     1      46.333  18.544  -7.250  1.00  0.00     0.065 C 
HETATM   16  N1  UNL     1      44.270  19.366  -6.532  1.00  0.00    -0.311 N 
ATOM     17  H1  UNL     1      44.013  18.435  -6.862  1.00  0.00     0.186 HD
BRANCH  16  18
HETATM   18  N2  UNL     1      43.233  20.095  -6.043  1.00  0.00    -0.320 N 
HETATM   19  C15 UNL     1      42.316  20.834  -6.870  1.00  0.00     0.173 C 
HETATM   20  C16 UNL     1      40.884  20.599  -6.521  1.00  0.00     0.293 C 
HETATM   21  N3  UNL     1      40.786  19.597  -5.490  1.00  0.00     0.087 N 
HETATM   22  C17 UNL     1      41.129  18.282  -5.931  1.00  0.00     0.310 C 
HETATM   23  C18 UNL     1      41.517  20.010  -4.308  1.00  0.00     0.298 C 
HETATM   24  C19 UNL     1      42.999  20.139  -4.596  1.00  0.00     0.126 C 
HETATM   25  C20 UNL     1      43.468  21.455  -4.022  1.00  0.00     0.036 C 
ENDBRANCH  16  18
ENDBRANCH   8  14
BRANCH   1  26
HETATM   26  C2  UNL     1      46.598  26.257 -10.091  1.00  0.00    -0.017 C 
HETATM   27  C1  UNL     1      45.334  26.416 -10.132  1.00  0.00     0.023 C 
BRANCH  26  28
HETATM   28  C3  UNL     1      47.353  26.927 -11.202  1.00  0.00     0.151 C 
HETATM   29  C4  UNL     1      46.792  26.874 -12.558  1.00  0.00     0.096 C 
HETATM   30  O1  UNL     1      48.422  27.513 -11.002  1.00  0.00    -0.293 OA
ENDBRANCH  26  28
ENDBRANCH   1  26
TORSDOF 4
ENDMDL
