MODEL 1
REMARK VINA RESULT: -7.034706807      0.000      0.000
REMARK  5 active torsions:
REMARK  status: ('A' for Active; 'I' for Inactive)
REMARK    1  A    between atoms: C8_8  and  C9_9 
REMARK    2  A    between atoms: C9_9  and  O1_10 
REMARK    3  A    between atoms: O1_10  and  S1_11 
REMARK    4  A    between atoms: S1_11  and  C10_14 
REMARK    5  A    between atoms: C10_14  and  C11_15 
ROOT
HETATM    1  C1  UNL     1      47.918  30.957 -12.475  1.00  0.00     0.015 C 
HETATM    2  C2  UNL     1      47.187  30.359 -11.545  1.00  0.00    -0.078 A 
HETATM    3  C3  UNL     1      46.872  30.372 -10.044  1.00  0.00     0.027 A 
HETATM    4  C4  UNL     1      48.035  30.017  -9.237  1.00  0.00    -0.009 C 
HETATM    5  C5  UNL     1      49.207  30.892  -9.630  1.00  0.00     0.010 C 
HETATM    6  C6  UNL     1      48.463  28.544  -9.367  1.00  0.00     0.011 C 
HETATM    7  C7  UNL     1      47.246  27.691  -9.464  1.00  0.00     0.013 C 
HETATM    8  C8  UNL     1      46.540  27.964 -10.741  1.00  0.00    -0.005 C 
HETATM    9  C14 UNL     1      45.151  27.299 -10.650  1.00  0.00     0.013 C 
HETATM   10  C15 UNL     1      45.303  25.818 -10.446  1.00  0.00     0.010 C 
HETATM   11  C16 UNL     1      45.997  25.634  -9.160  1.00  0.00     0.024 C 
HETATM   12  C17 UNL     1      46.063  24.265  -8.640  1.00  0.00    -0.024 C 
HETATM   13  C18 UNL     1      46.491  24.081  -7.397  1.00  0.00    -0.023 C 
HETATM   14  C19 UNL     1      46.872  25.344  -6.649  1.00  0.00     0.106 C 
HETATM   15  C20 UNL     1      47.762  26.067  -7.640  1.00  0.00     0.139 C 
HETATM   16  O4  UNL     1      48.805  26.461  -7.191  1.00  0.00    -0.297 OA
HETATM   17  C21 UNL     1      47.374  26.268  -9.052  1.00  0.00     0.028 C 
HETATM   18  C22 UNL     1      48.370  25.465  -9.868  1.00  0.00     0.024 C 
HETATM   19  C23 UNL     1      46.223  29.438 -10.887  1.00  0.00     0.034 A 
ENDROOT
BRANCH   8  20
HETATM   20  C9  UNL     1      47.099  27.484 -12.009  1.00  0.00     0.200 C 
BRANCH  20  21
HETATM   21  O1  UNL     1      46.306  26.772 -12.864  1.00  0.00    -0.275 OA
BRANCH  21  22
HETATM   22  S1  UNL     1      46.826  27.088 -14.431  1.00  0.00     0.265 S 
HETATM   23  O2  UNL     1      45.968  26.480 -15.469  1.00  0.00    -0.199 OA
HETATM   24  O3  UNL     1      46.839  28.600 -14.577  1.00  0.00    -0.199 OA
BRANCH  22  25
HETATM   25  C10 UNL     1      48.526  26.557 -14.566  1.00  0.00     0.174 C 
BRANCH  25  26
HETATM   26  C11 UNL     1      48.612  25.048 -14.630  1.00  0.00    -0.007 C 
HETATM   27  C12 UNL     1      48.825  24.531 -16.021  1.00  0.00     0.010 C 
HETATM   28  C13 UNL     1      49.750  24.607 -13.748  1.00  0.00     0.010 C 
ENDBRANCH  25  26
ENDBRANCH  22  25
ENDBRANCH  21  22
ENDBRANCH  20  21
ENDBRANCH   8  20
TORSDOF 5
ENDMDL
MODEL 2
REMARK VINA RESULT: -6.966052514      1.465      2.081
REMARK  5 active torsions:
REMARK  status: ('A' for Active; 'I' for Inactive)
REMARK    1  A    between atoms: C8_8  and  C9_9 
REMARK    2  A    between atoms: C9_9  and  O1_10 
REMARK    3  A    between atoms: O1_10  and  S1_11 
REMARK    4  A    between atoms: S1_11  and  C10_14 
REMARK    5  A    between atoms: C10_14  and  C11_15 
ROOT
HETATM    1  C1  UNL     1      48.232  30.427 -12.328  1.00  0.00     0.015 C 
HETATM    2  C2  UNL     1      47.382  29.903 -11.455  1.00  0.00    -0.078 A 
HETATM    3  C3  UNL     1      46.857  30.054 -10.022  1.00  0.00     0.027 A 
HETATM    4  C4  UNL     1      47.897  29.808  -9.028  1.00  0.00    -0.009 C 
HETATM    5  C5  UNL     1      49.103  30.672  -9.338  1.00  0.00     0.010 C 
HETATM    6  C6  UNL     1      48.356  28.341  -8.949  1.00  0.00     0.011 C 
HETATM    7  C7  UNL     1      47.175  27.452  -9.130  1.00  0.00     0.013 C 
HETATM    8  C8  UNL     1      46.655  27.582 -10.516  1.00  0.00    -0.005 C 
HETATM    9  C14 UNL     1      45.274  26.894 -10.554  1.00  0.00     0.013 C 
HETATM   10  C15 UNL     1      45.413  25.444 -10.184  1.00  0.00     0.010 C 
HETATM   11  C16 UNL     1      45.919  25.404  -8.802  1.00  0.00     0.024 C 
HETATM   12  C17 UNL     1      45.926  24.094  -8.143  1.00  0.00    -0.024 C 
HETATM   13  C18 UNL     1      46.175  24.042  -6.840  1.00  0.00    -0.023 C 
HETATM   14  C19 UNL     1      46.430  25.381  -6.177  1.00  0.00     0.106 C 
HETATM   15  C20 UNL     1      47.444  26.027  -7.099  1.00  0.00     0.139 C 
HETATM   16  O4  UNL     1      48.408  26.489  -6.550  1.00  0.00    -0.297 OA
HETATM   17  C21 UNL     1      47.259  26.080  -8.565  1.00  0.00     0.028 C 
HETATM   18  C22 UNL     1      48.370  25.228  -9.149  1.00  0.00     0.024 C 
HETATM   19  C23 UNL     1      46.345  29.027 -10.851  1.00  0.00     0.034 A 
ENDROOT
BRANCH   8  20
HETATM   20  C9  UNL     1      47.394  26.996 -11.638  1.00  0.00     0.200 C 
BRANCH  20  21
HETATM   21  O1  UNL     1      46.802  26.929 -12.867  1.00  0.00    -0.275 OA
BRANCH  21  22
HETATM   22  S1  UNL     1      48.013  26.692 -14.008  1.00  0.00     0.265 S 
HETATM   23  O2  UNL     1      49.352  26.504 -13.413  1.00  0.00    -0.199 OA
HETATM   24  O3  UNL     1      47.612  25.460 -14.802  1.00  0.00    -0.199 OA
BRANCH  22  25
HETATM   25  C10 UNL     1      47.970  28.061 -15.153  1.00  0.00     0.174 C 
BRANCH  25  26
HETATM   26  C11 UNL     1      46.550  28.355 -15.584  1.00  0.00    -0.007 C 
HETATM   27  C12 UNL     1      46.177  29.799 -15.429  1.00  0.00     0.010 C 
HETATM   28  C13 UNL     1      46.405  27.949 -17.027  1.00  0.00     0.010 C 
ENDBRANCH  25  26
ENDBRANCH  22  25
ENDBRANCH  21  22
ENDBRANCH  20  21
ENDBRANCH   8  20
TORSDOF 5
ENDMDL
MODEL 3
REMARK VINA RESULT: -6.685137602      5.077      8.858
REMARK  5 active torsions:
REMARK  status: ('A' for Active; 'I' for Inactive)
REMARK    1  A    between atoms: C8_8  and  C9_9 
REMARK    2  A    between atoms: C9_9  and  O1_10 
REMARK    3  A    between atoms: O1_10  and  S1_11 
REMARK    4  A    between atoms: S1_11  and  C10_14 
REMARK    5  A    between atoms: C10_14  and  C11_15 
ROOT
HETATM    1  C1  UNL     1      46.119  18.876  -6.330  1.00  0.00     0.015 C 
HETATM    2  C2  UNL     1      46.539  19.768  -7.216  1.00  0.00    -0.078 A 
HETATM    3  C3  UNL     1      47.780  20.228  -7.991  1.00  0.00     0.027 A 
HETATM    4  C4  UNL     1      48.818  20.745  -7.105  1.00  0.00    -0.009 C 
HETATM    5  C5  UNL     1      49.109  19.726  -6.022  1.00  0.00     0.010 C 
HETATM    6  C6  UNL     1      48.462  22.082  -6.432  1.00  0.00     0.011 C 
HETATM    7  C7  UNL     1      47.722  22.933  -7.404  1.00  0.00     0.013 C 
HETATM    8  C8  UNL     1      46.399  22.326  -7.700  1.00  0.00    -0.005 C 
HETATM    9  C14 UNL     1      45.817  23.066  -8.923  1.00  0.00     0.013 C 
HETATM   10  C15 UNL     1      45.661  24.528  -8.613  1.00  0.00     0.010 C 
HETATM   11  C16 UNL     1      47.011  25.053  -8.345  1.00  0.00     0.024 C 
HETATM   12  C17 UNL     1      47.139  26.509  -8.233  1.00  0.00    -0.024 C 
HETATM   13  C18 UNL     1      48.356  27.037  -8.200  1.00  0.00    -0.023 C 
HETATM   14  C19 UNL     1      49.496  26.040  -8.282  1.00  0.00     0.106 C 
HETATM   15  C20 UNL     1      49.110  25.002  -7.248  1.00  0.00     0.139 C 
HETATM   16  O4  UNL     1      49.983  24.703  -6.478  1.00  0.00    -0.297 OA
HETATM   17  C21 UNL     1      47.759  24.404  -7.191  1.00  0.00     0.028 C 
HETATM   18  C22 UNL     1      47.163  24.864  -5.874  1.00  0.00     0.024 C 
HETATM   19  C23 UNL     1      46.548  20.898  -8.182  1.00  0.00     0.034 A 
ENDROOT
BRANCH   8  20
HETATM   20  C9  UNL     1      45.329  22.366  -6.698  1.00  0.00     0.200 C 
BRANCH  20  21
HETATM   21  O1  UNL     1      44.077  21.938  -7.038  1.00  0.00    -0.275 OA
BRANCH  21  22
HETATM   22  S1  UNL     1      43.274  21.524  -5.621  1.00  0.00     0.265 S 
HETATM   23  O2  UNL     1      44.184  21.224  -4.496  1.00  0.00    -0.199 OA
HETATM   24  O3  UNL     1      42.383  22.705  -5.278  1.00  0.00    -0.199 OA
BRANCH  22  25
HETATM   25  C10 UNL     1      42.180  20.160  -5.983  1.00  0.00     0.174 C 
BRANCH  25  26
HETATM   26  C11 UNL     1      42.382  19.033  -4.994  1.00  0.00    -0.007 C 
HETATM   27  C12 UNL     1      41.268  18.924  -3.996  1.00  0.00     0.010 C 
HETATM   28  C13 UNL     1      42.495  17.746  -5.767  1.00  0.00     0.010 C 
ENDBRANCH  25  26
ENDBRANCH  22  25
ENDBRANCH  21  22
ENDBRANCH  20  21
ENDBRANCH   8  20
TORSDOF 5
ENDMDL
MODEL 4
REMARK VINA RESULT: -6.641006039      5.818      8.564
REMARK  5 active torsions:
REMARK  status: ('A' for Active; 'I' for Inactive)
REMARK    1  A    between atoms: C8_8  and  C9_9 
REMARK    2  A    between atoms: C9_9  and  O1_10 
REMARK    3  A    between atoms: O1_10  and  S1_11 
REMARK    4  A    between atoms: S1_11  and  C10_14 
REMARK    5  A    between atoms: C10_14  and  C11_15 
ROOT
HETATM    1  C1  UNL     1      45.801  22.327  -9.356  1.00  0.00     0.015 C 
HETATM    2  C2  UNL     1      45.718  23.362  -8.531  1.00  0.00    -0.078 A 
HETATM    3  C3  UNL     1      46.340  24.730  -8.224  1.00  0.00     0.027 A 
HETATM    4  C4  UNL     1      47.735  24.617  -7.808  1.00  0.00    -0.009 C 
HETATM    5  C5  UNL     1      48.501  23.806  -8.832  1.00  0.00     0.010 C 
HETATM    6  C6  UNL     1      47.927  23.964  -6.427  1.00  0.00     0.011 C 
HETATM    7  C7  UNL     1      46.840  24.419  -5.518  1.00  0.00     0.013 C 
HETATM    8  C8  UNL     1      45.536  23.879  -5.982  1.00  0.00    -0.005 C 
HETATM    9  C14 UNL     1      44.428  24.621  -5.206  1.00  0.00     0.013 C 
HETATM   10  C15 UNL     1      44.592  24.389  -3.730  1.00  0.00     0.010 C 
HETATM   11  C16 UNL     1      45.895  24.962  -3.351  1.00  0.00     0.024 C 
HETATM   12  C17 UNL     1      46.180  25.052  -1.915  1.00  0.00    -0.024 C 
HETATM   13  C18 UNL     1      47.242  25.745  -1.523  1.00  0.00    -0.023 C 
HETATM   14  C19 UNL     1      48.054  26.372  -2.640  1.00  0.00     0.106 C 
HETATM   15  C20 UNL     1      48.235  25.223  -3.611  1.00  0.00     0.139 C 
HETATM   16  O4  UNL     1      49.363  25.052  -3.989  1.00  0.00    -0.297 OA
HETATM   17  C21 UNL     1      47.108  24.377  -4.056  1.00  0.00     0.028 C 
HETATM   18  C22 UNL     1      47.396  22.991  -3.510  1.00  0.00     0.024 C 
HETATM   19  C23 UNL     1      45.273  24.251  -7.426  1.00  0.00     0.034 A 
ENDROOT
BRANCH   8  20
HETATM   20  C9  UNL     1      45.223  22.457  -5.807  1.00  0.00     0.200 C 
BRANCH  20  21
HETATM   21  O1  UNL     1      44.078  21.951  -6.353  1.00  0.00    -0.275 OA
BRANCH  21  22
HETATM   22  S1  UNL     1      43.233  21.161  -5.134  1.00  0.00     0.265 S 
HETATM   23  O2  UNL     1      43.844  21.320  -3.798  1.00  0.00    -0.199 OA
HETATM   24  O3  UNL     1      41.830  21.744  -5.144  1.00  0.00    -0.199 OA
BRANCH  22  25
HETATM   25  C10 UNL     1      43.066  19.446  -5.599  1.00  0.00     0.174 C 
BRANCH  25  26
HETATM   26  C11 UNL     1      41.617  19.012  -5.537  1.00  0.00    -0.007 C 
HETATM   27  C12 UNL     1      41.321  17.832  -6.413  1.00  0.00     0.010 C 
HETATM   28  C13 UNL     1      41.290  18.674  -4.106  1.00  0.00     0.010 C 
ENDBRANCH  25  26
ENDBRANCH  22  25
ENDBRANCH  21  22
ENDBRANCH  20  21
ENDBRANCH   8  20
TORSDOF 5
ENDMDL
MODEL 5
REMARK VINA RESULT: -6.608830568      6.846      9.507
REMARK  5 active torsions:
REMARK  status: ('A' for Active; 'I' for Inactive)
REMARK    1  A    between atoms: C8_8  and  C9_9 
REMARK    2  A    between atoms: C9_9  and  O1_10 
REMARK    3  A    between atoms: O1_10  and  S1_11 
REMARK    4  A    between atoms: S1_11  and  C10_14 
REMARK    5  A    between atoms: C10_14  and  C11_15 
ROOT
HETATM    1  C1  UNL     1      46.646  18.210  -7.481  1.00  0.00     0.015 C 
HETATM    2  C2  UNL     1      46.843  19.494  -7.742  1.00  0.00    -0.078 A 
HETATM    3  C3  UNL     1      47.918  20.502  -8.169  1.00  0.00     0.027 A 
HETATM    4  C4  UNL     1      48.978  20.628  -7.173  1.00  0.00    -0.009 C 
HETATM    5  C5  UNL     1      49.518  19.254  -6.837  1.00  0.00     0.010 C 
HETATM    6  C6  UNL     1      48.533  21.310  -5.867  1.00  0.00     0.011 C 
HETATM    7  C7  UNL     1      47.584  22.410  -6.191  1.00  0.00     0.013 C 
HETATM    8  C8  UNL     1      46.324  21.843  -6.737  1.00  0.00    -0.005 C 
HETATM    9  C14 UNL     1      45.515  23.013  -7.336  1.00  0.00     0.013 C 
HETATM   10  C15 UNL     1      45.211  24.026  -6.269  1.00  0.00     0.010 C 
HETATM   11  C16 UNL     1      46.504  24.545  -5.793  1.00  0.00     0.024 C 
HETATM   12  C17 UNL     1      46.457  25.709  -4.904  1.00  0.00    -0.024 C 
HETATM   13  C18 UNL     1      47.593  26.334  -4.619  1.00  0.00    -0.023 C 
HETATM   14  C19 UNL     1      48.834  25.749  -5.265  1.00  0.00     0.106 C 
HETATM   15  C20 UNL     1      48.706  24.270  -4.962  1.00  0.00     0.139 C 
HETATM   16  O4  UNL     1      49.693  23.758  -4.506  1.00  0.00    -0.297 OA
HETATM   17  C21 UNL     1      47.457  23.517  -5.206  1.00  0.00     0.028 C 
HETATM   18  C22 UNL     1      46.963  23.086  -3.838  1.00  0.00     0.024 C 
HETATM   19  C23 UNL     1      46.597  20.948  -7.928  1.00  0.00     0.034 A 
ENDROOT
BRANCH   8  20
HETATM   20  C9  UNL     1      45.380  21.156  -5.849  1.00  0.00     0.200 C 
BRANCH  20  21
HETATM   21  O1  UNL     1      44.099  20.939  -6.272  1.00  0.00    -0.275 OA
BRANCH  21  22
HETATM   22  S1  UNL     1      43.091  21.051  -4.932  1.00  0.00     0.265 S 
HETATM   23  O2  UNL     1      43.766  21.585  -3.731  1.00  0.00    -0.199 OA
HETATM   24  O3  UNL     1      41.944  21.959  -5.340  1.00  0.00    -0.199 OA
BRANCH  22  25
HETATM   25  C10 UNL     1      42.375  19.440  -4.643  1.00  0.00     0.174 C 
BRANCH  25  26
HETATM   26  C11 UNL     1      40.864  19.514  -4.660  1.00  0.00    -0.007 C 
HETATM   27  C12 UNL     1      40.253  18.758  -5.801  1.00  0.00     0.010 C 
HETATM   28  C13 UNL     1      40.354  18.959  -3.356  1.00  0.00     0.010 C 
ENDBRANCH  25  26
ENDBRANCH  22  25
ENDBRANCH  21  22
ENDBRANCH  20  21
ENDBRANCH   8  20
TORSDOF 5
ENDMDL
