MODEL 1
REMARK VINA RESULT: -6.566564938      0.000      0.000
REMARK  5 active torsions:
REMARK  status: ('A' for Active; 'I' for Inactive)
REMARK    1  A    between atoms: C2_2  and  O1_3 
REMARK    2  A    between atoms: O1_3  and  C3_4 
REMARK    3  A    between atoms: C3_4  and  C4_6 
REMARK    4  A    between atoms: N1_12  and  S1_13 
REMARK    5  A    between atoms: S1_13  and  C10_16 
ROOT
HETATM    1  C4  UNL     1      44.426  23.025  -5.588  1.00  0.00     0.066 C 
HETATM    2  C5  UNL     1      44.462  24.447  -6.110  1.00  0.00     0.021 C 
HETATM    3  C6  UNL     1      45.849  25.003  -5.855  1.00  0.00     0.001 C 
HETATM    4  C7  UNL     1      46.770  24.226  -6.765  1.00  0.00     0.002 C 
HETATM    5  C8  UNL     1      46.819  22.805  -6.303  1.00  0.00     0.022 C 
HETATM    6  C9  UNL     1      45.467  22.194  -6.314  1.00  0.00     0.092 C 
HETATM    7  N1  UNL     1      45.352  20.878  -5.785  1.00  0.00    -0.204 NA
HETATM    8  C12 UNL     1      44.130  20.292  -6.288  1.00  0.00     0.117 C 
HETATM    9  C13 UNL     1      42.877  21.029  -5.789  1.00  0.00    -0.026 C 
HETATM   10  C14 UNL     1      42.629  20.615  -4.409  1.00  0.00     0.011 C 
HETATM   11  C15 UNL     1      42.041  19.283  -4.156  1.00  0.00     0.001 C 
HETATM   12  C16 UNL     1      40.696  18.964  -4.580  1.00  0.00     0.000 C 
HETATM   13  C17 UNL     1      39.651  20.003  -4.595  1.00  0.00     0.000 C 
HETATM   14  C18 UNL     1      39.801  21.209  -5.385  1.00  0.00     0.000 C 
HETATM   15  C19 UNL     1      40.495  21.184  -6.677  1.00  0.00     0.001 C 
HETATM   16  C20 UNL     1      41.847  20.677  -6.819  1.00  0.00     0.011 C 
HETATM   17  C21 UNL     1      43.060  22.517  -5.866  1.00  0.00     0.032 C 
ENDROOT
BRANCH   7  18
HETATM   18  S1  UNL     1      46.606  19.786  -6.227  1.00  0.00     0.211 S 
HETATM   19  O3  UNL     1      47.820  19.896  -5.338  1.00  0.00    -0.211 OA
HETATM   20  O4  UNL     1      46.091  18.361  -6.234  1.00  0.00    -0.211 OA
BRANCH  18  21
HETATM   21  C10 UNL     1      47.150  20.108  -7.888  1.00  0.00     0.153 C 
HETATM   22  C11 UNL     1      48.677  19.941  -7.872  1.00  0.00     0.022 C 
ENDBRANCH  18  21
ENDBRANCH   7  18
BRANCH   1  23
HETATM   23  C3  UNL     1      44.719  23.113  -4.135  1.00  0.00     0.269 C 
HETATM   24  O2  UNL     1      44.060  23.789  -3.309  1.00  0.00    -0.264 OA
BRANCH  23  25
HETATM   25  O1  UNL     1      45.803  22.397  -3.647  1.00  0.00    -0.321 OA
BRANCH  25  26
HETATM   26  C2  UNL     1      46.498  22.863  -2.501  1.00  0.00     0.174 C 
HETATM   27  C1  UNL     1      47.631  23.788  -2.850  1.00  0.00     0.034 C 
ENDBRANCH  25  26
ENDBRANCH  23  25
ENDBRANCH   1  23
TORSDOF 5
ENDMDL
MODEL 2
REMARK VINA RESULT: -5.983162495      2.106      2.931
REMARK  5 active torsions:
REMARK  status: ('A' for Active; 'I' for Inactive)
REMARK    1  A    between atoms: C2_2  and  O1_3 
REMARK    2  A    between atoms: O1_3  and  C3_4 
REMARK    3  A    between atoms: C3_4  and  C4_6 
REMARK    4  A    between atoms: N1_12  and  S1_13 
REMARK    5  A    between atoms: S1_13  and  C10_16 
ROOT
HETATM    1  C4  UNL     1      45.497  23.346  -4.567  1.00  0.00     0.066 C 
HETATM    2  C5  UNL     1      45.188  24.508  -3.645  1.00  0.00     0.021 C 
HETATM    3  C6  UNL     1      46.446  25.341  -3.506  1.00  0.00     0.001 C 
HETATM    4  C7  UNL     1      46.671  25.965  -4.862  1.00  0.00     0.002 C 
HETATM    5  C8  UNL     1      47.013  24.886  -5.839  1.00  0.00     0.022 C 
HETATM    6  C9  UNL     1      45.928  23.878  -5.921  1.00  0.00     0.092 C 
HETATM    7  N1  UNL     1      46.174  22.732  -6.728  1.00  0.00    -0.204 NA
HETATM    8  C12 UNL     1      44.904  22.128  -7.060  1.00  0.00     0.117 C 
HETATM    9  C13 UNL     1      44.170  21.589  -5.822  1.00  0.00    -0.026 C 
HETATM   10  C14 UNL     1      44.792  20.320  -5.446  1.00  0.00     0.011 C 
HETATM   11  C15 UNL     1      44.495  19.112  -6.244  1.00  0.00     0.001 C 
HETATM   12  C16 UNL     1      43.166  18.544  -6.279  1.00  0.00     0.000 C 
HETATM   13  C17 UNL     1      42.291  18.617  -5.095  1.00  0.00     0.000 C 
HETATM   14  C18 UNL     1      41.921  19.891  -4.511  1.00  0.00     0.000 C 
HETATM   15  C19 UNL     1      41.721  21.077  -5.351  1.00  0.00     0.001 C 
HETATM   16  C20 UNL     1      42.739  21.559  -6.265  1.00  0.00     0.011 C 
HETATM   17  C21 UNL     1      44.241  22.565  -4.684  1.00  0.00     0.032 C 
ENDROOT
BRANCH   7  18
HETATM   18  S1  UNL     1      46.950  23.036  -8.234  1.00  0.00     0.211 S 
HETATM   19  O3  UNL     1      48.356  23.561  -8.075  1.00  0.00    -0.211 OA
HETATM   20  O4  UNL     1      46.954  21.786  -9.091  1.00  0.00    -0.211 OA
BRANCH  18  21
HETATM   21  C10 UNL     1      46.046  24.251  -9.163  1.00  0.00     0.153 C 
HETATM   22  C11 UNL     1      47.050  25.365  -9.492  1.00  0.00     0.022 C 
ENDBRANCH  18  21
ENDBRANCH   7  18
BRANCH   1  23
HETATM   23  C3  UNL     1      46.589  22.581  -3.914  1.00  0.00     0.269 C 
HETATM   24  O2  UNL     1      47.579  22.093  -4.509  1.00  0.00    -0.264 OA
BRANCH  23  25
HETATM   25  O1  UNL     1      46.514  22.386  -2.542  1.00  0.00    -0.321 OA
BRANCH  25  26
HETATM   26  C2  UNL     1      47.668  22.575  -1.739  1.00  0.00     0.174 C 
HETATM   27  C1  UNL     1      47.370  23.326  -0.469  1.00  0.00     0.034 C 
ENDBRANCH  25  26
ENDBRANCH  23  25
ENDBRANCH   1  23
TORSDOF 5
ENDMDL
MODEL 3
REMARK VINA RESULT: -5.892246464      2.687      5.861
REMARK  5 active torsions:
REMARK  status: ('A' for Active; 'I' for Inactive)
REMARK    1  A    between atoms: C2_2  and  O1_3 
REMARK    2  A    between atoms: O1_3  and  C3_4 
REMARK    3  A    between atoms: C3_4  and  C4_6 
REMARK    4  A    between atoms: N1_12  and  S1_13 
REMARK    5  A    between atoms: S1_13  and  C10_16 
ROOT
HETATM    1  C4  UNL     1      46.757  21.532  -6.197  1.00  0.00     0.066 C 
HETATM    2  C5  UNL     1      47.312  20.159  -6.517  1.00  0.00     0.021 C 
HETATM    3  C6  UNL     1      46.816  19.765  -7.894  1.00  0.00     0.001 C 
HETATM    4  C7  UNL     1      47.506  20.702  -8.856  1.00  0.00     0.002 C 
HETATM    5  C8  UNL     1      46.995  22.089  -8.630  1.00  0.00     0.022 C 
HETATM    6  C9  UNL     1      47.242  22.527  -7.235  1.00  0.00     0.092 C 
HETATM    7  N1  UNL     1      46.700  23.785  -6.850  1.00  0.00    -0.204 NA
HETATM    8  C12 UNL     1      47.407  24.245  -5.676  1.00  0.00     0.117 C 
HETATM    9  C13 UNL     1      47.182  23.330  -4.461  1.00  0.00    -0.026 C 
HETATM   10  C14 UNL     1      45.861  23.628  -3.910  1.00  0.00     0.011 C 
HETATM   11  C15 UNL     1      45.679  24.860  -3.114  1.00  0.00     0.001 C 
HETATM   12  C16 UNL     1      46.340  25.036  -1.840  1.00  0.00     0.000 C 
HETATM   13  C17 UNL     1      46.590  23.877  -0.963  1.00  0.00     0.000 C 
HETATM   14  C18 UNL     1      47.378  22.748  -1.415  1.00  0.00     0.000 C 
HETATM   15  C19 UNL     1      48.513  22.935  -2.327  1.00  0.00     0.001 C 
HETATM   16  C20 UNL     1      48.377  23.612  -3.601  1.00  0.00     0.011 C 
HETATM   17  C21 UNL     1      47.273  21.883  -4.850  1.00  0.00     0.032 C 
ENDROOT
BRANCH   7  18
HETATM   18  S1  UNL     1      46.857  25.048  -8.009  1.00  0.00     0.211 S 
HETATM   19  O3  UNL     1      46.779  26.423  -7.393  1.00  0.00    -0.211 OA
HETATM   20  O4  UNL     1      48.150  24.897  -8.786  1.00  0.00    -0.211 OA
BRANCH  18  21
HETATM   21  C10 UNL     1      45.558  24.946  -9.216  1.00  0.00     0.153 C 
HETATM   22  C11 UNL     1      45.683  26.209 -10.080  1.00  0.00     0.022 C 
ENDBRANCH  18  21
ENDBRANCH   7  18
BRANCH   1  23
HETATM   23  C3  UNL     1      45.279  21.396  -6.226  1.00  0.00     0.269 C 
HETATM   24  O2  UNL     1      44.522  21.961  -7.051  1.00  0.00    -0.264 OA
BRANCH  23  25
HETATM   25  O1  UNL     1      44.683  20.585  -5.270  1.00  0.00    -0.321 OA
BRANCH  25  26
HETATM   26  C2  UNL     1      43.431  20.954  -4.715  1.00  0.00     0.174 C 
HETATM   27  C1  UNL     1      42.494  19.784  -4.575  1.00  0.00     0.034 C 
ENDBRANCH  25  26
ENDBRANCH  23  25
ENDBRANCH   1  23
TORSDOF 5
ENDMDL
MODEL 4
REMARK VINA RESULT: -5.864073762      3.260      5.274
REMARK  5 active torsions:
REMARK  status: ('A' for Active; 'I' for Inactive)
REMARK    1  A    between atoms: C2_2  and  O1_3 
REMARK    2  A    between atoms: O1_3  and  C3_4 
REMARK    3  A    between atoms: C3_4  and  C4_6 
REMARK    4  A    between atoms: N1_12  and  S1_13 
REMARK    5  A    between atoms: S1_13  and  C10_16 
ROOT
HETATM    1  C4  UNL     1      46.066  22.550  -5.233  1.00  0.00     0.066 C 
HETATM    2  C5  UNL     1      44.812  22.567  -4.381  1.00  0.00     0.021 C 
HETATM    3  C6  UNL     1      44.570  23.995  -3.935  1.00  0.00     0.001 C 
HETATM    4  C7  UNL     1      44.204  24.754  -5.188  1.00  0.00     0.002 C 
HETATM    5  C8  UNL     1      45.400  24.812  -6.084  1.00  0.00     0.022 C 
HETATM    6  C9  UNL     1      45.869  23.451  -6.437  1.00  0.00     0.092 C 
HETATM    7  N1  UNL     1      47.072  23.360  -7.191  1.00  0.00    -0.204 NA
HETATM    8  C12 UNL     1      47.117  22.060  -7.822  1.00  0.00     0.117 C 
HETATM    9  C13 UNL     1      47.204  20.915  -6.800  1.00  0.00    -0.026 C 
HETATM   10  C14 UNL     1      48.582  20.843  -6.319  1.00  0.00     0.011 C 
HETATM   11  C15 UNL     1      49.615  20.246  -7.191  1.00  0.00     0.001 C 
HETATM   12  C16 UNL     1      49.580  18.845  -7.546  1.00  0.00     0.000 C 
HETATM   13  C17 UNL     1      49.056  17.847  -6.596  1.00  0.00     0.000 C 
HETATM   14  C18 UNL     1      47.702  17.932  -6.085  1.00  0.00     0.000 C 
HETATM   15  C19 UNL     1      46.610  18.442  -6.922  1.00  0.00     0.001 C 
HETATM   16  C20 UNL     1      46.669  19.741  -7.563  1.00  0.00     0.011 C 
HETATM   17  C21 UNL     1      46.259  21.140  -5.655  1.00  0.00     0.032 C 
ENDROOT
BRANCH   7  18
HETATM   18  S1  UNL     1      47.237  24.501  -8.469  1.00  0.00     0.211 S 
HETATM   19  O3  UNL     1      47.662  25.866  -7.986  1.00  0.00    -0.211 OA
HETATM   20  O4  UNL     1      48.210  23.991  -9.513  1.00  0.00    -0.211 OA
BRANCH  18  21
HETATM   21  C10 UNL     1      45.690  24.710  -9.317  1.00  0.00     0.153 C 
HETATM   22  C11 UNL     1      45.743  26.105  -9.956  1.00  0.00     0.022 C 
ENDBRANCH  18  21
ENDBRANCH   7  18
BRANCH   1  23
HETATM   23  C3  UNL     1      47.162  23.042  -4.361  1.00  0.00     0.269 C 
HETATM   24  O2  UNL     1      47.817  24.094  -4.557  1.00  0.00    -0.264 OA
BRANCH  23  25
HETATM   25  O1  UNL     1      47.493  22.287  -3.245  1.00  0.00    -0.321 OA
BRANCH  25  26
HETATM   26  C2  UNL     1      47.720  22.930  -2.001  1.00  0.00     0.174 C 
HETATM   27  C1  UNL     1      46.593  22.717  -1.026  1.00  0.00     0.034 C 
ENDBRANCH  25  26
ENDBRANCH  23  25
ENDBRANCH   1  23
TORSDOF 5
ENDMDL
MODEL 5
REMARK VINA RESULT: -5.824344930      3.152      5.491
REMARK  5 active torsions:
REMARK  status: ('A' for Active; 'I' for Inactive)
REMARK    1  A    between atoms: C2_2  and  O1_3 
REMARK    2  A    between atoms: O1_3  and  C3_4 
REMARK    3  A    between atoms: C3_4  and  C4_6 
REMARK    4  A    between atoms: N1_12  and  S1_13 
REMARK    5  A    between atoms: S1_13  and  C10_16 
ROOT
HETATM    1  C4  UNL     1      46.732  24.186  -2.356  1.00  0.00     0.066 C 
HETATM    2  C5  UNL     1      46.231  24.337  -0.933  1.00  0.00     0.021 C 
HETATM    3  C6  UNL     1      47.331  24.987  -0.118  1.00  0.00     0.001 C 
HETATM    4  C7  UNL     1      47.445  26.398  -0.646  1.00  0.00     0.002 C 
HETATM    5  C8  UNL     1      47.964  26.347  -2.047  1.00  0.00     0.022 C 
HETATM    6  C9  UNL     1      47.066  25.554  -2.921  1.00  0.00     0.092 C 
HETATM    7  N1  UNL     1      47.502  25.327  -4.256  1.00  0.00    -0.204 NA
HETATM    8  C12 UNL     1      46.352  24.971  -5.055  1.00  0.00     0.117 C 
HETATM    9  C13 UNL     1      45.721  23.640  -4.614  1.00  0.00    -0.026 C 
HETATM   10  C14 UNL     1      46.548  22.553  -5.135  1.00  0.00     0.011 C 
HETATM   11  C15 UNL     1      46.459  22.209  -6.570  1.00  0.00     0.001 C 
HETATM   12  C16 UNL     1      45.245  21.666  -7.138  1.00  0.00     0.000 C 
HETATM   13  C17 UNL     1      44.371  20.792  -6.334  1.00  0.00     0.000 C 
HETATM   14  C18 UNL     1      43.791  21.250  -5.088  1.00  0.00     0.000 C 
HETATM   15  C19 UNL     1      43.393  22.651  -4.909  1.00  0.00     0.001 C 
HETATM   16  C20 UNL     1      44.314  23.750  -5.121  1.00  0.00     0.011 C 
HETATM   17  C21 UNL     1      45.626  23.556  -3.119  1.00  0.00     0.032 C 
ENDROOT
BRANCH   7  18
HETATM   18  S1  UNL     1      48.214  26.680  -5.046  1.00  0.00     0.211 S 
HETATM   19  O3  UNL     1      47.577  27.990  -4.654  1.00  0.00    -0.211 OA
HETATM   20  O4  UNL     1      49.706  26.724  -4.780  1.00  0.00    -0.211 OA
BRANCH  18  21
HETATM   21  C10 UNL     1      48.045  26.528  -6.807  1.00  0.00     0.153 C 
HETATM   22  C11 UNL     1      48.409  27.903  -7.387  1.00  0.00     0.022 C 
ENDBRANCH  18  21
ENDBRANCH   7  18
BRANCH   1  23
HETATM   23  C3  UNL     1      47.938  23.322  -2.278  1.00  0.00     0.269 C 
HETATM   24  O2  UNL     1      49.105  23.695  -2.544  1.00  0.00    -0.264 OA
BRANCH  23  25
HETATM   25  O1  UNL     1      47.767  22.003  -1.884  1.00  0.00    -0.321 OA
BRANCH  25  26
HETATM   26  C2  UNL     1      48.478  21.505  -0.762  1.00  0.00     0.174 C 
HETATM   27  C1  UNL     1      47.565  21.008   0.326  1.00  0.00     0.034 C 
ENDBRANCH  25  26
ENDBRANCH  23  25
ENDBRANCH   1  23
TORSDOF 5
ENDMDL
