MODEL 1
REMARK VINA RESULT: -7.438217302      0.000      0.000
REMARK  8 active torsions:
REMARK  status: ('A' for Active; 'I' for Inactive)
REMARK    1  A    between atoms: N1_1  and  C1_4 
REMARK    2  A    between atoms: N3_7  and  C2_8 
REMARK    3  A    between atoms: C2_8  and  C3_9 
REMARK    4  A    between atoms: C9_17  and  C10_18 
REMARK    5  A    between atoms: C10_18  and  C11_19 
REMARK    6  A    between atoms: C11_19  and  C12_20 
REMARK    7  A    between atoms: C12_20  and  C13_21 
REMARK    8  A    between atoms: C13_21  and  N5_22 
ROOT
HETATM    1  C1  UNL     1      57.305  44.012  38.007  1.00  0.00     0.121 A 
HETATM    2  N2  UNL     1      58.240  43.417  37.223  1.00  0.00    -0.283 N 
ATOM      3  H2  UNL     1      59.220  43.278  37.466  1.00  0.00     0.189 HD
HETATM    4  N3  UNL     1      57.664  43.050  36.091  1.00  0.00    -0.297 N 
HETATM    5  C8  UNL     1      56.348  43.404  36.131  1.00  0.00     0.121 A 
HETATM    6  C9  UNL     1      56.107  44.014  37.338  1.00  0.00     0.004 A 
ENDROOT
BRANCH   4   7
HETATM    7  C2  UNL     1      58.354  42.376  34.995  1.00  0.00     0.188 C 
BRANCH   7   8
HETATM    8  C3  UNL     1      58.703  40.997  35.413  1.00  0.00    -0.023 A 
HETATM    9  C4  UNL     1      59.768  40.383  34.793  1.00  0.00     0.011 A 
HETATM   10  C5  UNL     1      60.118  39.100  35.157  1.00  0.00     0.018 A 
HETATM   11  C6  UNL     1      59.384  38.462  36.145  1.00  0.00     0.087 A 
HETATM   12  N4  UNL     1      58.365  39.105  36.709  1.00  0.00    -0.375 N 
HETATM   13  C7  UNL     1      57.978  40.345  36.400  1.00  0.00     0.096 A 
ATOM     14  H4  UNL     1      57.839  38.614  37.432  1.00  0.00     0.164 HD
ENDBRANCH   7   8
ENDBRANCH   4   7
BRANCH   1  15
HETATM   15  N1  UNL     1      57.507  44.491  39.168  1.00  0.00    -0.384 N 
ATOM     16  H12 UNL     1      57.584  43.951  40.029  1.00  0.00     0.157 HD
ATOM     17  H11 UNL     1      57.617  45.480  39.392  1.00  0.00     0.157 HD
ENDBRANCH   1  15
BRANCH   6  18
HETATM   18  C10 UNL     1      54.774  44.534  37.752  1.00  0.00     0.044 C 
BRANCH  18  19
HETATM   19  C11 UNL     1      53.888  44.771  36.592  1.00  0.00     0.006 C 
BRANCH  19  20
HETATM   20  C12 UNL     1      53.565  46.167  36.270  1.00  0.00     0.027 C 
BRANCH  20  21
HETATM   21  C13 UNL     1      53.614  46.641  34.877  1.00  0.00     0.229 C 
BRANCH  21  22
HETATM   22  N5  UNL     1      54.803  46.254  34.203  1.00  0.00    -0.079 N 
ATOM     23  H53 UNL     1      54.816  46.614  33.249  1.00  0.00     0.274 HD
ATOM     24  H52 UNL     1      55.612  46.748  34.578  1.00  0.00     0.274 HD
ATOM     25  H51 UNL     1      54.955  45.245  34.214  1.00  0.00     0.274 HD
ENDBRANCH  21  22
ENDBRANCH  20  21
ENDBRANCH  19  20
ENDBRANCH  18  19
ENDBRANCH   6  18
TORSDOF 8
ENDMDL
MODEL 2
REMARK VINA RESULT: -7.346153270      1.479      6.818
REMARK  8 active torsions:
REMARK  status: ('A' for Active; 'I' for Inactive)
REMARK    1  A    between atoms: N1_1  and  C1_4 
REMARK    2  A    between atoms: N3_7  and  C2_8 
REMARK    3  A    between atoms: C2_8  and  C3_9 
REMARK    4  A    between atoms: C9_17  and  C10_18 
REMARK    5  A    between atoms: C10_18  and  C11_19 
REMARK    6  A    between atoms: C11_19  and  C12_20 
REMARK    7  A    between atoms: C12_20  and  C13_21 
REMARK    8  A    between atoms: C13_21  and  N5_22 
ROOT
HETATM    1  C1  UNL     1      57.743  43.925  38.176  1.00  0.00     0.121 A 
HETATM    2  N2  UNL     1      56.598  44.240  38.833  1.00  0.00    -0.283 N 
ATOM      3  H2  UNL     1      56.532  44.548  39.803  1.00  0.00     0.189 HD
HETATM    4  N3  UNL     1      55.582  44.079  38.002  1.00  0.00    -0.297 N 
HETATM    5  C8  UNL     1      56.060  43.658  36.797  1.00  0.00     0.121 A 
HETATM    6  C9  UNL     1      57.427  43.557  36.893  1.00  0.00     0.004 A 
ENDROOT
BRANCH   4   7
HETATM    7  C2  UNL     1      54.186  44.321  38.350  1.00  0.00     0.188 C 
BRANCH   7   8
HETATM    8  C3  UNL     1      53.668  45.447  37.535  1.00  0.00    -0.023 A 
HETATM    9  C4  UNL     1      52.514  45.244  36.812  1.00  0.00     0.011 A 
HETATM   10  C5  UNL     1      52.006  46.270  36.042  1.00  0.00     0.018 A 
HETATM   11  C6  UNL     1      52.675  47.484  36.021  1.00  0.00     0.087 A 
HETATM   12  N4  UNL     1      53.787  47.621  36.740  1.00  0.00    -0.375 N 
HETATM   13  C7  UNL     1      54.327  46.667  37.502  1.00  0.00     0.096 A 
ATOM     14  H4  UNL     1      54.263  48.523  36.706  1.00  0.00     0.164 HD
ENDBRANCH   7   8
ENDBRANCH   4   7
BRANCH   1  15
HETATM   15  N1  UNL     1      58.915  43.964  38.671  1.00  0.00    -0.384 N 
ATOM     16  H12 UNL     1      59.163  44.341  39.585  1.00  0.00     0.157 HD
ATOM     17  H11 UNL     1      59.763  43.624  38.216  1.00  0.00     0.157 HD
ENDBRANCH   1  15
BRANCH   6  18
HETATM   18  C10 UNL     1      58.307  43.130  35.770  1.00  0.00     0.044 C 
BRANCH  18  19
HETATM   19  C11 UNL     1      58.003  41.755  35.319  1.00  0.00     0.006 C 
BRANCH  19  20
HETATM   20  C12 UNL     1      58.174  40.676  36.300  1.00  0.00     0.027 C 
BRANCH  20  21
HETATM   21  C13 UNL     1      58.943  39.468  35.953  1.00  0.00     0.229 C 
BRANCH  21  22
HETATM   22  N5  UNL     1      58.541  38.325  36.694  1.00  0.00    -0.079 N 
ATOM     23  H53 UNL     1      59.181  38.149  37.467  1.00  0.00     0.274 HD
ATOM     24  H52 UNL     1      57.690  38.514  37.222  1.00  0.00     0.274 HD
ATOM     25  H51 UNL     1      58.433  37.494  36.113  1.00  0.00     0.274 HD
ENDBRANCH  21  22
ENDBRANCH  20  21
ENDBRANCH  19  20
ENDBRANCH  18  19
ENDBRANCH   6  18
TORSDOF 8
ENDMDL
MODEL 3
REMARK VINA RESULT: -7.087657265      1.733      6.968
REMARK  8 active torsions:
REMARK  status: ('A' for Active; 'I' for Inactive)
REMARK    1  A    between atoms: N1_1  and  C1_4 
REMARK    2  A    between atoms: N3_7  and  C2_8 
REMARK    3  A    between atoms: C2_8  and  C3_9 
REMARK    4  A    between atoms: C9_17  and  C10_18 
REMARK    5  A    between atoms: C10_18  and  C11_19 
REMARK    6  A    between atoms: C11_19  and  C12_20 
REMARK    7  A    between atoms: C12_20  and  C13_21 
REMARK    8  A    between atoms: C13_21  and  N5_22 
ROOT
HETATM    1  C1  UNL     1      56.288  42.401  36.514  1.00  0.00     0.121 A 
HETATM    2  N2  UNL     1      55.878  43.576  37.057  1.00  0.00    -0.283 N 
ATOM      3  H2  UNL     1      55.189  43.681  37.802  1.00  0.00     0.189 HD
HETATM    4  N3  UNL     1      56.524  44.561  36.456  1.00  0.00    -0.297 N 
HETATM    5  C8  UNL     1      57.359  44.034  35.517  1.00  0.00     0.121 A 
HETATM    6  C9  UNL     1      57.220  42.667  35.543  1.00  0.00     0.004 A 
ENDROOT
BRANCH   4   7
HETATM    7  C2  UNL     1      56.347  45.976  36.771  1.00  0.00     0.188 C 
BRANCH   7   8
HETATM    8  C3  UNL     1      54.931  46.352  36.545  1.00  0.00    -0.023 A 
HETATM    9  C4  UNL     1      54.448  46.310  35.256  1.00  0.00     0.011 A 
HETATM   10  C5  UNL     1      53.135  46.656  35.012  1.00  0.00     0.018 A 
HETATM   11  C6  UNL     1      52.335  47.036  36.077  1.00  0.00     0.087 A 
HETATM   12  N4  UNL     1      52.856  47.058  37.301  1.00  0.00    -0.375 N 
HETATM   13  C7  UNL     1      54.117  46.735  37.601  1.00  0.00     0.096 A 
ATOM     14  H4  UNL     1      52.248  47.343  38.069  1.00  0.00     0.164 HD
ENDBRANCH   7   8
ENDBRANCH   4   7
BRANCH   1  15
HETATM   15  N1  UNL     1      55.873  41.246  36.849  1.00  0.00    -0.384 N 
ATOM     16  H12 UNL     1      54.938  40.876  36.676  1.00  0.00     0.157 HD
ATOM     17  H11 UNL     1      56.420  40.537  37.337  1.00  0.00     0.157 HD
ENDBRANCH   1  15
BRANCH   6  18
HETATM   18  C10 UNL     1      57.980  41.740  34.658  1.00  0.00     0.044 C 
BRANCH  18  19
HETATM   19  C11 UNL     1      59.192  41.213  35.320  1.00  0.00     0.006 C 
BRANCH  19  20
HETATM   20  C12 UNL     1      59.633  39.866  34.936  1.00  0.00     0.027 C 
BRANCH  20  21
HETATM   21  C13 UNL     1      59.653  38.777  35.927  1.00  0.00     0.229 C 
BRANCH  21  22
HETATM   22  N5  UNL     1      58.546  38.818  36.815  1.00  0.00    -0.079 N 
ATOM     23  H53 UNL     1      58.853  38.982  37.774  1.00  0.00     0.274 HD
ATOM     24  H52 UNL     1      57.994  39.663  36.670  1.00  0.00     0.274 HD
ATOM     25  H51 UNL     1      57.960  37.985  36.758  1.00  0.00     0.274 HD
ENDBRANCH  21  22
ENDBRANCH  20  21
ENDBRANCH  19  20
ENDBRANCH  18  19
ENDBRANCH   6  18
TORSDOF 8
ENDMDL
MODEL 4
REMARK VINA RESULT: -7.041978200      1.420      6.718
REMARK  8 active torsions:
REMARK  status: ('A' for Active; 'I' for Inactive)
REMARK    1  A    between atoms: N1_1  and  C1_4 
REMARK    2  A    between atoms: N3_7  and  C2_8 
REMARK    3  A    between atoms: C2_8  and  C3_9 
REMARK    4  A    between atoms: C9_17  and  C10_18 
REMARK    5  A    between atoms: C10_18  and  C11_19 
REMARK    6  A    between atoms: C11_19  and  C12_20 
REMARK    7  A    between atoms: C12_20  and  C13_21 
REMARK    8  A    between atoms: C13_21  and  N5_22 
ROOT
HETATM    1  C1  UNL     1      57.599  43.953  38.132  1.00  0.00     0.121 A 
HETATM    2  N2  UNL     1      56.443  44.269  38.769  1.00  0.00    -0.283 N 
ATOM      3  H2  UNL     1      56.359  44.564  39.741  1.00  0.00     0.189 HD
HETATM    4  N3  UNL     1      55.443  44.128  37.914  1.00  0.00    -0.297 N 
HETATM    5  C8  UNL     1      55.943  43.720  36.714  1.00  0.00     0.121 A 
HETATM    6  C9  UNL     1      57.307  43.605  36.837  1.00  0.00     0.004 A 
ENDROOT
BRANCH   4   7
HETATM    7  C2  UNL     1      54.042  44.378  38.237  1.00  0.00     0.188 C 
BRANCH   7   8
HETATM    8  C3  UNL     1      53.459  45.280  37.214  1.00  0.00    -0.023 A 
HETATM    9  C4  UNL     1      53.834  46.605  37.231  1.00  0.00     0.011 A 
HETATM   10  C5  UNL     1      53.310  47.471  36.294  1.00  0.00     0.018 A 
HETATM   11  C6  UNL     1      52.417  46.979  35.356  1.00  0.00     0.087 A 
HETATM   12  N4  UNL     1      52.091  45.689  35.388  1.00  0.00    -0.375 N 
HETATM   13  C7  UNL     1      52.563  44.803  36.268  1.00  0.00     0.096 A 
ATOM     14  H4  UNL     1      51.430  45.352  34.688  1.00  0.00     0.164 HD
ENDBRANCH   7   8
ENDBRANCH   4   7
BRANCH   1  15
HETATM   15  N1  UNL     1      58.760  43.974  38.651  1.00  0.00    -0.384 N 
ATOM     16  H12 UNL     1      59.628  44.180  38.158  1.00  0.00     0.157 HD
ATOM     17  H11 UNL     1      58.977  43.785  39.629  1.00  0.00     0.157 HD
ENDBRANCH   1  15
BRANCH   6  18
HETATM   18  C10 UNL     1      58.207  43.186  35.726  1.00  0.00     0.044 C 
BRANCH  18  19
HETATM   19  C11 UNL     1      57.937  41.801  35.288  1.00  0.00     0.006 C 
BRANCH  19  20
HETATM   20  C12 UNL     1      58.134  40.734  36.278  1.00  0.00     0.027 C 
BRANCH  20  21
HETATM   21  C13 UNL     1      58.924  39.539  35.940  1.00  0.00     0.229 C 
BRANCH  21  22
HETATM   22  N5  UNL     1      58.540  38.393  36.685  1.00  0.00    -0.079 N 
ATOM     23  H53 UNL     1      59.314  37.733  36.765  1.00  0.00     0.274 HD
ATOM     24  H52 UNL     1      58.416  38.624  37.670  1.00  0.00     0.274 HD
ATOM     25  H51 UNL     1      57.708  37.935  36.310  1.00  0.00     0.274 HD
ENDBRANCH  21  22
ENDBRANCH  20  21
ENDBRANCH  19  20
ENDBRANCH  18  19
ENDBRANCH   6  18
TORSDOF 8
ENDMDL
MODEL 5
REMARK VINA RESULT: -7.035901133      1.571      2.392
REMARK  8 active torsions:
REMARK  status: ('A' for Active; 'I' for Inactive)
REMARK    1  A    between atoms: N1_1  and  C1_4 
REMARK    2  A    between atoms: N3_7  and  C2_8 
REMARK    3  A    between atoms: C2_8  and  C3_9 
REMARK    4  A    between atoms: C9_17  and  C10_18 
REMARK    5  A    between atoms: C10_18  and  C11_19 
REMARK    6  A    between atoms: C11_19  and  C12_20 
REMARK    7  A    between atoms: C12_20  and  C13_21 
REMARK    8  A    between atoms: C13_21  and  N5_22 
ROOT
HETATM    1  C1  UNL     1      57.301  43.948  38.130  1.00  0.00     0.121 A 
HETATM    2  N2  UNL     1      58.270  43.500  37.291  1.00  0.00    -0.283 N 
ATOM      3  H2  UNL     1      59.275  43.599  37.435  1.00  0.00     0.189 HD
HETATM    4  N3  UNL     1      57.690  42.916  36.257  1.00  0.00    -0.297 N 
HETATM    5  C8  UNL     1      56.337  42.979  36.415  1.00  0.00     0.121 A 
HETATM    6  C9  UNL     1      56.077  43.630  37.597  1.00  0.00     0.004 A 
ENDROOT
BRANCH   4   7
HETATM    7  C2  UNL     1      58.410  42.310  35.141  1.00  0.00     0.188 C 
BRANCH   7   8
HETATM    8  C3  UNL     1      58.777  40.918  35.495  1.00  0.00    -0.023 A 
HETATM    9  C4  UNL     1      59.754  40.297  34.749  1.00  0.00     0.011 A 
HETATM   10  C5  UNL     1      60.118  39.001  35.052  1.00  0.00     0.018 A 
HETATM   11  C6  UNL     1      59.488  38.359  36.106  1.00  0.00     0.087 A 
HETATM   12  N4  UNL     1      58.551  39.010  36.791  1.00  0.00    -0.375 N 
HETATM   13  C7  UNL     1      58.156  40.261  36.547  1.00  0.00     0.096 A 
ATOM     14  H4  UNL     1      58.101  38.515  37.561  1.00  0.00     0.164 HD
ENDBRANCH   7   8
ENDBRANCH   4   7
BRANCH   1  15
HETATM   15  N1  UNL     1      57.496  44.563  39.226  1.00  0.00    -0.384 N 
ATOM     16  H12 UNL     1      56.844  44.605  40.009  1.00  0.00     0.157 HD
ATOM     17  H11 UNL     1      58.330  45.099  39.466  1.00  0.00     0.157 HD
ENDBRANCH   1  15
BRANCH   6  18
HETATM   18  C10 UNL     1      54.705  43.884  38.118  1.00  0.00     0.044 C 
BRANCH  18  19
HETATM   19  C11 UNL     1      54.341  45.315  38.042  1.00  0.00     0.006 C 
BRANCH  19  20
HETATM   20  C12 UNL     1      53.988  45.984  39.301  1.00  0.00     0.027 C 
BRANCH  20  21
HETATM   21  C13 UNL     1      53.328  45.235  40.383  1.00  0.00     0.229 C 
BRANCH  21  22
HETATM   22  N5  UNL     1      53.351  45.923  41.626  1.00  0.00    -0.079 N 
ATOM     23  H53 UNL     1      53.808  46.831  41.532  1.00  0.00     0.274 HD
ATOM     24  H52 UNL     1      52.416  46.234  41.888  1.00  0.00     0.274 HD
ATOM     25  H51 UNL     1      53.777  45.376  42.374  1.00  0.00     0.274 HD
ENDBRANCH  21  22
ENDBRANCH  20  21
ENDBRANCH  19  20
ENDBRANCH  18  19
ENDBRANCH   6  18
TORSDOF 8
ENDMDL
