MODEL 1
REMARK VINA RESULT: -7.140755372      0.000      0.000
REMARK  8 active torsions:
REMARK  status: ('A' for Active; 'I' for Inactive)
REMARK    1  A    between atoms: N1_1  and  C1_5 
REMARK    2  A    between atoms: C1_5  and  C2_6 
REMARK    3  A    between atoms: C2_6  and  N2_7 
REMARK    4  A    between atoms: N2_7  and  C3_10 
REMARK    5  A    between atoms: C3_10  and  C4_11 
REMARK    6  A    between atoms: C4_11  and  C5_12 
REMARK    7  A    between atoms: C5_12  and  N3_13 
REMARK    8  A    between atoms: N3_13  and  C6_15 
ROOT
HETATM    1  C5  UNL     1      56.138  45.189  35.733  1.00  0.00     0.123 C 
ENDROOT
BRANCH   1   2
HETATM    2  C4  UNL     1      56.252  46.104  36.918  1.00  0.00     0.047 C 
BRANCH   2   3
HETATM    3  C3  UNL     1      54.923  46.293  37.619  1.00  0.00     0.234 C 
BRANCH   3   4
HETATM    4  N2  UNL     1      54.115  47.307  36.958  1.00  0.00    -0.073 N 
ATOM      5  H22 UNL     1      54.551  47.685  36.117  1.00  0.00     0.277 HD
ATOM      6  H21 UNL     1      54.062  48.183  37.478  1.00  0.00     0.277 HD
BRANCH   4   7
HETATM    7  C2  UNL     1      52.816  46.706  36.711  1.00  0.00     0.259 C 
BRANCH   7   8
HETATM    8  C1  UNL     1      52.679  46.273  35.256  1.00  0.00     0.257 C 
BRANCH   8   9
HETATM    9  N1  UNL     1      52.334  44.874  35.191  1.00  0.00    -0.078 N 
ATOM     10  H13 UNL     1      51.459  44.720  34.690  1.00  0.00     0.274 HD
ATOM     11  H12 UNL     1      52.955  44.356  34.569  1.00  0.00     0.274 HD
ATOM     12  H11 UNL     1      52.313  44.477  36.130  1.00  0.00     0.274 HD
ENDBRANCH   8   9
ENDBRANCH   7   8
ENDBRANCH   4   7
ENDBRANCH   3   4
ENDBRANCH   2   3
ENDBRANCH   1   2
BRANCH   1  13
HETATM   13  N3  UNL     1      57.437  44.717  35.295  1.00  0.00    -0.370 N 
ATOM     14  H3  UNL     1      58.080  45.349  34.817  1.00  0.00     0.161 HD
BRANCH  13  15
HETATM   15  C6  UNL     1      57.782  43.462  35.519  1.00  0.00     0.145 A 
HETATM   16  N4  UNL     1      58.702  42.750  34.875  1.00  0.00    -0.336 N 
HETATM   17  C7  UNL     1      58.900  41.501  35.251  1.00  0.00     0.051 A 
ATOM     18  H4  UNL     1      59.240  43.158  34.111  1.00  0.00     0.168 HD
HETATM   19  C8  UNL     1      59.832  40.608  34.680  1.00  0.00     0.031 A 
HETATM   20  C12 UNL     1      58.144  41.022  36.280  1.00  0.00     0.035 A 
HETATM   21  C9  UNL     1      59.934  39.341  35.167  1.00  0.00     0.002 A 
HETATM   22  C10 UNL     1      59.192  38.823  36.200  1.00  0.00     0.002 A 
HETATM   23  C11 UNL     1      58.276  39.707  36.759  1.00  0.00     0.021 A 
HETATM   24  S1  UNL     1      57.176  42.367  36.678  1.00  0.00    -0.052 SA
ENDBRANCH  13  15
ENDBRANCH   1  13
TORSDOF 8
ENDMDL
MODEL 2
REMARK VINA RESULT: -6.878711307      1.057      1.394
REMARK  8 active torsions:
REMARK  status: ('A' for Active; 'I' for Inactive)
REMARK    1  A    between atoms: N1_1  and  C1_5 
REMARK    2  A    between atoms: C1_5  and  C2_6 
REMARK    3  A    between atoms: C2_6  and  N2_7 
REMARK    4  A    between atoms: N2_7  and  C3_10 
REMARK    5  A    between atoms: C3_10  and  C4_11 
REMARK    6  A    between atoms: C4_11  and  C5_12 
REMARK    7  A    between atoms: C5_12  and  N3_13 
REMARK    8  A    between atoms: N3_13  and  C6_15 
ROOT
HETATM    1  C5  UNL     1      56.522  45.526  36.328  1.00  0.00     0.123 C 
ENDROOT
BRANCH   1   2
HETATM    2  C4  UNL     1      55.133  45.892  35.890  1.00  0.00     0.047 C 
BRANCH   2   3
HETATM    3  C3  UNL     1      54.114  44.853  36.308  1.00  0.00     0.234 C 
BRANCH   3   4
HETATM    4  N2  UNL     1      53.012  44.781  35.360  1.00  0.00    -0.073 N 
ATOM      5  H22 UNL     1      52.848  43.840  35.003  1.00  0.00     0.277 HD
ATOM      6  H21 UNL     1      53.221  45.222  34.465  1.00  0.00     0.277 HD
BRANCH   4   7
HETATM    7  C2  UNL     1      51.855  45.353  36.026  1.00  0.00     0.259 C 
BRANCH   7   8
HETATM    8  C1  UNL     1      51.425  46.654  35.360  1.00  0.00     0.257 C 
BRANCH   8   9
HETATM    9  N1  UNL     1      51.433  47.726  36.325  1.00  0.00    -0.078 N 
ATOM     10  H13 UNL     1      52.342  48.184  36.379  1.00  0.00     0.274 HD
ATOM     11  H12 UNL     1      50.882  48.525  36.013  1.00  0.00     0.274 HD
ATOM     12  H11 UNL     1      51.125  47.378  37.232  1.00  0.00     0.274 HD
ENDBRANCH   8   9
ENDBRANCH   7   8
ENDBRANCH   4   7
ENDBRANCH   3   4
ENDBRANCH   2   3
ENDBRANCH   1   2
BRANCH   1  13
HETATM   13  N3  UNL     1      57.239  44.809  35.292  1.00  0.00    -0.370 N 
ATOM     14  H3  UNL     1      57.446  45.264  34.402  1.00  0.00     0.161 HD
BRANCH  13  15
HETATM   15  C6  UNL     1      57.622  43.565  35.508  1.00  0.00     0.145 A 
HETATM   16  N4  UNL     1      58.570  42.887  34.868  1.00  0.00    -0.336 N 
HETATM   17  C7  UNL     1      58.804  41.642  35.235  1.00  0.00     0.051 A 
ATOM     18  H4  UNL     1      59.103  43.319  34.113  1.00  0.00     0.168 HD
HETATM   19  C8  UNL     1      59.770  40.785  34.666  1.00  0.00     0.031 A 
HETATM   20  C12 UNL     1      58.054  41.130  36.252  1.00  0.00     0.035 A 
HETATM   21  C9  UNL     1      59.907  39.517  35.143  1.00  0.00     0.002 A 
HETATM   22  C10 UNL     1      59.172  38.966  36.163  1.00  0.00     0.002 A 
HETATM   23  C11 UNL     1      58.222  39.816  36.721  1.00  0.00     0.021 A 
HETATM   24  S1  UNL     1      57.039  42.441  36.652  1.00  0.00    -0.052 SA
ENDBRANCH  13  15
ENDBRANCH   1  13
TORSDOF 8
ENDMDL
MODEL 3
REMARK VINA RESULT: -6.786022703      1.307      1.869
REMARK  8 active torsions:
REMARK  status: ('A' for Active; 'I' for Inactive)
REMARK    1  A    between atoms: N1_1  and  C1_5 
REMARK    2  A    between atoms: C1_5  and  C2_6 
REMARK    3  A    between atoms: C2_6  and  N2_7 
REMARK    4  A    between atoms: N2_7  and  C3_10 
REMARK    5  A    between atoms: C3_10  and  C4_11 
REMARK    6  A    between atoms: C4_11  and  C5_12 
REMARK    7  A    between atoms: C5_12  and  N3_13 
REMARK    8  A    between atoms: N3_13  and  C6_15 
ROOT
HETATM    1  C5  UNL     1      56.455  45.495  36.294  1.00  0.00     0.123 C 
ENDROOT
BRANCH   1   2
HETATM    2  C4  UNL     1      55.026  45.549  35.837  1.00  0.00     0.047 C 
BRANCH   2   3
HETATM    3  C3  UNL     1      54.264  46.683  36.490  1.00  0.00     0.234 C 
BRANCH   3   4
HETATM    4  N2  UNL     1      54.773  46.965  37.824  1.00  0.00    -0.073 N 
ATOM      5  H22 UNL     1      54.867  47.962  38.018  1.00  0.00     0.277 HD
ATOM      6  H21 UNL     1      55.756  46.719  37.940  1.00  0.00     0.277 HD
BRANCH   4   7
HETATM    7  C2  UNL     1      53.895  46.279  38.755  1.00  0.00     0.259 C 
BRANCH   7   8
HETATM    8  C1  UNL     1      54.687  45.384  39.699  1.00  0.00     0.257 C 
BRANCH   8   9
HETATM    9  N1  UNL     1      54.681  44.027  39.211  1.00  0.00    -0.078 N 
ATOM     10  H13 UNL     1      54.277  43.379  39.886  1.00  0.00     0.274 HD
ATOM     11  H12 UNL     1      54.007  43.895  38.457  1.00  0.00     0.274 HD
ATOM     12  H11 UNL     1      55.624  43.754  38.934  1.00  0.00     0.274 HD
ENDBRANCH   8   9
ENDBRANCH   7   8
ENDBRANCH   4   7
ENDBRANCH   3   4
ENDBRANCH   2   3
ENDBRANCH   1   2
BRANCH   1  13
HETATM   13  N3  UNL     1      57.303  44.832  35.323  1.00  0.00    -0.370 N 
ATOM     14  H3  UNL     1      57.613  45.329  34.487  1.00  0.00     0.161 HD
BRANCH  13  15
HETATM   15  C6  UNL     1      57.671  43.581  35.527  1.00  0.00     0.145 A 
HETATM   16  N4  UNL     1      58.621  42.903  34.890  1.00  0.00    -0.336 N 
HETATM   17  C7  UNL     1      58.838  41.651  35.244  1.00  0.00     0.051 A 
ATOM     18  H4  UNL     1      59.167  43.339  34.148  1.00  0.00     0.168 HD
HETATM   19  C8  UNL     1      59.803  40.791  34.676  1.00  0.00     0.031 A 
HETATM   20  C12 UNL     1      58.070  41.133  36.246  1.00  0.00     0.035 A 
HETATM   21  C9  UNL     1      59.923  39.517  35.139  1.00  0.00     0.002 A 
HETATM   22  C10 UNL     1      59.169  38.960  36.143  1.00  0.00     0.002 A 
HETATM   23  C11 UNL     1      58.221  39.811  36.700  1.00  0.00     0.021 A 
HETATM   24  S1  UNL     1      57.064  42.448  36.649  1.00  0.00    -0.052 SA
ENDBRANCH  13  15
ENDBRANCH   1  13
TORSDOF 8
ENDMDL
MODEL 4
REMARK VINA RESULT: -6.761720989      2.050      3.012
REMARK  8 active torsions:
REMARK  status: ('A' for Active; 'I' for Inactive)
REMARK    1  A    between atoms: N1_1  and  C1_5 
REMARK    2  A    between atoms: C1_5  and  C2_6 
REMARK    3  A    between atoms: C2_6  and  N2_7 
REMARK    4  A    between atoms: N2_7  and  C3_10 
REMARK    5  A    between atoms: C3_10  and  C4_11 
REMARK    6  A    between atoms: C4_11  and  C5_12 
REMARK    7  A    between atoms: C5_12  and  N3_13 
REMARK    8  A    between atoms: N3_13  and  C6_15 
ROOT
HETATM    1  C5  UNL     1      53.804  46.711  34.921  1.00  0.00     0.123 C 
ENDROOT
BRANCH   1   2
HETATM    2  C4  UNL     1      53.135  47.546  35.974  1.00  0.00     0.047 C 
BRANCH   2   3
HETATM    3  C3  UNL     1      51.775  46.998  36.354  1.00  0.00     0.234 C 
BRANCH   3   4
HETATM    4  N2  UNL     1      50.755  48.035  36.305  1.00  0.00    -0.073 N 
ATOM      5  H22 UNL     1      51.040  48.857  35.774  1.00  0.00     0.277 HD
ATOM      6  H21 UNL     1      50.614  48.504  37.199  1.00  0.00     0.277 HD
BRANCH   4   7
HETATM    7  C2  UNL     1      49.552  47.407  35.789  1.00  0.00     0.259 C 
BRANCH   7   8
HETATM    8  C1  UNL     1      49.891  46.308  34.790  1.00  0.00     0.257 C 
BRANCH   8   9
HETATM    9  N1  UNL     1      48.710  45.536  34.489  1.00  0.00    -0.078 N 
ATOM     10  H13 UNL     1      48.657  44.686  35.050  1.00  0.00     0.274 HD
ATOM     11  H12 UNL     1      47.861  45.989  34.826  1.00  0.00     0.274 HD
ATOM     12  H11 UNL     1      48.670  45.338  33.490  1.00  0.00     0.274 HD
ENDBRANCH   8   9
ENDBRANCH   7   8
ENDBRANCH   4   7
ENDBRANCH   3   4
ENDBRANCH   2   3
ENDBRANCH   1   2
BRANCH   1  13
HETATM   13  N3  UNL     1      55.220  46.550  35.184  1.00  0.00    -0.370 N 
ATOM     14  H3  UNL     1      55.842  47.359  35.167  1.00  0.00     0.161 HD
BRANCH  13  15
HETATM   15  C6  UNL     1      55.700  45.348  35.446  1.00  0.00     0.145 A 
HETATM   16  N4  UNL     1      56.793  44.786  34.938  1.00  0.00    -0.336 N 
HETATM   17  C7  UNL     1      57.106  43.566  35.329  1.00  0.00     0.051 A 
ATOM     18  H4  UNL     1      57.373  45.285  34.264  1.00  0.00     0.168 HD
HETATM   19  C8  UNL     1      58.225  42.824  34.893  1.00  0.00     0.031 A 
HETATM   20  C12 UNL     1      56.284  42.960  36.233  1.00  0.00     0.035 A 
HETATM   21  C9  UNL     1      58.432  41.570  35.380  1.00  0.00     0.002 A 
HETATM   22  C10 UNL     1      57.628  40.926  36.289  1.00  0.00     0.002 A 
HETATM   23  C11 UNL     1      56.527  41.661  36.715  1.00  0.00     0.021 A 
HETATM   24  S1  UNL     1      55.092  44.149  36.495  1.00  0.00    -0.052 SA
ENDBRANCH  13  15
ENDBRANCH   1  13
TORSDOF 8
ENDMDL
MODEL 5
REMARK VINA RESULT: -6.622455505      1.534      1.958
REMARK  8 active torsions:
REMARK  status: ('A' for Active; 'I' for Inactive)
REMARK    1  A    between atoms: N1_1  and  C1_5 
REMARK    2  A    between atoms: C1_5  and  C2_6 
REMARK    3  A    between atoms: C2_6  and  N2_7 
REMARK    4  A    between atoms: N2_7  and  C3_10 
REMARK    5  A    between atoms: C3_10  and  C4_11 
REMARK    6  A    between atoms: C4_11  and  C5_12 
REMARK    7  A    between atoms: C5_12  and  N3_13 
REMARK    8  A    between atoms: N3_13  and  C6_15 
ROOT
HETATM    1  C5  UNL     1      56.024  44.366  37.659  1.00  0.00     0.123 C 
ENDROOT
BRANCH   1   2
HETATM    2  C4  UNL     1      54.687  44.666  38.272  1.00  0.00     0.047 C 
BRANCH   2   3
HETATM    3  C3  UNL     1      54.514  46.142  38.563  1.00  0.00     0.234 C 
BRANCH   3   4
HETATM    4  N2  UNL     1      54.754  46.948  37.376  1.00  0.00    -0.073 N 
ATOM      5  H22 UNL     1      55.488  46.573  36.775  1.00  0.00     0.277 HD
ATOM      6  H21 UNL     1      55.200  47.842  37.579  1.00  0.00     0.277 HD
BRANCH   4   7
HETATM    7  C2  UNL     1      53.475  47.083  36.702  1.00  0.00     0.259 C 
BRANCH   7   8
HETATM    8  C1  UNL     1      53.535  46.517  35.289  1.00  0.00     0.257 C 
BRANCH   8   9
HETATM    9  N1  UNL     1      54.886  46.586  34.789  1.00  0.00    -0.078 N 
ATOM     10  H13 UNL     1      54.968  46.191  33.853  1.00  0.00     0.274 HD
ATOM     11  H12 UNL     1      55.165  47.542  34.572  1.00  0.00     0.274 HD
ATOM     12  H11 UNL     1      55.524  46.141  35.450  1.00  0.00     0.274 HD
ENDBRANCH   8   9
ENDBRANCH   7   8
ENDBRANCH   4   7
ENDBRANCH   3   4
ENDBRANCH   2   3
ENDBRANCH   1   2
BRANCH   1  13
HETATM   13  N3  UNL     1      55.892  43.615  36.426  1.00  0.00    -0.370 N 
ATOM     14  H3  UNL     1      55.114  43.800  35.792  1.00  0.00     0.161 HD
BRANCH  13  15
HETATM   15  C6  UNL     1      56.785  42.690  36.129  1.00  0.00     0.145 A 
HETATM   16  N4  UNL     1      57.024  41.557  36.783  1.00  0.00    -0.336 N 
HETATM   17  C7  UNL     1      57.968  40.758  36.324  1.00  0.00     0.051 A 
ATOM     18  H4  UNL     1      56.492  41.312  37.618  1.00  0.00     0.168 HD
HETATM   19  C8  UNL     1      58.349  39.524  36.892  1.00  0.00     0.031 A 
HETATM   20  C12 UNL     1      58.639  41.149  35.202  1.00  0.00     0.035 A 
HETATM   21  C9  UNL     1      59.343  38.796  36.313  1.00  0.00     0.002 A 
HETATM   22  C10 UNL     1      60.041  39.156  35.186  1.00  0.00     0.002 A 
HETATM   23  C11 UNL     1      59.661  40.372  34.630  1.00  0.00     0.021 A 
HETATM   24  S1  UNL     1      57.902  42.643  34.840  1.00  0.00    -0.052 SA
ENDBRANCH  13  15
ENDBRANCH   1  13
TORSDOF 8
ENDMDL
