MODEL 1
REMARK VINA RESULT: -7.615524437      0.000      0.000
REMARK  6 active torsions:
REMARK  status: ('A' for Active; 'I' for Inactive)
REMARK    1  A    between atoms: N2_7  and  C4_8 
REMARK    2  A    between atoms: C4_8  and  C5_9 
REMARK    3  A    between atoms: C5_9  and  C6_10 
REMARK    4  A    between atoms: C6_10  and  C7_11 
REMARK    5  A    between atoms: C7_11  and  N3_12 
REMARK    6  A    between atoms: N3_12  and  C8_15 
ROOT
HETATM    1  C6  UNL     1      57.070  44.807  35.597  1.00  0.00     0.029 C 
ENDROOT
BRANCH   1   2
HETATM    2  C5  UNL     1      57.284  43.384  35.263  1.00  0.00     0.022 C 
BRANCH   2   3
HETATM    3  C4  UNL     1      58.672  42.869  35.243  1.00  0.00     0.129 C 
BRANCH   3   4
HETATM    4  N2  UNL     1      58.802  41.450  35.494  1.00  0.00    -0.353 N 
HETATM    5  C3  UNL     1      59.733  40.709  34.841  1.00  0.00     0.095 A 
HETATM    6  C2  UNL     1      59.868  39.363  35.085  1.00  0.00     0.065 A 
HETATM    7  C1  UNL     1      59.057  38.721  36.005  1.00  0.00     0.100 A 
HETATM    8  N1  UNL     1      59.200  37.458  36.217  1.00  0.00    -0.385 N 
HETATM    9  N5  UNL     1      58.144  39.474  36.636  1.00  0.00    -0.339 N 
ATOM     10  H12 UNL     1      59.894  36.886  35.736  1.00  0.00     0.157 HD
ATOM     11  H11 UNL     1      58.602  36.986  36.895  1.00  0.00     0.157 HD
HETATM   12  C13 UNL     1      58.036  40.807  36.372  1.00  0.00     0.184 A 
ATOM     13  H5  UNL     1      57.523  39.044  37.321  1.00  0.00     0.168 HD
ENDBRANCH   3   4
ENDBRANCH   2   3
ENDBRANCH   1   2
BRANCH   1  14
HETATM   14  C7  UNL     1      55.694  45.201  36.012  1.00  0.00     0.235 C 
BRANCH  14  15
HETATM   15  N3  UNL     1      55.089  46.160  35.106  1.00  0.00    -0.046 N 
ATOM     16  H32 UNL     1      55.526  47.076  35.206  1.00  0.00     0.279 HD
ATOM     17  H31 UNL     1      55.345  45.954  34.140  1.00  0.00     0.279 HD
BRANCH  15  18
HETATM   18  C8  UNL     1      53.676  46.260  35.241  1.00  0.00     0.382 C 
HETATM   19  C9  UNL     1      53.228  47.150  36.364  1.00  0.00     0.062 C 
HETATM   20  C10 UNL     1      51.829  47.672  36.029  1.00  0.00     0.005 C 
HETATM   21  C11 UNL     1      51.098  46.588  35.302  1.00  0.00     0.028 C 
HETATM   22  C12 UNL     1      51.599  45.219  35.637  1.00  0.00     0.235 C 
HETATM   23  N4  UNL     1      52.981  45.011  35.343  1.00  0.00    -0.046 N 
ATOM     24  H42 UNL     1      53.106  44.440  34.506  1.00  0.00     0.279 HD
ATOM     25  H41 UNL     1      53.420  44.389  36.021  1.00  0.00     0.279 HD
ENDBRANCH  15  18
ENDBRANCH  14  15
ENDBRANCH   1  14
TORSDOF 6
ENDMDL
MODEL 2
REMARK VINA RESULT: -7.327429124      1.297      1.921
REMARK  6 active torsions:
REMARK  status: ('A' for Active; 'I' for Inactive)
REMARK    1  A    between atoms: N2_7  and  C4_8 
REMARK    2  A    between atoms: C4_8  and  C5_9 
REMARK    3  A    between atoms: C5_9  and  C6_10 
REMARK    4  A    between atoms: C6_10  and  C7_11 
REMARK    5  A    between atoms: C7_11  and  N3_12 
REMARK    6  A    between atoms: N3_12  and  C8_15 
ROOT
HETATM    1  C6  UNL     1      56.432  45.858  36.759  1.00  0.00     0.029 C 
ENDROOT
BRANCH   1   2
HETATM    2  C5  UNL     1      57.093  44.734  37.453  1.00  0.00     0.022 C 
BRANCH   2   3
HETATM    3  C4  UNL     1      56.588  43.364  37.209  1.00  0.00     0.129 C 
BRANCH   3   4
HETATM    4  N2  UNL     1      57.520  42.476  36.548  1.00  0.00    -0.353 N 
HETATM    5  C3  UNL     1      57.448  41.133  36.725  1.00  0.00     0.095 A 
HETATM    6  C2  UNL     1      58.324  40.285  36.090  1.00  0.00     0.065 A 
HETATM    7  C1  UNL     1      59.307  40.776  35.249  1.00  0.00     0.100 A 
HETATM    8  N1  UNL     1      60.118  39.963  34.665  1.00  0.00    -0.385 N 
HETATM    9  N5  UNL     1      59.358  42.107  35.091  1.00  0.00    -0.339 N 
ATOM     10  H12 UNL     1      60.079  38.951  34.786  1.00  0.00     0.157 HD
ATOM     11  H11 UNL     1      60.843  40.326  34.045  1.00  0.00     0.157 HD
HETATM   12  C13 UNL     1      58.475  42.920  35.734  1.00  0.00     0.184 A 
ATOM     13  H5  UNL     1      60.068  42.515  34.482  1.00  0.00     0.168 HD
ENDBRANCH   3   4
ENDBRANCH   2   3
ENDBRANCH   1   2
BRANCH   1  14
HETATM   14  C7  UNL     1      55.720  45.539  35.489  1.00  0.00     0.235 C 
BRANCH  14  15
HETATM   15  N3  UNL     1      54.914  46.645  35.006  1.00  0.00    -0.046 N 
ATOM     16  H32 UNL     1      55.231  47.526  35.412  1.00  0.00     0.279 HD
ATOM     17  H31 UNL     1      55.109  46.830  34.022  1.00  0.00     0.279 HD
BRANCH  15  18
HETATM   18  C8  UNL     1      53.518  46.468  35.217  1.00  0.00     0.382 C 
HETATM   19  C9  UNL     1      52.953  47.312  36.324  1.00  0.00     0.062 C 
HETATM   20  C10 UNL     1      51.463  47.525  36.047  1.00  0.00     0.005 C 
HETATM   21  C11 UNL     1      50.933  46.279  35.411  1.00  0.00     0.028 C 
HETATM   22  C12 UNL     1      51.714  45.058  35.778  1.00  0.00     0.235 C 
HETATM   23  N4  UNL     1      53.095  45.113  35.414  1.00  0.00    -0.046 N 
ATOM     24  H42 UNL     1      53.293  44.534  34.598  1.00  0.00     0.279 HD
ATOM     25  H41 UNL     1      53.682  44.630  36.093  1.00  0.00     0.279 HD
ENDBRANCH  15  18
ENDBRANCH  14  15
ENDBRANCH   1  14
TORSDOF 6
ENDMDL
MODEL 3
REMARK VINA RESULT: -7.282436262      2.036      7.943
REMARK  6 active torsions:
REMARK  status: ('A' for Active; 'I' for Inactive)
REMARK    1  A    between atoms: N2_7  and  C4_8 
REMARK    2  A    between atoms: C4_8  and  C5_9 
REMARK    3  A    between atoms: C5_9  and  C6_10 
REMARK    4  A    between atoms: C6_10  and  C7_11 
REMARK    5  A    between atoms: C7_11  and  N3_12 
REMARK    6  A    between atoms: N3_12  and  C8_15 
ROOT
HETATM    1  C6  UNL     1      56.646  45.437  36.578  1.00  0.00     0.029 C 
ENDROOT
BRANCH   1   2
HETATM    2  C5  UNL     1      55.344  45.441  37.276  1.00  0.00     0.022 C 
BRANCH   2   3
HETATM    3  C4  UNL     1      54.470  46.626  37.125  1.00  0.00     0.129 C 
BRANCH   3   4
HETATM    4  N2  UNL     1      53.197  46.371  36.486  1.00  0.00    -0.353 N 
HETATM    5  C3  UNL     1      52.264  47.351  36.375  1.00  0.00     0.095 A 
HETATM    6  C2  UNL     1      51.058  47.116  35.759  1.00  0.00     0.065 A 
HETATM    7  C1  UNL     1      50.758  45.872  35.233  1.00  0.00     0.100 A 
HETATM    8  N1  UNL     1      49.620  45.674  34.660  1.00  0.00    -0.385 N 
HETATM    9  N5  UNL     1      51.695  44.920  35.356  1.00  0.00    -0.339 N 
ATOM     10  H12 UNL     1      48.908  46.397  34.567  1.00  0.00     0.157 HD
ATOM     11  H11 UNL     1      49.400  44.756  34.273  1.00  0.00     0.157 HD
HETATM   12  C13 UNL     1      52.881  45.185  35.972  1.00  0.00     0.184 A 
ATOM     13  H5  UNL     1      51.517  43.987  34.985  1.00  0.00     0.168 HD
ENDBRANCH   3   4
ENDBRANCH   2   3
ENDBRANCH   1   2
BRANCH   1  14
HETATM   14  C7  UNL     1      56.686  44.798  35.232  1.00  0.00     0.235 C 
BRANCH  14  15
HETATM   15  N3  UNL     1      56.243  43.417  35.256  1.00  0.00    -0.046 N 
ATOM     16  H32 UNL     1      55.609  43.255  36.039  1.00  0.00     0.279 HD
ATOM     17  H31 UNL     1      55.608  43.229  34.481  1.00  0.00     0.279 HD
BRANCH  15  18
HETATM   18  C8  UNL     1      57.310  42.475  35.270  1.00  0.00     0.382 C 
HETATM   19  C9  UNL     1      57.491  41.772  36.585  1.00  0.00     0.062 C 
HETATM   20  C10 UNL     1      58.166  40.425  36.316  1.00  0.00     0.005 C 
HETATM   21  C11 UNL     1      59.118  40.610  35.177  1.00  0.00     0.028 C 
HETATM   22  C12 UNL     1      59.611  42.015  35.050  1.00  0.00     0.235 C 
HETATM   23  N4  UNL     1      58.581  42.984  34.845  1.00  0.00    -0.046 N 
ATOM     24  H42 UNL     1      58.553  43.306  33.877  1.00  0.00     0.279 HD
ATOM     25  H41 UNL     1      58.803  43.870  35.297  1.00  0.00     0.279 HD
ENDBRANCH  15  18
ENDBRANCH  14  15
ENDBRANCH   1  14
TORSDOF 6
ENDMDL
MODEL 4
REMARK VINA RESULT: -7.211834949      1.494      2.097
REMARK  6 active torsions:
REMARK  status: ('A' for Active; 'I' for Inactive)
REMARK    1  A    between atoms: N2_7  and  C4_8 
REMARK    2  A    between atoms: C4_8  and  C5_9 
REMARK    3  A    between atoms: C5_9  and  C6_10 
REMARK    4  A    between atoms: C6_10  and  C7_11 
REMARK    5  A    between atoms: C7_11  and  N3_12 
REMARK    6  A    between atoms: N3_12  and  C8_15 
ROOT
HETATM    1  C6  UNL     1      56.220  46.142  37.134  1.00  0.00     0.029 C 
ENDROOT
BRANCH   1   2
HETATM    2  C5  UNL     1      56.144  44.838  36.444  1.00  0.00     0.022 C 
BRANCH   2   3
HETATM    3  C4  UNL     1      57.323  44.383  35.673  1.00  0.00     0.129 C 
BRANCH   3   4
HETATM    4  N2  UNL     1      57.644  42.979  35.816  1.00  0.00    -0.353 N 
HETATM    5  C3  UNL     1      58.715  42.440  35.180  1.00  0.00     0.095 A 
HETATM    6  C2  UNL     1      59.030  41.110  35.322  1.00  0.00     0.065 A 
HETATM    7  C1  UNL     1      58.264  40.279  36.120  1.00  0.00     0.100 A 
HETATM    8  N1  UNL     1      58.578  39.034  36.239  1.00  0.00    -0.385 N 
HETATM    9  N5  UNL     1      57.211  40.834  36.738  1.00  0.00    -0.339 N 
ATOM     10  H12 UNL     1      59.378  38.612  35.769  1.00  0.00     0.157 HD
ATOM     11  H11 UNL     1      58.012  38.422  36.827  1.00  0.00     0.157 HD
HETATM   12  C13 UNL     1      56.926  42.156  36.576  1.00  0.00     0.184 A 
ATOM     13  H5  UNL     1      56.616  40.259  37.334  1.00  0.00     0.168 HD
ENDBRANCH   3   4
ENDBRANCH   2   3
ENDBRANCH   1   2
BRANCH   1  14
HETATM   14  C7  UNL     1      54.964  46.646  37.760  1.00  0.00     0.235 C 
BRANCH  14  15
HETATM   15  N3  UNL     1      54.161  47.434  36.845  1.00  0.00    -0.046 N 
ATOM     16  H32 UNL     1      54.084  48.398  37.171  1.00  0.00     0.279 HD
ATOM     17  H31 UNL     1      54.660  47.590  35.969  1.00  0.00     0.279 HD
BRANCH  15  18
HETATM   18  C8  UNL     1      52.872  46.884  36.598  1.00  0.00     0.382 C 
HETATM   19  C9  UNL     1      52.835  45.890  35.472  1.00  0.00     0.062 C 
HETATM   20  C10 UNL     1      51.653  44.948  35.707  1.00  0.00     0.005 C 
HETATM   21  C11 UNL     1      50.552  45.742  36.335  1.00  0.00     0.028 C 
HETATM   22  C12 UNL     1      50.615  47.197  35.996  1.00  0.00     0.235 C 
HETATM   23  N4  UNL     1      51.825  47.842  36.396  1.00  0.00    -0.046 N 
ATOM     24  H42 UNL     1      51.686  48.426  37.221  1.00  0.00     0.279 HD
ATOM     25  H41 UNL     1      52.101  48.568  35.736  1.00  0.00     0.279 HD
ENDBRANCH  15  18
ENDBRANCH  14  15
ENDBRANCH   1  14
TORSDOF 6
ENDMDL
MODEL 5
REMARK VINA RESULT: -7.159679995      1.635      8.290
REMARK  6 active torsions:
REMARK  status: ('A' for Active; 'I' for Inactive)
REMARK    1  A    between atoms: N2_7  and  C4_8 
REMARK    2  A    between atoms: C4_8  and  C5_9 
REMARK    3  A    between atoms: C5_9  and  C6_10 
REMARK    4  A    between atoms: C6_10  and  C7_11 
REMARK    5  A    between atoms: C7_11  and  N3_12 
REMARK    6  A    between atoms: N3_12  and  C8_15 
ROOT
HETATM    1  C6  UNL     1      56.613  43.458  35.589  1.00  0.00     0.029 C 
ENDROOT
BRANCH   1   2
HETATM    2  C5  UNL     1      55.603  43.002  36.565  1.00  0.00     0.022 C 
BRANCH   2   3
HETATM    3  C4  UNL     1      55.212  43.926  37.655  1.00  0.00     0.129 C 
BRANCH   3   4
HETATM    4  N2  UNL     1      54.342  45.011  37.256  1.00  0.00    -0.353 N 
HETATM    5  C3  UNL     1      53.089  44.765  36.793  1.00  0.00     0.095 A 
HETATM    6  C2  UNL     1      52.254  45.792  36.423  1.00  0.00     0.065 A 
HETATM    7  C1  UNL     1      52.666  47.110  36.511  1.00  0.00     0.100 A 
HETATM    8  N1  UNL     1      51.868  48.058  36.158  1.00  0.00    -0.385 N 
HETATM    9  N5  UNL     1      53.908  47.328  36.970  1.00  0.00    -0.339 N 
ATOM     10  H12 UNL     1      50.924  47.893  35.809  1.00  0.00     0.157 HD
ATOM     11  H11 UNL     1      52.172  49.030  36.223  1.00  0.00     0.157 HD
HETATM   12  C13 UNL     1      54.711  46.287  37.329  1.00  0.00     0.184 A 
ATOM     13  H5  UNL     1      54.255  48.283  37.050  1.00  0.00     0.168 HD
ENDBRANCH   3   4
ENDBRANCH   2   3
ENDBRANCH   1   2
BRANCH   1  14
HETATM   14  C7  UNL     1      57.998  42.935  35.760  1.00  0.00     0.235 C 
BRANCH  14  15
HETATM   15  N3  UNL     1      58.094  41.938  36.809  1.00  0.00    -0.046 N 
ATOM     16  H32 UNL     1      58.552  42.326  37.634  1.00  0.00     0.279 HD
ATOM     17  H31 UNL     1      57.174  41.740  37.203  1.00  0.00     0.279 HD
BRANCH  15  18
HETATM   18  C8  UNL     1      58.733  40.736  36.398  1.00  0.00     0.382 C 
HETATM   19  C9  UNL     1      58.931  40.623  34.914  1.00  0.00     0.062 C 
HETATM   20  C10 UNL     1      60.118  39.691  34.661  1.00  0.00     0.005 C 
HETATM   21  C11 UNL     1      60.104  38.634  35.720  1.00  0.00     0.028 C 
HETATM   22  C12 UNL     1      58.739  38.382  36.276  1.00  0.00     0.235 C 
HETATM   23  N4  UNL     1      58.127  39.526  36.872  1.00  0.00    -0.046 N 
ATOM     24  H42 UNL     1      58.140  39.473  37.891  1.00  0.00     0.279 HD
ATOM     25  H41 UNL     1      57.117  39.530  36.730  1.00  0.00     0.279 HD
ENDBRANCH  15  18
ENDBRANCH  14  15
ENDBRANCH   1  14
TORSDOF 6
ENDMDL
