MODEL 1
REMARK VINA RESULT: -7.382436424      0.000      0.000
REMARK  7 active torsions:
REMARK  status: ('A' for Active; 'I' for Inactive)
REMARK    1  A    between atoms: N1_1  and  C1_5 
REMARK    2  A    between atoms: C1_5  and  C2_6 
REMARK    3  A    between atoms: C2_6  and  C3_7 
REMARK    4  A    between atoms: C7_13  and  N3_14 
REMARK    5  A    between atoms: N3_14  and  C8_16 
REMARK    6  A    between atoms: C8_16  and  C9_17 
REMARK    7  A    between atoms: C9_17  and  C10_18 
ROOT
HETATM    1  C3  UNL     1      55.181  44.525  36.882  1.00  0.00     0.027 C 
HETATM    2  C4  UNL     1      54.664  43.841  38.128  1.00  0.00     0.120 C 
HETATM    3  N2  UNL     1      55.007  44.513  39.336  1.00  0.00    -0.421 N 
ATOM      4  H2  UNL     1      54.320  44.704  40.065  1.00  0.00     0.153 HD
HETATM    5  C5  UNL     1      56.376  44.902  39.458  1.00  0.00     0.115 C 
HETATM    6  C6  UNL     1      56.681  45.848  38.295  1.00  0.00     0.044 C 
HETATM    7  C7  UNL     1      56.626  44.948  37.046  1.00  0.00     0.083 C 
ENDROOT
BRANCH   7   8
HETATM    8  N3  UNL     1      57.360  43.771  37.388  1.00  0.00    -0.416 N 
ATOM      9  H3  UNL     1      57.595  43.554  38.357  1.00  0.00     0.153 HD
BRANCH   8  10
HETATM   10  C8  UNL     1      57.746  42.917  36.326  1.00  0.00     0.120 C 
BRANCH  10  11
HETATM   11  C9  UNL     1      57.215  41.507  36.582  1.00  0.00     0.076 C 
BRANCH  11  12
HETATM   12  C10 UNL     1      58.219  40.496  36.137  1.00  0.00     0.010 A 
HETATM   13  C11 UNL     1      59.109  40.790  35.131  1.00  0.00     0.025 A 
HETATM   14  C12 UNL     1      60.048  39.839  34.732  1.00  0.00     0.003 A 
HETATM   15  C13 UNL     1      60.079  38.619  35.340  1.00  0.00     0.017 A 
HETATM   16  C14 UNL     1      59.165  38.341  36.359  1.00  0.00     0.088 A 
HETATM   17  N4  UNL     1      58.286  39.284  36.706  1.00  0.00    -0.369 N 
ATOM     18  H4  UNL     1      57.624  39.069  37.451  1.00  0.00     0.165 HD
ENDBRANCH  11  12
ENDBRANCH  10  11
ENDBRANCH   8  10
ENDBRANCH   7   8
BRANCH   1  19
HETATM   19  C2  UNL     1      54.250  45.630  36.512  1.00  0.00     0.035 C 
BRANCH  19  20
HETATM   20  C1  UNL     1      52.811  45.222  36.436  1.00  0.00     0.230 C 
BRANCH  20  21
HETATM   21  N1  UNL     1      52.484  44.648  35.151  1.00  0.00    -0.079 N 
ATOM     22  H13 UNL     1      52.589  45.331  34.401  1.00  0.00     0.274 HD
ATOM     23  H12 UNL     1      53.191  43.975  34.853  1.00  0.00     0.274 HD
ATOM     24  H11 UNL     1      51.552  44.234  35.148  1.00  0.00     0.274 HD
ENDBRANCH  20  21
ENDBRANCH  19  20
ENDBRANCH   1  19
TORSDOF 7
ENDMDL
MODEL 2
REMARK VINA RESULT: -7.379867463      1.068      1.139
REMARK  7 active torsions:
REMARK  status: ('A' for Active; 'I' for Inactive)
REMARK    1  A    between atoms: N1_1  and  C1_5 
REMARK    2  A    between atoms: C1_5  and  C2_6 
REMARK    3  A    between atoms: C2_6  and  C3_7 
REMARK    4  A    between atoms: C7_13  and  N3_14 
REMARK    5  A    between atoms: N3_14  and  C8_16 
REMARK    6  A    between atoms: C8_16  and  C9_17 
REMARK    7  A    between atoms: C9_17  and  C10_18 
ROOT
HETATM    1  C3  UNL     1      54.583  44.717  37.156  1.00  0.00     0.027 C 
HETATM    2  C4  UNL     1      54.348  44.694  38.650  1.00  0.00     0.120 C 
HETATM    3  N2  UNL     1      55.420  45.248  39.407  1.00  0.00    -0.421 N 
ATOM      4  H2  UNL     1      55.265  45.928  40.152  1.00  0.00     0.153 HD
HETATM    5  C5  UNL     1      56.726  44.787  39.056  1.00  0.00     0.115 C 
HETATM    6  C6  UNL     1      56.953  45.156  37.588  1.00  0.00     0.044 C 
HETATM    7  C7  UNL     1      55.981  44.248  36.812  1.00  0.00     0.083 C 
ENDROOT
BRANCH   7   8
HETATM    8  N3  UNL     1      56.128  42.947  37.386  1.00  0.00    -0.416 N 
ATOM      9  H3  UNL     1      56.083  42.804  38.395  1.00  0.00     0.153 HD
BRANCH   8  10
HETATM   10  C8  UNL     1      56.339  41.866  36.495  1.00  0.00     0.120 C 
BRANCH  10  11
HETATM   11  C9  UNL     1      57.671  42.053  35.769  1.00  0.00     0.076 C 
BRANCH  11  12
HETATM   12  C10 UNL     1      58.430  40.767  35.759  1.00  0.00     0.010 A 
HETATM   13  C11 UNL     1      59.394  40.531  34.807  1.00  0.00     0.025 A 
HETATM   14  C12 UNL     1      60.102  39.329  34.816  1.00  0.00     0.003 A 
HETATM   15  C13 UNL     1      59.835  38.391  35.768  1.00  0.00     0.017 A 
HETATM   16  C14 UNL     1      58.852  38.651  36.726  1.00  0.00     0.088 A 
HETATM   17  N4  UNL     1      58.202  39.816  36.676  1.00  0.00    -0.369 N 
ATOM     18  H4  UNL     1      57.486  39.994  37.380  1.00  0.00     0.165 HD
ENDBRANCH  11  12
ENDBRANCH  10  11
ENDBRANCH   8  10
ENDBRANCH   7   8
BRANCH   1  19
HETATM   19  C2  UNL     1      54.236  46.069  36.629  1.00  0.00     0.035 C 
BRANCH  19  20
HETATM   20  C1  UNL     1      53.574  46.053  35.286  1.00  0.00     0.230 C 
BRANCH  20  21
HETATM   21  N1  UNL     1      54.516  46.314  34.221  1.00  0.00    -0.079 N 
ATOM     22  H13 UNL     1      55.063  45.483  33.996  1.00  0.00     0.274 HD
ATOM     23  H12 UNL     1      54.042  46.439  33.327  1.00  0.00     0.274 HD
ATOM     24  H11 UNL     1      55.120  47.108  34.436  1.00  0.00     0.274 HD
ENDBRANCH  20  21
ENDBRANCH  19  20
ENDBRANCH   1  19
TORSDOF 7
ENDMDL
MODEL 3
REMARK VINA RESULT: -7.368506621      1.386      2.984
REMARK  7 active torsions:
REMARK  status: ('A' for Active; 'I' for Inactive)
REMARK    1  A    between atoms: N1_1  and  C1_5 
REMARK    2  A    between atoms: C1_5  and  C2_6 
REMARK    3  A    between atoms: C2_6  and  C3_7 
REMARK    4  A    between atoms: C7_13  and  N3_14 
REMARK    5  A    between atoms: N3_14  and  C8_16 
REMARK    6  A    between atoms: C8_16  and  C9_17 
REMARK    7  A    between atoms: C9_17  and  C10_18 
ROOT
HETATM    1  C3  UNL     1      56.738  44.978  37.271  1.00  0.00     0.027 C 
HETATM    2  C4  UNL     1      56.365  46.146  36.386  1.00  0.00     0.120 C 
HETATM    3  N2  UNL     1      54.964  46.393  36.323  1.00  0.00    -0.421 N 
ATOM      4  H2  UNL     1      54.570  47.326  36.442  1.00  0.00     0.153 HD
HETATM    5  C5  UNL     1      54.146  45.246  36.082  1.00  0.00     0.115 C 
HETATM    6  C6  UNL     1      54.396  44.266  37.230  1.00  0.00     0.044 C 
HETATM    7  C7  UNL     1      55.842  43.784  37.012  1.00  0.00     0.083 C 
ENDROOT
BRANCH   7   8
HETATM    8  N3  UNL     1      55.944  43.491  35.617  1.00  0.00    -0.416 N 
ATOM      9  H3  UNL     1      55.545  44.113  34.913  1.00  0.00     0.153 HD
BRANCH   8  10
HETATM   10  C8  UNL     1      56.622  42.302  35.253  1.00  0.00     0.120 C 
BRANCH  10  11
HETATM   11  C9  UNL     1      57.226  41.654  36.498  1.00  0.00     0.076 C 
BRANCH  11  12
HETATM   12  C10 UNL     1      58.209  40.603  36.100  1.00  0.00     0.010 A 
HETATM   13  C11 UNL     1      59.122  40.842  35.100  1.00  0.00     0.025 A 
HETATM   14  C12 UNL     1      60.041  39.855  34.744  1.00  0.00     0.003 A 
HETATM   15  C13 UNL     1      60.029  38.654  35.389  1.00  0.00     0.017 A 
HETATM   16  C14 UNL     1      59.093  38.432  36.401  1.00  0.00     0.088 A 
HETATM   17  N4  UNL     1      58.235  39.408  36.706  1.00  0.00    -0.369 N 
ATOM     18  H4  UNL     1      57.557  39.234  37.447  1.00  0.00     0.165 HD
ENDBRANCH  11  12
ENDBRANCH  10  11
ENDBRANCH   8  10
ENDBRANCH   7   8
BRANCH   1  19
HETATM   19  C2  UNL     1      56.771  45.432  38.691  1.00  0.00     0.035 C 
BRANCH  19  20
HETATM   20  C1  UNL     1      57.756  44.700  39.548  1.00  0.00     0.230 C 
BRANCH  20  21
HETATM   21  N1  UNL     1      58.753  44.017  38.756  1.00  0.00    -0.079 N 
ATOM     22  H13 UNL     1      59.520  44.641  38.505  1.00  0.00     0.274 HD
ATOM     23  H12 UNL     1      59.275  43.342  39.316  1.00  0.00     0.274 HD
ATOM     24  H11 UNL     1      58.346  43.578  37.931  1.00  0.00     0.274 HD
ENDBRANCH  20  21
ENDBRANCH  19  20
ENDBRANCH   1  19
TORSDOF 7
ENDMDL
MODEL 4
REMARK VINA RESULT: -7.323358648      1.431      2.448
REMARK  7 active torsions:
REMARK  status: ('A' for Active; 'I' for Inactive)
REMARK    1  A    between atoms: N1_1  and  C1_5 
REMARK    2  A    between atoms: C1_5  and  C2_6 
REMARK    3  A    between atoms: C2_6  and  C3_7 
REMARK    4  A    between atoms: C7_13  and  N3_14 
REMARK    5  A    between atoms: N3_14  and  C8_16 
REMARK    6  A    between atoms: C8_16  and  C9_17 
REMARK    7  A    between atoms: C9_17  and  C10_18 
ROOT
HETATM    1  C3  UNL     1      55.742  44.681  38.536  1.00  0.00     0.027 C 
HETATM    2  C4  UNL     1      55.996  46.140  38.229  1.00  0.00     0.120 C 
HETATM    3  N2  UNL     1      55.335  46.603  37.055  1.00  0.00    -0.421 N 
ATOM      4  H2  UNL     1      54.797  47.470  37.040  1.00  0.00     0.153 HD
HETATM    5  C5  UNL     1      55.475  45.773  35.901  1.00  0.00     0.115 C 
HETATM    6  C6  UNL     1      54.890  44.405  36.257  1.00  0.00     0.044 C 
HETATM    7  C7  UNL     1      55.873  43.827  37.292  1.00  0.00     0.083 C 
ENDROOT
BRANCH   7   8
HETATM    8  N3  UNL     1      57.178  44.074  36.763  1.00  0.00    -0.416 N 
ATOM      9  H3  UNL     1      57.644  44.971  36.896  1.00  0.00     0.153 HD
BRANCH   8  10
HETATM   10  C8  UNL     1      57.795  43.020  36.045  1.00  0.00     0.120 C 
BRANCH  10  11
HETATM   11  C9  UNL     1      57.362  41.677  36.631  1.00  0.00     0.076 C 
BRANCH  11  12
HETATM   12  C10 UNL     1      58.283  40.597  36.167  1.00  0.00     0.010 A 
HETATM   13  C11 UNL     1      59.172  40.829  35.144  1.00  0.00     0.025 A 
HETATM   14  C12 UNL     1      60.033  39.814  34.727  1.00  0.00     0.003 A 
HETATM   15  C13 UNL     1      59.989  38.594  35.334  1.00  0.00     0.017 A 
HETATM   16  C14 UNL     1      59.078  38.381  36.371  1.00  0.00     0.088 A 
HETATM   17  N4  UNL     1      58.275  39.383  36.735  1.00  0.00    -0.369 N 
ATOM     18  H4  UNL     1      57.614  39.215  37.493  1.00  0.00     0.165 HD
ENDBRANCH  11  12
ENDBRANCH  10  11
ENDBRANCH   8  10
ENDBRANCH   7   8
BRANCH   1  19
HETATM   19  C2  UNL     1      54.435  44.553  39.241  1.00  0.00     0.035 C 
BRANCH  19  20
HETATM   20  C1  UNL     1      54.230  45.547  40.342  1.00  0.00     0.230 C 
BRANCH  20  21
HETATM   21  N1  UNL     1      53.005  45.299  41.068  1.00  0.00    -0.079 N 
ATOM     22  H13 UNL     1      52.507  46.167  41.265  1.00  0.00     0.274 HD
ATOM     23  H12 UNL     1      52.308  44.846  40.477  1.00  0.00     0.274 HD
ATOM     24  H11 UNL     1      53.172  44.765  41.921  1.00  0.00     0.274 HD
ENDBRANCH  20  21
ENDBRANCH  19  20
ENDBRANCH   1  19
TORSDOF 7
ENDMDL
MODEL 5
REMARK VINA RESULT: -7.279960650      1.450      2.902
REMARK  7 active torsions:
REMARK  status: ('A' for Active; 'I' for Inactive)
REMARK    1  A    between atoms: N1_1  and  C1_5 
REMARK    2  A    between atoms: C1_5  and  C2_6 
REMARK    3  A    between atoms: C2_6  and  C3_7 
REMARK    4  A    between atoms: C7_13  and  N3_14 
REMARK    5  A    between atoms: N3_14  and  C8_16 
REMARK    6  A    between atoms: C8_16  and  C9_17 
REMARK    7  A    between atoms: C9_17  and  C10_18 
ROOT
HETATM    1  C3  UNL     1      56.339  44.819  37.688  1.00  0.00     0.027 C 
HETATM    2  C4  UNL     1      56.445  46.203  37.086  1.00  0.00     0.120 C 
HETATM    3  N2  UNL     1      55.239  46.658  36.480  1.00  0.00    -0.421 N 
ATOM      4  H2  UNL     1      54.856  47.585  36.662  1.00  0.00     0.153 HD
HETATM    5  C5  UNL     1      54.603  45.730  35.599  1.00  0.00     0.115 C 
HETATM    6  C6  UNL     1      54.269  44.484  36.424  1.00  0.00     0.044 C 
HETATM    7  C7  UNL     1      55.641  43.861  36.746  1.00  0.00     0.083 C 
ENDROOT
BRANCH   7   8
HETATM    8  N3  UNL     1      56.373  43.888  35.519  1.00  0.00    -0.416 N 
ATOM      9  H3  UNL     1      56.438  44.737  34.958  1.00  0.00     0.153 HD
BRANCH   8  10
HETATM   10  C8  UNL     1      57.004  42.686  35.115  1.00  0.00     0.120 C 
BRANCH  10  11
HETATM   11  C9  UNL     1      57.166  41.762  36.321  1.00  0.00     0.076 C 
BRANCH  11  12
HETATM   12  C10 UNL     1      58.162  40.693  36.014  1.00  0.00     0.010 A 
HETATM   13  C11 UNL     1      59.120  40.887  35.047  1.00  0.00     0.025 A 
HETATM   14  C12 UNL     1      60.051  39.884  34.777  1.00  0.00     0.003 A 
HETATM   15  C13 UNL     1      60.006  38.712  35.472  1.00  0.00     0.017 A 
HETATM   16  C14 UNL     1      59.024  38.535  36.449  1.00  0.00     0.088 A 
HETATM   17  N4  UNL     1      58.157  39.525  36.672  1.00  0.00    -0.369 N 
ATOM     18  H4  UNL     1      57.444  39.384  37.388  1.00  0.00     0.165 HD
ENDBRANCH  11  12
ENDBRANCH  10  11
ENDBRANCH   8  10
ENDBRANCH   7   8
BRANCH   1  19
HETATM   19  C2  UNL     1      55.718  44.923  39.040  1.00  0.00     0.035 C 
BRANCH  19  20
HETATM   20  C1  UNL     1      56.160  46.116  39.830  1.00  0.00     0.230 C 
BRANCH  20  21
HETATM   21  N1  UNL     1      57.013  45.742  40.935  1.00  0.00    -0.079 N 
ATOM     22  H13 UNL     1      57.147  44.732  40.975  1.00  0.00     0.274 HD
ATOM     23  H12 UNL     1      57.979  46.025  40.771  1.00  0.00     0.274 HD
ATOM     24  H11 UNL     1      56.664  46.105  41.822  1.00  0.00     0.274 HD
ENDBRANCH  20  21
ENDBRANCH  19  20
ENDBRANCH   1  19
TORSDOF 7
ENDMDL
