MODEL 1
REMARK VINA RESULT: -6.762474806      0.000      0.000
REMARK  7 active torsions:
REMARK  status: ('A' for Active; 'I' for Inactive)
REMARK    1  A    between atoms: N1_1  and  C1_4 
REMARK    2  A    between atoms: C2_7  and  C3_8 
REMARK    3  A    between atoms: C3_8  and  N3_9 
REMARK    4  A    between atoms: N3_9  and  C4_12 
REMARK    5  A    between atoms: C4_12  and  C5_13 
REMARK    6  A    between atoms: C5_13  and  C6_14 
REMARK    7  A    between atoms: C6_14  and  N4_15 
ROOT
HETATM    1  N3  UNL     1      57.036  44.707  35.226  1.00  0.00    -0.070 N 
ATOM      2  H31 UNL     1      57.332  45.281  34.436  1.00  0.00     0.277 HD
ATOM      3  H32 UNL     1      56.171  44.322  34.847  1.00  0.00     0.277 HD
ENDROOT
BRANCH   1   4
HETATM    4  C3  UNL     1      56.760  45.523  36.356  1.00  0.00     0.289 C 
BRANCH   4   5
HETATM    5  C2  UNL     1      55.256  45.754  36.448  1.00  0.00     0.043 A 
HETATM    6  N2  UNL     1      54.443  45.086  35.675  1.00  0.00    -0.339 N 
HETATM    7  C1  UNL     1      53.136  45.312  35.786  1.00  0.00     0.142 A 
ATOM      8  H2  UNL     1      54.801  44.406  35.003  1.00  0.00     0.168 HD
HETATM    9  S1  UNL     1      53.037  46.493  37.005  1.00  0.00    -0.064 SA
HETATM   10  C11 UNL     1      54.708  46.649  37.327  1.00  0.00     0.080 A 
BRANCH   7  11
HETATM   11  N1  UNL     1      52.142  44.775  35.127  1.00  0.00    -0.380 N 
ATOM     12  H12 UNL     1      51.548  45.229  34.433  1.00  0.00     0.158 HD
ATOM     13  H11 UNL     1      51.776  43.824  35.172  1.00  0.00     0.158 HD
ENDBRANCH   7  11
ENDBRANCH   4   5
ENDBRANCH   1   4
BRANCH   1  14
HETATM   14  C4  UNL     1      57.981  43.667  35.467  1.00  0.00     0.234 C 
BRANCH  14  15
HETATM   15  C5  UNL     1      57.572  42.298  34.998  1.00  0.00     0.057 C 
BRANCH  15  16
HETATM   16  C6  UNL     1      57.509  41.303  36.131  1.00  0.00     0.274 C 
BRANCH  16  17
HETATM   17  N4  UNL     1      58.758  40.577  36.208  1.00  0.00     0.088 N 
HETATM   18  C7  UNL     1      58.545  39.281  36.822  1.00  0.00     0.272 C 
HETATM   19  C8  UNL     1      59.248  38.243  36.022  1.00  0.00     0.032 C 
HETATM   20  C9  UNL     1      60.117  39.023  35.064  1.00  0.00     0.032 C 
HETATM   21  C10 UNL     1      59.304  40.310  34.893  1.00  0.00     0.272 C 
ENDBRANCH  16  17
ENDBRANCH  15  16
ENDBRANCH  14  15
ENDBRANCH   1  14
TORSDOF 7
ENDMDL
MODEL 2
REMARK VINA RESULT: -6.530414172      1.229      1.616
REMARK  7 active torsions:
REMARK  status: ('A' for Active; 'I' for Inactive)
REMARK    1  A    between atoms: N1_1  and  C1_4 
REMARK    2  A    between atoms: C2_7  and  C3_8 
REMARK    3  A    between atoms: C3_8  and  N3_9 
REMARK    4  A    between atoms: N3_9  and  C4_12 
REMARK    5  A    between atoms: C4_12  and  C5_13 
REMARK    6  A    between atoms: C5_13  and  C6_14 
REMARK    7  A    between atoms: C6_14  and  N4_15 
ROOT
HETATM    1  N3  UNL     1      56.983  45.036  35.224  1.00  0.00    -0.070 N 
ATOM      2  H31 UNL     1      57.835  45.449  34.845  1.00  0.00     0.277 HD
ATOM      3  H32 UNL     1      56.296  45.438  34.586  1.00  0.00     0.277 HD
ENDROOT
BRANCH   1   4
HETATM    4  C3  UNL     1      56.756  45.495  36.549  1.00  0.00     0.289 C 
BRANCH   4   5
HETATM    5  C2  UNL     1      55.257  45.662  36.769  1.00  0.00     0.043 A 
HETATM    6  N2  UNL     1      54.653  46.746  36.361  1.00  0.00    -0.339 N 
HETATM    7  C1  UNL     1      53.342  46.855  36.568  1.00  0.00     0.142 A 
ATOM      8  H2  UNL     1      55.172  47.490  35.895  1.00  0.00     0.168 HD
HETATM    9  S1  UNL     1      52.940  45.402  37.354  1.00  0.00    -0.064 SA
HETATM   10  C11 UNL     1      54.499  44.703  37.384  1.00  0.00     0.080 A 
BRANCH   7  11
HETATM   11  N1  UNL     1      52.532  47.833  36.256  1.00  0.00    -0.380 N 
ATOM     12  H12 UNL     1      52.745  48.647  35.679  1.00  0.00     0.158 HD
ATOM     13  H11 UNL     1      51.556  47.973  36.517  1.00  0.00     0.158 HD
ENDBRANCH   7  11
ENDBRANCH   4   5
ENDBRANCH   1   4
BRANCH   1  14
HETATM   14  C4  UNL     1      57.015  43.617  35.090  1.00  0.00     0.234 C 
BRANCH  14  15
HETATM   15  C5  UNL     1      58.222  42.938  35.678  1.00  0.00     0.057 C 
BRANCH  15  16
HETATM   16  C6  UNL     1      57.845  41.789  36.581  1.00  0.00     0.274 C 
BRANCH  16  17
HETATM   17  N4  UNL     1      58.070  40.537  35.891  1.00  0.00     0.088 N 
HETATM   18  C7  UNL     1      59.119  40.693  34.903  1.00  0.00     0.272 C 
HETATM   19  C8  UNL     1      60.062  39.548  35.011  1.00  0.00     0.032 C 
HETATM   20  C9  UNL     1      59.366  38.564  35.922  1.00  0.00     0.032 C 
HETATM   21  C10 UNL     1      58.524  39.500  36.795  1.00  0.00     0.272 C 
ENDBRANCH  16  17
ENDBRANCH  15  16
ENDBRANCH  14  15
ENDBRANCH   1  14
TORSDOF 7
ENDMDL
MODEL 3
REMARK VINA RESULT: -6.402793888      1.497      1.683
REMARK  7 active torsions:
REMARK  status: ('A' for Active; 'I' for Inactive)
REMARK    1  A    between atoms: N1_1  and  C1_4 
REMARK    2  A    between atoms: C2_7  and  C3_8 
REMARK    3  A    between atoms: C3_8  and  N3_9 
REMARK    4  A    between atoms: N3_9  and  C4_12 
REMARK    5  A    between atoms: C4_12  and  C5_13 
REMARK    6  A    between atoms: C5_13  and  C6_14 
REMARK    7  A    between atoms: C6_14  and  N4_15 
ROOT
HETATM    1  N3  UNL     1      56.289  43.701  38.215  1.00  0.00    -0.070 N 
ATOM      2  H31 UNL     1      56.376  43.341  39.166  1.00  0.00     0.277 HD
ATOM      3  H32 UNL     1      56.459  44.691  38.387  1.00  0.00     0.277 HD
ENDROOT
BRANCH   1   4
HETATM    4  C3  UNL     1      54.969  43.502  37.730  1.00  0.00     0.289 C 
BRANCH   4   5
HETATM    5  C2  UNL     1      54.483  44.787  37.066  1.00  0.00     0.043 A 
HETATM    6  N2  UNL     1      54.747  45.013  35.808  1.00  0.00    -0.339 N 
HETATM    7  C1  UNL     1      54.306  46.144  35.263  1.00  0.00     0.142 A 
ATOM      8  H2  UNL     1      55.280  44.340  35.256  1.00  0.00     0.168 HD
HETATM    9  S1  UNL     1      53.496  46.915  36.544  1.00  0.00    -0.064 SA
HETATM   10  C11 UNL     1      53.764  45.731  37.747  1.00  0.00     0.080 A 
BRANCH   7  11
HETATM   11  N1  UNL     1      54.447  46.586  34.040  1.00  0.00    -0.380 N 
ATOM     12  H12 UNL     1      54.780  46.061  33.232  1.00  0.00     0.158 HD
ATOM     13  H11 UNL     1      54.256  47.514  33.662  1.00  0.00     0.158 HD
ENDBRANCH   7  11
ENDBRANCH   4   5
ENDBRANCH   1   4
BRANCH   1  14
HETATM   14  C4  UNL     1      57.311  43.158  37.382  1.00  0.00     0.234 C 
BRANCH  14  15
HETATM   15  C5  UNL     1      56.921  41.940  36.590  1.00  0.00     0.057 C 
BRANCH  15  16
HETATM   16  C6  UNL     1      57.856  41.691  35.431  1.00  0.00     0.274 C 
BRANCH  16  17
HETATM   17  N4  UNL     1      58.923  40.808  35.851  1.00  0.00     0.088 N 
HETATM   18  C7  UNL     1      58.385  39.710  36.630  1.00  0.00     0.272 C 
HETATM   19  C8  UNL     1      58.989  38.436  36.157  1.00  0.00     0.032 C 
HETATM   20  C9  UNL     1      60.118  38.863  35.248  1.00  0.00     0.032 C 
HETATM   21  C10 UNL     1      59.593  40.202  34.718  1.00  0.00     0.272 C 
ENDBRANCH  16  17
ENDBRANCH  15  16
ENDBRANCH  14  15
ENDBRANCH   1  14
TORSDOF 7
ENDMDL
MODEL 4
REMARK VINA RESULT: -6.347234424      1.007      1.521
REMARK  7 active torsions:
REMARK  status: ('A' for Active; 'I' for Inactive)
REMARK    1  A    between atoms: N1_1  and  C1_4 
REMARK    2  A    between atoms: C2_7  and  C3_8 
REMARK    3  A    between atoms: C3_8  and  N3_9 
REMARK    4  A    between atoms: N3_9  and  C4_12 
REMARK    5  A    between atoms: C4_12  and  C5_13 
REMARK    6  A    between atoms: C5_13  and  C6_14 
REMARK    7  A    between atoms: C6_14  and  N4_15 
ROOT
HETATM    1  N3  UNL     1      56.025  44.108  35.398  1.00  0.00    -0.070 N 
ATOM      2  H31 UNL     1      55.798  44.852  34.738  1.00  0.00     0.277 HD
ATOM      3  H32 UNL     1      55.908  43.296  34.792  1.00  0.00     0.277 HD
ENDROOT
BRANCH   1   4
HETATM    4  C3  UNL     1      55.077  44.077  36.456  1.00  0.00     0.289 C 
BRANCH   4   5
HETATM    5  C2  UNL     1      54.015  45.143  36.203  1.00  0.00     0.043 A 
HETATM    6  N2  UNL     1      52.863  44.809  35.688  1.00  0.00    -0.339 N 
HETATM    7  C1  UNL     1      51.961  45.766  35.485  1.00  0.00     0.142 A 
ATOM      8  H2  UNL     1      52.659  43.839  35.448  1.00  0.00     0.168 HD
HETATM    9  S1  UNL     1      52.742  47.174  36.029  1.00  0.00    -0.064 SA
HETATM   10  C11 UNL     1      54.222  46.462  36.504  1.00  0.00     0.080 A 
BRANCH   7  11
HETATM   11  N1  UNL     1      50.755  45.677  34.985  1.00  0.00    -0.380 N 
ATOM     12  H12 UNL     1      49.986  46.334  35.116  1.00  0.00     0.158 HD
ATOM     13  H11 UNL     1      50.357  44.957  34.382  1.00  0.00     0.158 HD
ENDBRANCH   7  11
ENDBRANCH   4   5
ENDBRANCH   1   4
BRANCH   1  14
HETATM   14  C4  UNL     1      57.381  44.219  35.827  1.00  0.00     0.234 C 
BRANCH  14  15
HETATM   15  C5  UNL     1      58.236  43.004  35.591  1.00  0.00     0.057 C 
BRANCH  15  16
HETATM   16  C6  UNL     1      57.903  41.880  36.541  1.00  0.00     0.274 C 
BRANCH  16  17
HETATM   17  N4  UNL     1      58.095  40.609  35.875  1.00  0.00     0.088 N 
HETATM   18  C7  UNL     1      59.138  40.723  34.876  1.00  0.00     0.272 C 
HETATM   19  C8  UNL     1      60.058  39.561  34.999  1.00  0.00     0.032 C 
HETATM   20  C9  UNL     1      59.350  38.612  35.936  1.00  0.00     0.032 C 
HETATM   21  C10 UNL     1      58.536  39.583  36.797  1.00  0.00     0.272 C 
ENDBRANCH  16  17
ENDBRANCH  15  16
ENDBRANCH  14  15
ENDBRANCH   1  14
TORSDOF 7
ENDMDL
MODEL 5
REMARK VINA RESULT: -6.346186974      2.890      7.201
REMARK  7 active torsions:
REMARK  status: ('A' for Active; 'I' for Inactive)
REMARK    1  A    between atoms: N1_1  and  C1_4 
REMARK    2  A    between atoms: C2_7  and  C3_8 
REMARK    3  A    between atoms: C3_8  and  N3_9 
REMARK    4  A    between atoms: N3_9  and  C4_12 
REMARK    5  A    between atoms: C4_12  and  C5_13 
REMARK    6  A    between atoms: C5_13  and  C6_14 
REMARK    7  A    between atoms: C6_14  and  N4_15 
ROOT
HETATM    1  N3  UNL     1      58.065  43.140  37.900  1.00  0.00    -0.070 N 
ATOM      2  H31 UNL     1      59.045  43.225  37.629  1.00  0.00     0.277 HD
ATOM      3  H32 UNL     1      58.157  42.501  38.689  1.00  0.00     0.277 HD
ENDROOT
BRANCH   1   4
HETATM    4  C3  UNL     1      57.314  42.535  36.856  1.00  0.00     0.289 C 
BRANCH   4   5
HETATM    5  C2  UNL     1      58.128  41.394  36.255  1.00  0.00     0.043 A 
HETATM    6  N2  UNL     1      57.961  40.173  36.686  1.00  0.00    -0.339 N 
HETATM    7  C1  UNL     1      58.687  39.203  36.136  1.00  0.00     0.142 A 
ATOM      8  H2  UNL     1      57.290  39.968  37.427  1.00  0.00     0.168 HD
HETATM    9  S1  UNL     1      59.631  40.018  34.980  1.00  0.00    -0.064 SA
HETATM   10  C11 UNL     1      59.043  41.599  35.258  1.00  0.00     0.080 A 
BRANCH   7  11
HETATM   11  N1  UNL     1      58.697  37.923  36.401  1.00  0.00    -0.380 N 
ATOM     12  H12 UNL     1      58.105  37.204  35.983  1.00  0.00     0.158 HD
ATOM     13  H11 UNL     1      59.282  37.402  37.054  1.00  0.00     0.158 HD
ENDBRANCH   7  11
ENDBRANCH   4   5
ENDBRANCH   1   4
BRANCH   1  14
HETATM   14  C4  UNL     1      57.558  44.400  38.335  1.00  0.00     0.234 C 
BRANCH  14  15
HETATM   15  C5  UNL     1      56.668  45.114  37.355  1.00  0.00     0.057 C 
BRANCH  15  16
HETATM   16  C6  UNL     1      55.348  45.512  37.969  1.00  0.00     0.274 C 
BRANCH  16  17
HETATM   17  N4  UNL     1      54.342  45.608  36.933  1.00  0.00     0.088 N 
HETATM   18  C7  UNL     1      53.428  46.694  37.225  1.00  0.00     0.272 C 
HETATM   19  C8  UNL     1      53.214  47.494  35.989  1.00  0.00     0.032 C 
HETATM   20  C9  UNL     1      53.827  46.664  34.886  1.00  0.00     0.032 C 
HETATM   21  C10 UNL     1      54.928  45.914  35.644  1.00  0.00     0.272 C 
ENDBRANCH  16  17
ENDBRANCH  15  16
ENDBRANCH  14  15
ENDBRANCH   1  14
TORSDOF 7
ENDMDL
