MODEL 1
REMARK VINA RESULT: -7.618495516      0.000      0.000
REMARK  7 active torsions:
REMARK  status: ('A' for Active; 'I' for Inactive)
REMARK    1  A    between atoms: N1_1  and  C1_4 
REMARK    2  A    between atoms: C3_8  and  C4_9 
REMARK    3  A    between atoms: C4_9  and  N3_10 
REMARK    4  A    between atoms: N3_10  and  C5_12 
REMARK    5  A    between atoms: C5_12  and  C6_13 
REMARK    6  A    between atoms: C6_13  and  C7_14 
REMARK    7  A    between atoms: C7_14  and  C8_15 
ROOT
HETATM    1  C4  UNL     1      55.794  44.814  36.014  1.00  0.00     0.118 C 
ENDROOT
BRANCH   1   2
HETATM    2  C3  UNL     1      54.515  45.636  36.104  1.00  0.00     0.063 A 
HETATM    3  N2  UNL     1      53.456  45.353  35.334  1.00  0.00    -0.360 N 
HETATM    4  C2  UNL     1      52.314  46.046  35.379  1.00  0.00     0.136 A 
ATOM      5  H2  UNL     1      53.525  44.571  34.683  1.00  0.00     0.165 HD
HETATM    6  C1  UNL     1      52.247  47.106  36.276  1.00  0.00     0.114 A 
HETATM    7  N5  UNL     1      53.278  47.431  37.070  1.00  0.00    -0.349 N 
HETATM    8  C13 UNL     1      54.399  46.692  36.976  1.00  0.00     0.120 A 
ATOM      9  H5  UNL     1      53.215  48.211  37.724  1.00  0.00     0.167 HD
BRANCH   6  10
HETATM   10  N1  UNL     1      51.158  47.802  36.349  1.00  0.00    -0.384 N 
ATOM     11  H12 UNL     1      50.450  47.688  35.623  1.00  0.00     0.157 HD
ATOM     12  H11 UNL     1      51.031  48.447  37.129  1.00  0.00     0.157 HD
ENDBRANCH   6  10
ENDBRANCH   1   2
BRANCH   1  13
HETATM   13  N3  UNL     1      55.420  43.531  35.600  1.00  0.00    -0.377 N 
ATOM     14  H3  UNL     1      54.474  43.403  35.241  1.00  0.00     0.164 HD
BRANCH  13  15
HETATM   15  C5  UNL     1      56.247  42.425  35.648  1.00  0.00     0.061 C 
BRANCH  15  16
HETATM   16  C6  UNL     1      57.330  42.185  34.685  1.00  0.00     0.049 C 
BRANCH  16  17
HETATM   17  C7  UNL     1      58.724  42.122  35.213  1.00  0.00     0.043 C 
BRANCH  17  18
HETATM   18  C8  UNL     1      59.021  40.637  35.458  1.00  0.00    -0.055 A 
HETATM   19  C9  UNL     1      59.849  39.941  34.607  1.00  0.00     0.024 A 
HETATM   20  C10 UNL     1      60.114  38.597  34.836  1.00  0.00     0.088 A 
HETATM   21  N4  UNL     1      59.554  37.986  35.894  1.00  0.00    -0.375 N 
HETATM   22  C11 UNL     1      58.741  38.650  36.736  1.00  0.00     0.088 A 
ATOM     23  H4  UNL     1      59.748  36.999  36.061  1.00  0.00     0.164 HD
HETATM   24  C12 UNL     1      58.460  39.991  36.533  1.00  0.00     0.024 A 
ENDBRANCH  17  18
ENDBRANCH  16  17
ENDBRANCH  15  16
ENDBRANCH  13  15
ENDBRANCH   1  13
TORSDOF 7
ENDMDL
MODEL 2
REMARK VINA RESULT: -7.472412390      1.236      1.612
REMARK  7 active torsions:
REMARK  status: ('A' for Active; 'I' for Inactive)
REMARK    1  A    between atoms: N1_1  and  C1_4 
REMARK    2  A    between atoms: C3_8  and  C4_9 
REMARK    3  A    between atoms: C4_9  and  N3_10 
REMARK    4  A    between atoms: N3_10  and  C5_12 
REMARK    5  A    between atoms: C5_12  and  C6_13 
REMARK    6  A    between atoms: C6_13  and  C7_14 
REMARK    7  A    between atoms: C7_14  and  C8_15 
ROOT
HETATM    1  C4  UNL     1      56.690  45.621  36.590  1.00  0.00     0.118 C 
ENDROOT
BRANCH   1   2
HETATM    2  C3  UNL     1      55.255  46.003  36.250  1.00  0.00     0.063 A 
HETATM    3  N2  UNL     1      54.921  46.410  35.019  1.00  0.00    -0.360 N 
HETATM    4  C2  UNL     1      53.675  46.755  34.676  1.00  0.00     0.136 A 
ATOM      5  H2  UNL     1      55.651  46.459  34.309  1.00  0.00     0.165 HD
HETATM    6  C1  UNL     1      52.698  46.678  35.663  1.00  0.00     0.114 A 
HETATM    7  N5  UNL     1      52.980  46.276  36.912  1.00  0.00    -0.349 N 
HETATM    8  C13 UNL     1      54.254  45.943  37.190  1.00  0.00     0.120 A 
ATOM      9  H5  UNL     1      52.254  46.224  37.625  1.00  0.00     0.167 HD
BRANCH   6  10
HETATM   10  N1  UNL     1      51.480  47.003  35.370  1.00  0.00    -0.384 N 
ATOM     11  H12 UNL     1      51.302  47.529  34.514  1.00  0.00     0.157 HD
ATOM     12  H11 UNL     1      50.727  46.728  36.001  1.00  0.00     0.157 HD
ENDBRANCH   6  10
ENDBRANCH   1   2
BRANCH   1  13
HETATM   13  N3  UNL     1      57.230  45.026  35.444  1.00  0.00    -0.377 N 
ATOM     14  H3  UNL     1      57.840  45.593  34.855  1.00  0.00     0.164 HD
BRANCH  13  15
HETATM   15  C5  UNL     1      56.989  43.722  35.057  1.00  0.00     0.061 C 
BRANCH  15  16
HETATM   16  C6  UNL     1      57.978  42.644  35.194  1.00  0.00     0.049 C 
BRANCH  16  17
HETATM   17  C7  UNL     1      57.816  41.697  36.335  1.00  0.00     0.043 C 
BRANCH  17  18
HETATM   18  C8  UNL     1      58.610  40.439  35.963  1.00  0.00    -0.055 A 
HETATM   19  C9  UNL     1      58.530  39.306  36.741  1.00  0.00     0.024 A 
HETATM   20  C10 UNL     1      59.252  38.171  36.396  1.00  0.00     0.088 A 
HETATM   21  N4  UNL     1      60.028  38.191  35.299  1.00  0.00    -0.375 N 
HETATM   22  C11 UNL     1      60.118  39.289  34.527  1.00  0.00     0.088 A 
ATOM     23  H4  UNL     1      60.558  37.357  35.046  1.00  0.00     0.164 HD
HETATM   24  C12 UNL     1      59.410  40.436  34.845  1.00  0.00     0.024 A 
ENDBRANCH  17  18
ENDBRANCH  16  17
ENDBRANCH  15  16
ENDBRANCH  13  15
ENDBRANCH   1  13
TORSDOF 7
ENDMDL
MODEL 3
REMARK VINA RESULT: -7.368215108      1.894      2.336
REMARK  7 active torsions:
REMARK  status: ('A' for Active; 'I' for Inactive)
REMARK    1  A    between atoms: N1_1  and  C1_4 
REMARK    2  A    between atoms: C3_8  and  C4_9 
REMARK    3  A    between atoms: C4_9  and  N3_10 
REMARK    4  A    between atoms: N3_10  and  C5_12 
REMARK    5  A    between atoms: C5_12  and  C6_13 
REMARK    6  A    between atoms: C6_13  and  C7_14 
REMARK    7  A    between atoms: C7_14  and  C8_15 
ROOT
HETATM    1  C4  UNL     1      55.605  45.149  35.480  1.00  0.00     0.118 C 
ENDROOT
BRANCH   1   2
HETATM    2  C3  UNL     1      55.052  45.290  36.893  1.00  0.00     0.063 A 
HETATM    3  N2  UNL     1      54.720  44.213  37.615  1.00  0.00    -0.360 N 
HETATM    4  C2  UNL     1      54.231  44.289  38.858  1.00  0.00     0.136 A 
ATOM      5  H2  UNL     1      54.846  43.291  37.199  1.00  0.00     0.165 HD
HETATM    6  C1  UNL     1      54.071  45.558  39.403  1.00  0.00     0.114 A 
HETATM    7  N5  UNL     1      54.389  46.669  38.722  1.00  0.00    -0.349 N 
HETATM    8  C13 UNL     1      54.876  46.523  37.476  1.00  0.00     0.120 A 
ATOM      9  H5  UNL     1      54.266  47.593  39.134  1.00  0.00     0.167 HD
BRANCH   6  10
HETATM   10  N1  UNL     1      53.601  45.673  40.604  1.00  0.00    -0.384 N 
ATOM     11  H12 UNL     1      53.880  46.476  41.168  1.00  0.00     0.157 HD
ATOM     12  H11 UNL     1      52.963  44.960  40.958  1.00  0.00     0.157 HD
ENDBRANCH   6  10
ENDBRANCH   1   2
BRANCH   1  13
HETATM   13  N3  UNL     1      56.999  45.214  35.586  1.00  0.00    -0.377 N 
ATOM     14  H3  UNL     1      57.441  46.129  35.499  1.00  0.00     0.164 HD
BRANCH  13  15
HETATM   15  C5  UNL     1      57.815  44.120  35.799  1.00  0.00     0.061 C 
BRANCH  15  16
HETATM   16  C6  UNL     1      57.453  42.753  35.401  1.00  0.00     0.049 C 
BRANCH  16  17
HETATM   17  C7  UNL     1      57.409  41.711  36.469  1.00  0.00     0.043 C 
BRANCH  17  18
HETATM   18  C8  UNL     1      58.381  40.609  36.030  1.00  0.00    -0.055 A 
HETATM   19  C9  UNL     1      59.234  40.812  34.969  1.00  0.00     0.024 A 
HETATM   20  C10 UNL     1      60.112  39.809  34.579  1.00  0.00     0.088 A 
HETATM   21  N4  UNL     1      60.118  38.642  35.245  1.00  0.00    -0.375 N 
HETATM   22  C11 UNL     1      59.291  38.425  36.284  1.00  0.00     0.088 A 
ATOM     23  H4  UNL     1      60.763  37.905  34.958  1.00  0.00     0.164 HD
HETATM   24  C12 UNL     1      58.405  39.408  36.696  1.00  0.00     0.024 A 
ENDBRANCH  17  18
ENDBRANCH  16  17
ENDBRANCH  15  16
ENDBRANCH  13  15
ENDBRANCH   1  13
TORSDOF 7
ENDMDL
MODEL 4
REMARK VINA RESULT: -7.156996376      1.666      2.895
REMARK  7 active torsions:
REMARK  status: ('A' for Active; 'I' for Inactive)
REMARK    1  A    between atoms: N1_1  and  C1_4 
REMARK    2  A    between atoms: C3_8  and  C4_9 
REMARK    3  A    between atoms: C4_9  and  N3_10 
REMARK    4  A    between atoms: N3_10  and  C5_12 
REMARK    5  A    between atoms: C5_12  and  C6_13 
REMARK    6  A    between atoms: C6_13  and  C7_14 
REMARK    7  A    between atoms: C7_14  and  C8_15 
ROOT
HETATM    1  C4  UNL     1      54.239  46.643  37.466  1.00  0.00     0.118 C 
ENDROOT
BRANCH   1   2
HETATM    2  C3  UNL     1      52.956  46.415  36.677  1.00  0.00     0.063 A 
HETATM    3  N2  UNL     1      52.002  47.353  36.623  1.00  0.00    -0.360 N 
HETATM    4  C2  UNL     1      50.861  47.196  35.944  1.00  0.00     0.136 A 
ATOM      5  H2  UNL     1      52.153  48.228  37.124  1.00  0.00     0.165 HD
HETATM    6  C1  UNL     1      50.681  45.994  35.269  1.00  0.00     0.114 A 
HETATM    7  N5  UNL     1      51.606  45.022  35.290  1.00  0.00    -0.349 N 
HETATM    8  C13 UNL     1      52.732  45.244  35.992  1.00  0.00     0.120 A 
ATOM      9  H5  UNL     1      51.461  44.146  34.790  1.00  0.00     0.167 HD
BRANCH   6  10
HETATM   10  N1  UNL     1      49.589  45.804  34.600  1.00  0.00    -0.384 N 
ATOM     11  H12 UNL     1      48.762  46.350  34.841  1.00  0.00     0.157 HD
ATOM     12  H11 UNL     1      49.581  45.115  33.848  1.00  0.00     0.157 HD
ENDBRANCH   6  10
ENDBRANCH   1   2
BRANCH   1  13
HETATM   13  N3  UNL     1      55.286  46.651  36.537  1.00  0.00    -0.377 N 
ATOM     14  H3  UNL     1      55.205  47.272  35.733  1.00  0.00     0.164 HD
BRANCH  13  15
HETATM   15  C5  UNL     1      56.423  45.871  36.639  1.00  0.00     0.061 C 
BRANCH  15  16
HETATM   16  C6  UNL     1      56.672  44.693  35.797  1.00  0.00     0.049 C 
BRANCH  16  17
HETATM   17  C7  UNL     1      56.337  43.355  36.365  1.00  0.00     0.043 C 
BRANCH  17  18
HETATM   18  C8  UNL     1      57.498  42.427  35.987  1.00  0.00    -0.055 A 
HETATM   19  C9  UNL     1      57.475  41.098  36.343  1.00  0.00     0.024 A 
HETATM   20  C10 UNL     1      58.530  40.264  35.996  1.00  0.00     0.088 A 
HETATM   21  N4  UNL     1      59.572  40.769  35.312  1.00  0.00    -0.375 N 
HETATM   22  C11 UNL     1      59.612  42.067  34.957  1.00  0.00     0.088 A 
ATOM     23  H4  UNL     1      60.347  40.157  35.059  1.00  0.00     0.164 HD
HETATM   24  C12 UNL     1      58.573  42.921  35.289  1.00  0.00     0.024 A 
ENDBRANCH  17  18
ENDBRANCH  16  17
ENDBRANCH  15  16
ENDBRANCH  13  15
ENDBRANCH   1  13
TORSDOF 7
ENDMDL
MODEL 5
REMARK VINA RESULT: -7.133758650      2.298      3.349
REMARK  7 active torsions:
REMARK  status: ('A' for Active; 'I' for Inactive)
REMARK    1  A    between atoms: N1_1  and  C1_4 
REMARK    2  A    between atoms: C3_8  and  C4_9 
REMARK    3  A    between atoms: C4_9  and  N3_10 
REMARK    4  A    between atoms: N3_10  and  C5_12 
REMARK    5  A    between atoms: C5_12  and  C6_13 
REMARK    6  A    between atoms: C6_13  and  C7_14 
REMARK    7  A    between atoms: C7_14  and  C8_15 
ROOT
HETATM    1  C4  UNL     1      56.657  45.217  35.899  1.00  0.00     0.118 C 
ENDROOT
BRANCH   1   2
HETATM    2  C3  UNL     1      56.556  45.493  37.393  1.00  0.00     0.063 A 
HETATM    3  N2  UNL     1      57.325  44.837  38.271  1.00  0.00    -0.360 N 
HETATM    4  C2  UNL     1      57.269  45.046  39.591  1.00  0.00     0.136 A 
ATOM      5  H2  UNL     1      57.985  44.145  37.916  1.00  0.00     0.165 HD
HETATM    6  C1  UNL     1      56.362  45.995  40.048  1.00  0.00     0.114 A 
HETATM    7  N5  UNL     1      55.569  46.681  39.210  1.00  0.00    -0.349 N 
HETATM    8  C13 UNL     1      55.675  46.422  37.894  1.00  0.00     0.120 A 
ATOM      9  H5  UNL     1      54.908  47.374  39.559  1.00  0.00     0.167 HD
BRANCH   6  10
HETATM   10  N1  UNL     1      56.278  46.227  41.318  1.00  0.00    -0.384 N 
ATOM     11  H12 UNL     1      56.000  45.468  41.941  1.00  0.00     0.157 HD
ATOM     12  H11 UNL     1      56.492  47.161  41.668  1.00  0.00     0.157 HD
ENDBRANCH   6  10
ENDBRANCH   1   2
BRANCH   1  13
HETATM   13  N3  UNL     1      55.674  44.268  35.597  1.00  0.00    -0.377 N 
ATOM     14  H3  UNL     1      54.919  44.547  34.971  1.00  0.00     0.164 HD
BRANCH  13  15
HETATM   15  C5  UNL     1      55.658  42.978  36.092  1.00  0.00     0.061 C 
BRANCH  15  16
HETATM   16  C6  UNL     1      56.669  41.969  35.747  1.00  0.00     0.049 C 
BRANCH  16  17
HETATM   17  C7  UNL     1      57.725  41.674  36.759  1.00  0.00     0.043 C 
BRANCH  17  18
HETATM   18  C8  UNL     1      58.576  40.542  36.172  1.00  0.00    -0.055 A 
HETATM   19  C9  UNL     1      58.564  39.290  36.744  1.00  0.00     0.024 A 
HETATM   20  C10 UNL     1      59.337  38.270  36.205  1.00  0.00     0.088 A 
HETATM   21  N4  UNL     1      60.094  38.518  35.122  1.00  0.00    -0.375 N 
HETATM   22  C11 UNL     1      60.118  39.736  34.550  1.00  0.00     0.088 A 
ATOM     23  H4  UNL     1      60.662  37.769  34.727  1.00  0.00     0.164 HD
HETATM   24  C12 UNL     1      59.357  40.772  35.065  1.00  0.00     0.024 A 
ENDBRANCH  17  18
ENDBRANCH  16  17
ENDBRANCH  15  16
ENDBRANCH  13  15
ENDBRANCH   1  13
TORSDOF 7
ENDMDL
