MODEL 1
REMARK VINA RESULT: -6.672014128      0.000      0.000
REMARK  10 active torsions:
REMARK  status: ('A' for Active; 'I' for Inactive)
REMARK    1  A    between atoms: C2_3  and  C3_4 
REMARK    2  A    between atoms: C3_4  and  O1_5 
REMARK    3  A    between atoms: C3_4  and  C13_32 
REMARK    4  A    between atoms: O1_5  and  C4_6 
REMARK    5  A    between atoms: C4_6  and  N2_7 
REMARK    6  A    between atoms: C8_16  and  N4_17 
REMARK    7  A    between atoms: C11_25  and  N6_26 
REMARK    8  A    between atoms: C13_32  and  O6_33 
REMARK    9  A    between atoms: C13_32  and  C14_35 
REMARK   10  A    between atoms: C14_35  and  O7_36 
ROOT
HETATM    1  N1  UNL     1     -14.050  26.961   5.901  1.00  0.00    -0.197 NA
HETATM    2  C1  UNL     1     -13.320  26.476   6.653  1.00  0.00     0.061 C 
HETATM    3  C2  UNL     1     -12.435  25.865   7.604  1.00  0.00     0.159 C 
ENDROOT
BRANCH   3   4
HETATM    4  C3  UNL     1     -11.385  26.810   8.181  1.00  0.00     0.173 C 
BRANCH   4   5
HETATM    5  O1  UNL     1     -11.334  28.011   7.695  1.00  0.00    -0.337 OA
BRANCH   5   6
HETATM    6  C4  UNL     1     -10.347  28.717   7.137  1.00  0.00     0.240 C 
BRANCH   6   7
HETATM    7  N2  UNL     1     -10.561  29.410   5.930  1.00  0.00    -0.238 N 
HETATM    8  C5  UNL     1     -10.354  30.768   5.892  1.00  0.00     0.336 C 
HETATM    9  O2  UNL     1      -9.578  31.068   6.850  1.00  0.00    -0.246 OA
HETATM   10  N3  UNL     1     -10.735  31.814   5.146  1.00  0.00    -0.272 N 
HETATM   11  C6  UNL     1     -11.760  32.028   4.312  1.00  0.00     0.302 C 
ATOM     12  H3  UNL     1     -10.112  32.618   5.232  1.00  0.00     0.174 HD
HETATM   13  O3  UNL     1     -12.011  33.249   4.117  1.00  0.00    -0.264 OA
HETATM   14  C7  UNL     1     -12.629  31.202   3.594  1.00  0.00     0.266 C 
HETATM   15  O4  UNL     1     -13.553  31.791   2.990  1.00  0.00    -0.280 OA
HETATM   16  C8  UNL     1     -12.682  29.846   3.410  1.00  0.00     0.102 C 
HETATM   17  C9  UNL     1     -11.878  28.811   3.846  1.00  0.00     0.108 A 
HETATM   18  C10 UNL     1     -12.064  27.768   2.975  1.00  0.00     0.276 A 
HETATM   19  C12 UNL     1     -10.983  28.630   4.903  1.00  0.00     0.151 A 
HETATM   20  O5  UNL     1     -12.870  27.941   2.031  1.00  0.00    -0.267 OA
HETATM   21  N5  UNL     1     -11.375  26.636   3.190  1.00  0.00    -0.155 N 
HETATM   22  C11 UNL     1     -10.523  26.481   4.207  1.00  0.00     0.680 A 
ATOM     23  H5  UNL     1     -11.510  25.856   2.546  1.00  0.00     0.187 HD
HETATM   24  N7  UNL     1     -10.319  27.484   5.077  1.00  0.00    -0.175 N 
ATOM     25  H7  UNL     1      -9.670  27.372   5.856  1.00  0.00     0.186 HD
BRANCH  16  26
HETATM   26  N4  UNL     1     -13.650  29.385   2.699  1.00  0.00    -0.395 N 
ATOM     27  H42 UNL     1     -13.297  29.042   1.806  1.00  0.00     0.156 HD
ATOM     28  H41 UNL     1     -14.586  29.424   3.102  1.00  0.00     0.156 HD
ENDBRANCH  16  26
BRANCH  22  29
HETATM   29  N6  UNL     1      -9.894  25.381   4.367  1.00  0.00    -0.234 N 
ATOM     30  H62 UNL     1      -9.639  24.830   3.546  1.00  0.00     0.174 HD
ATOM     31  H61 UNL     1      -9.645  25.056   5.301  1.00  0.00     0.174 HD
ENDBRANCH  22  29
ENDBRANCH   6   7
ENDBRANCH   5   6
ENDBRANCH   4   5
BRANCH   4  32
HETATM   32  C13 UNL     1     -10.086  26.084   8.454  1.00  0.00     0.172 C 
BRANCH  32  33
HETATM   33  O6  UNL     1      -9.836  25.256   7.348  1.00  0.00    -0.391 OA
ATOM     34  H6  UNL     1      -9.408  25.791   6.690  1.00  0.00     0.210 HD
ENDBRANCH  32  33
BRANCH  32  35
HETATM   35  C14 UNL     1      -9.997  25.285   9.697  1.00  0.00     0.198 C 
BRANCH  35  36
HETATM   36  O7  UNL     1      -9.199  24.160   9.366  1.00  0.00    -0.398 OA
ATOM     37  H7  UNL     1      -8.408  24.249   9.884  1.00  0.00     0.209 HD
ENDBRANCH  35  36
ENDBRANCH  32  35
ENDBRANCH   4  32
ENDBRANCH   3   4
TORSDOF 10
ENDMDL
MODEL 2
REMARK VINA RESULT: -6.625772232      1.995      3.573
REMARK  10 active torsions:
REMARK  status: ('A' for Active; 'I' for Inactive)
REMARK    1  A    between atoms: C2_3  and  C3_4 
REMARK    2  A    between atoms: C3_4  and  O1_5 
REMARK    3  A    between atoms: C3_4  and  C13_32 
REMARK    4  A    between atoms: O1_5  and  C4_6 
REMARK    5  A    between atoms: C4_6  and  N2_7 
REMARK    6  A    between atoms: C8_16  and  N4_17 
REMARK    7  A    between atoms: C11_25  and  N6_26 
REMARK    8  A    between atoms: C13_32  and  O6_33 
REMARK    9  A    between atoms: C13_32  and  C14_35 
REMARK   10  A    between atoms: C14_35  and  O7_36 
ROOT
HETATM    1  N1  UNL     1     -11.519  30.058   6.318  1.00  0.00    -0.197 NA
HETATM    2  C1  UNL     1     -11.171  29.303   7.118  1.00  0.00     0.061 C 
HETATM    3  C2  UNL     1     -10.723  28.386   8.128  1.00  0.00     0.159 C 
ENDROOT
BRANCH   3   4
HETATM    4  C3  UNL     1      -9.997  27.159   7.583  1.00  0.00     0.173 C 
BRANCH   4   5
HETATM    5  O1  UNL     1      -9.680  27.164   6.326  1.00  0.00    -0.337 OA
BRANCH   5   6
HETATM    6  C4  UNL     1      -9.790  26.244   5.365  1.00  0.00     0.240 C 
BRANCH   6   7
HETATM    7  N2  UNL     1     -10.255  26.602   4.085  1.00  0.00    -0.238 N 
HETATM    8  C5  UNL     1      -9.445  26.394   2.995  1.00  0.00     0.336 C 
HETATM    9  O2  UNL     1      -8.597  25.503   3.308  1.00  0.00    -0.246 OA
HETATM   10  N3  UNL     1      -9.317  26.858   1.744  1.00  0.00    -0.272 N 
HETATM   11  C6  UNL     1      -9.720  27.977   1.130  1.00  0.00     0.302 C 
ATOM     12  H3  UNL     1      -8.803  26.225   1.130  1.00  0.00     0.174 HD
HETATM   13  O3  UNL     1      -9.071  28.244   0.081  1.00  0.00    -0.264 OA
HETATM   14  C7  UNL     1     -10.707  28.933   1.382  1.00  0.00     0.266 C 
HETATM   15  O4  UNL     1     -10.705  29.922   0.614  1.00  0.00    -0.280 OA
HETATM   16  C8  UNL     1     -11.702  29.016   2.319  1.00  0.00     0.102 C 
HETATM   17  C9  UNL     1     -12.103  28.170   3.335  1.00  0.00     0.108 A 
HETATM   18  C10 UNL     1     -13.413  28.469   3.608  1.00  0.00     0.276 A 
HETATM   19  C12 UNL     1     -11.496  27.152   4.074  1.00  0.00     0.151 A 
HETATM   20  O5  UNL     1     -13.949  29.384   2.939  1.00  0.00    -0.267 OA
HETATM   21  N5  UNL     1     -14.034  27.765   4.568  1.00  0.00    -0.155 N 
HETATM   22  C11 UNL     1     -13.437  26.793   5.264  1.00  0.00     0.680 A 
ATOM     23  H5  UNL     1     -15.009  27.982   4.776  1.00  0.00     0.187 HD
HETATM   24  N7  UNL     1     -12.154  26.478   5.020  1.00  0.00    -0.175 N 
ATOM     25  H7  UNL     1     -11.692  25.738   5.549  1.00  0.00     0.186 HD
BRANCH  16  26
HETATM   26  N4  UNL     1     -12.444  30.067   2.300  1.00  0.00    -0.395 N 
ATOM     27  H42 UNL     1     -12.831  30.207   1.367  1.00  0.00     0.156 HD
ATOM     28  H41 UNL     1     -12.538  30.589   3.171  1.00  0.00     0.156 HD
ENDBRANCH  16  26
BRANCH  22  29
HETATM   29  N6  UNL     1     -14.073  26.155   6.169  1.00  0.00    -0.234 N 
ATOM     30  H62 UNL     1     -14.955  26.534   6.517  1.00  0.00     0.174 HD
ATOM     31  H61 UNL     1     -13.709  25.277   6.539  1.00  0.00     0.174 HD
ENDBRANCH  22  29
ENDBRANCH   6   7
ENDBRANCH   5   6
ENDBRANCH   4   5
BRANCH   4  32
HETATM   32  C13 UNL     1     -10.548  25.885   8.186  1.00  0.00     0.172 C 
BRANCH  32  33
HETATM   33  O6  UNL     1     -11.943  26.025   8.244  1.00  0.00    -0.391 OA
ATOM     34  H6  UNL     1     -12.258  25.417   8.903  1.00  0.00     0.210 HD
ENDBRANCH  32  33
BRANCH  32  35
HETATM   35  C14 UNL     1     -10.037  25.480   9.515  1.00  0.00     0.198 C 
BRANCH  35  36
HETATM   36  O7  UNL     1      -9.318  24.278   9.292  1.00  0.00    -0.398 OA
ATOM     37  H7  UNL     1      -8.698  24.217  10.010  1.00  0.00     0.209 HD
ENDBRANCH  35  36
ENDBRANCH  32  35
ENDBRANCH   4  32
ENDBRANCH   3   4
TORSDOF 10
ENDMDL
MODEL 3
REMARK VINA RESULT: -6.571646334      1.585      2.435
REMARK  10 active torsions:
REMARK  status: ('A' for Active; 'I' for Inactive)
REMARK    1  A    between atoms: C2_3  and  C3_4 
REMARK    2  A    between atoms: C3_4  and  O1_5 
REMARK    3  A    between atoms: C3_4  and  C13_32 
REMARK    4  A    between atoms: O1_5  and  C4_6 
REMARK    5  A    between atoms: C4_6  and  N2_7 
REMARK    6  A    between atoms: C8_16  and  N4_17 
REMARK    7  A    between atoms: C11_25  and  N6_26 
REMARK    8  A    between atoms: C13_32  and  O6_33 
REMARK    9  A    between atoms: C13_32  and  C14_35 
REMARK   10  A    between atoms: C14_35  and  O7_36 
ROOT
HETATM    1  N1  UNL     1      -8.237  29.297  10.726  1.00  0.00    -0.197 NA
HETATM    2  C1  UNL     1      -8.841  28.376  10.381  1.00  0.00     0.061 C 
HETATM    3  C2  UNL     1      -9.573  27.212   9.965  1.00  0.00     0.159 C 
ENDROOT
BRANCH   3   4
HETATM    4  C3  UNL     1      -9.798  27.119   8.459  1.00  0.00     0.173 C 
BRANCH   4   5
HETATM    5  O1  UNL     1      -9.748  28.222   7.780  1.00  0.00    -0.337 OA
BRANCH   5   6
HETATM    6  C4  UNL     1      -9.085  28.571   6.674  1.00  0.00     0.240 C 
BRANCH   6   7
HETATM    7  N2  UNL     1      -9.747  29.246   5.630  1.00  0.00    -0.238 N 
HETATM    8  C5  UNL     1      -9.532  30.593   5.462  1.00  0.00     0.336 C 
HETATM    9  O2  UNL     1      -8.427  30.881   6.016  1.00  0.00    -0.246 OA
HETATM   10  N3  UNL     1     -10.149  31.638   4.894  1.00  0.00    -0.272 N 
HETATM   11  C6  UNL     1     -11.417  31.877   4.534  1.00  0.00     0.302 C 
ATOM     12  H3  UNL     1      -9.521  32.416   4.693  1.00  0.00     0.174 HD
HETATM   13  O3  UNL     1     -11.688  33.103   4.412  1.00  0.00    -0.264 OA
HETATM   14  C7  UNL     1     -12.525  31.073   4.257  1.00  0.00     0.266 C 
HETATM   15  O4  UNL     1     -13.596  31.688   4.054  1.00  0.00    -0.280 OA
HETATM   16  C8  UNL     1     -12.689  29.717   4.160  1.00  0.00     0.102 C 
HETATM   17  C9  UNL     1     -11.809  28.658   4.274  1.00  0.00     0.108 A 
HETATM   18  C10 UNL     1     -12.361  27.606   3.591  1.00  0.00     0.276 A 
HETATM   19  C12 UNL     1     -10.569  28.462   4.889  1.00  0.00     0.151 A 
HETATM   20  O5  UNL     1     -13.473  27.792   3.043  1.00  0.00    -0.267 OA
HETATM   21  N5  UNL     1     -11.678  26.450   3.552  1.00  0.00    -0.155 N 
HETATM   22  C11 UNL     1     -10.493  26.282   4.146  1.00  0.00     0.680 A 
ATOM     23  H5  UNL     1     -12.083  25.663   3.046  1.00  0.00     0.187 HD
HETATM   24  N7  UNL     1      -9.926  27.294   4.823  1.00  0.00    -0.175 N 
ATOM     25  H7  UNL     1      -9.022  27.172   5.279  1.00  0.00     0.186 HD
BRANCH  16  26
HETATM   26  N4  UNL     1     -13.875  29.282   3.915  1.00  0.00    -0.395 N 
ATOM     27  H42 UNL     1     -14.356  29.064   4.787  1.00  0.00     0.156 HD
ATOM     28  H41 UNL     1     -14.156  29.217   2.937  1.00  0.00     0.156 HD
ENDBRANCH  16  26
BRANCH  22  29
HETATM   29  N6  UNL     1      -9.886  25.160   4.080  1.00  0.00    -0.234 N 
ATOM     30  H62 UNL     1     -10.368  24.315   4.388  1.00  0.00     0.174 HD
ATOM     31  H61 UNL     1      -8.932  25.106   3.722  1.00  0.00     0.174 HD
ENDBRANCH  22  29
ENDBRANCH   6   7
ENDBRANCH   5   6
ENDBRANCH   4   5
BRANCH   4  32
HETATM   32  C13 UNL     1     -10.879  26.113   8.128  1.00  0.00     0.172 C 
BRANCH  32  33
HETATM   33  O6  UNL     1     -10.307  25.158   7.273  1.00  0.00    -0.391 OA
ATOM     34  H6  UNL     1     -10.163  24.373   7.789  1.00  0.00     0.210 HD
ENDBRANCH  32  33
BRANCH  32  35
HETATM   35  C14 UNL     1     -12.130  26.627   7.526  1.00  0.00     0.198 C 
BRANCH  35  36
HETATM   36  O7  UNL     1     -13.033  25.532   7.542  1.00  0.00    -0.398 OA
ATOM     37  H7  UNL     1     -13.570  25.637   6.765  1.00  0.00     0.209 HD
ENDBRANCH  35  36
ENDBRANCH  32  35
ENDBRANCH   4  32
ENDBRANCH   3   4
TORSDOF 10
ENDMDL
MODEL 4
REMARK VINA RESULT: -6.477769189      2.245      5.201
REMARK  10 active torsions:
REMARK  status: ('A' for Active; 'I' for Inactive)
REMARK    1  A    between atoms: C2_3  and  C3_4 
REMARK    2  A    between atoms: C3_4  and  O1_5 
REMARK    3  A    between atoms: C3_4  and  C13_32 
REMARK    4  A    between atoms: O1_5  and  C4_6 
REMARK    5  A    between atoms: C4_6  and  N2_7 
REMARK    6  A    between atoms: C8_16  and  N4_17 
REMARK    7  A    between atoms: C11_25  and  N6_26 
REMARK    8  A    between atoms: C13_32  and  O6_33 
REMARK    9  A    between atoms: C13_32  and  C14_35 
REMARK   10  A    between atoms: C14_35  and  O7_36 
ROOT
HETATM    1  N1  UNL     1      -9.386  27.114   0.388  1.00  0.00    -0.197 NA
HETATM    2  C1  UNL     1     -10.302  27.473   0.992  1.00  0.00     0.061 C 
HETATM    3  C2  UNL     1     -11.438  27.946   1.731  1.00  0.00     0.159 C 
ENDROOT
BRANCH   3   4
HETATM    4  C3  UNL     1     -11.333  27.746   3.240  1.00  0.00     0.173 C 
BRANCH   4   5
HETATM    5  O1  UNL     1     -11.018  28.779   3.956  1.00  0.00    -0.337 OA
BRANCH   5   6
HETATM    6  C4  UNL     1     -11.714  29.525   4.818  1.00  0.00     0.240 C 
BRANCH   6   7
HETATM    7  N2  UNL     1     -11.427  29.476   6.196  1.00  0.00    -0.238 N 
HETATM    8  C5  UNL     1     -10.957  30.605   6.823  1.00  0.00     0.336 C 
HETATM    9  O2  UNL     1     -11.292  31.606   6.119  1.00  0.00    -0.246 OA
HETATM   10  N3  UNL     1     -10.269  30.918   7.930  1.00  0.00    -0.272 N 
HETATM   11  C6  UNL     1      -9.449  30.228   8.733  1.00  0.00     0.302 C 
ATOM     12  H3  UNL     1     -10.398  31.887   8.223  1.00  0.00     0.174 HD
HETATM   13  O3  UNL     1      -8.683  30.955   9.423  1.00  0.00    -0.264 OA
HETATM   14  C7  UNL     1      -9.242  28.871   8.989  1.00  0.00     0.266 C 
HETATM   15  O4  UNL     1      -8.283  28.608   9.750  1.00  0.00    -0.280 OA
HETATM   16  C8  UNL     1      -9.885  27.736   8.570  1.00  0.00     0.102 C 
HETATM   17  C9  UNL     1     -10.988  27.531   7.765  1.00  0.00     0.108 A 
HETATM   18  C10 UNL     1     -11.499  26.301   8.095  1.00  0.00     0.276 A 
HETATM   19  C12 UNL     1     -11.639  28.264   6.770  1.00  0.00     0.151 A 
HETATM   20  O5  UNL     1     -10.907  25.651   8.988  1.00  0.00    -0.267 OA
HETATM   21  N5  UNL     1     -12.593  25.876   7.442  1.00  0.00    -0.155 N 
HETATM   22  C11 UNL     1     -13.202  26.593   6.493  1.00  0.00     0.680 A 
ATOM     23  H5  UNL     1     -12.977  24.963   7.683  1.00  0.00     0.187 HD
HETATM   24  N7  UNL     1     -12.726  27.800   6.148  1.00  0.00    -0.175 N 
ATOM     25  H7  UNL     1     -13.186  28.352   5.424  1.00  0.00     0.186 HD
BRANCH  16  26
HETATM   26  N4  UNL     1      -9.416  26.609   8.974  1.00  0.00    -0.395 N 
ATOM     27  H42 UNL     1      -9.570  26.504   9.977  1.00  0.00     0.156 HD
ATOM     28  H41 UNL     1      -8.978  26.007   8.277  1.00  0.00     0.156 HD
ENDBRANCH  16  26
BRANCH  22  29
HETATM   29  N6  UNL     1     -14.239  26.141   5.902  1.00  0.00    -0.234 N 
ATOM     30  H62 UNL     1     -14.513  25.169   6.052  1.00  0.00     0.174 HD
ATOM     31  H61 UNL     1     -14.791  26.741   5.289  1.00  0.00     0.174 HD
ENDBRANCH  22  29
ENDBRANCH   6   7
ENDBRANCH   5   6
ENDBRANCH   4   5
BRANCH   4  32
HETATM   32  C13 UNL     1     -10.698  26.413   3.572  1.00  0.00     0.172 C 
BRANCH  32  33
HETATM   33  O6  UNL     1     -11.689  25.624   4.179  1.00  0.00    -0.391 OA
ATOM     34  H6  UNL     1     -11.892  24.919   3.575  1.00  0.00     0.210 HD
ENDBRANCH  32  33
BRANCH  32  35
HETATM   35  C14 UNL     1      -9.488  26.425   4.424  1.00  0.00     0.198 C 
BRANCH  35  36
HETATM   36  O7  UNL     1      -9.643  25.331   5.315  1.00  0.00    -0.398 OA
ATOM     37  H7  UNL     1     -10.517  25.421   5.676  1.00  0.00     0.209 HD
ENDBRANCH  35  36
ENDBRANCH  32  35
ENDBRANCH   4  32
ENDBRANCH   3   4
TORSDOF 10
ENDMDL
MODEL 5
REMARK VINA RESULT: -6.475904024      1.910      2.789
REMARK  10 active torsions:
REMARK  status: ('A' for Active; 'I' for Inactive)
REMARK    1  A    between atoms: C2_3  and  C3_4 
REMARK    2  A    between atoms: C3_4  and  O1_5 
REMARK    3  A    between atoms: C3_4  and  C13_32 
REMARK    4  A    between atoms: O1_5  and  C4_6 
REMARK    5  A    between atoms: C4_6  and  N2_7 
REMARK    6  A    between atoms: C8_16  and  N4_17 
REMARK    7  A    between atoms: C11_25  and  N6_26 
REMARK    8  A    between atoms: C13_32  and  O6_33 
REMARK    9  A    between atoms: C13_32  and  C14_35 
REMARK   10  A    between atoms: C14_35  and  O7_36 
ROOT
HETATM    1  N1  UNL     1      -8.807  25.322   9.002  1.00  0.00    -0.197 NA
HETATM    2  C1  UNL     1      -9.924  25.447   8.739  1.00  0.00     0.061 C 
HETATM    3  C2  UNL     1     -11.314  25.575   8.402  1.00  0.00     0.159 C 
ENDROOT
BRANCH   3   4
HETATM    4  C3  UNL     1     -11.628  26.740   7.468  1.00  0.00     0.173 C 
BRANCH   4   5
HETATM    5  O1  UNL     1     -11.152  27.903   7.786  1.00  0.00    -0.337 OA
BRANCH   5   6
HETATM    6  C4  UNL     1     -10.254  28.700   7.201  1.00  0.00     0.240 C 
BRANCH   6   7
HETATM    7  N2  UNL     1     -10.553  29.335   5.980  1.00  0.00    -0.238 N 
HETATM    8  C5  UNL     1     -11.186  30.554   5.996  1.00  0.00     0.336 C 
HETATM    9  O2  UNL     1     -10.983  31.081   7.132  1.00  0.00    -0.246 OA
HETATM   10  N3  UNL     1     -11.928  31.303   5.168  1.00  0.00    -0.272 N 
HETATM   11  C6  UNL     1     -12.656  31.029   4.079  1.00  0.00     0.302 C 
ATOM     12  H3  UNL     1     -11.941  32.291   5.423  1.00  0.00     0.174 HD
HETATM   13  O3  UNL     1     -13.527  31.904   3.816  1.00  0.00    -0.264 OA
HETATM   14  C7  UNL     1     -12.676  29.987   3.150  1.00  0.00     0.266 C 
HETATM   15  O4  UNL     1     -13.601  30.035   2.307  1.00  0.00    -0.280 OA
HETATM   16  C8  UNL     1     -11.874  28.892   2.964  1.00  0.00     0.102 C 
HETATM   17  C9  UNL     1     -10.740  28.443   3.612  1.00  0.00     0.108 A 
HETATM   18  C10 UNL     1     -10.069  27.638   2.728  1.00  0.00     0.276 A 
HETATM   19  C12 UNL     1     -10.183  28.633   4.879  1.00  0.00     0.151 A 
HETATM   20  O5  UNL     1     -10.578  27.474   1.595  1.00  0.00    -0.267 OA
HETATM   21  N5  UNL     1      -8.916  27.080   3.133  1.00  0.00    -0.155 N 
HETATM   22  C11 UNL     1      -8.398  27.275   4.349  1.00  0.00     0.680 A 
ATOM     23  H5  UNL     1      -8.412  26.480   2.480  1.00  0.00     0.187 HD
HETATM   24  N7  UNL     1      -9.032  28.057   5.237  1.00  0.00    -0.175 N 
ATOM     25  H7  UNL     1      -8.642  28.209   6.167  1.00  0.00     0.186 HD
BRANCH  16  26
HETATM   26  N4  UNL     1     -12.187  28.086   2.010  1.00  0.00    -0.395 N 
ATOM     27  H42 UNL     1     -11.948  27.129   2.267  1.00  0.00     0.156 HD
ATOM     28  H41 UNL     1     -12.608  28.492   1.175  1.00  0.00     0.156 HD
ENDBRANCH  16  26
BRANCH  22  29
HETATM   29  N6  UNL     1      -7.298  26.718   4.684  1.00  0.00    -0.234 N 
ATOM     30  H62 UNL     1      -6.417  27.133   4.377  1.00  0.00     0.174 HD
ATOM     31  H61 UNL     1      -7.296  25.871   5.252  1.00  0.00     0.174 HD
ENDBRANCH  22  29
ENDBRANCH   6   7
ENDBRANCH   5   6
ENDBRANCH   4   5
BRANCH   4  32
HETATM   32  C13 UNL     1     -13.046  26.656   6.946  1.00  0.00     0.172 C 
BRANCH  32  33
HETATM   33  O6  UNL     1     -13.627  25.511   7.514  1.00  0.00    -0.391 OA
ATOM     34  H6  UNL     1     -13.354  24.769   6.987  1.00  0.00     0.210 HD
ENDBRANCH  32  33
BRANCH  32  35
HETATM   35  C14 UNL     1     -13.234  26.628   5.478  1.00  0.00     0.198 C 
BRANCH  35  36
HETATM   36  O7  UNL     1     -14.407  25.860   5.263  1.00  0.00    -0.398 OA
ATOM     37  H7  UNL     1     -14.222  25.006   5.637  1.00  0.00     0.209 HD
ENDBRANCH  35  36
ENDBRANCH  32  35
ENDBRANCH   4  32
ENDBRANCH   3   4
TORSDOF 10
ENDMDL
