MODEL 1
REMARK VINA RESULT: -7.170956790      0.000      0.000
REMARK  11 active torsions:
REMARK  status: ('A' for Active; 'I' for Inactive)
REMARK    1  A    between atoms: N1_1  and  C1_4 
REMARK    2  A    between atoms: C3_8  and  C4_9 
REMARK    3  A    between atoms: C5_12  and  C6_13 
REMARK    4  A    between atoms: C6_13  and  C7_14 
REMARK    5  A    between atoms: C7_14  and  C8_15 
REMARK    6  A    between atoms: C8_15  and  C9_16 
REMARK    7  A    between atoms: C10_17  and  C11_18 
REMARK    8  A    between atoms: C11_18  and  O1_19 
REMARK    9  A    between atoms: C11_18  and  N4_21 
REMARK   10  A    between atoms: N4_21  and  N5_23 
REMARK   11  A    between atoms: N7_32  and  N8_33 
ROOT
HETATM    1  C7  UNL     1      -9.790  28.546   6.666  1.00  0.00     0.013 C 
ENDROOT
BRANCH   1   2
HETATM    2  C6  UNL     1      -9.316  27.112   6.585  1.00  0.00     0.079 C 
BRANCH   2   3
HETATM    3  C5  UNL     1      -9.445  26.681   5.158  1.00  0.00     0.104 A 
HETATM    4  N3  UNL     1      -9.412  27.501   3.992  1.00  0.00    -0.323 N 
HETATM    5  C4  UNL     1      -9.554  26.778   2.924  1.00  0.00     0.189 A 
ATOM      6  H3  UNL     1      -9.294  28.513   3.996  1.00  0.00     0.169 HD
HETATM    7  O4  UNL     1      -9.685  25.458   3.351  1.00  0.00    -0.217 OA
HETATM    8  N9  UNL     1      -9.609  25.481   4.709  1.00  0.00    -0.247 N 
ATOM      9  H9  UNL     1      -9.673  24.652   5.299  1.00  0.00     0.196 HD
BRANCH   5  10
HETATM   10  C3  UNL     1      -9.583  27.191   1.539  1.00  0.00     0.102 A 
HETATM   11  C2  UNL     1      -8.487  27.090   0.712  1.00  0.00     0.127 A 
HETATM   12  N2  UNL     1      -8.594  27.502  -0.585  1.00  0.00    -0.201 N 
HETATM   13  C1  UNL     1      -9.749  28.006  -1.065  1.00  0.00     0.678 A 
ATOM     14  H2  UNL     1      -7.786  27.427  -1.204  1.00  0.00     0.183 HD
HETATM   15  N10 UNL     1     -10.833  28.114  -0.275  1.00  0.00    -0.156 N 
HETATM   16  C14 UNL     1     -10.738  27.708   1.010  1.00  0.00     0.275 A 
ATOM     17  H10 UNL     1     -11.707  28.495  -0.638  1.00  0.00     0.187 HD
HETATM   18  O5  UNL     1     -11.774  27.827   1.718  1.00  0.00    -0.267 OA
BRANCH  13  19
HETATM   19  N1  UNL     1      -9.818  28.385  -2.287  1.00  0.00    -0.234 N 
ATOM     20  H12 UNL     1     -10.200  29.305  -2.506  1.00  0.00     0.174 HD
ATOM     21  H11 UNL     1      -9.492  27.765  -3.028  1.00  0.00     0.174 HD
ENDBRANCH  13  19
ENDBRANCH   5  10
ENDBRANCH   2   3
ENDBRANCH   1   2
BRANCH   1  22
HETATM   22  C8  UNL     1     -11.259  28.651   6.994  1.00  0.00     0.061 C 
BRANCH  22  23
HETATM   23  C9  UNL     1     -12.170  28.888   5.913  1.00  0.00     0.058 A 
HETATM   24  C10 UNL     1     -12.909  27.956   5.274  1.00  0.00     0.109 A 
HETATM   25  C12 UNL     1     -13.751  28.339   4.192  1.00  0.00     0.266 A 
HETATM   26  O2  UNL     1     -14.443  27.493   3.588  1.00  0.00    -0.267 OA
HETATM   27  N6  UNL     1     -13.824  29.602   3.795  1.00  0.00    -0.273 N 
HETATM   28  C13 UNL     1     -13.085  30.516   4.439  1.00  0.00     0.348 A 
ATOM     29  H6  UNL     1     -14.428  29.872   3.018  1.00  0.00     0.173 HD
HETATM   30  O3  UNL     1     -13.173  31.710   4.042  1.00  0.00    -0.245 OA
HETATM   31  N7  UNL     1     -12.282  30.182   5.463  1.00  0.00    -0.215 N 
BRANCH  24  32
HETATM   32  C11 UNL     1     -12.946  26.581   5.642  1.00  0.00     0.172 C 
BRANCH  32  33
HETATM   33  O1  UNL     1     -12.533  25.772   4.702  1.00  0.00    -0.344 OA
ATOM     34  H1  UNL     1     -12.130  24.977   5.030  1.00  0.00     0.219 HD
ENDBRANCH  32  33
BRANCH  32  35
HETATM   35  N4  UNL     1     -13.334  25.919   6.792  1.00  0.00    -0.286 N 
ATOM     36  H4  UNL     1     -14.327  25.781   6.982  1.00  0.00     0.188 HD
BRANCH  35  37
HETATM   37  N5  UNL     1     -12.355  25.419   7.728  1.00  0.00    -0.343 N 
ATOM     38  H52 UNL     1     -12.233  25.910   8.613  1.00  0.00     0.176 HD
ATOM     39  H51 UNL     1     -11.797  24.593   7.513  1.00  0.00     0.176 HD
ENDBRANCH  35  37
ENDBRANCH  32  35
ENDBRANCH  24  32
BRANCH  31  40
HETATM   40  N8  UNL     1     -11.560  31.188   6.062  1.00  0.00    -0.334 N 
ATOM     41  H82 UNL     1     -11.195  31.015   6.999  1.00  0.00     0.177 HD
ATOM     42  H81 UNL     1     -11.405  32.070   5.574  1.00  0.00     0.177 HD
ENDBRANCH  31  40
ENDBRANCH  22  23
ENDBRANCH   1  22
TORSDOF 11
ENDMDL
MODEL 2
REMARK VINA RESULT: -6.974023673      3.896      7.160
REMARK  11 active torsions:
REMARK  status: ('A' for Active; 'I' for Inactive)
REMARK    1  A    between atoms: N1_1  and  C1_4 
REMARK    2  A    between atoms: C3_8  and  C4_9 
REMARK    3  A    between atoms: C5_12  and  C6_13 
REMARK    4  A    between atoms: C6_13  and  C7_14 
REMARK    5  A    between atoms: C7_14  and  C8_15 
REMARK    6  A    between atoms: C8_15  and  C9_16 
REMARK    7  A    between atoms: C10_17  and  C11_18 
REMARK    8  A    between atoms: C11_18  and  O1_19 
REMARK    9  A    between atoms: C11_18  and  N4_21 
REMARK   10  A    between atoms: N4_21  and  N5_23 
REMARK   11  A    between atoms: N7_32  and  N8_33 
ROOT
HETATM    1  C7  UNL     1     -10.774  28.941   7.898  1.00  0.00     0.013 C 
ENDROOT
BRANCH   1   2
HETATM    2  C6  UNL     1      -9.576  29.536   8.605  1.00  0.00     0.079 C 
BRANCH   2   3
HETATM    3  C5  UNL     1      -9.136  28.550   9.641  1.00  0.00     0.104 A 
HETATM    4  N3  UNL     1      -9.484  27.171   9.737  1.00  0.00    -0.323 N 
HETATM    5  C4  UNL     1      -8.912  26.629  10.768  1.00  0.00     0.189 A 
ATOM      6  H3  UNL     1     -10.097  26.679   9.088  1.00  0.00     0.169 HD
HETATM    7  O4  UNL     1      -8.167  27.633  11.384  1.00  0.00    -0.217 OA
HETATM    8  N9  UNL     1      -8.353  28.761  10.647  1.00  0.00    -0.247 N 
ATOM      9  H9  UNL     1      -7.926  29.662  10.862  1.00  0.00     0.196 HD
BRANCH   5  10
HETATM   10  C3  UNL     1      -8.987  25.266  11.242  1.00  0.00     0.102 A 
HETATM   11  C2  UNL     1      -8.965  24.943  12.580  1.00  0.00     0.127 A 
HETATM   12  N2  UNL     1      -9.039  23.630  12.947  1.00  0.00    -0.201 N 
HETATM   13  C1  UNL     1      -9.131  22.651  12.025  1.00  0.00     0.678 A 
ATOM     14  H2  UNL     1      -9.026  23.385  13.938  1.00  0.00     0.183 HD
HETATM   15  N10 UNL     1      -9.154  22.942  10.712  1.00  0.00    -0.156 N 
HETATM   16  C14 UNL     1      -9.082  24.238  10.338  1.00  0.00     0.275 A 
ATOM     17  H10 UNL     1      -9.224  22.201  10.014  1.00  0.00     0.187 HD
HETATM   18  O5  UNL     1      -9.106  24.470   9.099  1.00  0.00    -0.267 OA
BRANCH  13  19
HETATM   19  N1  UNL     1      -9.199  21.428  12.401  1.00  0.00    -0.234 N 
ATOM     20  H12 UNL     1     -10.063  20.906  12.259  1.00  0.00     0.174 HD
ATOM     21  H11 UNL     1      -8.390  20.988  12.839  1.00  0.00     0.174 HD
ENDBRANCH  13  19
ENDBRANCH   5  10
ENDBRANCH   2   3
ENDBRANCH   1   2
BRANCH   1  22
HETATM   22  C8  UNL     1     -10.577  28.846   6.406  1.00  0.00     0.061 C 
BRANCH  22  23
HETATM   23  C9  UNL     1     -11.730  28.999   5.569  1.00  0.00     0.058 A 
HETATM   24  C10 UNL     1     -12.539  28.008   5.137  1.00  0.00     0.109 A 
HETATM   25  C12 UNL     1     -13.635  28.310   4.281  1.00  0.00     0.266 A 
HETATM   26  O2  UNL     1     -14.395  27.408   3.870  1.00  0.00    -0.267 OA
HETATM   27  N6  UNL     1     -13.880  29.555   3.895  1.00  0.00    -0.273 N 
HETATM   28  C13 UNL     1     -13.069  30.528   4.332  1.00  0.00     0.348 A 
ATOM     29  H6  UNL     1     -14.666  29.767   3.281  1.00  0.00     0.173 HD
HETATM   30  O3  UNL     1     -13.324  31.703   3.951  1.00  0.00    -0.245 OA
HETATM   31  N7  UNL     1     -12.027  30.271   5.141  1.00  0.00    -0.215 N 
BRANCH  24  32
HETATM   32  C11 UNL     1     -12.400  26.644   5.522  1.00  0.00     0.172 C 
BRANCH  32  33
HETATM   33  O1  UNL     1     -11.924  25.875   4.578  1.00  0.00    -0.344 OA
ATOM     34  H1  UNL     1     -12.456  25.107   4.405  1.00  0.00     0.219 HD
ENDBRANCH  32  33
BRANCH  32  35
HETATM   35  N4  UNL     1     -12.670  25.958   6.692  1.00  0.00    -0.286 N 
ATOM     36  H4  UNL     1     -13.637  25.761   6.948  1.00  0.00     0.188 HD
BRANCH  35  37
HETATM   37  N5  UNL     1     -11.602  25.517   7.558  1.00  0.00    -0.343 N 
ATOM     38  H52 UNL     1     -10.805  26.138   7.702  1.00  0.00     0.176 HD
ATOM     39  H51 UNL     1     -11.640  24.607   8.016  1.00  0.00     0.176 HD
ENDBRANCH  35  37
ENDBRANCH  32  35
ENDBRANCH  24  32
BRANCH  31  40
HETATM   40  N8  UNL     1     -11.250  31.334   5.537  1.00  0.00    -0.334 N 
ATOM     41  H82 UNL     1     -10.528  31.158   6.237  1.00  0.00     0.177 HD
ATOM     42  H81 UNL     1     -11.402  32.260   5.137  1.00  0.00     0.177 HD
ENDBRANCH  31  40
ENDBRANCH  22  23
ENDBRANCH   1  22
TORSDOF 11
ENDMDL
MODEL 3
REMARK VINA RESULT: -6.960904502      2.942      6.851
REMARK  11 active torsions:
REMARK  status: ('A' for Active; 'I' for Inactive)
REMARK    1  A    between atoms: N1_1  and  C1_4 
REMARK    2  A    between atoms: C3_8  and  C4_9 
REMARK    3  A    between atoms: C5_12  and  C6_13 
REMARK    4  A    between atoms: C6_13  and  C7_14 
REMARK    5  A    between atoms: C7_14  and  C8_15 
REMARK    6  A    between atoms: C8_15  and  C9_16 
REMARK    7  A    between atoms: C10_17  and  C11_18 
REMARK    8  A    between atoms: C11_18  and  O1_19 
REMARK    9  A    between atoms: C11_18  and  N4_21 
REMARK   10  A    between atoms: N4_21  and  N5_23 
REMARK   11  A    between atoms: N7_32  and  N8_33 
ROOT
HETATM    1  C7  UNL     1     -10.950  29.314   1.233  1.00  0.00     0.013 C 
ENDROOT
BRANCH   1   2
HETATM    2  C6  UNL     1     -11.731  30.206   0.294  1.00  0.00     0.079 C 
BRANCH   2   3
HETATM    3  C5  UNL     1     -12.469  31.199   1.136  1.00  0.00     0.104 A 
HETATM    4  N3  UNL     1     -11.919  32.200   1.990  1.00  0.00    -0.323 N 
HETATM    5  C4  UNL     1     -12.864  32.880   2.561  1.00  0.00     0.189 A 
ATOM      6  H3  UNL     1     -10.922  32.359   2.132  1.00  0.00     0.169 HD
HETATM    7  O4  UNL     1     -14.069  32.349   2.102  1.00  0.00    -0.217 OA
HETATM    8  N9  UNL     1     -13.748  31.342   1.247  1.00  0.00    -0.247 N 
ATOM      9  H9  UNL     1     -14.433  30.769   0.755  1.00  0.00     0.196 HD
BRANCH   5  10
HETATM   10  C3  UNL     1     -12.764  33.977   3.497  1.00  0.00     0.102 A 
HETATM   11  C2  UNL     1     -13.432  35.167   3.320  1.00  0.00     0.127 A 
HETATM   12  N2  UNL     1     -13.284  36.156   4.249  1.00  0.00    -0.201 N 
HETATM   13  C1  UNL     1     -12.496  35.987   5.330  1.00  0.00     0.678 A 
ATOM     14  H2  UNL     1     -13.779  37.039   4.124  1.00  0.00     0.183 HD
HETATM   15  N10 UNL     1     -11.832  34.832   5.523  1.00  0.00    -0.156 N 
HETATM   16  C14 UNL     1     -11.973  33.847   4.610  1.00  0.00     0.275 A 
ATOM     17  H10 UNL     1     -11.236  34.704   6.341  1.00  0.00     0.187 HD
HETATM   18  O5  UNL     1     -11.335  32.782   4.826  1.00  0.00    -0.267 OA
BRANCH  13  19
HETATM   19  N1  UNL     1     -12.376  36.934   6.184  1.00  0.00    -0.234 N 
ATOM     20  H12 UNL     1     -13.061  37.690   6.194  1.00  0.00     0.174 HD
ATOM     21  H11 UNL     1     -11.599  36.925   6.844  1.00  0.00     0.174 HD
ENDBRANCH  13  19
ENDBRANCH   5  10
ENDBRANCH   2   3
ENDBRANCH   1   2
BRANCH   1  22
HETATM   22  C8  UNL     1     -11.640  27.996   1.485  1.00  0.00     0.061 C 
BRANCH  22  23
HETATM   23  C9  UNL     1     -11.470  27.389   2.773  1.00  0.00     0.058 A 
HETATM   24  C10 UNL     1     -12.244  27.595   3.860  1.00  0.00     0.109 A 
HETATM   25  C12 UNL     1     -11.932  26.941   5.085  1.00  0.00     0.266 A 
HETATM   26  O2  UNL     1     -12.635  27.118   6.102  1.00  0.00    -0.267 OA
HETATM   27  N6  UNL     1     -10.890  26.128   5.182  1.00  0.00    -0.273 N 
HETATM   28  C13 UNL     1     -10.131  25.932   4.094  1.00  0.00     0.348 A 
ATOM     29  H6  UNL     1     -10.670  25.662   6.063  1.00  0.00     0.173 HD
HETATM   30  O3  UNL     1      -9.146  25.154   4.212  1.00  0.00    -0.245 OA
HETATM   31  N7  UNL     1     -10.402  26.537   2.925  1.00  0.00    -0.215 N 
BRANCH  24  32
HETATM   32  C11 UNL     1     -13.412  28.409   3.861  1.00  0.00     0.172 C 
BRANCH  32  33
HETATM   33  O1  UNL     1     -14.496  27.774   3.498  1.00  0.00    -0.344 OA
ATOM     34  H1  UNL     1     -15.296  28.154   3.843  1.00  0.00     0.219 HD
ENDBRANCH  32  33
BRANCH  32  35
HETATM   35  N4  UNL     1     -13.640  29.738   4.164  1.00  0.00    -0.286 N 
ATOM     36  H4  UNL     1     -14.152  30.323   3.504  1.00  0.00     0.188 HD
BRANCH  35  37
HETATM   37  N5  UNL     1     -13.166  30.310   5.402  1.00  0.00    -0.343 N 
ATOM     38  H52 UNL     1     -12.414  29.835   5.901  1.00  0.00     0.176 HD
ATOM     39  H51 UNL     1     -13.570  31.170   5.771  1.00  0.00     0.176 HD
ENDBRANCH  35  37
ENDBRANCH  32  35
ENDBRANCH  24  32
BRANCH  31  40
HETATM   40  N8  UNL     1      -9.567  26.276   1.863  1.00  0.00    -0.334 N 
ATOM     41  H82 UNL     1      -8.796  26.923   1.698  1.00  0.00     0.177 HD
ATOM     42  H81 UNL     1      -9.728  25.461   1.272  1.00  0.00     0.177 HD
ENDBRANCH  31  40
ENDBRANCH  22  23
ENDBRANCH   1  22
TORSDOF 11
ENDMDL
MODEL 4
REMARK VINA RESULT: -6.886993574      3.449      6.952
REMARK  11 active torsions:
REMARK  status: ('A' for Active; 'I' for Inactive)
REMARK    1  A    between atoms: N1_1  and  C1_4 
REMARK    2  A    between atoms: C3_8  and  C4_9 
REMARK    3  A    between atoms: C5_12  and  C6_13 
REMARK    4  A    between atoms: C6_13  and  C7_14 
REMARK    5  A    between atoms: C7_14  and  C8_15 
REMARK    6  A    between atoms: C8_15  and  C9_16 
REMARK    7  A    between atoms: C10_17  and  C11_18 
REMARK    8  A    between atoms: C11_18  and  O1_19 
REMARK    9  A    between atoms: C11_18  and  N4_21 
REMARK   10  A    between atoms: N4_21  and  N5_23 
REMARK   11  A    between atoms: N7_32  and  N8_33 
ROOT
HETATM    1  C7  UNL     1     -11.105  29.447   1.368  1.00  0.00     0.013 C 
ENDROOT
BRANCH   1   2
HETATM    2  C6  UNL     1     -11.404  30.041   0.010  1.00  0.00     0.079 C 
BRANCH   2   3
HETATM    3  C5  UNL     1     -12.330  31.197   0.224  1.00  0.00     0.104 A 
HETATM    4  N3  UNL     1     -12.303  32.152   1.283  1.00  0.00    -0.323 N 
HETATM    5  C4  UNL     1     -13.262  33.015   1.141  1.00  0.00     0.189 A 
ATOM      6  H3  UNL     1     -11.626  32.157   2.045  1.00  0.00     0.169 HD
HETATM    7  O4  UNL     1     -13.951  32.657  -0.017  1.00  0.00    -0.217 OA
HETATM    8  N9  UNL     1     -13.330  31.553  -0.512  1.00  0.00    -0.247 N 
ATOM      9  H9  UNL     1     -13.619  31.067  -1.360  1.00  0.00     0.196 HD
BRANCH   5  10
HETATM   10  C3  UNL     1     -13.606  34.144   1.975  1.00  0.00     0.102 A 
HETATM   11  C2  UNL     1     -13.580  35.441   1.516  1.00  0.00     0.127 A 
HETATM   12  N2  UNL     1     -13.919  36.453   2.368  1.00  0.00    -0.201 N 
HETATM   13  C1  UNL     1     -14.273  36.203   3.645  1.00  0.00     0.678 A 
ATOM     14  H2  UNL     1     -13.904  37.417   2.033  1.00  0.00     0.183 HD
HETATM   15  N10 UNL     1     -14.304  34.943   4.115  1.00  0.00    -0.156 N 
HETATM   16  C14 UNL     1     -13.972  33.934   3.281  1.00  0.00     0.275 A 
ATOM     17  H10 UNL     1     -14.573  34.753   5.081  1.00  0.00     0.187 HD
HETATM   18  O5  UNL     1     -14.013  32.769   3.759  1.00  0.00    -0.267 OA
BRANCH  13  19
HETATM   19  N1  UNL     1     -14.584  37.174   4.420  1.00  0.00    -0.234 N 
ATOM     20  H12 UNL     1     -14.567  38.129   4.061  1.00  0.00     0.174 HD
ATOM     21  H11 UNL     1     -14.845  36.985   5.387  1.00  0.00     0.174 HD
ENDBRANCH  13  19
ENDBRANCH   5  10
ENDBRANCH   2   3
ENDBRANCH   1   2
BRANCH   1  22
HETATM   22  C8  UNL     1     -11.596  28.027   1.499  1.00  0.00     0.061 C 
BRANCH  22  23
HETATM   23  C9  UNL     1     -11.451  27.385   2.773  1.00  0.00     0.058 A 
HETATM   24  C10 UNL     1     -12.246  27.562   3.850  1.00  0.00     0.109 A 
HETATM   25  C12 UNL     1     -11.958  26.875   5.063  1.00  0.00     0.266 A 
HETATM   26  O2  UNL     1     -12.681  27.024   6.071  1.00  0.00    -0.267 OA
HETATM   27  N6  UNL     1     -10.918  26.059   5.158  1.00  0.00    -0.273 N 
HETATM   28  C13 UNL     1     -10.138  25.893   4.080  1.00  0.00     0.348 A 
ATOM     29  H6  UNL     1     -10.715  25.569   6.030  1.00  0.00     0.173 HD
HETATM   30  O3  UNL     1      -9.155  25.111   4.197  1.00  0.00    -0.245 OA
HETATM   31  N7  UNL     1     -10.386  26.529   2.923  1.00  0.00    -0.215 N 
BRANCH  24  32
HETATM   32  C11 UNL     1     -13.415  28.375   3.851  1.00  0.00     0.172 C 
BRANCH  32  33
HETATM   33  O1  UNL     1     -14.503  27.735   3.510  1.00  0.00    -0.344 OA
ATOM     34  H1  UNL     1     -14.634  27.675   2.572  1.00  0.00     0.219 HD
ENDBRANCH  32  33
BRANCH  32  35
HETATM   35  N4  UNL     1     -13.640  29.709   4.134  1.00  0.00    -0.286 N 
ATOM     36  H4  UNL     1     -14.062  30.309   3.425  1.00  0.00     0.188 HD
BRANCH  35  37
HETATM   37  N5  UNL     1     -13.287  30.266   5.418  1.00  0.00    -0.343 N 
ATOM     38  H52 UNL     1     -12.446  29.924   5.882  1.00  0.00     0.176 HD
ATOM     39  H51 UNL     1     -13.862  30.987   5.854  1.00  0.00     0.176 HD
ENDBRANCH  35  37
ENDBRANCH  32  35
ENDBRANCH  24  32
BRANCH  31  40
HETATM   40  N8  UNL     1      -9.531  26.297   1.871  1.00  0.00    -0.334 N 
ATOM     41  H82 UNL     1      -9.903  26.401   0.927  1.00  0.00     0.177 HD
ATOM     42  H81 UNL     1      -8.562  26.031   2.046  1.00  0.00     0.177 HD
ENDBRANCH  31  40
ENDBRANCH  22  23
ENDBRANCH   1  22
TORSDOF 11
ENDMDL
MODEL 5
REMARK VINA RESULT: -6.885794570      3.534      6.913
REMARK  11 active torsions:
REMARK  status: ('A' for Active; 'I' for Inactive)
REMARK    1  A    between atoms: N1_1  and  C1_4 
REMARK    2  A    between atoms: C3_8  and  C4_9 
REMARK    3  A    between atoms: C5_12  and  C6_13 
REMARK    4  A    between atoms: C6_13  and  C7_14 
REMARK    5  A    between atoms: C7_14  and  C8_15 
REMARK    6  A    between atoms: C8_15  and  C9_16 
REMARK    7  A    between atoms: C10_17  and  C11_18 
REMARK    8  A    between atoms: C11_18  and  O1_19 
REMARK    9  A    between atoms: C11_18  and  N4_21 
REMARK   10  A    between atoms: N4_21  and  N5_23 
REMARK   11  A    between atoms: N7_32  and  N8_33 
ROOT
HETATM    1  C7  UNL     1     -10.055  29.061   6.686  1.00  0.00     0.013 C 
ENDROOT
BRANCH   1   2
HETATM    2  C6  UNL     1      -9.450  27.784   6.148  1.00  0.00     0.079 C 
BRANCH   2   3
HETATM    3  C5  UNL     1      -9.633  26.730   7.195  1.00  0.00     0.104 A 
HETATM    4  N3  UNL     1      -9.237  26.780   8.563  1.00  0.00    -0.323 N 
HETATM    5  C4  UNL     1      -9.562  25.681   9.171  1.00  0.00     0.189 A 
ATOM      6  H3  UNL     1      -8.765  27.569   9.003  1.00  0.00     0.169 HD
HETATM    7  O4  UNL     1     -10.184  24.870   8.223  1.00  0.00    -0.217 OA
HETATM    8  N9  UNL     1     -10.189  25.571   7.058  1.00  0.00    -0.247 N 
ATOM      9  H9  UNL     1     -10.583  25.225   6.183  1.00  0.00     0.196 HD
BRANCH   5  10
HETATM   10  C3  UNL     1      -9.352  25.304  10.550  1.00  0.00     0.102 A 
HETATM   11  C2  UNL     1      -9.561  24.023  11.010  1.00  0.00     0.127 A 
HETATM   12  N2  UNL     1      -9.341  23.746  12.329  1.00  0.00    -0.201 N 
HETATM   13  C1  UNL     1      -8.927  24.704  13.183  1.00  0.00     0.678 A 
ATOM     14  H2  UNL     1      -9.492  22.798  12.674  1.00  0.00     0.183 HD
HETATM   15  N10 UNL     1      -8.717  25.963  12.757  1.00  0.00    -0.156 N 
HETATM   16  C14 UNL     1      -8.931  26.246  11.454  1.00  0.00     0.275 A 
ATOM     17  H10 UNL     1      -8.403  26.687  13.404  1.00  0.00     0.187 HD
HETATM   18  O5  UNL     1      -8.724  27.436  11.094  1.00  0.00    -0.267 OA
BRANCH  13  19
HETATM   19  N1  UNL     1      -8.730  24.414  14.415  1.00  0.00    -0.234 N 
ATOM     20  H12 UNL     1      -9.185  24.967  15.141  1.00  0.00     0.174 HD
ATOM     21  H11 UNL     1      -8.120  23.634  14.660  1.00  0.00     0.174 HD
ENDBRANCH  13  19
ENDBRANCH   5  10
ENDBRANCH   2   3
ENDBRANCH   1   2
BRANCH   1  22
HETATM   22  C8  UNL     1     -11.560  28.994   6.777  1.00  0.00     0.061 C 
BRANCH  22  23
HETATM   23  C9  UNL     1     -12.309  29.139   5.564  1.00  0.00     0.058 A 
HETATM   24  C10 UNL     1     -12.965  28.156   4.910  1.00  0.00     0.109 A 
HETATM   25  C12 UNL     1     -13.644  28.447   3.692  1.00  0.00     0.266 A 
HETATM   26  O2  UNL     1     -14.256  27.552   3.072  1.00  0.00    -0.267 OA
HETATM   27  N6  UNL     1     -13.646  29.671   3.185  1.00  0.00    -0.273 N 
HETATM   28  C13 UNL     1     -12.992  30.636   3.845  1.00  0.00     0.348 A 
ATOM     29  H6  UNL     1     -14.133  29.874   2.311  1.00  0.00     0.173 HD
HETATM   30  O3  UNL     1     -13.009  31.792   3.341  1.00  0.00    -0.245 OA
HETATM   31  N7  UNL     1     -12.342  30.390   4.996  1.00  0.00    -0.215 N 
BRANCH  24  32
HETATM   32  C11 UNL     1     -13.069  26.818   5.384  1.00  0.00     0.172 C 
BRANCH  32  33
HETATM   33  O1  UNL     1     -12.284  25.976   4.763  1.00  0.00    -0.344 OA
ATOM     34  H1  UNL     1     -11.393  26.288   4.661  1.00  0.00     0.219 HD
ENDBRANCH  32  33
BRANCH  32  35
HETATM   35  N4  UNL     1     -13.835  26.218   6.365  1.00  0.00    -0.286 N 
ATOM     36  H4  UNL     1     -14.852  26.279   6.318  1.00  0.00     0.188 HD
BRANCH  35  37
HETATM   37  N5  UNL     1     -13.217  25.505   7.458  1.00  0.00    -0.343 N 
ATOM     38  H52 UNL     1     -13.334  24.493   7.507  1.00  0.00     0.176 HD
ATOM     39  H51 UNL     1     -12.674  25.998   8.166  1.00  0.00     0.176 HD
ENDBRANCH  35  37
ENDBRANCH  32  35
ENDBRANCH  24  32
BRANCH  31  40
HETATM   40  N8  UNL     1     -11.698  31.443   5.603  1.00  0.00    -0.334 N 
ATOM     41  H82 UNL     1     -12.126  32.366   5.529  1.00  0.00     0.177 HD
ATOM     42  H81 UNL     1     -10.824  31.289   6.105  1.00  0.00     0.177 HD
ENDBRANCH  31  40
ENDBRANCH  22  23
ENDBRANCH   1  22
TORSDOF 11
ENDMDL
