MODEL 1
REMARK VINA RESULT: -7.037459240      0.000      0.000
REMARK  9 active torsions:
REMARK  status: ('A' for Active; 'I' for Inactive)
REMARK    1  A    between atoms: C2_7  and  C3_8 
REMARK       I    between atoms: C3_8  and  N4_10 
REMARK    2  A    between atoms: N4_10  and  C4_12 
REMARK    3  A    between atoms: C4_12  and  C5_13 
REMARK    4  A    between atoms: C4_12  and  C7_20 
REMARK       I    between atoms: C5_13  and  N5_15 
REMARK    5  A    between atoms: N5_15  and  C6_17 
REMARK    6  A    between atoms: C7_20  and  O3_21 
REMARK    7  A    between atoms: C7_20  and  C8_23 
REMARK    8  A    between atoms: C8_23  and  N7_24 
REMARK    9  A    between atoms: C12_34  and  O4_35 
ROOT
HETATM    1  C4  UNL     1     -12.275  30.259   3.803  1.00  0.00     0.207 C 
ENDROOT
BRANCH   1   2
HETATM    2  N4  UNL     1     -13.203  31.272   3.312  1.00  0.00    -0.340 N 
HETATM    3  C3  UNL     1     -13.045  31.890   2.052  1.00  0.00     0.274 C 
HETATM    4  O1  UNL     1     -12.075  31.556   1.333  1.00  0.00    -0.266 OA
ATOM      5  H4  UNL     1     -13.993  31.543   3.898  1.00  0.00     0.163 HD
BRANCH   3   6
HETATM    6  C2  UNL     1     -13.961  32.897   1.553  1.00  0.00     0.170 A 
HETATM    7  N3  UNL     1     -14.250  33.164   0.264  1.00  0.00    -0.277 N 
HETATM    8  N2  UNL     1     -15.132  34.155   0.218  1.00  0.00    -0.238 N 
ATOM      9  H3  UNL     1     -13.855  32.684  -0.545  1.00  0.00     0.189 HD
HETATM   10  N1  UNL     1     -15.444  34.560   1.433  1.00  0.00    -0.259 N 
ATOM     11  H2  UNL     1     -15.517  34.549  -0.641  1.00  0.00     0.208 HD
HETATM   12  C1  UNL     1     -16.367  35.617   1.840  1.00  0.00     0.181 C 
HETATM   13  C12 UNL     1     -14.723  33.788   2.283  1.00  0.00     0.192 A 
BRANCH  13  14
HETATM   14  O4  UNL     1     -14.746  33.874   3.660  1.00  0.00    -0.343 OA
ATOM     15  H4  UNL     1     -14.292  33.292   4.258  1.00  0.00     0.219 HD
ENDBRANCH  13  14
ENDBRANCH   3   6
ENDBRANCH   1   2
BRANCH   1  16
HETATM   16  C5  UNL     1     -11.429  30.838   4.869  1.00  0.00     0.249 C 
HETATM   17  O2  UNL     1     -10.365  31.403   4.530  1.00  0.00    -0.271 OA
HETATM   18  N5  UNL     1     -11.747  30.793   6.246  1.00  0.00    -0.304 N 
ATOM     19  H5  UNL     1     -12.609  30.336   6.544  1.00  0.00     0.170 HD
BRANCH  18  20
HETATM   20  C6  UNL     1     -10.896  31.368   7.226  1.00  0.00     0.187 C 
HETATM   21  N6  UNL     1     -11.109  32.720   7.608  1.00  0.00    -0.070 NA
HETATM   22  S1  UNL     1      -9.675  30.496   7.919  1.00  0.00    -0.044 SA
ENDBRANCH  18  20
ENDBRANCH   1  16
BRANCH   1  23
HETATM   23  C7  UNL     1     -13.024  29.016   4.224  1.00  0.00     0.168 C 
BRANCH  23  24
HETATM   24  O3  UNL     1     -14.299  28.920   3.691  1.00  0.00    -0.391 OA
ATOM     25  H3  UNL     1     -14.885  28.363   4.190  1.00  0.00     0.210 HD
ENDBRANCH  23  24
BRANCH  23  26
HETATM   26  C8  UNL     1     -12.292  27.745   3.952  1.00  0.00     0.161 C 
BRANCH  26  27
HETATM   27  N7  UNL     1     -12.126  27.087   5.261  1.00  0.00    -0.329 N 
HETATM   28  C9  UNL     1     -10.829  27.196   5.882  1.00  0.00     0.361 C 
HETATM   29  N8  UNL     1     -10.642  26.175   6.882  1.00  0.00    -0.043 N 
HETATM   30  C10 UNL     1     -11.769  26.126   7.805  1.00  0.00     0.358 C 
ATOM     31  H82 UNL     1     -10.464  25.265   6.458  1.00  0.00     0.281 HD
ATOM     32  H81 UNL     1      -9.758  26.293   7.377  1.00  0.00     0.281 HD
HETATM   33  N9  UNL     1     -13.018  25.936   7.066  1.00  0.00    -0.341 N 
HETATM   34  C11 UNL     1     -13.168  26.393   5.874  1.00  0.00     0.189 C 
ATOM     35  H9  UNL     1     -13.786  25.430   7.507  1.00  0.00     0.163 HD
HETATM   36  N10 UNL     1     -14.396  26.199   5.160  1.00  0.00    -0.064 NA
ENDBRANCH  26  27
ENDBRANCH  23  26
ENDBRANCH   1  23
TORSDOF 9
ENDMDL
MODEL 2
REMARK VINA RESULT: -6.749370129      1.099      1.303
REMARK  9 active torsions:
REMARK  status: ('A' for Active; 'I' for Inactive)
REMARK    1  A    between atoms: C2_7  and  C3_8 
REMARK       I    between atoms: C3_8  and  N4_10 
REMARK    2  A    between atoms: N4_10  and  C4_12 
REMARK    3  A    between atoms: C4_12  and  C5_13 
REMARK    4  A    between atoms: C4_12  and  C7_20 
REMARK       I    between atoms: C5_13  and  N5_15 
REMARK    5  A    between atoms: N5_15  and  C6_17 
REMARK    6  A    between atoms: C7_20  and  O3_21 
REMARK    7  A    between atoms: C7_20  and  C8_23 
REMARK    8  A    between atoms: C8_23  and  N7_24 
REMARK    9  A    between atoms: C12_34  and  O4_35 
ROOT
HETATM    1  C4  UNL     1     -12.239  30.534   4.188  1.00  0.00     0.207 C 
ENDROOT
BRANCH   1   2
HETATM    2  N4  UNL     1     -13.211  31.612   4.042  1.00  0.00    -0.340 N 
HETATM    3  C3  UNL     1     -13.097  32.598   3.037  1.00  0.00     0.274 C 
HETATM    4  O1  UNL     1     -12.128  32.543   2.245  1.00  0.00    -0.266 OA
ATOM      5  H4  UNL     1     -13.999  31.656   4.688  1.00  0.00     0.163 HD
BRANCH   3   6
HETATM    6  C2  UNL     1     -14.056  33.673   2.882  1.00  0.00     0.170 A 
HETATM    7  N3  UNL     1     -14.447  34.555   3.822  1.00  0.00    -0.277 N 
HETATM    8  N2  UNL     1     -15.339  35.383   3.291  1.00  0.00    -0.238 N 
ATOM      9  H3  UNL     1     -14.113  34.583   4.786  1.00  0.00     0.189 HD
HETATM   10  N1  UNL     1     -15.558  35.085   2.026  1.00  0.00    -0.259 N 
ATOM     11  H2  UNL     1     -15.793  36.146   3.794  1.00  0.00     0.208 HD
HETATM   12  C1  UNL     1     -16.456  35.732   1.072  1.00  0.00     0.181 C 
HETATM   13  C12 UNL     1     -14.767  34.019   1.748  1.00  0.00     0.192 A 
BRANCH  13  14
HETATM   14  O4  UNL     1     -14.682  33.379   0.529  1.00  0.00    -0.343 OA
ATOM     15  H4  UNL     1     -15.407  32.979   0.063  1.00  0.00     0.219 HD
ENDBRANCH  13  14
ENDBRANCH   3   6
ENDBRANCH   1   2
BRANCH   1  16
HETATM   16  C5  UNL     1     -11.260  30.888   5.239  1.00  0.00     0.249 C 
HETATM   17  O2  UNL     1     -10.078  31.103   4.888  1.00  0.00    -0.271 OA
HETATM   18  N5  UNL     1     -11.575  30.999   6.612  1.00  0.00    -0.304 N 
ATOM     19  H5  UNL     1     -12.533  30.827   6.919  1.00  0.00     0.170 HD
BRANCH  18  20
HETATM   20  C6  UNL     1     -10.593  31.344   7.576  1.00  0.00     0.187 C 
HETATM   21  N6  UNL     1     -10.536  32.684   8.044  1.00  0.00    -0.070 NA
HETATM   22  S1  UNL     1      -9.528  30.220   8.155  1.00  0.00    -0.044 SA
ENDBRANCH  18  20
ENDBRANCH   1  16
BRANCH   1  23
HETATM   23  C7  UNL     1     -12.942  29.218   4.427  1.00  0.00     0.168 C 
BRANCH  23  24
HETATM   24  O3  UNL     1     -14.160  29.105   3.777  1.00  0.00    -0.391 OA
ATOM     25  H3  UNL     1     -14.804  28.592   4.251  1.00  0.00     0.210 HD
ENDBRANCH  23  24
BRANCH  23  26
HETATM   26  C8  UNL     1     -12.114  28.020   4.105  1.00  0.00     0.161 C 
BRANCH  26  27
HETATM   27  N7  UNL     1     -12.033  27.238   5.353  1.00  0.00    -0.329 N 
HETATM   28  C9  UNL     1     -10.772  27.259   6.052  1.00  0.00     0.361 C 
HETATM   29  N8  UNL     1     -10.660  26.146   6.960  1.00  0.00    -0.043 N 
HETATM   30  C10 UNL     1     -11.838  26.036   7.811  1.00  0.00     0.358 C 
ATOM     31  H82 UNL     1     -10.474  25.275   6.463  1.00  0.00     0.281 HD
ATOM     32  H81 UNL     1      -9.804  26.197   7.511  1.00  0.00     0.281 HD
HETATM   33  N9  UNL     1     -13.046  25.944   6.990  1.00  0.00    -0.341 N 
HETATM   34  C11 UNL     1     -13.120  26.513   5.839  1.00  0.00     0.189 C 
ATOM     35  H9  UNL     1     -13.846  25.416   7.338  1.00  0.00     0.163 HD
HETATM   36  N10 UNL     1     -14.309  26.414   5.044  1.00  0.00    -0.064 NA
ENDBRANCH  26  27
ENDBRANCH  23  26
ENDBRANCH   1  23
TORSDOF 9
ENDMDL
MODEL 3
REMARK VINA RESULT: -6.703499131      2.929      6.471
REMARK  9 active torsions:
REMARK  status: ('A' for Active; 'I' for Inactive)
REMARK    1  A    between atoms: C2_7  and  C3_8 
REMARK       I    between atoms: C3_8  and  N4_10 
REMARK    2  A    between atoms: N4_10  and  C4_12 
REMARK    3  A    between atoms: C4_12  and  C5_13 
REMARK    4  A    between atoms: C4_12  and  C7_20 
REMARK       I    between atoms: C5_13  and  N5_15 
REMARK    5  A    between atoms: N5_15  and  C6_17 
REMARK    6  A    between atoms: C7_20  and  O3_21 
REMARK    7  A    between atoms: C7_20  and  C8_23 
REMARK    8  A    between atoms: C8_23  and  N7_24 
REMARK    9  A    between atoms: C12_34  and  O4_35 
ROOT
HETATM    1  C4  UNL     1     -12.692  29.754   2.906  1.00  0.00     0.207 C 
ENDROOT
BRANCH   1   2
HETATM    2  N4  UNL     1     -12.421  28.937   4.084  1.00  0.00    -0.340 N 
HETATM    3  C3  UNL     1     -13.289  27.903   4.499  1.00  0.00     0.274 C 
HETATM    4  O1  UNL     1     -14.325  27.680   3.831  1.00  0.00    -0.266 OA
ATOM      5  H4  UNL     1     -11.577  29.119   4.627  1.00  0.00     0.163 HD
BRANCH   3   6
HETATM    6  C2  UNL     1     -13.031  27.084   5.666  1.00  0.00     0.170 A 
HETATM    7  N3  UNL     1     -13.805  26.093   6.152  1.00  0.00    -0.277 N 
HETATM    8  N2  UNL     1     -13.227  25.586   7.233  1.00  0.00    -0.238 N 
ATOM      9  H3  UNL     1     -14.691  25.783   5.752  1.00  0.00     0.189 HD
HETATM   10  N1  UNL     1     -12.091  26.204   7.489  1.00  0.00    -0.259 N 
ATOM     11  H2  UNL     1     -13.609  24.822   7.791  1.00  0.00     0.208 HD
HETATM   12  C1  UNL     1     -11.142  25.968   8.575  1.00  0.00     0.181 C 
HETATM   13  C12 UNL     1     -11.948  27.144   6.523  1.00  0.00     0.192 A 
BRANCH  13  14
HETATM   14  O4  UNL     1     -10.891  28.023   6.408  1.00  0.00    -0.343 OA
ATOM     15  H4  UNL     1     -10.656  28.691   7.042  1.00  0.00     0.219 HD
ENDBRANCH  13  14
ENDBRANCH   3   6
ENDBRANCH   1   2
BRANCH   1  16
HETATM   16  C5  UNL     1     -12.873  31.164   3.312  1.00  0.00     0.249 C 
HETATM   17  O2  UNL     1     -12.561  31.480   4.483  1.00  0.00    -0.271 OA
HETATM   18  N5  UNL     1     -13.377  32.177   2.464  1.00  0.00    -0.304 N 
ATOM     19  H5  UNL     1     -13.639  31.939   1.507  1.00  0.00     0.170 HD
BRANCH  18  20
HETATM   20  C6  UNL     1     -13.529  33.515   2.910  1.00  0.00     0.187 C 
HETATM   21  N6  UNL     1     -14.716  33.875   3.602  1.00  0.00    -0.070 NA
HETATM   22  S1  UNL     1     -12.355  34.647   2.638  1.00  0.00    -0.044 SA
ENDBRANCH  18  20
ENDBRANCH   1  16
BRANCH   1  23
HETATM   23  C7  UNL     1     -11.616  29.551   1.865  1.00  0.00     0.168 C 
BRANCH  23  24
HETATM   24  O3  UNL     1     -11.961  30.005   0.602  1.00  0.00    -0.391 OA
ATOM     25  H3  UNL     1     -11.585  29.498  -0.107  1.00  0.00     0.210 HD
ENDBRANCH  23  24
BRANCH  23  26
HETATM   26  C8  UNL     1     -10.293  30.131   2.238  1.00  0.00     0.161 C 
BRANCH  26  27
HETATM   27  N7  UNL     1      -9.403  28.981   2.482  1.00  0.00    -0.329 N 
HETATM   28  C9  UNL     1      -9.168  28.094   1.370  1.00  0.00     0.361 C 
HETATM   29  N8  UNL     1      -8.688  26.811   1.818  1.00  0.00    -0.043 N 
HETATM   30  C10 UNL     1      -7.569  26.958   2.740  1.00  0.00     0.358 C 
ATOM     31  H82 UNL     1      -9.438  26.252   2.224  1.00  0.00     0.281 HD
ATOM     32  H81 UNL     1      -8.449  26.206   1.033  1.00  0.00     0.281 HD
HETATM   33  N9  UNL     1      -7.950  27.814   3.864  1.00  0.00    -0.341 N 
HETATM   34  C11 UNL     1      -8.812  28.758   3.725  1.00  0.00     0.189 C 
ATOM     35  H9  UNL     1      -7.523  27.658   4.777  1.00  0.00     0.163 HD
HETATM   36  N10 UNL     1      -9.179  29.589   4.835  1.00  0.00    -0.064 NA
ENDBRANCH  26  27
ENDBRANCH  23  26
ENDBRANCH   1  23
TORSDOF 9
ENDMDL
MODEL 4
REMARK VINA RESULT: -6.688077516      3.264      6.695
REMARK  9 active torsions:
REMARK  status: ('A' for Active; 'I' for Inactive)
REMARK    1  A    between atoms: C2_7  and  C3_8 
REMARK       I    between atoms: C3_8  and  N4_10 
REMARK    2  A    between atoms: N4_10  and  C4_12 
REMARK    3  A    between atoms: C4_12  and  C5_13 
REMARK    4  A    between atoms: C4_12  and  C7_20 
REMARK       I    between atoms: C5_13  and  N5_15 
REMARK    5  A    between atoms: N5_15  and  C6_17 
REMARK    6  A    between atoms: C7_20  and  O3_21 
REMARK    7  A    between atoms: C7_20  and  C8_23 
REMARK    8  A    between atoms: C8_23  and  N7_24 
REMARK    9  A    between atoms: C12_34  and  O4_35 
ROOT
HETATM    1  C4  UNL     1     -12.682  29.693   2.921  1.00  0.00     0.207 C 
ENDROOT
BRANCH   1   2
HETATM    2  N4  UNL     1     -12.415  28.884   4.106  1.00  0.00    -0.340 N 
HETATM    3  C3  UNL     1     -13.282  27.851   4.524  1.00  0.00     0.274 C 
HETATM    4  O1  UNL     1     -14.315  27.622   3.854  1.00  0.00    -0.266 OA
ATOM      5  H4  UNL     1     -11.573  29.072   4.651  1.00  0.00     0.163 HD
BRANCH   3   6
HETATM    6  C2  UNL     1     -13.027  27.041   5.698  1.00  0.00     0.170 A 
HETATM    7  N3  UNL     1     -13.834  26.101   6.228  1.00  0.00    -0.277 N 
HETATM    8  N2  UNL     1     -13.246  25.583   7.300  1.00  0.00    -0.238 N 
ATOM      9  H3  UNL     1     -14.749  25.831   5.865  1.00  0.00     0.189 HD
HETATM   10  N1  UNL     1     -12.072  26.145   7.505  1.00  0.00    -0.259 N 
ATOM     11  H2  UNL     1     -13.649  24.851   7.885  1.00  0.00     0.208 HD
HETATM   12  C1  UNL     1     -11.100  25.880   8.564  1.00  0.00     0.181 C 
HETATM   13  C12 UNL     1     -11.913  27.060   6.517  1.00  0.00     0.192 A 
BRANCH  13  14
HETATM   14  O4  UNL     1     -10.817  27.880   6.350  1.00  0.00    -0.343 OA
ATOM     15  H4  UNL     1     -10.690  28.495   5.638  1.00  0.00     0.219 HD
ENDBRANCH  13  14
ENDBRANCH   3   6
ENDBRANCH   1   2
BRANCH   1  16
HETATM   16  C5  UNL     1     -12.862  31.106   3.317  1.00  0.00     0.249 C 
HETATM   17  O2  UNL     1     -12.529  31.436   4.478  1.00  0.00    -0.271 OA
HETATM   18  N5  UNL     1     -13.387  32.108   2.468  1.00  0.00    -0.304 N 
ATOM     19  H5  UNL     1     -13.665  31.860   1.519  1.00  0.00     0.170 HD
BRANCH  18  20
HETATM   20  C6  UNL     1     -13.535  33.450   2.903  1.00  0.00     0.187 C 
HETATM   21  N6  UNL     1     -14.695  33.805   3.643  1.00  0.00    -0.070 NA
HETATM   22  S1  UNL     1     -12.390  34.593   2.564  1.00  0.00    -0.044 SA
ENDBRANCH  18  20
ENDBRANCH   1  16
BRANCH   1  23
HETATM   23  C7  UNL     1     -11.606  29.481   1.883  1.00  0.00     0.168 C 
BRANCH  23  24
HETATM   24  O3  UNL     1     -11.810  30.184   0.708  1.00  0.00    -0.391 OA
ATOM     25  H3  UNL     1     -11.520  29.726  -0.072  1.00  0.00     0.210 HD
ENDBRANCH  23  24
BRANCH  23  26
HETATM   26  C8  UNL     1     -10.225  29.759   2.375  1.00  0.00     0.161 C 
BRANCH  26  27
HETATM   27  N7  UNL     1      -9.359  28.746   1.744  1.00  0.00    -0.329 N 
HETATM   28  C9  UNL     1      -8.787  29.086   0.465  1.00  0.00     0.361 C 
HETATM   29  N8  UNL     1      -8.361  27.908  -0.246  1.00  0.00    -0.043 N 
HETATM   30  C10 UNL     1      -7.534  27.051   0.595  1.00  0.00     0.358 C 
ATOM     31  H82 UNL     1      -9.154  27.398  -0.635  1.00  0.00     0.281 HD
ATOM     32  H81 UNL     1      -7.887  28.147  -1.117  1.00  0.00     0.281 HD
HETATM   33  N9  UNL     1      -8.249  26.711   1.825  1.00  0.00    -0.341 N 
HETATM   34  C11 UNL     1      -9.102  27.517   2.350  1.00  0.00     0.189 C 
ATOM     35  H9  UNL     1      -8.067  25.814   2.275  1.00  0.00     0.163 HD
HETATM   36  N10 UNL     1      -9.798  27.170   3.555  1.00  0.00    -0.064 NA
ENDBRANCH  26  27
ENDBRANCH  23  26
ENDBRANCH   1  23
TORSDOF 9
ENDMDL
MODEL 5
REMARK VINA RESULT: -6.631383873      1.255      1.449
REMARK  9 active torsions:
REMARK  status: ('A' for Active; 'I' for Inactive)
REMARK    1  A    between atoms: C2_7  and  C3_8 
REMARK       I    between atoms: C3_8  and  N4_10 
REMARK    2  A    between atoms: N4_10  and  C4_12 
REMARK    3  A    between atoms: C4_12  and  C5_13 
REMARK    4  A    between atoms: C4_12  and  C7_20 
REMARK       I    between atoms: C5_13  and  N5_15 
REMARK    5  A    between atoms: N5_15  and  C6_17 
REMARK    6  A    between atoms: C7_20  and  O3_21 
REMARK    7  A    between atoms: C7_20  and  C8_23 
REMARK    8  A    between atoms: C8_23  and  N7_24 
REMARK    9  A    between atoms: C12_34  and  O4_35 
ROOT
HETATM    1  C4  UNL     1     -12.125  30.299   3.790  1.00  0.00     0.207 C 
ENDROOT
BRANCH   1   2
HETATM    2  N4  UNL     1     -13.010  31.284   3.176  1.00  0.00    -0.340 N 
HETATM    3  C3  UNL     1     -12.923  31.624   1.808  1.00  0.00     0.274 C 
HETATM    4  O1  UNL     1     -12.058  31.060   1.099  1.00  0.00    -0.266 OA
ATOM      5  H4  UNL     1     -13.714  31.742   3.754  1.00  0.00     0.163 HD
BRANCH   3   6
HETATM    6  C2  UNL     1     -13.796  32.600   1.186  1.00  0.00     0.170 A 
HETATM    7  N3  UNL     1     -14.821  33.258   1.763  1.00  0.00    -0.277 N 
HETATM    8  N2  UNL     1     -15.375  34.064   0.866  1.00  0.00    -0.238 N 
ATOM      9  H3  UNL     1     -15.123  33.153   2.733  1.00  0.00     0.189 HD
HETATM   10  N1  UNL     1     -14.754  33.968  -0.293  1.00  0.00    -0.259 N 
ATOM     11  H2  UNL     1     -16.171  34.674   1.048  1.00  0.00     0.208 HD
HETATM   12  C1  UNL     1     -15.032  34.671  -1.544  1.00  0.00     0.181 C 
HETATM   13  C12 UNL     1     -13.764  33.059  -0.117  1.00  0.00     0.192 A 
BRANCH  13  14
HETATM   14  O4  UNL     1     -12.865  32.654  -1.082  1.00  0.00    -0.343 OA
ATOM     15  H4  UNL     1     -13.066  32.098  -1.825  1.00  0.00     0.219 HD
ENDBRANCH  13  14
ENDBRANCH   3   6
ENDBRANCH   1   2
BRANCH   1  16
HETATM   16  C5  UNL     1     -11.343  30.940   4.868  1.00  0.00     0.249 C 
HETATM   17  O2  UNL     1     -10.336  31.608   4.541  1.00  0.00    -0.271 OA
HETATM   18  N5  UNL     1     -11.659  30.846   6.243  1.00  0.00    -0.304 N 
ATOM     19  H5  UNL     1     -12.475  30.305   6.530  1.00  0.00     0.170 HD
BRANCH  18  20
HETATM   20  C6  UNL     1     -10.870  31.485   7.234  1.00  0.00     0.187 C 
HETATM   21  N6  UNL     1     -11.178  32.824   7.594  1.00  0.00    -0.070 NA
HETATM   22  S1  UNL     1      -9.612  30.701   7.966  1.00  0.00    -0.044 SA
ENDBRANCH  18  20
ENDBRANCH   1  16
BRANCH   1  23
HETATM   23  C7  UNL     1     -12.913  29.092   4.242  1.00  0.00     0.168 C 
BRANCH  23  24
HETATM   24  O3  UNL     1     -14.208  29.048   3.751  1.00  0.00    -0.391 OA
ATOM     25  H3  UNL     1     -14.335  29.546   2.952  1.00  0.00     0.210 HD
ENDBRANCH  23  24
BRANCH  23  26
HETATM   26  C8  UNL     1     -12.247  27.789   3.953  1.00  0.00     0.161 C 
BRANCH  26  27
HETATM   27  N7  UNL     1     -12.108  27.109   5.254  1.00  0.00    -0.329 N 
HETATM   28  C9  UNL     1     -10.815  27.179   5.889  1.00  0.00     0.361 C 
HETATM   29  N8  UNL     1     -10.662  26.141   6.877  1.00  0.00    -0.043 N 
HETATM   30  C10 UNL     1     -11.798  26.106   7.788  1.00  0.00     0.358 C 
ATOM     31  H82 UNL     1     -10.501  25.233   6.443  1.00  0.00     0.281 HD
ATOM     32  H81 UNL     1      -9.780  26.232   7.381  1.00  0.00     0.281 HD
HETATM   33  N9  UNL     1     -13.044  25.955   7.036  1.00  0.00    -0.341 N 
HETATM   34  C11 UNL     1     -13.172  26.431   5.848  1.00  0.00     0.189 C 
ATOM     35  H9  UNL     1     -13.828  25.461   7.463  1.00  0.00     0.163 HD
HETATM   36  N10 UNL     1     -14.397  26.275   5.120  1.00  0.00    -0.064 NA
ENDBRANCH  26  27
ENDBRANCH  23  26
ENDBRANCH   1  23
TORSDOF 9
ENDMDL
