MODEL 1
REMARK VINA RESULT: -6.331758717      0.000      0.000
REMARK  8 active torsions:
REMARK  status: ('A' for Active; 'I' for Inactive)
REMARK       I    between atoms: C1_4  and  N3_6 
REMARK    1  A    between atoms: N3_6  and  C2_8 
REMARK       I    between atoms: N5_13  and  C4_14 
REMARK    2  A    between atoms: C4_14  and  C5_16 
REMARK    3  A    between atoms: C5_16  and  N6_17 
REMARK    4  A    between atoms: C6_21  and  N7_22 
REMARK    5  A    between atoms: C8_24  and  C9_25 
REMARK       I    between atoms: C9_25  and  N8_27 
REMARK    6  A    between atoms: N8_27  and  O4_29 
REMARK    7  A    between atoms: C10_33  and  O5_34 
REMARK    8  A    between atoms: O5_34  and  S1_35 
ROOT
HETATM    1  C2  UNL     1      -8.879  30.064   8.709  1.00  0.00     0.151 A 
HETATM    2  N4  UNL     1      -9.101  28.849   9.218  1.00  0.00    -0.291 N 
ATOM      3  H4  UNL     1      -8.549  28.544  10.019  1.00  0.00     0.172 HD
HETATM    4  C3  UNL     1     -10.023  28.018   8.713  1.00  0.00     0.336 A 
HETATM    5  O1  UNL     1     -10.119  26.909   9.292  1.00  0.00    -0.246 OA
HETATM    6  N5  UNL     1     -10.797  28.364   7.641  1.00  0.00    -0.212 N 
HETATM    7  C4  UNL     1     -11.780  27.459   7.155  1.00  0.00     0.259 C 
HETATM    8  O2  UNL     1     -12.425  27.805   6.125  1.00  0.00    -0.271 OA
HETATM    9  C6  UNL     1     -10.576  29.576   7.132  1.00  0.00     0.179 A 
HETATM   10  C10 UNL     1      -9.623  30.464   7.635  1.00  0.00     0.182 A 
ENDROOT
BRANCH   9  11
HETATM   11  N7  UNL     1     -11.303  30.085   6.023  1.00  0.00    -0.245 N 
HETATM   12  C7  UNL     1     -11.158  30.178   4.679  1.00  0.00     0.155 A 
HETATM   13  C8  UNL     1     -12.339  30.871   4.531  1.00  0.00     0.136 A 
HETATM   14  N9  UNL     1     -12.443  30.754   5.869  1.00  0.00    -0.286 N 
ATOM     15  H9  UNL     1     -13.150  31.069   6.532  1.00  0.00     0.188 HD
BRANCH  13  16
HETATM   16  C9  UNL     1     -13.115  31.459   3.441  1.00  0.00     0.294 C 
HETATM   17  O3  UNL     1     -13.603  32.614   3.529  1.00  0.00    -0.264 OA
HETATM   18  N8  UNL     1     -13.337  30.731   2.249  1.00  0.00    -0.232 N 
ATOM     19  H8  UNL     1     -12.949  29.792   2.160  1.00  0.00     0.197 HD
BRANCH  18  20
HETATM   20  O4  UNL     1     -14.043  31.245   1.236  1.00  0.00    -0.287 OA
ATOM     21  H4  UNL     1     -14.097  30.807   0.395  1.00  0.00     0.244 HD
ENDBRANCH  18  20
ENDBRANCH  13  16
ENDBRANCH   9  11
BRANCH  10  22
HETATM   22  O5  UNL     1      -9.421  31.705   7.088  1.00  0.00    -0.206 OA
BRANCH  22  23
HETATM   23  S1  UNL     1     -10.286  33.106   7.364  1.00  0.00     0.257 S 
HETATM   24  O6  UNL     1      -9.507  34.196   8.041  1.00  0.00    -0.572 OA
HETATM   25  O7  UNL     1     -11.418  32.742   8.320  1.00  0.00    -0.572 OA
HETATM   26  O8  UNL     1     -11.023  33.656   5.971  1.00  0.00    -0.572 OA
ENDBRANCH  22  23
ENDBRANCH  10  22
BRANCH   7  27
HETATM   27  C5  UNL     1     -12.141  26.155   7.711  1.00  0.00     0.333 C 
BRANCH  27  28
HETATM   28  N6  UNL     1     -13.355  25.656   7.065  1.00  0.00    -0.071 N 
ATOM     29  H63 UNL     1     -14.145  26.288   7.193  1.00  0.00     0.274 HD
ATOM     30  H62 UNL     1     -13.293  25.700   6.048  1.00  0.00     0.274 HD
ATOM     31  H61 UNL     1     -13.563  24.714   7.395  1.00  0.00     0.274 HD
ENDBRANCH  27  28
ENDBRANCH   7  27
BRANCH   1  32
HETATM   32  N3  UNL     1      -7.989  30.857   9.201  1.00  0.00    -0.314 N 
HETATM   33  C1  UNL     1      -8.029  31.324  10.542  1.00  0.00     0.187 C 
HETATM   34  N1  UNL     1      -7.724  30.584  11.545  1.00  0.00    -0.373 N 
HETATM   35  N2  UNL     1      -8.422  32.667  10.769  1.00  0.00    -0.064 NA
ATOM     36  H12 UNL     1      -7.752  30.919  12.508  1.00  0.00     0.158 HD
ATOM     37  H11 UNL     1      -7.442  29.617  11.382  1.00  0.00     0.158 HD
ATOM     38  H3  UNL     1      -7.223  31.163   8.601  1.00  0.00     0.170 HD
ENDBRANCH   1  32
TORSDOF 8
ENDMDL
MODEL 2
REMARK VINA RESULT: -6.307983230      2.384      6.456
REMARK  8 active torsions:
REMARK  status: ('A' for Active; 'I' for Inactive)
REMARK       I    between atoms: C1_4  and  N3_6 
REMARK    1  A    between atoms: N3_6  and  C2_8 
REMARK       I    between atoms: N5_13  and  C4_14 
REMARK    2  A    between atoms: C4_14  and  C5_16 
REMARK    3  A    between atoms: C5_16  and  N6_17 
REMARK    4  A    between atoms: C6_21  and  N7_22 
REMARK    5  A    between atoms: C8_24  and  C9_25 
REMARK       I    between atoms: C9_25  and  N8_27 
REMARK    6  A    between atoms: N8_27  and  O4_29 
REMARK    7  A    between atoms: C10_33  and  O5_34 
REMARK    8  A    between atoms: O5_34  and  S1_35 
ROOT
HETATM    1  C2  UNL     1     -12.572  31.040   2.515  1.00  0.00     0.151 A 
HETATM    2  N4  UNL     1     -13.266  29.901   2.445  1.00  0.00    -0.291 N 
ATOM      3  H4  UNL     1     -13.795  29.699   1.597  1.00  0.00     0.172 HD
HETATM    4  C3  UNL     1     -13.292  29.014   3.451  1.00  0.00     0.336 A 
HETATM    5  O1  UNL     1     -13.989  27.991   3.244  1.00  0.00    -0.246 OA
HETATM    6  N5  UNL     1     -12.606  29.222   4.614  1.00  0.00    -0.212 N 
HETATM    7  C4  UNL     1     -12.643  28.243   5.643  1.00  0.00     0.259 C 
HETATM    8  O2  UNL     1     -12.042  28.513   6.721  1.00  0.00    -0.271 OA
HETATM    9  C6  UNL     1     -11.913  30.359   4.684  1.00  0.00     0.179 A 
HETATM   10  C10 UNL     1     -11.867  31.302   3.655  1.00  0.00     0.182 A 
ENDROOT
BRANCH   9  11
HETATM   11  N7  UNL     1     -11.144  30.716   5.823  1.00  0.00    -0.245 N 
HETATM   12  C7  UNL     1      -9.881  30.538   6.285  1.00  0.00     0.155 A 
HETATM   13  C8  UNL     1     -10.148  31.193   7.466  1.00  0.00     0.136 A 
HETATM   14  N9  UNL     1     -11.389  31.348   6.968  1.00  0.00    -0.286 N 
ATOM     15  H9  UNL     1     -12.227  31.796   7.340  1.00  0.00     0.188 HD
BRANCH  13  16
HETATM   16  C9  UNL     1      -9.427  31.552   8.686  1.00  0.00     0.294 C 
HETATM   17  O3  UNL     1      -9.208  30.708   9.593  1.00  0.00    -0.264 OA
HETATM   18  N8  UNL     1      -8.955  32.870   8.876  1.00  0.00    -0.232 N 
ATOM     19  H8  UNL     1      -9.124  33.568   8.151  1.00  0.00     0.197 HD
BRANCH  18  20
HETATM   20  O4  UNL     1      -8.293  33.225   9.982  1.00  0.00    -0.287 OA
ATOM     21  H4  UNL     1      -8.189  32.626  10.713  1.00  0.00     0.244 HD
ENDBRANCH  18  20
ENDBRANCH  13  16
ENDBRANCH   9  11
BRANCH  10  22
HETATM   22  O5  UNL     1     -11.144  32.462   3.760  1.00  0.00    -0.206 OA
BRANCH  22  23
HETATM   23  S1  UNL     1     -11.695  33.989   4.148  1.00  0.00     0.257 S 
HETATM   24  O6  UNL     1     -10.916  35.109   3.521  1.00  0.00    -0.572 OA
HETATM   25  O7  UNL     1     -11.523  34.149   5.655  1.00  0.00    -0.572 OA
HETATM   26  O8  UNL     1     -13.331  34.144   3.855  1.00  0.00    -0.572 OA
ENDBRANCH  22  23
ENDBRANCH  10  22
BRANCH   7  27
HETATM   27  C5  UNL     1     -13.305  26.938   5.607  1.00  0.00     0.333 C 
BRANCH  27  28
HETATM   28  N6  UNL     1     -12.488  25.984   4.855  1.00  0.00    -0.071 N 
ATOM     29  H63 UNL     1     -13.001  25.571   4.077  1.00  0.00     0.274 HD
ATOM     30  H62 UNL     1     -11.754  26.448   4.320  1.00  0.00     0.274 HD
ATOM     31  H61 UNL     1     -12.113  25.276   5.485  1.00  0.00     0.274 HD
ENDBRANCH  27  28
ENDBRANCH   7  27
BRANCH   1  32
HETATM   32  N3  UNL     1     -12.553  31.887   1.543  1.00  0.00    -0.314 N 
HETATM   33  C1  UNL     1     -13.717  32.253   0.815  1.00  0.00     0.187 C 
HETATM   34  N1  UNL     1     -14.620  33.029   1.291  1.00  0.00    -0.373 N 
HETATM   35  N2  UNL     1     -13.875  31.731  -0.494  1.00  0.00    -0.064 NA
ATOM     36  H12 UNL     1     -15.455  33.292   0.768  1.00  0.00     0.158 HD
ATOM     37  H11 UNL     1     -14.506  33.404   2.233  1.00  0.00     0.158 HD
ATOM     38  H3  UNL     1     -11.663  32.314   1.286  1.00  0.00     0.170 HD
ENDBRANCH   1  32
TORSDOF 8
ENDMDL
MODEL 3
REMARK VINA RESULT: -6.266240231      2.811      7.530
REMARK  8 active torsions:
REMARK  status: ('A' for Active; 'I' for Inactive)
REMARK       I    between atoms: C1_4  and  N3_6 
REMARK    1  A    between atoms: N3_6  and  C2_8 
REMARK       I    between atoms: N5_13  and  C4_14 
REMARK    2  A    between atoms: C4_14  and  C5_16 
REMARK    3  A    between atoms: C5_16  and  N6_17 
REMARK    4  A    between atoms: C6_21  and  N7_22 
REMARK    5  A    between atoms: C8_24  and  C9_25 
REMARK       I    between atoms: C9_25  and  N8_27 
REMARK    6  A    between atoms: N8_27  and  O4_29 
REMARK    7  A    between atoms: C10_33  and  O5_34 
REMARK    8  A    between atoms: O5_34  and  S1_35 
ROOT
HETATM    1  C2  UNL     1     -11.935  28.244   6.785  1.00  0.00     0.151 A 
HETATM    2  N4  UNL     1     -12.241  29.312   6.044  1.00  0.00    -0.291 N 
ATOM      3  H4  UNL     1     -13.025  29.253   5.396  1.00  0.00     0.172 HD
HETATM    4  C3  UNL     1     -11.553  30.460   6.124  1.00  0.00     0.336 A 
HETATM    5  O1  UNL     1     -11.952  31.377   5.366  1.00  0.00    -0.246 OA
HETATM    6  N5  UNL     1     -10.492  30.609   6.971  1.00  0.00    -0.212 N 
HETATM    7  C4  UNL     1      -9.807  31.852   7.039  1.00  0.00     0.259 C 
HETATM    8  O2  UNL     1      -8.796  31.916   7.794  1.00  0.00    -0.271 OA
HETATM    9  C6  UNL     1     -10.186  29.542   7.711  1.00  0.00     0.179 A 
HETATM   10  C10 UNL     1     -10.882  28.333   7.651  1.00  0.00     0.182 A 
ENDROOT
BRANCH   9  11
HETATM   11  N7  UNL     1      -9.115  29.540   8.644  1.00  0.00    -0.245 N 
HETATM   12  C7  UNL     1      -8.920  29.815   9.957  1.00  0.00     0.155 A 
HETATM   13  C8  UNL     1      -7.566  29.578   9.876  1.00  0.00     0.136 A 
HETATM   14  N9  UNL     1      -7.805  29.312   8.578  1.00  0.00    -0.286 N 
ATOM     15  H9  UNL     1      -7.195  29.033   7.811  1.00  0.00     0.188 HD
BRANCH  13  16
HETATM   16  C9  UNL     1      -6.412  29.602  10.773  1.00  0.00     0.294 C 
HETATM   17  O3  UNL     1      -5.480  30.432  10.623  1.00  0.00    -0.264 OA
HETATM   18  N8  UNL     1      -6.318  28.681  11.841  1.00  0.00    -0.232 N 
ATOM     19  H8  UNL     1      -7.065  28.000  11.978  1.00  0.00     0.197 HD
BRANCH  18  20
HETATM   20  O4  UNL     1      -5.273  28.682  12.676  1.00  0.00    -0.287 OA
ATOM     21  H4  UNL     1      -4.742  27.905  12.808  1.00  0.00     0.244 HD
ENDBRANCH  18  20
ENDBRANCH  13  16
ENDBRANCH   9  11
BRANCH  10  22
HETATM   22  O5  UNL     1     -10.541  27.255   8.426  1.00  0.00    -0.206 OA
BRANCH  22  23
HETATM   23  S1  UNL     1      -9.502  26.003   8.051  1.00  0.00     0.257 S 
HETATM   24  O6  UNL     1      -8.048  26.325   8.240  1.00  0.00    -0.572 OA
HETATM   25  O7  UNL     1      -9.680  25.716   6.563  1.00  0.00    -0.572 OA
HETATM   26  O8  UNL     1      -9.925  24.596   8.842  1.00  0.00    -0.572 OA
ENDBRANCH  22  23
ENDBRANCH  10  22
BRANCH   7  27
HETATM   27  C5  UNL     1     -10.136  33.089   6.329  1.00  0.00     0.333 C 
BRANCH  27  28
HETATM   28  N6  UNL     1     -11.129  33.851   7.086  1.00  0.00    -0.071 N 
ATOM     29  H63 UNL     1     -12.026  33.368   7.134  1.00  0.00     0.274 HD
ATOM     30  H62 UNL     1     -10.917  33.871   8.083  1.00  0.00     0.274 HD
ATOM     31  H61 UNL     1     -11.220  34.788   6.695  1.00  0.00     0.274 HD
ENDBRANCH  27  28
ENDBRANCH   7  27
BRANCH   1  32
HETATM   32  N3  UNL     1     -12.602  27.143   6.702  1.00  0.00    -0.314 N 
HETATM   33  C1  UNL     1     -12.956  26.547   5.463  1.00  0.00     0.187 C 
HETATM   34  N1  UNL     1     -12.111  25.929   4.722  1.00  0.00    -0.373 N 
HETATM   35  N2  UNL     1     -14.306  26.645   5.037  1.00  0.00    -0.064 NA
ATOM     36  H12 UNL     1     -12.366  25.500   3.832  1.00  0.00     0.158 HD
ATOM     37  H11 UNL     1     -11.141  25.858   5.028  1.00  0.00     0.158 HD
ATOM     38  H3  UNL     1     -12.888  26.681   7.566  1.00  0.00     0.170 HD
ENDBRANCH   1  32
TORSDOF 8
ENDMDL
MODEL 4
REMARK VINA RESULT: -6.204330468      2.583      7.177
REMARK  8 active torsions:
REMARK  status: ('A' for Active; 'I' for Inactive)
REMARK       I    between atoms: C1_4  and  N3_6 
REMARK    1  A    between atoms: N3_6  and  C2_8 
REMARK       I    between atoms: N5_13  and  C4_14 
REMARK    2  A    between atoms: C4_14  and  C5_16 
REMARK    3  A    between atoms: C5_16  and  N6_17 
REMARK    4  A    between atoms: C6_21  and  N7_22 
REMARK    5  A    between atoms: C8_24  and  C9_25 
REMARK       I    between atoms: C9_25  and  N8_27 
REMARK    6  A    between atoms: N8_27  and  O4_29 
REMARK    7  A    between atoms: C10_33  and  O5_34 
REMARK    8  A    between atoms: O5_34  and  S1_35 
ROOT
HETATM    1  C2  UNL     1     -11.868  30.208   6.382  1.00  0.00     0.151 A 
HETATM    2  N4  UNL     1     -11.407  31.386   6.810  1.00  0.00    -0.291 N 
ATOM      3  H4  UNL     1     -11.808  32.240   6.424  1.00  0.00     0.172 HD
HETATM    4  C3  UNL     1     -10.435  31.484   7.727  1.00  0.00     0.336 A 
HETATM    5  O1  UNL     1     -10.101  32.656   8.030  1.00  0.00    -0.246 OA
HETATM    6  N5  UNL     1      -9.853  30.381   8.285  1.00  0.00    -0.212 N 
HETATM    7  C4  UNL     1      -8.843  30.534   9.272  1.00  0.00     0.259 C 
HETATM    8  O2  UNL     1      -8.297  29.482   9.710  1.00  0.00    -0.271 OA
HETATM    9  C6  UNL     1     -10.314  29.204   7.858  1.00  0.00     0.179 A 
HETATM   10  C10 UNL     1     -11.324  29.069   6.903  1.00  0.00     0.182 A 
ENDROOT
BRANCH   9  11
HETATM   11  N7  UNL     1      -9.817  27.966   8.346  1.00  0.00    -0.245 N 
HETATM   12  C7  UNL     1     -10.094  27.091   9.343  1.00  0.00     0.155 A 
HETATM   13  C8  UNL     1      -9.035  26.275   9.013  1.00  0.00     0.136 A 
HETATM   14  N9  UNL     1      -8.797  27.170   8.035  1.00  0.00    -0.286 N 
ATOM     15  H9  UNL     1      -8.083  27.219   7.309  1.00  0.00     0.188 HD
BRANCH  13  16
HETATM   16  C9  UNL     1      -8.445  25.027   9.494  1.00  0.00     0.294 C 
HETATM   17  O3  UNL     1      -7.206  24.820   9.435  1.00  0.00    -0.264 OA
HETATM   18  N8  UNL     1      -9.264  24.014  10.042  1.00  0.00    -0.232 N 
ATOM     19  H8  UNL     1     -10.271  24.164  10.098  1.00  0.00     0.197 HD
BRANCH  18  20
HETATM   20  O4  UNL     1      -8.750  22.863  10.489  1.00  0.00    -0.287 OA
ATOM     21  H4  UNL     1      -9.252  22.056  10.478  1.00  0.00     0.244 HD
ENDBRANCH  18  20
ENDBRANCH  13  16
ENDBRANCH   9  11
BRANCH  10  22
HETATM   22  O5  UNL     1     -11.774  27.843   6.486  1.00  0.00    -0.206 OA
BRANCH  22  23
HETATM   23  S1  UNL     1     -11.236  26.932   5.195  1.00  0.00     0.257 S 
HETATM   24  O6  UNL     1     -10.074  26.036   5.507  1.00  0.00    -0.572 OA
HETATM   25  O7  UNL     1     -10.738  27.916   4.141  1.00  0.00    -0.572 OA
HETATM   26  O8  UNL     1     -12.484  26.087   4.477  1.00  0.00    -0.572 OA
ENDBRANCH  22  23
ENDBRANCH  10  22
BRANCH   7  27
HETATM   27  C5  UNL     1      -8.349  31.783   9.854  1.00  0.00     0.333 C 
BRANCH  27  28
HETATM   28  N6  UNL     1      -8.970  32.005  11.160  1.00  0.00    -0.071 N 
ATOM     29  H63 UNL     1      -8.569  32.810  11.642  1.00  0.00     0.274 HD
ATOM     30  H62 UNL     1      -9.928  32.345  11.075  1.00  0.00     0.274 HD
ATOM     31  H61 UNL     1      -8.914  31.156  11.722  1.00  0.00     0.274 HD
ENDBRANCH  27  28
ENDBRANCH   7  27
BRANCH   1  32
HETATM   32  N3  UNL     1     -12.804  30.122   5.498  1.00  0.00    -0.314 N 
HETATM   33  C1  UNL     1     -12.741  30.781   4.241  1.00  0.00     0.187 C 
HETATM   34  N1  UNL     1     -11.989  30.380   3.283  1.00  0.00    -0.373 N 
HETATM   35  N2  UNL     1     -13.550  31.930   4.050  1.00  0.00    -0.064 NA
ATOM     36  H12 UNL     1     -11.944  30.853   2.380  1.00  0.00     0.158 HD
ATOM     37  H11 UNL     1     -11.407  29.554   3.420  1.00  0.00     0.158 HD
ATOM     38  H3  UNL     1     -13.625  29.556   5.712  1.00  0.00     0.170 HD
ENDBRANCH   1  32
TORSDOF 8
ENDMDL
MODEL 5
REMARK VINA RESULT: -6.135256394      1.625      2.029
REMARK  8 active torsions:
REMARK  status: ('A' for Active; 'I' for Inactive)
REMARK       I    between atoms: C1_4  and  N3_6 
REMARK    1  A    between atoms: N3_6  and  C2_8 
REMARK       I    between atoms: N5_13  and  C4_14 
REMARK    2  A    between atoms: C4_14  and  C5_16 
REMARK    3  A    between atoms: C5_16  and  N6_17 
REMARK    4  A    between atoms: C6_21  and  N7_22 
REMARK    5  A    between atoms: C8_24  and  C9_25 
REMARK       I    between atoms: C9_25  and  N8_27 
REMARK    6  A    between atoms: N8_27  and  O4_29 
REMARK    7  A    between atoms: C10_33  and  O5_34 
REMARK    8  A    between atoms: O5_34  and  S1_35 
ROOT
HETATM    1  C2  UNL     1     -10.167  29.996   7.600  1.00  0.00     0.151 A 
HETATM    2  N4  UNL     1     -10.663  28.787   7.876  1.00  0.00    -0.291 N 
ATOM      3  H4  UNL     1     -10.323  28.292   8.700  1.00  0.00     0.172 HD
HETATM    4  C3  UNL     1     -11.590  28.199   7.106  1.00  0.00     0.336 A 
HETATM    5  O1  UNL     1     -11.960  27.062   7.487  1.00  0.00    -0.246 OA
HETATM    6  N5  UNL     1     -12.089  28.805   5.987  1.00  0.00    -0.212 N 
HETATM    7  C4  UNL     1     -13.089  28.155   5.216  1.00  0.00     0.259 C 
HETATM    8  O2  UNL     1     -13.471  28.732   4.159  1.00  0.00    -0.271 OA
HETATM    9  C6  UNL     1     -11.595  30.012   5.712  1.00  0.00     0.179 A 
HETATM   10  C10 UNL     1     -10.628  30.650   6.493  1.00  0.00     0.182 A 
ENDROOT
BRANCH   9  11
HETATM   11  N7  UNL     1     -12.016  30.773   4.589  1.00  0.00    -0.245 N 
HETATM   12  C7  UNL     1     -11.609  31.006   3.317  1.00  0.00     0.155 A 
HETATM   13  C8  UNL     1     -12.624  31.907   3.084  1.00  0.00     0.136 A 
HETATM   14  N9  UNL     1     -12.994  31.644   4.352  1.00  0.00    -0.286 N 
ATOM     15  H9  UNL     1     -13.758  31.993   4.930  1.00  0.00     0.188 HD
BRANCH  13  16
HETATM   16  C9  UNL     1     -13.085  32.751   1.983  1.00  0.00     0.294 C 
HETATM   17  O3  UNL     1     -12.590  33.888   1.774  1.00  0.00    -0.264 OA
HETATM   18  N8  UNL     1     -14.109  32.301   1.119  1.00  0.00    -0.232 N 
ATOM     19  H8  UNL     1     -14.522  31.382   1.273  1.00  0.00     0.197 HD
BRANCH  18  20
HETATM   20  O4  UNL     1     -14.549  33.054   0.105  1.00  0.00    -0.287 OA
ATOM     21  H4  UNL     1     -15.470  33.084  -0.129  1.00  0.00     0.244 HD
ENDBRANCH  18  20
ENDBRANCH  13  16
ENDBRANCH   9  11
BRANCH  10  22
HETATM   22  O5  UNL     1     -10.141  31.892   6.181  1.00  0.00    -0.206 OA
BRANCH  22  23
HETATM   23  S1  UNL     1     -10.584  33.366   6.831  1.00  0.00     0.257 S 
HETATM   24  O6  UNL     1      -9.431  34.230   7.252  1.00  0.00    -0.572 OA
HETATM   25  O7  UNL     1     -11.372  33.065   8.102  1.00  0.00    -0.572 OA
HETATM   26  O8  UNL     1     -11.631  34.190   5.827  1.00  0.00    -0.572 OA
ENDBRANCH  22  23
ENDBRANCH  10  22
BRANCH   7  27
HETATM   27  C5  UNL     1     -13.742  26.876   5.500  1.00  0.00     0.333 C 
BRANCH  27  28
HETATM   28  N6  UNL     1     -13.024  25.789   4.835  1.00  0.00    -0.071 N 
ATOM     29  H63 UNL     1     -13.473  24.886   4.985  1.00  0.00     0.274 HD
ATOM     30  H62 UNL     1     -13.116  25.834   3.820  1.00  0.00     0.274 HD
ATOM     31  H61 UNL     1     -12.048  25.784   5.131  1.00  0.00     0.274 HD
ENDBRANCH  27  28
ENDBRANCH   7  27
BRANCH   1  32
HETATM   32  N3  UNL     1      -9.275  30.553   8.346  1.00  0.00    -0.314 N 
HETATM   33  C1  UNL     1      -8.307  29.813   9.075  1.00  0.00     0.187 C 
HETATM   34  N1  UNL     1      -7.295  29.255   8.520  1.00  0.00    -0.373 N 
HETATM   35  N2  UNL     1      -8.478  29.694  10.478  1.00  0.00    -0.064 NA
ATOM     36  H12 UNL     1      -6.599  28.723   9.044  1.00  0.00     0.158 HD
ATOM     37  H11 UNL     1      -7.172  29.340   7.511  1.00  0.00     0.158 HD
ATOM     38  H3  UNL     1      -9.264  31.571   8.414  1.00  0.00     0.170 HD
ENDBRANCH   1  32
TORSDOF 8
ENDMDL
