MODEL 1
REMARK VINA RESULT: -6.227894518      0.000      0.000
REMARK  13 active torsions:
REMARK  status: ('A' for Active; 'I' for Inactive)
REMARK    1  A    between atoms: O1_2  and  C2_3 
REMARK    2  A    between atoms: C2_3  and  C3_5 
REMARK    3  A    between atoms: C3_5  and  N1_6 
REMARK    4  A    between atoms: C3_5  and  C12_35 
REMARK    5  A    between atoms: N1_6  and  C4_8 
REMARK    6  A    between atoms: C4_8  and  O3_9 
REMARK    7  A    between atoms: C4_8  and  N2_11 
REMARK       I    between atoms: N2_11  and  C5_13 
REMARK    8  A    between atoms: C5_13  and  C6_15 
REMARK    9  A    between atoms: N5_23  and  N6_24 
REMARK   10  A    between atoms: N7_28  and  C10_29 
REMARK   11  A    between atoms: C10_29  and  C11_30 
REMARK   12  A    between atoms: C11_30  and  O6_31 
REMARK   13  A    between atoms: C11_30  and  O7_33 
ROOT
HETATM    1  C6  UNL     1     -11.943  29.572   5.653  1.00  0.00     0.180 A 
HETATM    2  N3  UNL     1     -11.203  30.292   6.565  1.00  0.00    -0.321 N 
ATOM      3  H3  UNL     1     -11.076  31.303   6.533  1.00  0.00     0.169 HD
HETATM    4  C7  UNL     1     -10.676  29.499   7.491  1.00  0.00     0.158 A 
HETATM    5  N4  UNL     1      -9.927  29.378   8.596  1.00  0.00    -0.290 N 
ATOM      6  H4  UNL     1      -9.473  30.149   9.087  1.00  0.00     0.172 HD
HETATM    7  C8  UNL     1      -9.867  28.087   8.955  1.00  0.00     0.348 A 
HETATM    8  O5  UNL     1      -9.243  27.615   9.952  1.00  0.00    -0.245 OA
HETATM    9  N5  UNL     1     -10.588  27.387   8.067  1.00  0.00    -0.191 N 
HETATM   10  C9  UNL     1     -11.089  28.236   7.165  1.00  0.00     0.180 A 
HETATM   11  N7  UNL     1     -11.865  28.302   6.034  1.00  0.00    -0.305 N 
ENDROOT
BRANCH   1  12
HETATM   12  C5  UNL     1     -12.604  30.287   4.582  1.00  0.00     0.293 C 
HETATM   13  N2  UNL     1     -12.226  30.440   3.256  1.00  0.00    -0.286 N 
ATOM     14  H2  UNL     1     -11.349  29.997   2.981  1.00  0.00     0.172 HD
HETATM   15  O4  UNL     1     -13.711  30.862   4.929  1.00  0.00    -0.264 OA
BRANCH  13  16
HETATM   16  C4  UNL     1     -12.919  31.139   2.248  1.00  0.00     0.221 C 
BRANCH  16  17
HETATM   17  N1  UNL     1     -12.635  32.353   1.634  1.00  0.00    -0.335 N 
ATOM     18  H1  UNL     1     -11.801  32.418   1.051  1.00  0.00     0.164 HD
BRANCH  17  19
HETATM   19  C3  UNL     1     -13.474  33.545   1.784  1.00  0.00     0.274 C 
BRANCH  19  20
HETATM   20  C2  UNL     1     -13.670  33.856   3.225  1.00  0.00     0.290 C 
HETATM   21  O2  UNL     1     -14.822  33.769   3.706  1.00  0.00    -0.262 OA
BRANCH  20  22
HETATM   22  O1  UNL     1     -12.652  34.236   4.058  1.00  0.00    -0.325 OA
HETATM   23  C1  UNL     1     -12.632  35.486   4.725  1.00  0.00     0.213 C 
ENDBRANCH  20  22
ENDBRANCH  19  20
BRANCH  19  24
HETATM   24  C12 UNL     1     -12.755  34.679   1.167  1.00  0.00     0.263 C 
HETATM   25  N8  UNL     1     -13.279  36.000   1.138  1.00  0.00    -0.060 NA
HETATM   26  O8  UNL     1     -11.628  34.499   0.637  1.00  0.00    -0.274 OA
ENDBRANCH  19  24
ENDBRANCH  17  19
ENDBRANCH  16  17
BRANCH  16  27
HETATM   27  O3  UNL     1     -14.007  30.580   1.797  1.00  0.00    -0.332 OA
ATOM     28  H3  UNL     1     -14.793  30.890   2.232  1.00  0.00     0.220 HD
ENDBRANCH  16  27
ENDBRANCH  13  16
ENDBRANCH   1  12
BRANCH  11  29
HETATM   29  C10 UNL     1     -12.433  27.150   5.430  1.00  0.00     0.193 C 
BRANCH  29  30
HETATM   30  C11 UNL     1     -13.691  26.632   6.069  1.00  0.00     0.272 C 
BRANCH  30  31
HETATM   31  O6  UNL     1     -13.556  25.917   7.212  1.00  0.00    -0.370 OA
ATOM     32  H6  UNL     1     -12.993  26.279   7.886  1.00  0.00     0.212 HD
ENDBRANCH  30  31
BRANCH  30  33
HETATM   33  O7  UNL     1     -14.400  25.822   5.148  1.00  0.00    -0.370 OA
ATOM     34  H7  UNL     1     -15.239  26.221   4.947  1.00  0.00     0.212 HD
ENDBRANCH  30  33
ENDBRANCH  29  30
ENDBRANCH  11  29
BRANCH   9  35
HETATM   35  N6  UNL     1     -10.742  25.995   8.137  1.00  0.00    -0.333 N 
ATOM     36  H62 UNL     1     -10.043  25.269   7.982  1.00  0.00     0.177 HD
ATOM     37  H61 UNL     1     -11.629  25.546   8.367  1.00  0.00     0.177 HD
ENDBRANCH   9  35
TORSDOF 13
ENDMDL
MODEL 2
REMARK VINA RESULT: -6.219524030      1.145      2.010
REMARK  13 active torsions:
REMARK  status: ('A' for Active; 'I' for Inactive)
REMARK    1  A    between atoms: O1_2  and  C2_3 
REMARK    2  A    between atoms: C2_3  and  C3_5 
REMARK    3  A    between atoms: C3_5  and  N1_6 
REMARK    4  A    between atoms: C3_5  and  C12_35 
REMARK    5  A    between atoms: N1_6  and  C4_8 
REMARK    6  A    between atoms: C4_8  and  O3_9 
REMARK    7  A    between atoms: C4_8  and  N2_11 
REMARK       I    between atoms: N2_11  and  C5_13 
REMARK    8  A    between atoms: C5_13  and  C6_15 
REMARK    9  A    between atoms: N5_23  and  N6_24 
REMARK   10  A    between atoms: N7_28  and  C10_29 
REMARK   11  A    between atoms: C10_29  and  C11_30 
REMARK   12  A    between atoms: C11_30  and  O6_31 
REMARK   13  A    between atoms: C11_30  and  O7_33 
ROOT
HETATM    1  C6  UNL     1     -11.784  29.427   5.609  1.00  0.00     0.180 A 
HETATM    2  N3  UNL     1     -11.049  30.158   6.517  1.00  0.00    -0.321 N 
ATOM      3  H3  UNL     1     -10.879  31.160   6.446  1.00  0.00     0.169 HD
HETATM    4  C7  UNL     1     -10.590  29.387   7.496  1.00  0.00     0.158 A 
HETATM    5  N4  UNL     1      -9.888  29.286   8.634  1.00  0.00    -0.290 N 
ATOM      6  H4  UNL     1      -9.421  30.058   9.108  1.00  0.00     0.172 HD
HETATM    7  C8  UNL     1      -9.896  28.010   9.051  1.00  0.00     0.348 A 
HETATM    8  O5  UNL     1      -9.330  27.559  10.090  1.00  0.00    -0.245 OA
HETATM    9  N5  UNL     1     -10.612  27.300   8.166  1.00  0.00    -0.191 N 
HETATM   10  C9  UNL     1     -11.043  28.127   7.210  1.00  0.00     0.180 A 
HETATM   11  N7  UNL     1     -11.774  28.174   6.047  1.00  0.00    -0.305 N 
ENDROOT
BRANCH   1  12
HETATM   12  C5  UNL     1     -12.374  30.120   4.483  1.00  0.00     0.293 C 
HETATM   13  N2  UNL     1     -11.947  30.189   3.166  1.00  0.00    -0.286 N 
ATOM     14  H2  UNL     1     -11.084  29.693   2.942  1.00  0.00     0.172 HD
HETATM   15  O4  UNL     1     -13.462  30.763   4.764  1.00  0.00    -0.264 OA
BRANCH  13  16
HETATM   16  C4  UNL     1     -12.572  30.871   2.102  1.00  0.00     0.221 C 
BRANCH  16  17
HETATM   17  N1  UNL     1     -13.418  31.973   2.111  1.00  0.00    -0.335 N 
ATOM     18  H1  UNL     1     -14.422  31.815   2.019  1.00  0.00     0.164 HD
BRANCH  17  19
HETATM   19  C3  UNL     1     -12.941  33.351   2.245  1.00  0.00     0.274 C 
BRANCH  19  20
HETATM   20  C2  UNL     1     -13.347  34.153   1.061  1.00  0.00     0.290 C 
HETATM   21  O2  UNL     1     -12.747  35.226   0.828  1.00  0.00    -0.262 OA
BRANCH  20  22
HETATM   22  O1  UNL     1     -14.350  33.778   0.206  1.00  0.00    -0.325 OA
HETATM   23  C1  UNL     1     -15.519  34.554   0.009  1.00  0.00     0.213 C 
ENDBRANCH  20  22
ENDBRANCH  19  20
BRANCH  19  24
HETATM   24  C12 UNL     1     -13.591  33.937   3.436  1.00  0.00     0.263 C 
HETATM   25  N8  UNL     1     -12.919  34.816   4.328  1.00  0.00    -0.060 NA
HETATM   26  O8  UNL     1     -14.791  33.663   3.698  1.00  0.00    -0.274 OA
ENDBRANCH  19  24
ENDBRANCH  17  19
ENDBRANCH  16  17
BRANCH  16  27
HETATM   27  O3  UNL     1     -12.336  30.416   0.903  1.00  0.00    -0.332 OA
ATOM     28  H3  UNL     1     -12.245  31.104   0.254  1.00  0.00     0.220 HD
ENDBRANCH  16  27
ENDBRANCH  13  16
ENDBRANCH   1  12
BRANCH  11  29
HETATM   29  C10 UNL     1     -12.366  27.020   5.472  1.00  0.00     0.193 C 
BRANCH  29  30
HETATM   30  C11 UNL     1     -13.659  26.572   6.095  1.00  0.00     0.272 C 
BRANCH  30  31
HETATM   31  O6  UNL     1     -13.578  25.843   7.234  1.00  0.00    -0.370 OA
ATOM     32  H6  UNL     1     -14.347  25.346   7.487  1.00  0.00     0.212 HD
ENDBRANCH  30  31
BRANCH  30  33
HETATM   33  O7  UNL     1     -14.405  25.811   5.161  1.00  0.00    -0.370 OA
ATOM     34  H7  UNL     1     -14.707  25.008   5.568  1.00  0.00     0.212 HD
ENDBRANCH  30  33
ENDBRANCH  29  30
ENDBRANCH  11  29
BRANCH   9  35
HETATM   35  N6  UNL     1     -10.827  25.921   8.290  1.00  0.00    -0.333 N 
ATOM     36  H62 UNL     1     -10.753  25.338   9.125  1.00  0.00     0.177 HD
ATOM     37  H61 UNL     1     -11.097  25.328   7.506  1.00  0.00     0.177 HD
ENDBRANCH   9  35
TORSDOF 13
ENDMDL
MODEL 3
REMARK VINA RESULT: -6.161192454      1.514      1.752
REMARK  13 active torsions:
REMARK  status: ('A' for Active; 'I' for Inactive)
REMARK    1  A    between atoms: O1_2  and  C2_3 
REMARK    2  A    between atoms: C2_3  and  C3_5 
REMARK    3  A    between atoms: C3_5  and  N1_6 
REMARK    4  A    between atoms: C3_5  and  C12_35 
REMARK    5  A    between atoms: N1_6  and  C4_8 
REMARK    6  A    between atoms: C4_8  and  O3_9 
REMARK    7  A    between atoms: C4_8  and  N2_11 
REMARK       I    between atoms: N2_11  and  C5_13 
REMARK    8  A    between atoms: C5_13  and  C6_15 
REMARK    9  A    between atoms: N5_23  and  N6_24 
REMARK   10  A    between atoms: N7_28  and  C10_29 
REMARK   11  A    between atoms: C10_29  and  C11_30 
REMARK   12  A    between atoms: C11_30  and  O6_31 
REMARK   13  A    between atoms: C11_30  and  O7_33 
ROOT
HETATM    1  C6  UNL     1     -11.680  29.398   5.583  1.00  0.00     0.180 A 
HETATM    2  N3  UNL     1     -10.981  29.884   6.666  1.00  0.00    -0.321 N 
ATOM      3  H3  UNL     1     -10.703  30.858   6.781  1.00  0.00     0.169 HD
HETATM    4  C7  UNL     1     -10.715  28.920   7.539  1.00  0.00     0.158 A 
HETATM    5  N4  UNL     1     -10.158  28.558   8.704  1.00  0.00    -0.290 N 
ATOM      6  H4  UNL     1      -9.670  29.186   9.343  1.00  0.00     0.172 HD
HETATM    7  C8  UNL     1     -10.343  27.243   8.897  1.00  0.00     0.348 A 
HETATM    8  O5  UNL     1      -9.944  26.570   9.893  1.00  0.00    -0.245 OA
HETATM    9  N5  UNL     1     -11.023  26.771   7.842  1.00  0.00    -0.191 N 
HETATM   10  C9  UNL     1     -11.259  27.784   7.003  1.00  0.00     0.180 A 
HETATM   11  N7  UNL     1     -11.847  28.100   5.802  1.00  0.00    -0.305 N 
ENDROOT
BRANCH   1  12
HETATM   12  C5  UNL     1     -12.068  30.325   4.540  1.00  0.00     0.293 C 
HETATM   13  N2  UNL     1     -11.338  30.793   3.458  1.00  0.00    -0.286 N 
ATOM     14  H2  UNL     1     -10.380  30.452   3.376  1.00  0.00     0.172 HD
HETATM   15  O4  UNL     1     -13.279  30.771   4.647  1.00  0.00    -0.264 OA
BRANCH  13  16
HETATM   16  C4  UNL     1     -11.773  31.689   2.460  1.00  0.00     0.221 C 
BRANCH  16  17
HETATM   17  N1  UNL     1     -12.847  32.571   2.446  1.00  0.00    -0.335 N 
ATOM     18  H1  UNL     1     -13.773  32.204   2.231  1.00  0.00     0.164 HD
BRANCH  17  19
HETATM   19  C3  UNL     1     -12.713  34.003   2.725  1.00  0.00     0.274 C 
BRANCH  19  20
HETATM   20  C2  UNL     1     -13.949  34.518   3.371  1.00  0.00     0.290 C 
HETATM   21  O2  UNL     1     -14.821  33.699   3.736  1.00  0.00    -0.262 OA
BRANCH  20  22
HETATM   22  O1  UNL     1     -14.185  35.850   3.589  1.00  0.00    -0.325 OA
HETATM   23  C1  UNL     1     -15.483  36.371   3.810  1.00  0.00     0.213 C 
ENDBRANCH  20  22
ENDBRANCH  19  20
BRANCH  19  24
HETATM   24  C12 UNL     1     -11.597  34.171   3.680  1.00  0.00     0.263 C 
HETATM   25  N8  UNL     1     -11.685  33.785   5.045  1.00  0.00    -0.060 NA
HETATM   26  O8  UNL     1     -10.509  34.675   3.297  1.00  0.00    -0.274 OA
ENDBRANCH  19  24
ENDBRANCH  17  19
ENDBRANCH  16  17
BRANCH  16  27
HETATM   27  O3  UNL     1     -11.074  31.716   1.360  1.00  0.00    -0.332 OA
ATOM     28  H3  UNL     1     -10.709  32.572   1.171  1.00  0.00     0.220 HD
ENDBRANCH  16  27
ENDBRANCH  13  16
ENDBRANCH   1  12
BRANCH  11  29
HETATM   29  C10 UNL     1     -12.486  27.129   4.988  1.00  0.00     0.193 C 
BRANCH  29  30
HETATM   30  C11 UNL     1     -13.979  27.032   5.139  1.00  0.00     0.272 C 
BRANCH  30  31
HETATM   31  O6  UNL     1     -14.500  25.803   5.371  1.00  0.00    -0.370 OA
ATOM     32  H6  UNL     1     -15.056  25.432   4.696  1.00  0.00     0.212 HD
ENDBRANCH  30  31
BRANCH  30  33
HETATM   33  O7  UNL     1     -14.614  27.546   3.982  1.00  0.00    -0.370 OA
ATOM     34  H7  UNL     1     -14.915  26.830   3.435  1.00  0.00     0.212 HD
ENDBRANCH  30  33
ENDBRANCH  29  30
ENDBRANCH  11  29
BRANCH   9  35
HETATM   35  N6  UNL     1     -11.391  25.425   7.711  1.00  0.00    -0.333 N 
ATOM     36  H62 UNL     1     -11.317  24.676   8.400  1.00  0.00     0.177 HD
ATOM     37  H61 UNL     1     -11.795  25.040   6.858  1.00  0.00     0.177 HD
ENDBRANCH   9  35
TORSDOF 13
ENDMDL
MODEL 4
REMARK VINA RESULT: -6.138080515      3.099      9.318
REMARK  13 active torsions:
REMARK  status: ('A' for Active; 'I' for Inactive)
REMARK    1  A    between atoms: O1_2  and  C2_3 
REMARK    2  A    between atoms: C2_3  and  C3_5 
REMARK    3  A    between atoms: C3_5  and  N1_6 
REMARK    4  A    between atoms: C3_5  and  C12_35 
REMARK    5  A    between atoms: N1_6  and  C4_8 
REMARK    6  A    between atoms: C4_8  and  O3_9 
REMARK    7  A    between atoms: C4_8  and  N2_11 
REMARK       I    between atoms: N2_11  and  C5_13 
REMARK    8  A    between atoms: C5_13  and  C6_15 
REMARK    9  A    between atoms: N5_23  and  N6_24 
REMARK   10  A    between atoms: N7_28  and  C10_29 
REMARK   11  A    between atoms: C10_29  and  C11_30 
REMARK   12  A    between atoms: C11_30  and  O6_31 
REMARK   13  A    between atoms: C11_30  and  O7_33 
ROOT
HETATM    1  C6  UNL     1     -11.151  28.641   6.818  1.00  0.00     0.180 A 
HETATM    2  N3  UNL     1     -11.024  30.008   6.714  1.00  0.00    -0.321 N 
ATOM      3  H3  UNL     1     -10.472  30.585   7.348  1.00  0.00     0.169 HD
HETATM    4  C7  UNL     1     -11.716  30.478   5.682  1.00  0.00     0.158 A 
HETATM    5  N4  UNL     1     -12.097  31.536   4.952  1.00  0.00    -0.290 N 
ATOM      6  H4  UNL     1     -11.823  32.503   5.128  1.00  0.00     0.172 HD
HETATM    7  C8  UNL     1     -12.894  31.125   3.954  1.00  0.00     0.348 A 
HETATM    8  O5  UNL     1     -13.434  31.862   3.076  1.00  0.00    -0.245 OA
HETATM    9  N5  UNL     1     -13.016  29.793   4.056  1.00  0.00    -0.191 N 
HETATM   10  C9  UNL     1     -12.302  29.383   5.108  1.00  0.00     0.180 A 
HETATM   11  N7  UNL     1     -11.942  28.265   5.820  1.00  0.00    -0.305 N 
ENDROOT
BRANCH   1  12
HETATM   12  C5  UNL     1     -10.443  27.961   7.883  1.00  0.00     0.293 C 
HETATM   13  N2  UNL     1     -10.747  26.771   8.526  1.00  0.00    -0.286 N 
ATOM     14  H2  UNL     1     -11.597  26.295   8.223  1.00  0.00     0.172 HD
HETATM   15  O4  UNL     1      -9.371  28.567   8.281  1.00  0.00    -0.264 OA
BRANCH  13  16
HETATM   16  C4  UNL     1     -10.011  26.145   9.553  1.00  0.00     0.221 C 
BRANCH  16  17
HETATM   17  N1  UNL     1      -9.516  24.850   9.647  1.00  0.00    -0.335 N 
ATOM     18  H1  UNL     1      -9.719  24.198   8.890  1.00  0.00     0.164 HD
BRANCH  17  19
HETATM   19  C3  UNL     1      -8.718  24.376  10.780  1.00  0.00     0.274 C 
BRANCH  19  20
HETATM   20  C2  UNL     1      -8.874  22.906  10.939  1.00  0.00     0.290 C 
HETATM   21  O2  UNL     1      -9.164  22.452  12.068  1.00  0.00    -0.262 OA
BRANCH  20  22
HETATM   22  O1  UNL     1      -8.717  22.017   9.908  1.00  0.00    -0.325 OA
HETATM   23  C1  UNL     1      -7.758  20.976   9.934  1.00  0.00     0.213 C 
ENDBRANCH  20  22
ENDBRANCH  19  20
BRANCH  19  24
HETATM   24  C12 UNL     1      -7.298  24.652  10.475  1.00  0.00     0.263 C 
HETATM   25  N8  UNL     1      -6.332  24.925  11.480  1.00  0.00    -0.060 NA
HETATM   26  O8  UNL     1      -6.898  24.652   9.282  1.00  0.00    -0.274 OA
ENDBRANCH  19  24
ENDBRANCH  17  19
ENDBRANCH  16  17
BRANCH  16  27
HETATM   27  O3  UNL     1      -9.735  26.876  10.597  1.00  0.00    -0.332 OA
ATOM     28  H3  UNL     1     -10.509  27.158  11.070  1.00  0.00     0.220 HD
ENDBRANCH  16  27
ENDBRANCH  13  16
ENDBRANCH   1  12
BRANCH  11  29
HETATM   29  C10 UNL     1     -12.404  26.965   5.485  1.00  0.00     0.193 C 
BRANCH  29  30
HETATM   30  C11 UNL     1     -13.608  26.485   6.246  1.00  0.00     0.272 C 
BRANCH  30  31
HETATM   31  O6  UNL     1     -13.387  25.663   7.301  1.00  0.00    -0.370 OA
ATOM     32  H6  UNL     1     -14.062  25.027   7.505  1.00  0.00     0.212 HD
ENDBRANCH  30  31
BRANCH  30  33
HETATM   33  O7  UNL     1     -14.495  25.813   5.370  1.00  0.00    -0.370 OA
ATOM     34  H7  UNL     1     -15.245  25.490   5.855  1.00  0.00     0.212 HD
ENDBRANCH  30  33
ENDBRANCH  29  30
ENDBRANCH  11  29
BRANCH   9  35
HETATM   35  N6  UNL     1     -13.785  29.027   3.169  1.00  0.00    -0.333 N 
ATOM     36  H62 UNL     1     -13.482  28.275   2.552  1.00  0.00     0.177 HD
ATOM     37  H61 UNL     1     -14.789  29.158   3.050  1.00  0.00     0.177 HD
ENDBRANCH   9  35
TORSDOF 13
ENDMDL
MODEL 5
REMARK VINA RESULT: -6.094037171      2.791      8.773
REMARK  13 active torsions:
REMARK  status: ('A' for Active; 'I' for Inactive)
REMARK    1  A    between atoms: O1_2  and  C2_3 
REMARK    2  A    between atoms: C2_3  and  C3_5 
REMARK    3  A    between atoms: C3_5  and  N1_6 
REMARK    4  A    between atoms: C3_5  and  C12_35 
REMARK    5  A    between atoms: N1_6  and  C4_8 
REMARK    6  A    between atoms: C4_8  and  O3_9 
REMARK    7  A    between atoms: C4_8  and  N2_11 
REMARK       I    between atoms: N2_11  and  C5_13 
REMARK    8  A    between atoms: C5_13  and  C6_15 
REMARK    9  A    between atoms: N5_23  and  N6_24 
REMARK   10  A    between atoms: N7_28  and  C10_29 
REMARK   11  A    between atoms: C10_29  and  C11_30 
REMARK   12  A    between atoms: C11_30  and  O6_31 
REMARK   13  A    between atoms: C11_30  and  O7_33 
ROOT
HETATM    1  C6  UNL     1     -10.806  28.637   6.172  1.00  0.00     0.180 A 
HETATM    2  N3  UNL     1     -10.773  29.905   5.636  1.00  0.00    -0.321 N 
ATOM      3  H3  UNL     1     -10.179  30.660   5.978  1.00  0.00     0.169 HD
HETATM    4  C7  UNL     1     -11.616  30.019   4.616  1.00  0.00     0.158 A 
HETATM    5  N4  UNL     1     -12.148  30.789   3.656  1.00  0.00    -0.290 N 
ATOM      6  H4  UNL     1     -11.910  31.766   3.486  1.00  0.00     0.172 HD
HETATM    7  C8  UNL     1     -13.040  30.074   2.954  1.00  0.00     0.348 A 
HETATM    8  O5  UNL     1     -13.729  30.490   1.975  1.00  0.00    -0.245 OA
HETATM    9  N5  UNL     1     -13.071  28.840   3.477  1.00  0.00    -0.191 N 
HETATM   10  C9  UNL     1     -12.206  28.789   4.494  1.00  0.00     0.180 A 
HETATM   11  N7  UNL     1     -11.695  27.956   5.459  1.00  0.00    -0.305 N 
ENDROOT
BRANCH   1  12
HETATM   12  C5  UNL     1      -9.930  28.336   7.285  1.00  0.00     0.293 C 
HETATM   13  N2  UNL     1      -9.949  28.828   8.582  1.00  0.00    -0.286 N 
ATOM     14  H2  UNL     1     -10.674  29.511   8.797  1.00  0.00     0.172 HD
HETATM   15  O4  UNL     1      -8.999  27.479   7.014  1.00  0.00    -0.264 OA
BRANCH  13  16
HETATM   16  C4  UNL     1      -9.075  28.487   9.635  1.00  0.00     0.221 C 
BRANCH  16  17
HETATM   17  N1  UNL     1      -8.421  27.293   9.913  1.00  0.00    -0.335 N 
ATOM     18  H1  UNL     1      -7.430  27.219   9.685  1.00  0.00     0.164 HD
BRANCH  17  19
HETATM   19  C3  UNL     1      -9.085  26.135  10.517  1.00  0.00     0.274 C 
BRANCH  19  20
HETATM   20  C2  UNL     1      -8.832  24.917   9.704  1.00  0.00     0.290 C 
HETATM   21  O2  UNL     1      -9.733  24.512   8.934  1.00  0.00    -0.262 OA
BRANCH  20  22
HETATM   22  O1  UNL     1      -7.661  24.209   9.752  1.00  0.00    -0.325 OA
HETATM   23  C1  UNL     1      -7.601  22.851  10.150  1.00  0.00     0.213 C 
ENDBRANCH  20  22
ENDBRANCH  19  20
BRANCH  19  24
HETATM   24  C12 UNL     1      -8.487  25.923  11.852  1.00  0.00     0.263 C 
HETATM   25  N8  UNL     1      -9.008  24.992  12.791  1.00  0.00    -0.060 NA
HETATM   26  O8  UNL     1      -7.472  26.580  12.201  1.00  0.00    -0.274 OA
ENDBRANCH  19  24
ENDBRANCH  17  19
ENDBRANCH  16  17
BRANCH  16  27
HETATM   27  O3  UNL     1      -8.821  29.424  10.504  1.00  0.00    -0.332 OA
ATOM     28  H3  UNL     1      -9.529  29.560  11.124  1.00  0.00     0.220 HD
ENDBRANCH  16  27
ENDBRANCH  13  16
ENDBRANCH   1  12
BRANCH  11  29
HETATM   29  C10 UNL     1     -12.120  26.610   5.608  1.00  0.00     0.193 C 
BRANCH  29  30
HETATM   30  C11 UNL     1     -13.424  26.415   6.329  1.00  0.00     0.272 C 
BRANCH  30  31
HETATM   31  O6  UNL     1     -13.426  25.569   7.388  1.00  0.00    -0.370 OA
ATOM     32  H6  UNL     1     -13.830  24.718   7.264  1.00  0.00     0.212 HD
ENDBRANCH  30  31
BRANCH  30  33
HETATM   33  O7  UNL     1     -14.411  25.956   5.423  1.00  0.00    -0.370 OA
ATOM     34  H7  UNL     1     -14.737  25.109   5.703  1.00  0.00     0.212 HD
ENDBRANCH  30  33
ENDBRANCH  29  30
ENDBRANCH  11  29
BRANCH   9  35
HETATM   35  N6  UNL     1     -13.901  27.823   2.985  1.00  0.00    -0.333 N 
ATOM     36  H62 UNL     1     -14.916  27.824   2.884  1.00  0.00     0.177 HD
ATOM     37  H61 UNL     1     -13.545  26.925   2.659  1.00  0.00     0.177 HD
ENDBRANCH   9  35
TORSDOF 13
ENDMDL
