MODEL 1
REMARK VINA RESULT: -6.524360664      0.000      0.000
REMARK  10 active torsions:
REMARK  status: ('A' for Active; 'I' for Inactive)
REMARK    1  A    between atoms: C2_2  and  N1_3 
REMARK    2  A    between atoms: N1_3  and  C3_5 
REMARK    3  A    between atoms: C3_5  and  S2_7 
REMARK    4  A    between atoms: S2_7  and  C4_8 
REMARK    5  A    between atoms: C4_8  and  O1_10 
REMARK    6  A    between atoms: C4_8  and  C6_12 
REMARK    7  A    between atoms: C7_13  and  C8_14 
REMARK    8  A    between atoms: C8_14  and  N2_15 
REMARK    9  A    between atoms: N2_15  and  C9_17 
REMARK   10  A    between atoms: C9_17  and  N3_19 
ROOT
HETATM    1  C6  UNL     1     -64.248  49.334   2.321  1.00  0.00    -0.055 C 
HETATM    2  C7  UNL     1     -64.722  49.712   1.277  1.00  0.00    -0.083 C 
ENDROOT
BRANCH   1   3
HETATM    3  C4  UNL     1     -63.644  48.856   3.590  1.00  0.00     0.173 C 
HETATM    4  C5  UNL     1     -62.415  49.729   3.871  1.00  0.00     0.073 C 
BRANCH   3   5
HETATM    5  S2  UNL     1     -64.885  49.011   4.853  1.00  0.00    -0.050 SA
BRANCH   5   6
HETATM    6  C3  UNL     1     -65.566  47.490   5.421  1.00  0.00     0.138 C 
HETATM    7  S1  UNL     1     -66.570  47.496   6.692  1.00  0.00    -0.053 SA
BRANCH   6   8
HETATM    8  N1  UNL     1     -65.238  46.283   4.770  1.00  0.00    -0.376 N 
ATOM      9  H1  UNL     1     -64.279  45.939   4.830  1.00  0.00     0.160 HD
BRANCH   8  10
HETATM   10  C2  UNL     1     -66.208  45.513   4.020  1.00  0.00     0.116 C 
HETATM   11  C1  UNL     1     -66.906  46.390   2.991  1.00  0.00     0.026 C 
ENDBRANCH   8  10
ENDBRANCH   6   8
ENDBRANCH   5   6
ENDBRANCH   3   5
BRANCH   3  12
HETATM   12  O1  UNL     1     -63.191  47.573   3.363  1.00  0.00    -0.368 OA
ATOM     13  H1  UNL     1     -62.397  47.334   3.828  1.00  0.00     0.212 HD
ENDBRANCH   3  12
ENDBRANCH   1   3
BRANCH   2  14
HETATM   14  C8  UNL     1     -65.272  50.179   0.006  1.00  0.00     0.216 C 
BRANCH  14  15
HETATM   15  N2  UNL     1     -64.683  49.507  -1.136  1.00  0.00    -0.357 N 
ATOM     16  H2  UNL     1     -63.668  49.474  -1.234  1.00  0.00     0.162 HD
BRANCH  15  17
HETATM   17  C9  UNL     1     -65.501  48.895  -2.117  1.00  0.00     0.170 C 
HETATM   18  S3  UNL     1     -67.044  48.490  -1.735  1.00  0.00    -0.041 SA
BRANCH  17  19
HETATM   19  N3  UNL     1     -64.957  48.652  -3.403  1.00  0.00    -0.354 N 
HETATM   20  C10 UNL     1     -64.993  47.274  -3.881  1.00  0.00     0.151 C 
HETATM   21  C11 UNL     1     -64.275  47.089  -5.178  1.00  0.00     0.187 C 
HETATM   22  O2  UNL     1     -63.192  47.948  -5.216  1.00  0.00    -0.388 OA
HETATM   23  C12 UNL     1     -63.583  49.279  -5.336  1.00  0.00     0.187 C 
HETATM   24  C13 UNL     1     -64.407  49.736  -4.157  1.00  0.00     0.151 C 
ENDBRANCH  17  19
ENDBRANCH  15  17
ENDBRANCH  14  15
ENDBRANCH   2  14
TORSDOF 10
ENDMDL
MODEL 2
REMARK VINA RESULT: -6.416796425      2.728      3.465
REMARK  10 active torsions:
REMARK  status: ('A' for Active; 'I' for Inactive)
REMARK    1  A    between atoms: C2_2  and  N1_3 
REMARK    2  A    between atoms: N1_3  and  C3_5 
REMARK    3  A    between atoms: C3_5  and  S2_7 
REMARK    4  A    between atoms: S2_7  and  C4_8 
REMARK    5  A    between atoms: C4_8  and  O1_10 
REMARK    6  A    between atoms: C4_8  and  C6_12 
REMARK    7  A    between atoms: C7_13  and  C8_14 
REMARK    8  A    between atoms: C8_14  and  N2_15 
REMARK    9  A    between atoms: N2_15  and  C9_17 
REMARK   10  A    between atoms: C9_17  and  N3_19 
ROOT
HETATM    1  C6  UNL     1     -63.955  49.407   2.183  1.00  0.00    -0.055 C 
HETATM    2  C7  UNL     1     -64.261  49.843   1.100  1.00  0.00    -0.083 C 
ENDROOT
BRANCH   1   3
HETATM    3  C4  UNL     1     -63.606  48.861   3.518  1.00  0.00     0.173 C 
HETATM    4  C5  UNL     1     -62.476  49.729   4.086  1.00  0.00     0.073 C 
BRANCH   3   5
HETATM    5  S2  UNL     1     -65.075  48.929   4.515  1.00  0.00    -0.050 SA
BRANCH   5   6
HETATM    6  C3  UNL     1     -65.339  47.530   5.551  1.00  0.00     0.138 C 
HETATM    7  S1  UNL     1     -65.841  47.754   7.074  1.00  0.00    -0.053 SA
BRANCH   6   8
HETATM    8  N1  UNL     1     -65.115  46.231   5.052  1.00  0.00    -0.376 N 
ATOM      9  H1  UNL     1     -64.345  45.684   5.437  1.00  0.00     0.160 HD
BRANCH   8  10
HETATM   10  C2  UNL     1     -65.935  45.641   4.014  1.00  0.00     0.116 C 
HETATM   11  C1  UNL     1     -67.322  45.316   4.550  1.00  0.00     0.026 C 
ENDBRANCH   8  10
ENDBRANCH   6   8
ENDBRANCH   5   6
ENDBRANCH   3   5
BRANCH   3  12
HETATM   12  O1  UNL     1     -63.088  47.599   3.315  1.00  0.00    -0.368 OA
ATOM     13  H1  UNL     1     -62.151  47.517   3.449  1.00  0.00     0.212 HD
ENDBRANCH   3  12
ENDBRANCH   1   3
BRANCH   2  14
HETATM   14  C8  UNL     1     -64.642  50.347  -0.219  1.00  0.00     0.216 C 
BRANCH  14  15
HETATM   15  N2  UNL     1     -65.957  49.894  -0.630  1.00  0.00    -0.357 N 
ATOM     16  H2  UNL     1     -66.769  50.492  -0.475  1.00  0.00     0.162 HD
BRANCH  15  17
HETATM   17  C9  UNL     1     -66.127  48.629  -1.244  1.00  0.00     0.170 C 
HETATM   18  S3  UNL     1     -65.383  48.326  -2.674  1.00  0.00    -0.041 SA
BRANCH  17  19
HETATM   19  N3  UNL     1     -66.939  47.663  -0.600  1.00  0.00    -0.354 N 
HETATM   20  C10 UNL     1     -67.460  46.584  -1.432  1.00  0.00     0.151 C 
HETATM   21  C11 UNL     1     -68.416  45.696  -0.703  1.00  0.00     0.187 C 
HETATM   22  O2  UNL     1     -69.130  46.457   0.205  1.00  0.00    -0.388 OA
HETATM   23  C12 UNL     1     -68.336  46.891   1.264  1.00  0.00     0.187 C 
HETATM   24  C13 UNL     1     -67.211  47.784   0.800  1.00  0.00     0.151 C 
ENDBRANCH  17  19
ENDBRANCH  15  17
ENDBRANCH  14  15
ENDBRANCH   2  14
TORSDOF 10
ENDMDL
MODEL 3
REMARK VINA RESULT: -6.291556065      1.519      1.718
REMARK  10 active torsions:
REMARK  status: ('A' for Active; 'I' for Inactive)
REMARK    1  A    between atoms: C2_2  and  N1_3 
REMARK    2  A    between atoms: N1_3  and  C3_5 
REMARK    3  A    between atoms: C3_5  and  S2_7 
REMARK    4  A    between atoms: S2_7  and  C4_8 
REMARK    5  A    between atoms: C4_8  and  O1_10 
REMARK    6  A    between atoms: C4_8  and  C6_12 
REMARK    7  A    between atoms: C7_13  and  C8_14 
REMARK    8  A    between atoms: C8_14  and  N2_15 
REMARK    9  A    between atoms: N2_15  and  C9_17 
REMARK   10  A    between atoms: C9_17  and  N3_19 
ROOT
HETATM    1  C6  UNL     1     -64.971  48.996   2.473  1.00  0.00    -0.055 C 
HETATM    2  C7  UNL     1     -64.969  49.454   1.356  1.00  0.00    -0.083 C 
ENDROOT
BRANCH   1   3
HETATM    3  C4  UNL     1     -64.992  48.414   3.838  1.00  0.00     0.173 C 
HETATM    4  C5  UNL     1     -63.897  49.115   4.653  1.00  0.00     0.073 C 
BRANCH   3   5
HETATM    5  S2  UNL     1     -66.614  48.696   4.505  1.00  0.00    -0.050 SA
BRANCH   5   6
HETATM    6  C3  UNL     1     -67.845  47.549   3.986  1.00  0.00     0.138 C 
HETATM    7  S1  UNL     1     -68.338  46.396   5.012  1.00  0.00    -0.053 SA
BRANCH   6   8
HETATM    8  N1  UNL     1     -68.391  47.638   2.689  1.00  0.00    -0.376 N 
ATOM      9  H1  UNL     1     -69.237  48.190   2.551  1.00  0.00     0.160 HD
BRANCH   8  10
HETATM   10  C2  UNL     1     -67.797  46.976   1.546  1.00  0.00     0.116 C 
HETATM   11  C1  UNL     1     -68.829  46.115   0.833  1.00  0.00     0.026 C 
ENDBRANCH   8  10
ENDBRANCH   6   8
ENDBRANCH   5   6
ENDBRANCH   3   5
BRANCH   3  12
HETATM   12  O1  UNL     1     -64.625  47.089   3.717  1.00  0.00    -0.368 OA
ATOM     13  H1  UNL     1     -64.021  46.897   3.010  1.00  0.00     0.212 HD
ENDBRANCH   3  12
ENDBRANCH   1   3
BRANCH   2  14
HETATM   14  C8  UNL     1     -64.961  49.983  -0.007  1.00  0.00     0.216 C 
BRANCH  14  15
HETATM   15  N2  UNL     1     -64.657  48.968  -0.997  1.00  0.00    -0.357 N 
ATOM     16  H2  UNL     1     -63.807  48.412  -0.906  1.00  0.00     0.162 HD
BRANCH  15  17
HETATM   17  C9  UNL     1     -65.530  48.739  -2.089  1.00  0.00     0.170 C 
HETATM   18  S3  UNL     1     -67.146  48.660  -1.821  1.00  0.00    -0.041 SA
BRANCH  17  19
HETATM   19  N3  UNL     1     -64.974  48.584  -3.383  1.00  0.00    -0.354 N 
HETATM   20  C10 UNL     1     -64.951  47.232  -3.931  1.00  0.00     0.151 C 
HETATM   21  C11 UNL     1     -64.224  47.144  -5.233  1.00  0.00     0.187 C 
HETATM   22  O2  UNL     1     -63.178  48.049  -5.224  1.00  0.00    -0.388 OA
HETATM   23  C12 UNL     1     -63.625  49.366  -5.278  1.00  0.00     0.187 C 
HETATM   24  C13 UNL     1     -64.470  49.728  -4.080  1.00  0.00     0.151 C 
ENDBRANCH  17  19
ENDBRANCH  15  17
ENDBRANCH  14  15
ENDBRANCH   2  14
TORSDOF 10
ENDMDL
MODEL 4
REMARK VINA RESULT: -6.265562695      3.161      3.823
REMARK  10 active torsions:
REMARK  status: ('A' for Active; 'I' for Inactive)
REMARK    1  A    between atoms: C2_2  and  N1_3 
REMARK    2  A    between atoms: N1_3  and  C3_5 
REMARK    3  A    between atoms: C3_5  and  S2_7 
REMARK    4  A    between atoms: S2_7  and  C4_8 
REMARK    5  A    between atoms: C4_8  and  O1_10 
REMARK    6  A    between atoms: C4_8  and  C6_12 
REMARK    7  A    between atoms: C7_13  and  C8_14 
REMARK    8  A    between atoms: C8_14  and  N2_15 
REMARK    9  A    between atoms: N2_15  and  C9_17 
REMARK   10  A    between atoms: C9_17  and  N3_19 
ROOT
HETATM    1  C6  UNL     1     -64.145  48.967   4.021  1.00  0.00    -0.055 C 
HETATM    2  C7  UNL     1     -64.105  49.250   2.847  1.00  0.00    -0.083 C 
ENDROOT
BRANCH   1   3
HETATM    3  C4  UNL     1     -64.198  48.646   5.469  1.00  0.00     0.173 C 
HETATM    4  C5  UNL     1     -63.112  49.479   6.162  1.00  0.00     0.073 C 
BRANCH   3   5
HETATM    5  S2  UNL     1     -65.830  49.057   6.039  1.00  0.00    -0.050 SA
BRANCH   5   6
HETATM    6  C3  UNL     1     -66.656  47.777   6.921  1.00  0.00     0.138 C 
HETATM    7  S1  UNL     1     -67.173  48.058   8.430  1.00  0.00    -0.053 SA
BRANCH   6   8
HETATM    8  N1  UNL     1     -66.863  46.521   6.314  1.00  0.00    -0.376 N 
ATOM      9  H1  UNL     1     -66.666  45.677   6.852  1.00  0.00     0.160 HD
BRANCH   8  10
HETATM   10  C2  UNL     1     -67.345  46.382   4.955  1.00  0.00     0.116 C 
HETATM   11  C1  UNL     1     -66.391  45.526   4.135  1.00  0.00     0.026 C 
ENDBRANCH   8  10
ENDBRANCH   6   8
ENDBRANCH   5   6
ENDBRANCH   3   5
BRANCH   3  12
HETATM   12  O1  UNL     1     -63.843  47.320   5.601  1.00  0.00    -0.368 OA
ATOM     13  H1  UNL     1     -63.087  47.049   5.093  1.00  0.00     0.212 HD
ENDBRANCH   3  12
ENDBRANCH   1   3
BRANCH   2  14
HETATM   14  C8  UNL     1     -64.080  49.605   1.430  1.00  0.00     0.216 C 
BRANCH  14  15
HETATM   15  N2  UNL     1     -65.410  49.714   0.859  1.00  0.00    -0.357 N 
ATOM     16  H2  UNL     1     -66.059  50.411   1.223  1.00  0.00     0.162 HD
BRANCH  15  17
HETATM   17  C9  UNL     1     -65.815  48.862  -0.197  1.00  0.00     0.170 C 
HETATM   18  S3  UNL     1     -65.176  49.078  -1.691  1.00  0.00    -0.041 SA
BRANCH  17  19
HETATM   19  N3  UNL     1     -66.765  47.846   0.074  1.00  0.00    -0.354 N 
HETATM   20  C10 UNL     1     -67.069  46.924  -1.015  1.00  0.00     0.151 C 
HETATM   21  C11 UNL     1     -68.179  45.979  -0.685  1.00  0.00     0.187 C 
HETATM   22  O2  UNL     1     -69.092  46.628   0.127  1.00  0.00    -0.388 OA
HETATM   23  C12 UNL     1     -68.583  46.867   1.400  1.00  0.00     0.187 C 
HETATM   24  C13 UNL     1     -67.374  47.771   1.367  1.00  0.00     0.151 C 
ENDBRANCH  17  19
ENDBRANCH  15  17
ENDBRANCH  14  15
ENDBRANCH   2  14
TORSDOF 10
ENDMDL
MODEL 5
REMARK VINA RESULT: -6.238945928      1.820      2.807
REMARK  10 active torsions:
REMARK  status: ('A' for Active; 'I' for Inactive)
REMARK    1  A    between atoms: C2_2  and  N1_3 
REMARK    2  A    between atoms: N1_3  and  C3_5 
REMARK    3  A    between atoms: C3_5  and  S2_7 
REMARK    4  A    between atoms: S2_7  and  C4_8 
REMARK    5  A    between atoms: C4_8  and  O1_10 
REMARK    6  A    between atoms: C4_8  and  C6_12 
REMARK    7  A    between atoms: C7_13  and  C8_14 
REMARK    8  A    between atoms: C8_14  and  N2_15 
REMARK    9  A    between atoms: N2_15  and  C9_17 
REMARK   10  A    between atoms: C9_17  and  N3_19 
ROOT
HETATM    1  C6  UNL     1     -66.471  49.254   2.074  1.00  0.00    -0.055 C 
HETATM    2  C7  UNL     1     -65.731  49.466   1.144  1.00  0.00    -0.083 C 
ENDROOT
BRANCH   1   3
HETATM    3  C4  UNL     1     -67.399  49.012   3.206  1.00  0.00     0.173 C 
HETATM    4  C5  UNL     1     -68.361  47.895   2.780  1.00  0.00     0.073 C 
BRANCH   3   5
HETATM    5  S2  UNL     1     -66.408  48.550   4.608  1.00  0.00    -0.050 SA
BRANCH   5   6
HETATM    6  C3  UNL     1     -65.219  47.290   4.299  1.00  0.00     0.138 C 
HETATM    7  S1  UNL     1     -65.711  45.754   4.148  1.00  0.00    -0.053 SA
BRANCH   6   8
HETATM    8  N1  UNL     1     -63.853  47.621   4.185  1.00  0.00    -0.376 N 
ATOM      9  H1  UNL     1     -63.162  46.871   4.220  1.00  0.00     0.160 HD
BRANCH   8  10
HETATM   10  C2  UNL     1     -63.392  48.984   4.021  1.00  0.00     0.116 C 
HETATM   11  C1  UNL     1     -62.237  49.274   4.968  1.00  0.00     0.026 C 
ENDBRANCH   8  10
ENDBRANCH   6   8
ENDBRANCH   5   6
ENDBRANCH   3   5
BRANCH   3  12
HETATM   12  O1  UNL     1     -68.149  50.158   3.366  1.00  0.00    -0.368 OA
ATOM     13  H1  UNL     1     -68.779  50.331   2.676  1.00  0.00     0.212 HD
ENDBRANCH   3  12
ENDBRANCH   1   3
BRANCH   2  14
HETATM   14  C8  UNL     1     -64.855  49.717   0.000  1.00  0.00     0.216 C 
BRANCH  14  15
HETATM   15  N2  UNL     1     -64.835  48.611  -0.939  1.00  0.00    -0.357 N 
ATOM     16  H2  UNL     1     -64.219  47.816  -0.768  1.00  0.00     0.162 HD
BRANCH  15  17
HETATM   17  C9  UNL     1     -65.661  48.623  -2.089  1.00  0.00     0.170 C 
HETATM   18  S3  UNL     1     -67.285  48.759  -1.908  1.00  0.00    -0.041 SA
BRANCH  17  19
HETATM   19  N3  UNL     1     -65.054  48.517  -3.364  1.00  0.00    -0.354 N 
HETATM   20  C10 UNL     1     -64.994  47.184  -3.954  1.00  0.00     0.151 C 
HETATM   21  C11 UNL     1     -64.215  47.145  -5.229  1.00  0.00     0.187 C 
HETATM   22  O2  UNL     1     -63.181  48.060  -5.149  1.00  0.00    -0.388 OA
HETATM   23  C12 UNL     1     -63.640  49.374  -5.178  1.00  0.00     0.187 C 
HETATM   24  C13 UNL     1     -64.534  49.688  -4.003  1.00  0.00     0.151 C 
ENDBRANCH  17  19
ENDBRANCH  15  17
ENDBRANCH  14  15
ENDBRANCH   2  14
TORSDOF 10
ENDMDL
