MODEL 1
REMARK VINA RESULT: -7.374187313      0.000      0.000
REMARK  5 active torsions:
REMARK  status: ('A' for Active; 'I' for Inactive)
REMARK    1  A    between atoms: C2_2  and  C4_5 
REMARK    2  A    between atoms: C4_5  and  C5_6 
REMARK    3  A    between atoms: C5_6  and  O1_7 
REMARK    4  A    between atoms: N1_12  and  C9_13 
REMARK    5  A    between atoms: C11_19  and  N4_20 
ROOT
HETATM    1  C9  UNL     1     -67.537  46.726   0.263  1.00  0.00     0.129 A 
HETATM    2  N2  UNL     1     -67.255  46.606  -1.074  1.00  0.00    -0.337 N 
ATOM      3  H2  UNL     1     -66.515  47.174  -1.486  1.00  0.00     0.168 HD
HETATM    4  C10 UNL     1     -67.939  45.753  -1.846  1.00  0.00     0.183 A 
HETATM    5  N3  UNL     1     -68.911  44.997  -1.338  1.00  0.00    -0.338 N 
ATOM      6  H3  UNL     1     -69.415  44.356  -1.951  1.00  0.00     0.168 HD
HETATM    7  C11 UNL     1     -69.241  45.058  -0.041  1.00  0.00     0.124 A 
HETATM    8  C12 UNL     1     -68.528  45.950   0.770  1.00  0.00     0.132 A 
HETATM    9  C13 UNL     1     -68.880  45.998   2.133  1.00  0.00     0.107 C 
HETATM   10  N5  UNL     1     -69.185  46.015   3.258  1.00  0.00    -0.191 NA
ENDROOT
BRANCH   1  11
HETATM   11  N1  UNL     1     -66.788  47.641   1.059  1.00  0.00    -0.365 N 
HETATM   12  C8  UNL     1     -66.403  48.855   0.385  1.00  0.00     0.124 C 
HETATM   13  C7  UNL     1     -65.349  49.665   0.997  1.00  0.00     0.021 C 
HETATM   14  C6  UNL     1     -64.989  49.351   2.416  1.00  0.00     0.016 C 
HETATM   15  C4  UNL     1     -66.089  48.651   3.166  1.00  0.00     0.014 C 
HETATM   16  C14 UNL     1     -66.413  47.403   2.408  1.00  0.00     0.137 C 
BRANCH  15  17
HETATM   17  C2  UNL     1     -65.624  48.313   4.573  1.00  0.00     0.022 C 
HETATM   18  C1  UNL     1     -66.188  49.217   5.627  1.00  0.00     0.028 C 
HETATM   19  C3  UNL     1     -65.859  46.901   4.973  1.00  0.00     0.028 C 
HETATM   20 BR1  UNL     1     -63.676  48.569   4.671  1.00  0.00    -0.085 Br
ENDBRANCH  15  17
BRANCH  15  21
HETATM   21  C5  UNL     1     -67.231  49.614   3.303  1.00  0.00     0.176 C 
BRANCH  21  22
HETATM   22  O1  UNL     1     -68.473  49.018   3.494  1.00  0.00    -0.400 OA
ATOM     23  H1  UNL     1     -69.208  49.620   3.485  1.00  0.00     0.209 HD
ENDBRANCH  21  22
ENDBRANCH  15  21
ENDBRANCH   1  11
BRANCH   7  24
HETATM   24  N4  UNL     1     -70.171  44.342   0.478  1.00  0.00    -0.384 N 
ATOM     25  H42 UNL     1     -71.133  44.462   0.158  1.00  0.00     0.157 HD
ATOM     26  H41 UNL     1     -69.998  43.649   1.206  1.00  0.00     0.157 HD
ENDBRANCH   7  24
TORSDOF 5
ENDMDL
MODEL 2
REMARK VINA RESULT: -7.228332556      0.991      2.239
REMARK  5 active torsions:
REMARK  status: ('A' for Active; 'I' for Inactive)
REMARK    1  A    between atoms: C2_2  and  C4_5 
REMARK    2  A    between atoms: C4_5  and  C5_6 
REMARK    3  A    between atoms: C5_6  and  O1_7 
REMARK    4  A    between atoms: N1_12  and  C9_13 
REMARK    5  A    between atoms: C11_19  and  N4_20 
ROOT
HETATM    1  C9  UNL     1     -67.923  46.427   0.347  1.00  0.00     0.129 A 
HETATM    2  N2  UNL     1     -68.877  45.776   1.089  1.00  0.00    -0.337 N 
ATOM      3  H2  UNL     1     -68.967  45.982   2.084  1.00  0.00     0.168 HD
HETATM    4  C10 UNL     1     -69.689  44.875   0.524  1.00  0.00     0.183 A 
HETATM    5  N3  UNL     1     -69.597  44.585  -0.772  1.00  0.00    -0.338 N 
ATOM      6  H3  UNL     1     -70.230  43.893  -1.174  1.00  0.00     0.168 HD
HETATM    7  C11 UNL     1     -68.691  45.181  -1.561  1.00  0.00     0.124 A 
HETATM    8  C12 UNL     1     -67.839  46.124  -0.973  1.00  0.00     0.132 A 
HETATM    9  C13 UNL     1     -66.898  46.749  -1.816  1.00  0.00     0.107 C 
HETATM   10  N5  UNL     1     -66.133  47.255  -2.533  1.00  0.00    -0.191 NA
ENDROOT
BRANCH   1  11
HETATM   11  N1  UNL     1     -67.076  47.384   0.977  1.00  0.00    -0.365 N 
HETATM   12  C8  UNL     1     -66.812  48.565   0.195  1.00  0.00     0.124 C 
HETATM   13  C7  UNL     1     -65.689  49.411   0.604  1.00  0.00     0.021 C 
HETATM   14  C6  UNL     1     -65.118  49.169   1.966  1.00  0.00     0.016 C 
HETATM   15  C4  UNL     1     -66.085  48.501   2.904  1.00  0.00     0.014 C 
HETATM   16  C14 UNL     1     -66.502  47.215   2.265  1.00  0.00     0.137 C 
BRANCH  15  17
HETATM   17  C2  UNL     1     -65.412  48.236   4.242  1.00  0.00     0.022 C 
HETATM   18  C1  UNL     1     -65.951  49.069   5.363  1.00  0.00     0.028 C 
HETATM   19  C3  UNL     1     -65.415  46.808   4.656  1.00  0.00     0.028 C 
HETATM   20 BR1  UNL     1     -63.515  48.736   4.101  1.00  0.00    -0.085 Br
ENDBRANCH  15  17
BRANCH  15  21
HETATM   21  C5  UNL     1     -67.207  49.463   3.164  1.00  0.00     0.176 C 
BRANCH  21  22
HETATM   22  O1  UNL     1     -68.453  48.870   3.327  1.00  0.00    -0.400 OA
ATOM     23  H1  UNL     1     -68.663  48.627   4.222  1.00  0.00     0.209 HD
ENDBRANCH  21  22
ENDBRANCH  15  21
ENDBRANCH   1  11
BRANCH   7  24
HETATM   24  N4  UNL     1     -68.578  44.924  -2.813  1.00  0.00    -0.384 N 
ATOM     25  H42 UNL     1     -69.416  44.725  -3.361  1.00  0.00     0.157 HD
ATOM     26  H41 UNL     1     -67.681  44.907  -3.298  1.00  0.00     0.157 HD
ENDBRANCH   7  24
TORSDOF 5
ENDMDL
MODEL 3
REMARK VINA RESULT: -7.201753591      0.786      1.025
REMARK  5 active torsions:
REMARK  status: ('A' for Active; 'I' for Inactive)
REMARK    1  A    between atoms: C2_2  and  C4_5 
REMARK    2  A    between atoms: C4_5  and  C5_6 
REMARK    3  A    between atoms: C5_6  and  O1_7 
REMARK    4  A    between atoms: N1_12  and  C9_13 
REMARK    5  A    between atoms: C11_19  and  N4_20 
ROOT
HETATM    1  C9  UNL     1     -67.499  46.715   0.071  1.00  0.00     0.129 A 
HETATM    2  N2  UNL     1     -67.229  46.569  -1.266  1.00  0.00    -0.337 N 
ATOM      3  H2  UNL     1     -66.491  47.127  -1.695  1.00  0.00     0.168 HD
HETATM    4  C10 UNL     1     -67.923  45.704  -2.016  1.00  0.00     0.183 A 
HETATM    5  N3  UNL     1     -68.892  44.960  -1.487  1.00  0.00    -0.338 N 
ATOM      6  H3  UNL     1     -69.404  44.310  -2.083  1.00  0.00     0.168 HD
HETATM    7  C11 UNL     1     -69.211  45.047  -0.188  1.00  0.00     0.124 A 
HETATM    8  C12 UNL     1     -68.488  45.951   0.600  1.00  0.00     0.132 A 
HETATM    9  C13 UNL     1     -68.829  46.025   1.965  1.00  0.00     0.107 C 
HETATM   10  N5  UNL     1     -69.124  46.065   3.092  1.00  0.00    -0.191 NA
ENDROOT
BRANCH   1  11
HETATM   11  N1  UNL     1     -66.741  47.642   0.843  1.00  0.00    -0.365 N 
HETATM   12  C8  UNL     1     -66.422  48.874   0.167  1.00  0.00     0.124 C 
HETATM   13  C7  UNL     1     -65.364  49.707   0.741  1.00  0.00     0.021 C 
HETATM   14  C6  UNL     1     -64.931  49.388   2.137  1.00  0.00     0.016 C 
HETATM   15  C4  UNL     1     -65.975  48.648   2.928  1.00  0.00     0.014 C 
HETATM   16  C14 UNL     1     -66.298  47.400   2.171  1.00  0.00     0.137 C 
BRANCH  15  17
HETATM   17  C2  UNL     1     -65.437  48.308   4.309  1.00  0.00     0.022 C 
HETATM   18  C1  UNL     1     -63.949  48.441   4.424  1.00  0.00     0.028 C 
HETATM   19  C3  UNL     1     -66.077  49.064   5.417  1.00  0.00     0.028 C 
HETATM   20 BR1  UNL     1     -65.810  46.413   4.681  1.00  0.00    -0.085 Br
ENDBRANCH  15  17
BRANCH  15  21
HETATM   21  C5  UNL     1     -67.137  49.576   3.129  1.00  0.00     0.176 C 
BRANCH  21  22
HETATM   22  O1  UNL     1     -68.366  48.944   3.273  1.00  0.00    -0.400 OA
ATOM     23  H1  UNL     1     -68.315  48.008   3.432  1.00  0.00     0.209 HD
ENDBRANCH  21  22
ENDBRANCH  15  21
ENDBRANCH   1  11
BRANCH   7  24
HETATM   24  N4  UNL     1     -70.139  44.343   0.353  1.00  0.00    -0.384 N 
ATOM     25  H42 UNL     1     -71.018  44.207  -0.147  1.00  0.00     0.157 HD
ATOM     26  H41 UNL     1     -70.043  43.907   1.270  1.00  0.00     0.157 HD
ENDBRANCH   7  24
TORSDOF 5
ENDMDL
MODEL 4
REMARK VINA RESULT: -7.132702457      1.287      2.511
REMARK  5 active torsions:
REMARK  status: ('A' for Active; 'I' for Inactive)
REMARK    1  A    between atoms: C2_2  and  C4_5 
REMARK    2  A    between atoms: C4_5  and  C5_6 
REMARK    3  A    between atoms: C5_6  and  O1_7 
REMARK    4  A    between atoms: N1_12  and  C9_13 
REMARK    5  A    between atoms: C11_19  and  N4_20 
ROOT
HETATM    1  C9  UNL     1     -67.932  46.437   0.178  1.00  0.00     0.129 A 
HETATM    2  N2  UNL     1     -68.884  45.814   0.944  1.00  0.00    -0.337 N 
ATOM      3  H2  UNL     1     -68.971  46.051   1.932  1.00  0.00     0.168 HD
HETATM    4  C10 UNL     1     -69.702  44.897   0.411  1.00  0.00     0.183 A 
HETATM    5  N3  UNL     1     -69.614  44.565  -0.875  1.00  0.00    -0.338 N 
ATOM      6  H3  UNL     1     -70.250  43.863  -1.253  1.00  0.00     0.168 HD
HETATM    7  C11 UNL     1     -68.710  45.133  -1.686  1.00  0.00     0.124 A 
HETATM    8  C12 UNL     1     -67.853  46.092  -1.131  1.00  0.00     0.132 A 
HETATM    9  C13 UNL     1     -66.913  46.686  -1.997  1.00  0.00     0.107 C 
HETATM   10  N5  UNL     1     -66.148  47.168  -2.732  1.00  0.00    -0.191 NA
ENDROOT
BRANCH   1  11
HETATM   11  N1  UNL     1     -67.080  47.411   0.775  1.00  0.00    -0.365 N 
HETATM   12  C8  UNL     1     -66.880  48.602  -0.011  1.00  0.00     0.124 C 
HETATM   13  C7  UNL     1     -65.760  49.473   0.351  1.00  0.00     0.021 C 
HETATM   14  C6  UNL     1     -65.121  49.239   1.684  1.00  0.00     0.016 C 
HETATM   15  C4  UNL     1     -66.028  48.542   2.662  1.00  0.00     0.014 C 
HETATM   16  C14 UNL     1     -66.443  47.250   2.034  1.00  0.00     0.137 C 
BRANCH  15  17
HETATM   17  C2  UNL     1     -65.287  48.287   3.965  1.00  0.00     0.022 C 
HETATM   18  C1  UNL     1     -63.800  48.422   3.849  1.00  0.00     0.028 C 
HETATM   19  C3  UNL     1     -65.759  49.111   5.108  1.00  0.00     0.028 C 
HETATM   20 BR1  UNL     1     -65.588  46.419   4.505  1.00  0.00    -0.085 Br
ENDBRANCH  15  17
BRANCH  15  21
HETATM   21  C5  UNL     1     -67.159  49.475   2.979  1.00  0.00     0.176 C 
BRANCH  21  22
HETATM   22  O1  UNL     1     -68.365  48.847   3.268  1.00  0.00    -0.400 OA
ATOM     23  H1  UNL     1     -68.695  48.284   2.577  1.00  0.00     0.209 HD
ENDBRANCH  21  22
ENDBRANCH  15  21
ENDBRANCH   1  11
BRANCH   7  24
HETATM   24  N4  UNL     1     -68.601  44.835  -2.929  1.00  0.00    -0.384 N 
ATOM     25  H42 UNL     1     -69.409  44.457  -3.426  1.00  0.00     0.157 HD
ATOM     26  H41 UNL     1     -67.737  44.959  -3.457  1.00  0.00     0.157 HD
ENDBRANCH   7  24
TORSDOF 5
ENDMDL
MODEL 5
REMARK VINA RESULT: -7.116792490      0.762      1.004
REMARK  5 active torsions:
REMARK  status: ('A' for Active; 'I' for Inactive)
REMARK    1  A    between atoms: C2_2  and  C4_5 
REMARK    2  A    between atoms: C4_5  and  C5_6 
REMARK    3  A    between atoms: C5_6  and  O1_7 
REMARK    4  A    between atoms: N1_12  and  C9_13 
REMARK    5  A    between atoms: C11_19  and  N4_20 
ROOT
HETATM    1  C9  UNL     1     -67.601  46.666   0.395  1.00  0.00     0.129 A 
HETATM    2  N2  UNL     1     -67.370  46.558  -0.953  1.00  0.00    -0.337 N 
ATOM      3  H2  UNL     1     -66.643  47.126  -1.387  1.00  0.00     0.168 HD
HETATM    4  C10 UNL     1     -68.088  45.716  -1.706  1.00  0.00     0.183 A 
HETATM    5  N3  UNL     1     -69.044  44.960  -1.170  1.00  0.00    -0.338 N 
ATOM      6  H3  UNL     1     -69.575  44.327  -1.770  1.00  0.00     0.168 HD
HETATM    7  C11 UNL     1     -69.325  45.010   0.140  1.00  0.00     0.124 A 
HETATM    8  C12 UNL     1     -68.576  45.890   0.931  1.00  0.00     0.132 A 
HETATM    9  C13 UNL     1     -68.877  45.926   2.308  1.00  0.00     0.107 C 
HETATM   10  N5  UNL     1     -69.139  45.935   3.443  1.00  0.00    -0.191 NA
ENDROOT
BRANCH   1  11
HETATM   11  N1  UNL     1     -66.817  47.569   1.171  1.00  0.00    -0.365 N 
HETATM   12  C8  UNL     1     -66.480  48.802   0.506  1.00  0.00     0.124 C 
HETATM   13  C7  UNL     1     -65.401  49.608   1.079  1.00  0.00     0.021 C 
HETATM   14  C6  UNL     1     -64.961  49.265   2.468  1.00  0.00     0.016 C 
HETATM   15  C4  UNL     1     -66.013  48.537   3.260  1.00  0.00     0.014 C 
HETATM   16  C14 UNL     1     -66.368  47.304   2.492  1.00  0.00     0.137 C 
BRANCH  15  17
HETATM   17  C2  UNL     1     -65.470  48.171   4.632  1.00  0.00     0.022 C 
HETATM   18  C1  UNL     1     -65.875  46.805   5.095  1.00  0.00     0.028 C 
HETATM   19  C3  UNL     1     -63.995  48.307   4.762  1.00  0.00     0.028 C 
HETATM   20 BR1  UNL     1     -66.230  49.407   5.960  1.00  0.00    -0.085 Br
ENDBRANCH  15  17
BRANCH  15  21
HETATM   21  C5  UNL     1     -67.155  49.485   3.482  1.00  0.00     0.176 C 
BRANCH  21  22
HETATM   22  O1  UNL     1     -68.400  48.878   3.591  1.00  0.00    -0.400 OA
ATOM     23  H1  UNL     1     -68.376  47.930   3.650  1.00  0.00     0.209 HD
ENDBRANCH  21  22
ENDBRANCH  15  21
ENDBRANCH   1  11
BRANCH   7  24
HETATM   24  N4  UNL     1     -70.238  44.294   0.687  1.00  0.00    -0.384 N 
ATOM     25  H42 UNL     1     -70.586  44.547   1.612  1.00  0.00     0.157 HD
ATOM     26  H41 UNL     1     -70.642  43.471   0.239  1.00  0.00     0.157 HD
ENDBRANCH   7  24
TORSDOF 5
ENDMDL
