MODEL 1
REMARK VINA RESULT: -6.772889624      0.000      0.000
REMARK  6 active torsions:
REMARK  status: ('A' for Active; 'I' for Inactive)
REMARK    1  A    between atoms: C2_2  and  C3_3 
REMARK    2  A    between atoms: C2_2  and  S1_5 
REMARK    3  A    between atoms: S1_5  and  C4_8 
REMARK    4  A    between atoms: C4_8  and  C5_9 
REMARK    5  A    between atoms: C10_17  and  O3_18 
REMARK    6  A    between atoms: C14_24  and  O5_25 
ROOT
HETATM    1  C5  UNL     1     -65.135  48.612   1.889  1.00  0.00     0.057 C 
HETATM    2  C6  UNL     1     -64.079  49.600   2.297  1.00  0.00     0.240 C 
HETATM    3  N1  UNL     1     -63.030  48.829   2.953  1.00  0.00    -0.072 N 
ATOM      4  H11 UNL     1     -62.172  49.374   3.041  1.00  0.00     0.277 HD
ATOM      5  H12 UNL     1     -62.685  48.083   2.347  1.00  0.00     0.277 HD
HETATM    6  C7  UNL     1     -63.454  48.312   4.225  1.00  0.00     0.273 C 
HETATM    7  C8  UNL     1     -64.949  48.293   4.395  1.00  0.00     0.114 C 
HETATM    8  C9  UNL     1     -65.239  47.136   5.368  1.00  0.00     0.077 C 
HETATM    9  C10 UNL     1     -64.670  47.774   6.644  1.00  0.00     0.155 C 
HETATM   10  C11 UNL     1     -65.180  49.195   6.443  1.00  0.00     0.081 C 
HETATM   11  C12 UNL     1     -66.484  49.274   7.249  1.00  0.00     0.048 C 
HETATM   12  C13 UNL     1     -64.248  50.212   7.051  1.00  0.00     0.048 C 
HETATM   13  O4  UNL     1     -65.409  49.368   5.108  1.00  0.00    -0.363 OA
HETATM   14  C14 UNL     1     -65.703  48.001   3.152  1.00  0.00     0.161 C 
ENDROOT
BRANCH   1  15
HETATM   15  C4  UNL     1     -66.195  49.119   0.984  1.00  0.00     0.149 C 
BRANCH  15  16
HETATM   16  S1  UNL     1     -66.075  48.601  -0.679  1.00  0.00     0.149 S 
HETATM   17  O1  UNL     1     -66.802  49.556  -1.616  1.00  0.00    -0.227 OA
HETATM   18  O2  UNL     1     -64.653  48.491  -1.124  1.00  0.00    -0.227 OA
BRANCH  16  19
HETATM   19  C2  UNL     1     -66.871  47.022  -0.943  1.00  0.00     0.118 C 
HETATM   20  C1  UNL     1     -66.993  46.737  -2.425  1.00  0.00     0.027 C 
BRANCH  19  21
HETATM   21  C3  UNL     1     -68.228  46.975  -0.305  1.00  0.00     0.134 C 
HETATM   22 CL1  UNL     1     -68.270  45.558   0.769  1.00  0.00    -0.129 Cl
ENDBRANCH  19  21
ENDBRANCH  16  19
ENDBRANCH  15  16
ENDBRANCH   1  15
BRANCH  14  23
HETATM   23  O5  UNL     1     -65.882  46.640   2.910  1.00  0.00    -0.392 OA
ATOM     24  H5  UNL     1     -66.202  46.249   3.715  1.00  0.00     0.210 HD
ENDBRANCH  14  23
BRANCH   9  25
HETATM   25  O3  UNL     1     -65.227  47.195   7.778  1.00  0.00    -0.392 OA
ATOM     26  H3  UNL     1     -65.329  47.837   8.470  1.00  0.00     0.210 HD
ENDBRANCH   9  25
TORSDOF 6
ENDMDL
MODEL 2
REMARK VINA RESULT: -6.668958296      1.744      1.969
REMARK  6 active torsions:
REMARK  status: ('A' for Active; 'I' for Inactive)
REMARK    1  A    between atoms: C2_2  and  C3_3 
REMARK    2  A    between atoms: C2_2  and  S1_5 
REMARK    3  A    between atoms: S1_5  and  C4_8 
REMARK    4  A    between atoms: C4_8  and  C5_9 
REMARK    5  A    between atoms: C10_17  and  O3_18 
REMARK    6  A    between atoms: C14_24  and  O5_25 
ROOT
HETATM    1  C5  UNL     1     -65.740  48.151   2.492  1.00  0.00     0.057 C 
HETATM    2  C6  UNL     1     -64.838  49.352   2.481  1.00  0.00     0.240 C 
HETATM    3  N1  UNL     1     -63.509  48.870   2.837  1.00  0.00    -0.072 N 
ATOM      4  H11 UNL     1     -62.793  49.562   2.617  1.00  0.00     0.277 HD
ATOM      5  H12 UNL     1     -63.208  48.122   2.212  1.00  0.00     0.277 HD
HETATM    6  C7  UNL     1     -63.434  48.460   4.213  1.00  0.00     0.273 C 
HETATM    7  C8  UNL     1     -64.780  48.204   4.836  1.00  0.00     0.114 C 
HETATM    8  C9  UNL     1     -64.533  47.153   5.933  1.00  0.00     0.077 C 
HETATM    9  C10 UNL     1     -63.766  48.043   6.922  1.00  0.00     0.155 C 
HETATM   10  C11 UNL     1     -64.593  49.315   6.783  1.00  0.00     0.081 C 
HETATM   11  C12 UNL     1     -65.597  49.272   7.943  1.00  0.00     0.048 C 
HETATM   12  C13 UNL     1     -63.756  50.550   6.998  1.00  0.00     0.048 C 
HETATM   13  O4  UNL     1     -65.227  49.267   5.575  1.00  0.00    -0.363 OA
HETATM   14  C14 UNL     1     -65.783  47.623   3.911  1.00  0.00     0.161 C 
ENDROOT
BRANCH   1  15
HETATM   15  C4  UNL     1     -67.096  48.341   1.922  1.00  0.00     0.149 C 
BRANCH  15  16
HETATM   16  S1  UNL     1     -67.608  47.127   0.777  1.00  0.00     0.149 S 
HETATM   17  O1  UNL     1     -67.212  45.728   1.229  1.00  0.00    -0.227 OA
HETATM   18  O2  UNL     1     -69.086  47.155   0.564  1.00  0.00    -0.227 OA
BRANCH  16  19
HETATM   19  C2  UNL     1     -66.806  47.329  -0.809  1.00  0.00     0.118 C 
HETATM   20  C1  UNL     1     -66.297  48.746  -0.962  1.00  0.00     0.027 C 
BRANCH  19  21
HETATM   21  C3  UNL     1     -67.733  46.999  -1.941  1.00  0.00     0.134 C 
HETATM   22 CL1  UNL     1     -67.674  45.240  -2.191  1.00  0.00    -0.129 Cl
ENDBRANCH  19  21
ENDBRANCH  16  19
ENDBRANCH  15  16
ENDBRANCH   1  15
BRANCH  14  23
HETATM   23  O5  UNL     1     -65.740  46.232   3.837  1.00  0.00    -0.392 OA
ATOM     24  H5  UNL     1     -65.676  45.903   4.726  1.00  0.00     0.210 HD
ENDBRANCH  14  23
BRANCH   9  25
HETATM   25  O3  UNL     1     -63.842  47.532   8.211  1.00  0.00    -0.392 OA
ATOM     26  H3  UNL     1     -63.429  48.119   8.833  1.00  0.00     0.210 HD
ENDBRANCH   9  25
TORSDOF 6
ENDMDL
MODEL 3
REMARK VINA RESULT: -6.594732685      2.049      2.237
REMARK  6 active torsions:
REMARK  status: ('A' for Active; 'I' for Inactive)
REMARK    1  A    between atoms: C2_2  and  C3_3 
REMARK    2  A    between atoms: C2_2  and  S1_5 
REMARK    3  A    between atoms: S1_5  and  C4_8 
REMARK    4  A    between atoms: C4_8  and  C5_9 
REMARK    5  A    between atoms: C10_17  and  O3_18 
REMARK    6  A    between atoms: C14_24  and  O5_25 
ROOT
HETATM    1  C5  UNL     1     -65.622  48.268   2.625  1.00  0.00     0.057 C 
HETATM    2  C6  UNL     1     -64.627  49.393   2.585  1.00  0.00     0.240 C 
HETATM    3  N1  UNL     1     -63.343  48.819   2.967  1.00  0.00    -0.072 N 
ATOM      4  H11 UNL     1     -62.573  49.445   2.732  1.00  0.00     0.277 HD
ATOM      5  H12 UNL     1     -63.098  48.030   2.368  1.00  0.00     0.277 HD
HETATM    6  C7  UNL     1     -63.309  48.449   4.356  1.00  0.00     0.273 C 
HETATM    7  C8  UNL     1     -64.675  48.319   4.974  1.00  0.00     0.114 C 
HETATM    8  C9  UNL     1     -64.519  47.288   6.106  1.00  0.00     0.077 C 
HETATM    9  C10 UNL     1     -63.690  48.146   7.074  1.00  0.00     0.155 C 
HETATM   10  C11 UNL     1     -64.413  49.474   6.887  1.00  0.00     0.081 C 
HETATM   11  C12 UNL     1     -65.425  49.547   8.039  1.00  0.00     0.048 C 
HETATM   12  C13 UNL     1     -63.482  50.645   7.071  1.00  0.00     0.048 C 
HETATM   13  O4  UNL     1     -65.041  49.437   5.676  1.00  0.00    -0.363 OA
HETATM   14  C14 UNL     1     -65.715  47.790   4.059  1.00  0.00     0.161 C 
ENDROOT
BRANCH   1  15
HETATM   15  C4  UNL     1     -66.954  48.546   2.038  1.00  0.00     0.149 C 
BRANCH  15  16
HETATM   16  S1  UNL     1     -67.727  47.193   1.251  1.00  0.00     0.149 S 
HETATM   17  O1  UNL     1     -67.072  45.873   1.634  1.00  0.00    -0.227 OA
HETATM   18  O2  UNL     1     -69.181  47.114   1.584  1.00  0.00    -0.227 OA
BRANCH  16  19
HETATM   19  C2  UNL     1     -67.561  47.275  -0.528  1.00  0.00     0.118 C 
HETATM   20  C1  UNL     1     -67.566  45.882  -1.120  1.00  0.00     0.027 C 
BRANCH  19  21
HETATM   21  C3  UNL     1     -66.307  47.992  -0.933  1.00  0.00     0.134 C 
HETATM   22 CL1  UNL     1     -66.782  49.395  -1.917  1.00  0.00    -0.129 Cl
ENDBRANCH  19  21
ENDBRANCH  16  19
ENDBRANCH  15  16
ENDBRANCH   1  15
BRANCH  14  23
HETATM   23  O5  UNL     1     -65.781  46.399   4.029  1.00  0.00    -0.392 OA
ATOM     24  H5  UNL     1     -66.527  46.140   4.558  1.00  0.00     0.210 HD
ENDBRANCH  14  23
BRANCH   9  25
HETATM   25  O3  UNL     1     -63.815  47.684   8.378  1.00  0.00    -0.392 OA
ATOM     26  H3  UNL     1     -62.963  47.604   8.791  1.00  0.00     0.210 HD
ENDBRANCH   9  25
TORSDOF 6
ENDMDL
MODEL 4
REMARK VINA RESULT: -6.540558003      1.560      1.751
REMARK  6 active torsions:
REMARK  status: ('A' for Active; 'I' for Inactive)
REMARK    1  A    between atoms: C2_2  and  C3_3 
REMARK    2  A    between atoms: C2_2  and  S1_5 
REMARK    3  A    between atoms: S1_5  and  C4_8 
REMARK    4  A    between atoms: C4_8  and  C5_9 
REMARK    5  A    between atoms: C10_17  and  O3_18 
REMARK    6  A    between atoms: C14_24  and  O5_25 
ROOT
HETATM    1  C5  UNL     1     -64.897  48.678   2.581  1.00  0.00     0.057 C 
HETATM    2  C6  UNL     1     -63.642  49.383   3.012  1.00  0.00     0.240 C 
HETATM    3  N1  UNL     1     -62.869  48.410   3.775  1.00  0.00    -0.072 N 
ATOM      4  H11 UNL     1     -61.904  48.719   3.896  1.00  0.00     0.277 HD
ATOM      5  H12 UNL     1     -62.701  47.563   3.231  1.00  0.00     0.277 HD
HETATM    6  C7  UNL     1     -63.481  48.105   5.039  1.00  0.00     0.273 C 
HETATM    7  C8  UNL     1     -64.936  48.485   5.106  1.00  0.00     0.114 C 
HETATM    8  C9  UNL     1     -65.571  47.508   6.112  1.00  0.00     0.077 C 
HETATM    9  C10 UNL     1     -64.924  48.058   7.392  1.00  0.00     0.155 C 
HETATM   10  C11 UNL     1     -65.031  49.547   7.087  1.00  0.00     0.081 C 
HETATM   11  C12 UNL     1     -66.309  50.013   7.797  1.00  0.00     0.048 C 
HETATM   12  C13 UNL     1     -63.899  50.325   7.707  1.00  0.00     0.048 C 
HETATM   13  O4  UNL     1     -65.135  49.686   5.733  1.00  0.00    -0.363 OA
HETATM   14  C14 UNL     1     -65.673  48.318   3.830  1.00  0.00     0.161 C 
ENDROOT
BRANCH   1  15
HETATM   15  C4  UNL     1     -65.737  49.382   1.582  1.00  0.00     0.149 C 
BRANCH  15  16
HETATM   16  S1  UNL     1     -65.074  49.468  -0.031  1.00  0.00     0.149 S 
HETATM   17  O1  UNL     1     -64.643  50.885  -0.385  1.00  0.00    -0.227 OA
HETATM   18  O2  UNL     1     -63.899  48.561  -0.197  1.00  0.00    -0.227 OA
BRANCH  16  19
HETATM   19  C2  UNL     1     -66.290  49.047  -1.273  1.00  0.00     0.118 C 
HETATM   20  C1  UNL     1     -67.098  47.846  -0.829  1.00  0.00     0.027 C 
BRANCH  19  21
HETATM   21  C3  UNL     1     -65.650  48.763  -2.599  1.00  0.00     0.134 C 
HETATM   22 CL1  UNL     1     -66.144  47.130  -3.099  1.00  0.00    -0.129 Cl
ENDBRANCH  19  21
ENDBRANCH  16  19
ENDBRANCH  15  16
ENDBRANCH   1  15
BRANCH  14  23
HETATM   23  O5  UNL     1     -66.190  47.038   3.643  1.00  0.00    -0.392 OA
ATOM     24  H5  UNL     1     -67.081  47.135   3.330  1.00  0.00     0.210 HD
ENDBRANCH  14  23
BRANCH   9  25
HETATM   25  O3  UNL     1     -65.674  47.718   8.511  1.00  0.00    -0.392 OA
ATOM     26  H3  UNL     1     -65.554  48.356   9.205  1.00  0.00     0.210 HD
ENDBRANCH   9  25
TORSDOF 6
ENDMDL
MODEL 5
REMARK VINA RESULT: -6.462185646      2.563      3.126
REMARK  6 active torsions:
REMARK  status: ('A' for Active; 'I' for Inactive)
REMARK    1  A    between atoms: C2_2  and  C3_3 
REMARK    2  A    between atoms: C2_2  and  S1_5 
REMARK    3  A    between atoms: S1_5  and  C4_8 
REMARK    4  A    between atoms: C4_8  and  C5_9 
REMARK    5  A    between atoms: C10_17  and  O3_18 
REMARK    6  A    between atoms: C14_24  and  O5_25 
ROOT
HETATM    1  C5  UNL     1     -67.289  47.712   2.377  1.00  0.00     0.057 C 
HETATM    2  C6  UNL     1     -66.885  46.387   2.960  1.00  0.00     0.240 C 
HETATM    3  N1  UNL     1     -67.590  46.267   4.230  1.00  0.00    -0.072 N 
ATOM      4  H11 UNL     1     -67.570  45.307   4.574  1.00  0.00     0.277 HD
ATOM      5  H12 UNL     1     -68.598  46.372   4.105  1.00  0.00     0.277 HD
HETATM    6  C7  UNL     1     -67.089  47.186   5.216  1.00  0.00     0.273 C 
HETATM    7  C8  UNL     1     -66.298  48.322   4.627  1.00  0.00     0.114 C 
HETATM    8  C9  UNL     1     -66.470  49.496   5.608  1.00  0.00     0.077 C 
HETATM    9  C10 UNL     1     -65.627  48.941   6.766  1.00  0.00     0.155 C 
HETATM   10  C11 UNL     1     -64.483  48.342   5.957  1.00  0.00     0.081 C 
HETATM   11  C12 UNL     1     -63.383  49.412   5.961  1.00  0.00     0.048 C 
HETATM   12  C13 UNL     1     -63.895  47.132   6.636  1.00  0.00     0.048 C 
HETATM   13  O4  UNL     1     -64.947  48.110   4.694  1.00  0.00    -0.363 OA
HETATM   14  C14 UNL     1     -66.790  48.795   3.311  1.00  0.00     0.161 C 
ENDROOT
BRANCH   1  15
HETATM   15  C4  UNL     1     -66.894  47.958   0.969  1.00  0.00     0.149 C 
BRANCH  15  16
HETATM   16  S1  UNL     1     -67.713  46.981  -0.224  1.00  0.00     0.149 S 
HETATM   17  O1  UNL     1     -67.041  45.625  -0.393  1.00  0.00    -0.227 OA
HETATM   18  O2  UNL     1     -69.147  46.758   0.132  1.00  0.00    -0.227 OA
BRANCH  16  19
HETATM   19  C2  UNL     1     -67.644  47.721  -1.850  1.00  0.00     0.118 C 
HETATM   20  C1  UNL     1     -67.012  46.762  -2.836  1.00  0.00     0.027 C 
BRANCH  19  21
HETATM   21  C3  UNL     1     -66.879  49.011  -1.837  1.00  0.00     0.134 C 
HETATM   22 CL1  UNL     1     -65.174  48.630  -2.166  1.00  0.00    -0.129 Cl
ENDBRANCH  19  21
ENDBRANCH  16  19
ENDBRANCH  15  16
ENDBRANCH   1  15
BRANCH  14  23
HETATM   23  O5  UNL     1     -67.792  49.760   3.399  1.00  0.00    -0.392 OA
ATOM     24  H5  UNL     1     -67.725  50.308   2.626  1.00  0.00     0.210 HD
ENDBRANCH  14  23
BRANCH   9  25
HETATM   25  O3  UNL     1     -65.178  49.966   7.588  1.00  0.00    -0.392 OA
ATOM     26  H3  UNL     1     -65.700  50.750   7.466  1.00  0.00     0.210 HD
ENDBRANCH   9  25
TORSDOF 6
ENDMDL
