MODEL 1
REMARK VINA RESULT: -6.058436626      0.000      0.000
REMARK  4 active torsions:
REMARK  status: ('A' for Active; 'I' for Inactive)
REMARK    1  A    between atoms: C3_11  and  C4_12 
REMARK    2  A    between atoms: C4_12  and  N4_13 
REMARK    3  A    between atoms: N5_16  and  C7_17 
REMARK    4  A    between atoms: C7_17  and  C8_18 
ROOT
HETATM    1  N1  UNL     1      41.214  72.372  82.873  1.00  0.00    -0.371 N 
ATOM      2  H11 UNL     1      40.413  72.447  82.246  1.00  0.00     0.159 HD
ATOM      3  H12 UNL     1      41.196  73.173  83.503  1.00  0.00     0.159 HD
HETATM    4  C1  UNL     1      42.104  71.418  82.871  1.00  0.00     0.175 A 
HETATM    5  N2  UNL     1      43.220  71.314  83.743  1.00  0.00    -0.316 N 
ATOM      6  H2  UNL     1      43.455  71.978  84.481  1.00  0.00     0.170 HD
HETATM    7  C2  UNL     1      43.962  70.133  83.427  1.00  0.00     0.105 A 
HETATM    8  N3  UNL     1      44.974  69.775  84.125  1.00  0.00    -0.387 N 
ATOM      9  H31 UNL     1      45.503  68.933  83.900  1.00  0.00     0.157 HD
ATOM     10  H32 UNL     1      45.412  70.188  84.949  1.00  0.00     0.157 HD
HETATM   11  C3  UNL     1      43.325  69.534  82.229  1.00  0.00     0.190 A 
HETATM   12  N6  UNL     1      42.129  70.304  81.994  1.00  0.00    -0.346 N 
ATOM     13  H6  UNL     1      41.411  70.081  81.304  1.00  0.00     0.163 HD
ENDROOT
BRANCH  11  14
HETATM   14  C4  UNL     1      44.243  69.588  81.011  1.00  0.00     0.091 C 
BRANCH  14  15
HETATM   15  N4  UNL     1      45.007  68.433  80.812  1.00  0.00    -0.388 N 
HETATM   16  C5  UNL     1      44.460  67.204  81.286  1.00  0.00     0.152 C 
HETATM   17  C6  UNL     1      43.817  66.361  80.252  1.00  0.00     0.292 C 
HETATM   18  N5  UNL     1      44.346  66.428  78.938  1.00  0.00     0.092 N 
HETATM   19  C9  UNL     1      45.094  67.576  78.576  1.00  0.00     0.292 C 
HETATM   20  C10 UNL     1      45.782  68.339  79.633  1.00  0.00     0.152 C 
BRANCH  18  21
HETATM   21  C7  UNL     1      43.300  66.206  77.951  1.00  0.00     0.283 C 
BRANCH  21  22
HETATM   22  C8  UNL     1      41.923  66.379  78.513  1.00  0.00     0.115 C 
HETATM   23 BR1  UNL     1      40.970  64.696  78.246  1.00  0.00    -0.095 Br
ENDBRANCH  21  22
ENDBRANCH  18  21
ENDBRANCH  14  15
ENDBRANCH  11  14
TORSDOF 4
ENDMDL
MODEL 2
REMARK VINA RESULT: -5.973805603      5.261      7.321
REMARK  4 active torsions:
REMARK  status: ('A' for Active; 'I' for Inactive)
REMARK    1  A    between atoms: C3_11  and  C4_12 
REMARK    2  A    between atoms: C4_12  and  N4_13 
REMARK    3  A    between atoms: N5_16  and  C7_17 
REMARK    4  A    between atoms: C7_17  and  C8_18 
ROOT
HETATM    1  N1  UNL     1      44.521  72.239  92.450  1.00  0.00    -0.371 N 
ATOM      2  H11 UNL     1      45.298  71.660  92.769  1.00  0.00     0.159 HD
ATOM      3  H12 UNL     1      44.089  72.664  93.270  1.00  0.00     0.159 HD
HETATM    4  C1  UNL     1      44.148  72.409  91.212  1.00  0.00     0.175 A 
HETATM    5  N2  UNL     1      43.066  73.216  90.768  1.00  0.00    -0.316 N 
ATOM      6  H2  UNL     1      42.453  73.762  91.372  1.00  0.00     0.170 HD
HETATM    7  C2  UNL     1      42.971  73.142  89.343  1.00  0.00     0.105 A 
HETATM    8  N3  UNL     1      42.120  73.845  88.695  1.00  0.00    -0.387 N 
ATOM      9  H31 UNL     1      42.052  73.793  87.678  1.00  0.00     0.157 HD
ATOM     10  H32 UNL     1      41.422  74.523  89.002  1.00  0.00     0.157 HD
HETATM   11  C3  UNL     1      43.986  72.156  88.896  1.00  0.00     0.190 A 
HETATM   12  N6  UNL     1      44.749  71.817  90.072  1.00  0.00    -0.346 N 
ATOM     13  H6  UNL     1      45.591  71.241  90.082  1.00  0.00     0.163 HD
ENDROOT
BRANCH  11  14
HETATM   14  C4  UNL     1      43.341  70.908  88.300  1.00  0.00     0.091 C 
BRANCH  14  15
HETATM   15  N4  UNL     1      44.174  70.181  87.443  1.00  0.00    -0.388 N 
HETATM   16  C5  UNL     1      43.628  69.000  86.856  1.00  0.00     0.152 C 
HETATM   17  C6  UNL     1      43.152  69.151  85.463  1.00  0.00     0.292 C 
HETATM   18  N5  UNL     1      43.833  70.087  84.643  1.00  0.00     0.092 N 
HETATM   19  C9  UNL     1      44.568  71.121  85.274  1.00  0.00     0.292 C 
HETATM   20  C10 UNL     1      45.089  70.893  86.634  1.00  0.00     0.152 C 
BRANCH  18  21
HETATM   21  C7  UNL     1      42.924  70.672  83.667  1.00  0.00     0.283 C 
BRANCH  21  22
HETATM   22  C8  UNL     1      42.821  69.863  82.410  1.00  0.00     0.115 C 
HETATM   23 BR1  UNL     1      44.637  69.570  81.757  1.00  0.00    -0.095 Br
ENDBRANCH  21  22
ENDBRANCH  18  21
ENDBRANCH  14  15
ENDBRANCH  11  14
TORSDOF 4
ENDMDL
MODEL 3
REMARK VINA RESULT: -5.935803643      6.905      9.277
REMARK  4 active torsions:
REMARK  status: ('A' for Active; 'I' for Inactive)
REMARK    1  A    between atoms: C3_11  and  C4_12 
REMARK    2  A    between atoms: C4_12  and  N4_13 
REMARK    3  A    between atoms: N5_16  and  C7_17 
REMARK    4  A    between atoms: C7_17  and  C8_18 
ROOT
HETATM    1  N1  UNL     1      48.327  74.619  92.331  1.00  0.00    -0.371 N 
ATOM      2  H11 UNL     1      48.974  75.213  91.812  1.00  0.00     0.159 HD
ATOM      3  H12 UNL     1      48.724  74.455  93.256  1.00  0.00     0.159 HD
HETATM    4  C1  UNL     1      47.190  74.153  91.892  1.00  0.00     0.175 A 
HETATM    5  N2  UNL     1      46.289  73.327  92.615  1.00  0.00    -0.316 N 
ATOM      6  H2  UNL     1      46.427  73.001  93.571  1.00  0.00     0.170 HD
HETATM    7  C2  UNL     1      45.159  73.022  91.794  1.00  0.00     0.105 A 
HETATM    8  N3  UNL     1      44.167  72.353  92.248  1.00  0.00    -0.387 N 
ATOM      9  H31 UNL     1      43.360  72.136  91.662  1.00  0.00     0.157 HD
ATOM     10  H32 UNL     1      43.982  71.948  93.166  1.00  0.00     0.157 HD
HETATM   11  C3  UNL     1      45.428  73.610  90.459  1.00  0.00     0.190 A 
HETATM   12  N6  UNL     1      46.638  74.381  90.606  1.00  0.00    -0.346 N 
ATOM     13  H6  UNL     1      47.035  74.995  89.894  1.00  0.00     0.163 HD
ENDROOT
BRANCH  11  14
HETATM   14  C4  UNL     1      45.607  72.535  89.390  1.00  0.00     0.091 C 
BRANCH  14  15
HETATM   15  N4  UNL     1      44.685  72.605  88.340  1.00  0.00    -0.388 N 
HETATM   16  C5  UNL     1      45.204  72.497  87.015  1.00  0.00     0.152 C 
HETATM   17  C6  UNL     1      45.066  71.162  86.392  1.00  0.00     0.292 C 
HETATM   18  N5  UNL     1      43.940  70.384  86.766  1.00  0.00     0.092 N 
HETATM   19  C9  UNL     1      43.301  70.680  87.996  1.00  0.00     0.292 C 
HETATM   20  C10 UNL     1      43.401  72.047  88.537  1.00  0.00     0.152 C 
BRANCH  18  21
HETATM   21  C7  UNL     1      44.259  68.964  86.721  1.00  0.00     0.283 C 
BRANCH  21  22
HETATM   22  C8  UNL     1      43.517  68.235  85.645  1.00  0.00     0.115 C 
HETATM   23 BR1  UNL     1      44.708  68.102  84.104  1.00  0.00    -0.095 Br
ENDBRANCH  21  22
ENDBRANCH  18  21
ENDBRANCH  14  15
ENDBRANCH  11  14
TORSDOF 4
ENDMDL
MODEL 4
REMARK VINA RESULT: -5.835143223      5.252      7.368
REMARK  4 active torsions:
REMARK  status: ('A' for Active; 'I' for Inactive)
REMARK    1  A    between atoms: C3_11  and  C4_12 
REMARK    2  A    between atoms: C4_12  and  N4_13 
REMARK    3  A    between atoms: N5_16  and  C7_17 
REMARK    4  A    between atoms: C7_17  and  C8_18 
ROOT
HETATM    1  N1  UNL     1      44.528  72.211  92.465  1.00  0.00    -0.371 N 
ATOM      2  H11 UNL     1      45.384  71.769  92.800  1.00  0.00     0.159 HD
ATOM      3  H12 UNL     1      43.937  72.404  93.272  1.00  0.00     0.159 HD
HETATM    4  C1  UNL     1      44.242  72.484  91.222  1.00  0.00     0.175 A 
HETATM    5  N2  UNL     1      43.050  73.099  90.754  1.00  0.00    -0.316 N 
ATOM      6  H2  UNL     1      42.275  73.404  91.342  1.00  0.00     0.170 HD
HETATM    7  C2  UNL     1      43.106  73.225  89.331  1.00  0.00     0.105 A 
HETATM    8  N3  UNL     1      42.180  73.821  88.678  1.00  0.00    -0.387 N 
ATOM      9  H31 UNL     1      42.221  73.911  87.662  1.00  0.00     0.157 HD
ATOM     10  H32 UNL     1      41.320  74.279  88.981  1.00  0.00     0.157 HD
HETATM   11  C3  UNL     1      44.356  72.559  88.890  1.00  0.00     0.190 A 
HETATM   12  N6  UNL     1      45.065  72.215  90.098  1.00  0.00    -0.346 N 
ATOM     13  H6  UNL     1      46.012  71.837  90.139  1.00  0.00     0.163 HD
ENDROOT
BRANCH  11  14
HETATM   14  C4  UNL     1      44.072  71.308  88.064  1.00  0.00     0.091 C 
BRANCH  14  15
HETATM   15  N4  UNL     1      45.058  71.003  87.119  1.00  0.00    -0.388 N 
HETATM   16  C5  UNL     1      45.214  69.630  86.765  1.00  0.00     0.152 C 
HETATM   17  C6  UNL     1      44.570  69.229  85.494  1.00  0.00     0.292 C 
HETATM   18  N5  UNL     1      44.488  70.208  84.471  1.00  0.00     0.092 N 
HETATM   19  C9  UNL     1      44.574  71.574  84.842  1.00  0.00     0.292 C 
HETATM   20  C10 UNL     1      45.296  71.930  86.077  1.00  0.00     0.152 C 
BRANCH  18  21
HETATM   21  C7  UNL     1      43.296  70.006  83.660  1.00  0.00     0.283 C 
BRANCH  21  22
HETATM   22  C8  UNL     1      42.030  70.082  84.456  1.00  0.00     0.115 C 
HETATM   23 BR1  UNL     1      40.783  68.792  83.689  1.00  0.00    -0.095 Br
ENDBRANCH  21  22
ENDBRANCH  18  21
ENDBRANCH  14  15
ENDBRANCH  11  14
TORSDOF 4
ENDMDL
MODEL 5
REMARK VINA RESULT: -5.755992848      2.250      2.973
REMARK  4 active torsions:
REMARK  status: ('A' for Active; 'I' for Inactive)
REMARK    1  A    between atoms: C3_11  and  C4_12 
REMARK    2  A    between atoms: C4_12  and  N4_13 
REMARK    3  A    between atoms: N5_16  and  C7_17 
REMARK    4  A    between atoms: C7_17  and  C8_18 
ROOT
HETATM    1  N1  UNL     1      41.222  72.402  82.956  1.00  0.00    -0.371 N 
ATOM      2  H11 UNL     1      40.355  72.487  82.425  1.00  0.00     0.159 HD
ATOM      3  H12 UNL     1      41.285  73.202  83.584  1.00  0.00     0.159 HD
HETATM    4  C1  UNL     1      42.094  71.437  82.852  1.00  0.00     0.175 A 
HETATM    5  N2  UNL     1      43.301  71.319  83.591  1.00  0.00    -0.316 N 
ATOM      6  H2  UNL     1      43.627  71.979  84.297  1.00  0.00     0.170 HD
HETATM    7  C2  UNL     1      43.989  70.131  83.192  1.00  0.00     0.105 A 
HETATM    8  N3  UNL     1      45.070  69.761  83.770  1.00  0.00    -0.387 N 
ATOM      9  H31 UNL     1      45.561  68.913  83.486  1.00  0.00     0.157 HD
ATOM     10  H32 UNL     1      45.604  70.167  84.539  1.00  0.00     0.157 HD
HETATM   11  C3  UNL     1      43.213  69.541  82.075  1.00  0.00     0.190 A 
HETATM   12  N6  UNL     1      42.006  70.324  81.978  1.00  0.00    -0.346 N 
ATOM     13  H6  UNL     1      41.212  70.111  81.374  1.00  0.00     0.163 HD
ENDROOT
BRANCH  11  14
HETATM   14  C4  UNL     1      43.986  69.586  80.760  1.00  0.00     0.091 C 
BRANCH  14  15
HETATM   15  N4  UNL     1      44.171  68.338  80.155  1.00  0.00    -0.388 N 
HETATM   16  C5  UNL     1      45.344  67.611  80.518  1.00  0.00     0.152 C 
HETATM   17  C6  UNL     1      45.137  66.543  81.522  1.00  0.00     0.292 C 
HETATM   18  N5  UNL     1      43.881  65.885  81.521  1.00  0.00     0.092 N 
HETATM   19  C9  UNL     1      42.777  66.551  80.933  1.00  0.00     0.292 C 
HETATM   20  C10 UNL     1      43.030  67.551  79.879  1.00  0.00     0.152 C 
BRANCH  18  21
HETATM   21  C7  UNL     1      43.522  65.458  82.866  1.00  0.00     0.283 C 
BRANCH  21  22
HETATM   22  C8  UNL     1      44.269  66.200  83.930  1.00  0.00     0.115 C 
HETATM   23 BR1  UNL     1      42.946  66.957  85.149  1.00  0.00    -0.095 Br
ENDBRANCH  21  22
ENDBRANCH  18  21
ENDBRANCH  14  15
ENDBRANCH  11  14
TORSDOF 4
ENDMDL
