MODEL 1
REMARK VINA RESULT: -6.432825618      0.000      0.000
REMARK  6 active torsions:
REMARK  status: ('A' for Active; 'I' for Inactive)
REMARK    1  A    between atoms: C2_2  and  C3_3 
REMARK    2  A    between atoms: C4_6  and  N2_7 
REMARK    3  A    between atoms: N2_7  and  C5_9 
REMARK    4  A    between atoms: C5_9  and  C6_10 
REMARK    5  A    between atoms: C6_10  and  N3_11 
REMARK    6  A    between atoms: C8_18  and  N7_19 
ROOT
HETATM    1  C3  UNL     1      36.999  67.835  85.498  1.00  0.00     0.047 A 
HETATM    2  N1  UNL     1      37.221  66.561  85.816  1.00  0.00    -0.194 N 
ATOM      3  H1  UNL     1      38.024  66.094  85.394  1.00  0.00     0.184 HD
HETATM    4  C4  UNL     1      36.437  65.843  86.673  1.00  0.00     0.680 A 
HETATM    5  N6  UNL     1      35.385  66.469  87.223  1.00  0.00    -0.176 N 
ATOM      6  H6  UNL     1      34.791  65.948  87.867  1.00  0.00     0.186 HD
HETATM    7  C8  UNL     1      35.082  67.744  86.965  1.00  0.00     0.134 A 
HETATM    8  C9  UNL     1      35.900  68.432  86.092  1.00  0.00     0.078 A 
HETATM    9 BR1  UNL     1      35.512  70.274  85.668  1.00  0.00    -0.045 Br
ENDROOT
BRANCH   4  10
HETATM   10  N2  UNL     1      36.696  64.635  86.909  1.00  0.00    -0.221 N 
ATOM     11  H2  UNL     1      36.728  64.404  87.903  1.00  0.00     0.178 HD
BRANCH  10  12
HETATM   12  C5  UNL     1      36.951  63.538  86.056  1.00  0.00     0.182 C 
BRANCH  12  13
HETATM   13  C6  UNL     1      38.375  62.994  86.137  1.00  0.00     0.083 C 
BRANCH  13  14
HETATM   14  N3  UNL     1      39.346  63.743  85.500  1.00  0.00    -0.345 N 
HETATM   15  C7  UNL     1      40.046  64.706  85.794  1.00  0.00     0.200 C 
HETATM   16  N4  UNL     1      40.006  65.383  87.054  1.00  0.00    -0.067 NA
HETATM   17  N5  UNL     1      40.989  65.191  84.809  1.00  0.00    -0.067 NA
ATOM     18  H3  UNL     1      39.525  63.414  84.552  1.00  0.00     0.167 HD
ENDBRANCH  13  14
ENDBRANCH  12  13
ENDBRANCH  10  12
ENDBRANCH   4  10
BRANCH   1  19
HETATM   19  C2  UNL     1      37.837  68.614  84.568  1.00  0.00     0.055 C 
HETATM   20  C1  UNL     1      38.658  67.735  83.655  1.00  0.00     0.011 C 
ENDBRANCH   1  19
BRANCH   7  21
HETATM   21  N7  UNL     1      34.053  68.313  87.534  1.00  0.00    -0.384 N 
ATOM     22  H72 UNL     1      33.134  68.323  87.092  1.00  0.00     0.157 HD
ATOM     23  H71 UNL     1      34.146  68.772  88.440  1.00  0.00     0.157 HD
ENDBRANCH   7  21
TORSDOF 6
ENDMDL
MODEL 2
REMARK VINA RESULT: -6.010762108      0.911      2.559
REMARK  6 active torsions:
REMARK  status: ('A' for Active; 'I' for Inactive)
REMARK    1  A    between atoms: C2_2  and  C3_3 
REMARK    2  A    between atoms: C4_6  and  N2_7 
REMARK    3  A    between atoms: N2_7  and  C5_9 
REMARK    4  A    between atoms: C5_9  and  C6_10 
REMARK    5  A    between atoms: C6_10  and  N3_11 
REMARK    6  A    between atoms: C8_18  and  N7_19 
ROOT
HETATM    1  C3  UNL     1      35.187  67.848  86.787  1.00  0.00     0.047 A 
HETATM    2  N1  UNL     1      35.435  66.574  87.087  1.00  0.00    -0.194 N 
ATOM      3  H1  UNL     1      34.784  66.092  87.709  1.00  0.00     0.184 HD
HETATM    4  C4  UNL     1      36.507  65.874  86.612  1.00  0.00     0.680 A 
HETATM    5  N6  UNL     1      37.353  66.518  85.794  1.00  0.00    -0.176 N 
ATOM      6  H6  UNL     1      38.158  66.009  85.428  1.00  0.00     0.186 HD
HETATM    7  C8  UNL     1      37.189  67.794  85.436  1.00  0.00     0.134 A 
HETATM    8  C9  UNL     1      36.093  68.464  85.940  1.00  0.00     0.078 A 
HETATM    9 BR1  UNL     1      35.803  70.312  85.471  1.00  0.00    -0.045 Br
ENDROOT
BRANCH   4  10
HETATM   10  N2  UNL     1      36.688  64.678  86.957  1.00  0.00    -0.221 N 
ATOM     11  H2  UNL     1      36.758  64.543  87.966  1.00  0.00     0.178 HD
BRANCH  10  12
HETATM   12  C5  UNL     1      36.811  63.487  86.208  1.00  0.00     0.182 C 
BRANCH  12  13
HETATM   13  C6  UNL     1      38.215  62.886  86.205  1.00  0.00     0.083 C 
BRANCH  13  14
HETATM   14  N3  UNL     1      39.164  63.569  85.469  1.00  0.00    -0.345 N 
HETATM   15  C7  UNL     1      39.949  64.487  85.683  1.00  0.00     0.200 C 
HETATM   16  N4  UNL     1      40.075  65.170  86.934  1.00  0.00    -0.067 NA
HETATM   17  N5  UNL     1      40.820  64.907  84.606  1.00  0.00    -0.067 NA
ATOM     18  H3  UNL     1      39.228  63.225  84.511  1.00  0.00     0.167 HD
ENDBRANCH  13  14
ENDBRANCH  12  13
ENDBRANCH  10  12
ENDBRANCH   4  10
BRANCH   1  19
HETATM   19  C2  UNL     1      34.036  68.611  87.302  1.00  0.00     0.055 C 
HETATM   20  C1  UNL     1      32.839  68.542  86.384  1.00  0.00     0.011 C 
ENDBRANCH   1  19
BRANCH   7  21
HETATM   21  N7  UNL     1      38.036  68.373  84.627  1.00  0.00    -0.384 N 
ATOM     22  H72 UNL     1      38.807  67.860  84.201  1.00  0.00     0.157 HD
ATOM     23  H71 UNL     1      37.951  69.366  84.408  1.00  0.00     0.157 HD
ENDBRANCH   7  21
TORSDOF 6
ENDMDL
MODEL 3
REMARK VINA RESULT: -6.007644114      1.796      2.473
REMARK  6 active torsions:
REMARK  status: ('A' for Active; 'I' for Inactive)
REMARK    1  A    between atoms: C2_2  and  C3_3 
REMARK    2  A    between atoms: C4_6  and  N2_7 
REMARK    3  A    between atoms: N2_7  and  C5_9 
REMARK    4  A    between atoms: C5_9  and  C6_10 
REMARK    5  A    between atoms: C6_10  and  N3_11 
REMARK    6  A    between atoms: C8_18  and  N7_19 
ROOT
HETATM    1  C3  UNL     1      37.073  67.844  85.495  1.00  0.00     0.047 A 
HETATM    2  N1  UNL     1      37.334  66.591  85.864  1.00  0.00    -0.194 N 
ATOM      3  H1  UNL     1      38.150  66.131  85.459  1.00  0.00     0.184 HD
HETATM    4  C4  UNL     1      36.575  65.887  86.754  1.00  0.00     0.680 A 
HETATM    5  N6  UNL     1      35.507  66.503  87.283  1.00  0.00    -0.176 N 
ATOM      6  H6  UNL     1      34.931  65.992  87.951  1.00  0.00     0.186 HD
HETATM    7  C8  UNL     1      35.165  67.756  86.974  1.00  0.00     0.134 A 
HETATM    8  C9  UNL     1      35.959  68.432  86.069  1.00  0.00     0.078 A 
HETATM    9 BR1  UNL     1      35.515  70.242  85.572  1.00  0.00    -0.045 Br
ENDROOT
BRANCH   4  10
HETATM   10  N2  UNL     1      36.871  64.698  87.039  1.00  0.00    -0.221 N 
ATOM     11  H2  UNL     1      37.402  64.598  87.905  1.00  0.00     0.178 HD
BRANCH  10  12
HETATM   12  C5  UNL     1      36.606  63.474  86.384  1.00  0.00     0.182 C 
BRANCH  12  13
HETATM   13  C6  UNL     1      37.524  63.181  85.200  1.00  0.00     0.083 C 
BRANCH  13  14
HETATM   14  N3  UNL     1      36.897  62.959  83.989  1.00  0.00    -0.345 N 
HETATM   15  C7  UNL     1      36.220  63.628  83.214  1.00  0.00     0.200 C 
HETATM   16  N4  UNL     1      35.864  64.998  83.425  1.00  0.00    -0.067 NA
HETATM   17  N5  UNL     1      35.755  63.000  81.996  1.00  0.00    -0.067 NA
ATOM     18  H3  UNL     1      37.029  62.005  83.656  1.00  0.00     0.167 HD
ENDBRANCH  13  14
ENDBRANCH  12  13
ENDBRANCH  10  12
ENDBRANCH   4  10
BRANCH   1  19
HETATM   19  C2  UNL     1      37.885  68.608  84.530  1.00  0.00     0.055 C 
HETATM   20  C1  UNL     1      38.667  67.715  83.598  1.00  0.00     0.011 C 
ENDBRANCH   1  19
BRANCH   7  21
HETATM   21  N7  UNL     1      34.121  68.317  87.524  1.00  0.00    -0.384 N 
ATOM     22  H72 UNL     1      33.509  67.804  88.157  1.00  0.00     0.157 HD
ATOM     23  H71 UNL     1      33.886  69.289  87.323  1.00  0.00     0.157 HD
ENDBRANCH   7  21
TORSDOF 6
ENDMDL
MODEL 4
REMARK VINA RESULT: -5.981199051      2.100      3.550
REMARK  6 active torsions:
REMARK  status: ('A' for Active; 'I' for Inactive)
REMARK    1  A    between atoms: C2_2  and  C3_3 
REMARK    2  A    between atoms: C4_6  and  N2_7 
REMARK    3  A    between atoms: N2_7  and  C5_9 
REMARK    4  A    between atoms: C5_9  and  C6_10 
REMARK    5  A    between atoms: C6_10  and  N3_11 
REMARK    6  A    between atoms: C8_18  and  N7_19 
ROOT
HETATM    1  C3  UNL     1      35.412  67.512  85.760  1.00  0.00     0.047 A 
HETATM    2  N1  UNL     1      35.568  66.301  86.290  1.00  0.00    -0.194 N 
ATOM      3  H1  UNL     1      34.730  65.773  86.539  1.00  0.00     0.184 HD
HETATM    4  C4  UNL     1      36.783  65.722  86.521  1.00  0.00     0.680 A 
HETATM    5  N6  UNL     1      37.877  66.424  86.188  1.00  0.00    -0.176 N 
ATOM      6  H6  UNL     1      38.792  66.005  86.352  1.00  0.00     0.186 HD
HETATM    7  C8  UNL     1      37.821  67.645  85.651  1.00  0.00     0.134 A 
HETATM    8  C9  UNL     1      36.573  68.193  85.436  1.00  0.00     0.078 A 
HETATM    9 BR1  UNL     1      36.422  69.958  84.672  1.00  0.00    -0.045 Br
ENDROOT
BRANCH   4  10
HETATM   10  N2  UNL     1      36.853  64.581  87.047  1.00  0.00    -0.221 N 
ATOM     11  H2  UNL     1      36.810  64.590  88.066  1.00  0.00     0.178 HD
BRANCH  10  12
HETATM   12  C5  UNL     1      36.981  63.290  86.488  1.00  0.00     0.182 C 
BRANCH  12  13
HETATM   13  C6  UNL     1      37.693  63.254  85.138  1.00  0.00     0.083 C 
BRANCH  13  14
HETATM   14  N3  UNL     1      36.923  62.868  84.058  1.00  0.00    -0.345 N 
HETATM   15  C7  UNL     1      36.137  63.422  83.296  1.00  0.00     0.200 C 
HETATM   16  N4  UNL     1      35.777  64.805  83.369  1.00  0.00    -0.067 NA
HETATM   17  N5  UNL     1      35.537  62.633  82.242  1.00  0.00    -0.067 NA
ATOM     18  H3  UNL     1      37.036  61.878  83.839  1.00  0.00     0.167 HD
ENDBRANCH  13  14
ENDBRANCH  12  13
ENDBRANCH  10  12
ENDBRANCH   4  10
BRANCH   1  19
HETATM   19  C2  UNL     1      34.103  68.145  85.514  1.00  0.00     0.055 C 
HETATM   20  C1  UNL     1      33.521  68.771  86.758  1.00  0.00     0.011 C 
ENDBRANCH   1  19
BRANCH   7  21
HETATM   21  N7  UNL     1      38.916  68.284  85.334  1.00  0.00    -0.384 N 
ATOM     22  H72 UNL     1      38.925  69.294  85.195  1.00  0.00     0.157 HD
ATOM     23  H71 UNL     1      39.794  67.782  85.207  1.00  0.00     0.157 HD
ENDBRANCH   7  21
TORSDOF 6
ENDMDL
MODEL 5
REMARK VINA RESULT: -5.863694572     10.512     11.918
REMARK  6 active torsions:
REMARK  status: ('A' for Active; 'I' for Inactive)
REMARK    1  A    between atoms: C2_2  and  C3_3 
REMARK    2  A    between atoms: C4_6  and  N2_7 
REMARK    3  A    between atoms: N2_7  and  C5_9 
REMARK    4  A    between atoms: C5_9  and  C6_10 
REMARK    5  A    between atoms: C6_10  and  N3_11 
REMARK    6  A    between atoms: C8_18  and  N7_19 
ROOT
HETATM    1  C3  UNL     1      44.859  73.494  88.125  1.00  0.00     0.047 A 
HETATM    2  N1  UNL     1      44.416  74.453  88.936  1.00  0.00    -0.194 N 
ATOM      3  H1  UNL     1      44.701  75.414  88.744  1.00  0.00     0.184 HD
HETATM    4  C4  UNL     1      43.602  74.227  90.008  1.00  0.00     0.680 A 
HETATM    5  N6  UNL     1      43.231  72.960  90.249  1.00  0.00    -0.176 N 
ATOM      6  H6  UNL     1      42.621  72.774  91.044  1.00  0.00     0.186 HD
HETATM    7  C8  UNL     1      43.624  71.932  89.492  1.00  0.00     0.134 A 
HETATM    8  C9  UNL     1      44.448  72.206  88.419  1.00  0.00     0.078 A 
HETATM    9 BR1  UNL     1      45.060  70.765  87.292  1.00  0.00    -0.045 Br
ENDROOT
BRANCH   4  10
HETATM   10  N2  UNL     1      43.240  75.182  90.744  1.00  0.00    -0.221 N 
ATOM     11  H2  UNL     1      42.255  75.153  91.006  1.00  0.00     0.178 HD
BRANCH  10  12
HETATM   12  C5  UNL     1      43.944  76.286  91.273  1.00  0.00     0.182 C 
BRANCH  12  13
HETATM   13  C6  UNL     1      44.553  76.043  92.652  1.00  0.00     0.083 C 
BRANCH  13  14
HETATM   14  N3  UNL     1      44.772  74.722  92.993  1.00  0.00    -0.345 N 
HETATM   15  C7  UNL     1      45.755  73.997  93.114  1.00  0.00     0.200 C 
HETATM   16  N4  UNL     1      47.104  74.417  92.887  1.00  0.00    -0.067 NA
HETATM   17  N5  UNL     1      45.545  72.626  93.524  1.00  0.00    -0.067 NA
ATOM     18  H3  UNL     1      43.904  74.227  93.193  1.00  0.00     0.167 HD
ENDBRANCH  13  14
ENDBRANCH  12  13
ENDBRANCH  10  12
ENDBRANCH   4  10
BRANCH   1  19
HETATM   19  C2  UNL     1      45.744  73.731  86.969  1.00  0.00     0.055 C 
HETATM   20  C1  UNL     1      45.884  75.197  86.639  1.00  0.00     0.011 C 
ENDBRANCH   1  19
BRANCH   7  21
HETATM   21  N7  UNL     1      43.227  70.717  89.761  1.00  0.00    -0.384 N 
ATOM     22  H72 UNL     1      42.876  70.460  90.683  1.00  0.00     0.157 HD
ATOM     23  H71 UNL     1      43.268  69.986  89.050  1.00  0.00     0.157 HD
ENDBRANCH   7  21
TORSDOF 6
ENDMDL
