MODEL 1
REMARK VINA RESULT: -6.967693495      0.000      0.000
REMARK  5 active torsions:
REMARK  status: ('A' for Active; 'I' for Inactive)
REMARK       I    between atoms: C2_5  and  N3_6 
REMARK       I    between atoms: C2_5  and  N4_11 
REMARK    1  A    between atoms: N3_6  and  C3_8 
REMARK    2  A    between atoms: C3_8  and  C4_9 
REMARK    3  A    between atoms: N4_11  and  C5_13 
REMARK    4  A    between atoms: C5_13  and  C6_14 
REMARK    5  A    between atoms: C13_23  and  O1_24 
ROOT
HETATM    1  N1  UNL     1      45.277  72.549  93.328  1.00  0.00    -0.171 NA
HETATM    2  C1  UNL     1      45.362  72.542  92.166  1.00  0.00     0.196 C 
HETATM    3  N2  UNL     1      45.442  72.504  90.820  1.00  0.00    -0.126 N 
ATOM      4  H2  UNL     1      44.971  71.704  90.397  1.00  0.00     0.197 HD
HETATM    5  C2  UNL     1      45.987  73.267  89.996  1.00  0.00     0.682 C 
HETATM    6  N3  UNL     1      46.717  74.463  90.218  1.00  0.00    -0.225 N 
ATOM      7  H3  UNL     1      47.404  74.721  89.508  1.00  0.00     0.177 HD
HETATM    8  N4  UNL     1      45.868  72.844  88.612  1.00  0.00    -0.225 N 
ATOM      9  H4  UNL     1      45.856  73.526  87.854  1.00  0.00     0.177 HD
ENDROOT
BRANCH   6  10
HETATM   10  C3  UNL     1      46.588  75.333  91.328  1.00  0.00     0.153 C 
BRANCH  10  11
HETATM   11  C4  UNL     1      45.679  76.511  91.166  1.00  0.00     0.135 C 
HETATM   12 CL1  UNL     1      43.961  75.998  91.302  1.00  0.00    -0.129 Cl
ENDBRANCH  10  11
ENDBRANCH   6  10
BRANCH   8  13
HETATM   13  C5  UNL     1      45.769  71.462  88.345  1.00  0.00     0.150 C 
BRANCH  13  14
HETATM   14  C6  UNL     1      44.818  71.078  87.276  1.00  0.00     0.010 C 
HETATM   15  C7  UNL     1      44.978  71.814  85.966  1.00  0.00     0.039 C 
HETATM   16  C8  UNL     1      44.245  70.807  85.064  1.00  0.00     0.078 C 
HETATM   17  C9  UNL     1      45.065  69.559  85.428  1.00  0.00     0.030 C 
HETATM   18  N5  UNL     1      42.879  70.667  85.460  1.00  0.00    -0.410 N 
HETATM   19  C10 UNL     1      44.877  69.599  86.935  1.00  0.00     0.002 C 
HETATM   20  C11 UNL     1      43.470  69.063  87.180  1.00  0.00     0.033 C 
HETATM   21  C12 UNL     1      42.668  70.315  86.831  1.00  0.00     0.106 C 
HETATM   22  C13 UNL     1      43.379  71.334  87.708  1.00  0.00     0.151 C 
ATOM     23  H5  UNL     1      42.106  70.807  84.809  1.00  0.00     0.154 HD
BRANCH  22  24
HETATM   24  O1  UNL     1      43.171  71.154  89.050  1.00  0.00    -0.393 OA
ATOM     25  H1  UNL     1      42.274  70.923  89.267  1.00  0.00     0.210 HD
ENDBRANCH  22  24
ENDBRANCH  13  14
ENDBRANCH   8  13
TORSDOF 5
ENDMDL
MODEL 2
REMARK VINA RESULT: -6.717316732      3.462      6.763
REMARK  5 active torsions:
REMARK  status: ('A' for Active; 'I' for Inactive)
REMARK       I    between atoms: C2_5  and  N3_6 
REMARK       I    between atoms: C2_5  and  N4_11 
REMARK    1  A    between atoms: N3_6  and  C3_8 
REMARK    2  A    between atoms: C3_8  and  C4_9 
REMARK    3  A    between atoms: N4_11  and  C5_13 
REMARK    4  A    between atoms: C5_13  and  C6_14 
REMARK    5  A    between atoms: C13_23  and  O1_24 
ROOT
HETATM    1  N1  UNL     1      45.900  73.413  82.981  1.00  0.00    -0.171 NA
HETATM    2  C1  UNL     1      45.617  72.962  84.017  1.00  0.00     0.196 C 
HETATM    3  N2  UNL     1      45.299  72.469  85.233  1.00  0.00    -0.126 N 
ATOM      4  H2  UNL     1      45.495  73.108  86.005  1.00  0.00     0.197 HD
HETATM    5  C2  UNL     1      44.811  71.377  85.588  1.00  0.00     0.682 C 
HETATM    6  N3  UNL     1      44.415  70.266  84.799  1.00  0.00    -0.225 N 
ATOM      7  H3  UNL     1      44.422  69.353  85.254  1.00  0.00     0.177 HD
HETATM    8  N4  UNL     1      44.653  71.224  87.023  1.00  0.00    -0.225 N 
ATOM      9  H4  UNL     1      43.913  70.638  87.410  1.00  0.00     0.177 HD
ENDROOT
BRANCH   6  10
HETATM   10  C3  UNL     1      44.011  70.300  83.442  1.00  0.00     0.153 C 
BRANCH  10  11
HETATM   11  C4  UNL     1      44.761  69.427  82.487  1.00  0.00     0.135 C 
HETATM   12 CL1  UNL     1      45.371  70.395  81.100  1.00  0.00    -0.129 Cl
ENDBRANCH  10  11
ENDBRANCH   6  10
BRANCH   8  13
HETATM   13  C5  UNL     1      45.551  71.910  87.868  1.00  0.00     0.150 C 
BRANCH  13  14
HETATM   14  C6  UNL     1      44.952  72.554  89.060  1.00  0.00     0.010 C 
HETATM   15  C7  UNL     1      44.039  71.677  89.884  1.00  0.00     0.039 C 
HETATM   16  C8  UNL     1      44.090  72.484  91.193  1.00  0.00     0.078 C 
HETATM   17  C9  UNL     1      45.617  72.505  91.371  1.00  0.00     0.030 C 
HETATM   18  N5  UNL     1      43.571  73.801  91.000  1.00  0.00    -0.410 N 
HETATM   19  C10 UNL     1      45.992  73.098  90.024  1.00  0.00     0.002 C 
HETATM   20  C11 UNL     1      45.699  74.591  90.146  1.00  0.00     0.033 C 
HETATM   21  C12 UNL     1      44.184  74.558  89.951  1.00  0.00     0.106 C 
HETATM   22  C13 UNL     1      44.103  73.755  88.662  1.00  0.00     0.151 C 
ATOM     23  H5  UNL     1      42.813  74.177  91.571  1.00  0.00     0.154 HD
BRANCH  22  24
HETATM   24  O1  UNL     1      44.578  74.421  87.563  1.00  0.00    -0.393 OA
ATOM     25  H1  UNL     1      43.947  75.020  87.180  1.00  0.00     0.210 HD
ENDBRANCH  22  24
ENDBRANCH  13  14
ENDBRANCH   8  13
TORSDOF 5
ENDMDL
MODEL 3
REMARK VINA RESULT: -6.604940187      3.281      6.631
REMARK  5 active torsions:
REMARK  status: ('A' for Active; 'I' for Inactive)
REMARK       I    between atoms: C2_5  and  N3_6 
REMARK       I    between atoms: C2_5  and  N4_11 
REMARK    1  A    between atoms: N3_6  and  C3_8 
REMARK    2  A    between atoms: C3_8  and  C4_9 
REMARK    3  A    between atoms: N4_11  and  C5_13 
REMARK    4  A    between atoms: C5_13  and  C6_14 
REMARK    5  A    between atoms: C13_23  and  O1_24 
ROOT
HETATM    1  N1  UNL     1      43.355  66.901  85.702  1.00  0.00    -0.171 NA
HETATM    2  C1  UNL     1      43.447  67.974  86.146  1.00  0.00     0.196 C 
HETATM    3  N2  UNL     1      43.563  69.203  86.691  1.00  0.00    -0.126 N 
ATOM      4  H2  UNL     1      43.858  69.199  87.668  1.00  0.00     0.197 HD
HETATM    5  C2  UNL     1      43.377  70.344  86.220  1.00  0.00     0.682 C 
HETATM    6  N3  UNL     1      42.975  70.727  84.915  1.00  0.00    -0.225 N 
ATOM      7  H3  UNL     1      42.500  71.626  84.826  1.00  0.00     0.177 HD
HETATM    8  N4  UNL     1      43.584  71.427  87.165  1.00  0.00    -0.225 N 
ATOM      9  H4  UNL     1      43.895  72.346  86.850  1.00  0.00     0.177 HD
ENDROOT
BRANCH   6  10
HETATM   10  C3  UNL     1      43.168  69.986  83.723  1.00  0.00     0.153 C 
BRANCH  10  11
HETATM   11  C4  UNL     1      44.553  69.955  83.159  1.00  0.00     0.135 C 
HETATM   12 CL1  UNL     1      44.495  69.902  81.363  1.00  0.00    -0.129 Cl
ENDBRANCH  10  11
ENDBRANCH   6  10
BRANCH   8  13
HETATM   13  C5  UNL     1      43.342  71.173  88.532  1.00  0.00     0.150 C 
BRANCH  13  14
HETATM   14  C6  UNL     1      43.826  72.207  89.476  1.00  0.00     0.010 C 
HETATM   15  C7  UNL     1      44.146  71.718  90.869  1.00  0.00     0.039 C 
HETATM   16  C8  UNL     1      45.057  72.881  91.299  1.00  0.00     0.078 C 
HETATM   17  C9  UNL     1      46.058  72.809  90.135  1.00  0.00     0.030 C 
HETATM   18  N5  UNL     1      44.341  74.118  91.295  1.00  0.00    -0.410 N 
HETATM   19  C10 UNL     1      45.073  72.920  88.985  1.00  0.00     0.002 C 
HETATM   20  C11 UNL     1      44.702  74.399  88.913  1.00  0.00     0.033 C 
HETATM   21  C12 UNL     1      43.696  74.453  90.062  1.00  0.00     0.106 C 
HETATM   22  C13 UNL     1      42.783  73.303  89.664  1.00  0.00     0.151 C 
ATOM     23  H5  UNL     1      44.294  74.722  92.116  1.00  0.00     0.154 HD
BRANCH  22  24
HETATM   24  O1  UNL     1      42.038  73.548  88.541  1.00  0.00    -0.393 OA
ATOM     25  H1  UNL     1      41.703  72.761  88.128  1.00  0.00     0.210 HD
ENDBRANCH  22  24
ENDBRANCH  13  14
ENDBRANCH   8  13
TORSDOF 5
ENDMDL
MODEL 4
REMARK VINA RESULT: -6.463139563     10.322     12.499
REMARK  5 active torsions:
REMARK  status: ('A' for Active; 'I' for Inactive)
REMARK       I    between atoms: C2_5  and  N3_6 
REMARK       I    between atoms: C2_5  and  N4_11 
REMARK    1  A    between atoms: N3_6  and  C3_8 
REMARK    2  A    between atoms: C3_8  and  C4_9 
REMARK    3  A    between atoms: N4_11  and  C5_13 
REMARK    4  A    between atoms: C5_13  and  C6_14 
REMARK    5  A    between atoms: C13_23  and  O1_24 
ROOT
HETATM    1  N1  UNL     1      39.302  65.026  81.803  1.00  0.00    -0.171 NA
HETATM    2  C1  UNL     1      38.525  65.281  82.634  1.00  0.00     0.196 C 
HETATM    3  N2  UNL     1      37.640  65.609  83.598  1.00  0.00    -0.126 N 
ATOM      4  H2  UNL     1      37.741  66.562  83.949  1.00  0.00     0.197 HD
HETATM    5  C2  UNL     1      36.720  64.962  84.139  1.00  0.00     0.682 C 
HETATM    6  N3  UNL     1      36.292  63.631  83.901  1.00  0.00    -0.225 N 
ATOM      7  H3  UNL     1      35.825  63.153  84.673  1.00  0.00     0.177 HD
HETATM    8  N4  UNL     1      36.006  65.683  85.178  1.00  0.00    -0.225 N 
ATOM      9  H4  UNL     1      35.026  65.482  85.377  1.00  0.00     0.177 HD
ENDROOT
BRANCH   6  10
HETATM   10  C3  UNL     1      36.449  62.898  82.699  1.00  0.00     0.153 C 
BRANCH  10  11
HETATM   11  C4  UNL     1      37.267  61.647  82.768  1.00  0.00     0.135 C 
HETATM   12 CL1  UNL     1      38.396  61.714  84.166  1.00  0.00    -0.129 Cl
ENDBRANCH  10  11
ENDBRANCH   6  10
BRANCH   8  13
HETATM   13  C5  UNL     1      36.706  66.668  85.906  1.00  0.00     0.150 C 
BRANCH  13  14
HETATM   14  C6  UNL     1      36.005  67.960  86.083  1.00  0.00     0.010 C 
HETATM   15  C7  UNL     1      36.879  69.190  86.020  1.00  0.00     0.039 C 
HETATM   16  C8  UNL     1      35.778  70.220  85.714  1.00  0.00     0.078 C 
HETATM   17  C9  UNL     1      35.194  69.542  84.464  1.00  0.00     0.030 C 
HETATM   18  N5  UNL     1      34.820  70.273  86.772  1.00  0.00    -0.410 N 
HETATM   19  C10 UNL     1      34.900  68.178  85.065  1.00  0.00     0.002 C 
HETATM   20  C11 UNL     1      33.621  68.364  85.877  1.00  0.00     0.033 C 
HETATM   21  C12 UNL     1      34.216  69.023  87.121  1.00  0.00     0.106 C 
HETATM   22  C13 UNL     1      35.318  68.025  87.443  1.00  0.00     0.151 C 
ATOM     23  H5  UNL     1      34.582  71.143  87.249  1.00  0.00     0.154 HD
BRANCH  22  24
HETATM   24  O1  UNL     1      34.858  66.812  87.882  1.00  0.00    -0.393 OA
ATOM     25  H1  UNL     1      35.527  66.278  88.295  1.00  0.00     0.210 HD
ENDBRANCH  22  24
ENDBRANCH  13  14
ENDBRANCH   8  13
TORSDOF 5
ENDMDL
MODEL 5
REMARK VINA RESULT: -6.435757061      2.672      6.582
REMARK  5 active torsions:
REMARK  status: ('A' for Active; 'I' for Inactive)
REMARK       I    between atoms: C2_5  and  N3_6 
REMARK       I    between atoms: C2_5  and  N4_11 
REMARK    1  A    between atoms: N3_6  and  C3_8 
REMARK    2  A    between atoms: C3_8  and  C4_9 
REMARK    3  A    between atoms: N4_11  and  C5_13 
REMARK    4  A    between atoms: C5_13  and  C6_14 
REMARK    5  A    between atoms: C13_23  and  O1_24 
ROOT
HETATM    1  N1  UNL     1      41.989  69.202  88.252  1.00  0.00    -0.171 NA
HETATM    2  C1  UNL     1      42.718  70.057  88.560  1.00  0.00     0.196 C 
HETATM    3  N2  UNL     1      43.553  71.043  88.950  1.00  0.00    -0.126 N 
ATOM      4  H2  UNL     1      43.553  71.214  89.956  1.00  0.00     0.197 HD
HETATM    5  C2  UNL     1      44.325  71.784  88.308  1.00  0.00     0.682 C 
HETATM    6  N3  UNL     1      44.584  71.825  86.914  1.00  0.00    -0.225 N 
ATOM      7  H3  UNL     1      44.912  72.714  86.533  1.00  0.00     0.177 HD
HETATM    8  N4  UNL     1      45.038  72.757  89.116  1.00  0.00    -0.225 N 
ATOM      9  H4  UNL     1      45.961  73.094  88.839  1.00  0.00     0.177 HD
ENDROOT
BRANCH   6  10
HETATM   10  C3  UNL     1      44.433  70.756  85.998  1.00  0.00     0.153 C 
BRANCH  10  11
HETATM   11  C4  UNL     1      44.370  71.109  84.545  1.00  0.00     0.135 C 
HETATM   12 CL1  UNL     1      45.305  72.611  84.226  1.00  0.00    -0.129 Cl
ENDBRANCH  10  11
ENDBRANCH   6  10
BRANCH   8  13
HETATM   13  C5  UNL     1      44.419  73.225  90.294  1.00  0.00     0.150 C 
BRANCH  13  14
HETATM   14  C6  UNL     1      45.309  73.904  91.265  1.00  0.00     0.010 C 
HETATM   15  C7  UNL     1      46.745  74.071  90.826  1.00  0.00     0.039 C 
HETATM   16  C8  UNL     1      47.131  75.207  91.789  1.00  0.00     0.078 C 
HETATM   17  C9  UNL     1      46.018  76.197  91.408  1.00  0.00     0.030 C 
HETATM   18  N5  UNL     1      47.011  74.787  93.149  1.00  0.00    -0.410 N 
HETATM   19  C10 UNL     1      44.822  75.291  91.645  1.00  0.00     0.002 C 
HETATM   20  C11 UNL     1      44.633  75.262  93.159  1.00  0.00     0.033 C 
HETATM   21  C12 UNL     1      45.732  74.264  93.522  1.00  0.00     0.106 C 
HETATM   22  C13 UNL     1      45.377  73.128  92.575  1.00  0.00     0.151 C 
ATOM     23  H5  UNL     1      47.785  74.854  93.810  1.00  0.00     0.154 HD
BRANCH  22  24
HETATM   24  O1  UNL     1      44.210  72.485  92.893  1.00  0.00    -0.393 OA
ATOM     25  H1  UNL     1      43.905  71.893  92.214  1.00  0.00     0.210 HD
ENDBRANCH  22  24
ENDBRANCH  13  14
ENDBRANCH   8  13
TORSDOF 5
ENDMDL
