MODEL 1
REMARK VINA RESULT: -7.540488772      0.000      0.000
REMARK  5 active torsions:
REMARK  status: ('A' for Active; 'I' for Inactive)
REMARK    1  A    between atoms: C2_2  and  C3_3 
REMARK    2  A    between atoms: N2_6  and  C4_7 
REMARK    3  A    between atoms: C10_15  and  N3_16 
REMARK       I    between atoms: N3_16  and  C11_18 
REMARK    4  A    between atoms: C11_18  and  O4_20 
REMARK    5  A    between atoms: O4_20  and  C12_21 
ROOT
HETATM    1  C3  UNL     1     -16.016 -33.927   5.326  1.00  0.00     0.058 A 
HETATM    2  N1  UNL     1     -15.568 -33.683   6.565  1.00  0.00    -0.297 N 
ATOM      3  H1  UNL     1     -14.710 -33.183   6.798  1.00  0.00     0.187 HD
HETATM    4  N2  UNL     1     -16.421 -34.199   7.436  1.00  0.00    -0.250 N 
HETATM    5  C9  UNL     1     -17.436 -34.785   6.783  1.00  0.00     0.291 A 
HETATM    6  O2  UNL     1     -18.450 -35.389   7.256  1.00  0.00    -0.264 OA
HETATM    7  C10 UNL     1     -17.209 -34.630   5.426  1.00  0.00     0.131 A 
ENDROOT
BRANCH   7   8
HETATM    8  N3  UNL     1     -18.007 -35.081   4.354  1.00  0.00    -0.296 N 
HETATM    9  C11 UNL     1     -19.144 -34.350   3.916  1.00  0.00     0.365 C 
HETATM   10  O3  UNL     1     -19.496 -33.263   4.462  1.00  0.00    -0.238 OA
ATOM     11  H3  UNL     1     -17.763 -35.953   3.883  1.00  0.00     0.171 HD
BRANCH   9  12
HETATM   12  O4  UNL     1     -19.931 -34.791   2.863  1.00  0.00    -0.297 OA
BRANCH  12  13
HETATM   13  C12 UNL     1     -19.874 -36.135   2.434  1.00  0.00     0.153 C 
HETATM   14  C13 UNL     1     -19.287 -36.165   0.979  1.00  0.00     0.113 C 
HETATM   15  C14 UNL     1     -20.075 -37.114   0.332  1.00  0.00    -0.180 C 
HETATM   16  C15 UNL     1     -20.604 -37.976  -0.645  1.00  0.00     0.090 C 
HETATM   17  C16 UNL     1     -21.833 -38.611   0.116  1.00  0.00     0.085 C 
HETATM   18  S1  UNL     1     -21.860 -38.153   1.851  1.00  0.00    -0.166 SA
HETATM   19  C17 UNL     1     -21.270 -36.693   2.507  1.00  0.00     0.107 C 
ENDBRANCH  12  13
ENDBRANCH   9  12
ENDBRANCH   7   8
BRANCH   1  20
HETATM   20  C2  UNL     1     -15.403 -33.544   4.027  1.00  0.00     0.056 C 
HETATM   21  C1  UNL     1     -16.085 -32.294   3.543  1.00  0.00     0.011 C 
ENDBRANCH   1  20
BRANCH   4  22
HETATM   22  C4  UNL     1     -16.274 -34.136   8.869  1.00  0.00     0.116 C 
HETATM   23  C5  UNL     1     -15.512 -32.913   9.326  1.00  0.00     0.053 C 
HETATM   24  C6  UNL     1     -15.440 -32.995  10.851  1.00  0.00     0.169 C 
HETATM   25  O1  UNL     1     -14.722 -34.117  11.213  1.00  0.00    -0.391 OA
HETATM   26  C7  UNL     1     -15.405 -35.287  10.879  1.00  0.00     0.169 C 
HETATM   27  C8  UNL     1     -15.528 -35.357   9.381  1.00  0.00     0.053 C 
ENDBRANCH   4  22
TORSDOF 5
ENDMDL
MODEL 2
REMARK VINA RESULT: -7.507774990      4.122      7.777
REMARK  5 active torsions:
REMARK  status: ('A' for Active; 'I' for Inactive)
REMARK    1  A    between atoms: C2_2  and  C3_3 
REMARK    2  A    between atoms: N2_6  and  C4_7 
REMARK    3  A    between atoms: C10_15  and  N3_16 
REMARK       I    between atoms: N3_16  and  C11_18 
REMARK    4  A    between atoms: C11_18  and  O4_20 
REMARK    5  A    between atoms: O4_20  and  C12_21 
ROOT
HETATM    1  C3  UNL     1     -21.367 -37.615   3.666  1.00  0.00     0.058 A 
HETATM    2  N1  UNL     1     -22.453 -38.376   3.859  1.00  0.00    -0.297 N 
ATOM      3  H1  UNL     1     -22.885 -38.983   3.162  1.00  0.00     0.187 HD
HETATM    4  N2  UNL     1     -22.874 -38.210   5.104  1.00  0.00    -0.250 N 
HETATM    5  C9  UNL     1     -22.073 -37.342   5.740  1.00  0.00     0.291 A 
HETATM    6  O2  UNL     1     -22.140 -36.921   6.938  1.00  0.00    -0.264 OA
HETATM    7  C10 UNL     1     -21.095 -36.939   4.847  1.00  0.00     0.131 A 
ENDROOT
BRANCH   7   8
HETATM    8  N3  UNL     1     -20.035 -36.035   5.069  1.00  0.00    -0.296 N 
HETATM    9  C11 UNL     1     -20.199 -34.638   4.875  1.00  0.00     0.365 C 
HETATM   10  O3  UNL     1     -21.297 -34.135   4.497  1.00  0.00    -0.238 OA
ATOM     11  H3  UNL     1     -19.130 -36.394   5.375  1.00  0.00     0.171 HD
BRANCH   9  12
HETATM   12  O4  UNL     1     -19.158 -33.747   5.092  1.00  0.00    -0.297 OA
BRANCH  12  13
HETATM   13  C12 UNL     1     -17.982 -33.808   4.314  1.00  0.00     0.153 C 
HETATM   14  C13 UNL     1     -17.163 -32.491   4.552  1.00  0.00     0.113 C 
HETATM   15  C14 UNL     1     -16.706 -32.160   3.278  1.00  0.00    -0.180 C 
HETATM   16  C15 UNL     1     -16.060 -31.507   2.214  1.00  0.00     0.090 C 
HETATM   17  C16 UNL     1     -16.535 -32.361   0.974  1.00  0.00     0.085 C 
HETATM   18  S1  UNL     1     -17.438 -33.829   1.476  1.00  0.00    -0.166 SA
HETATM   19  C17 UNL     1     -18.397 -33.981   2.878  1.00  0.00     0.107 C 
ENDBRANCH  12  13
ENDBRANCH   9  12
ENDBRANCH   7   8
BRANCH   1  20
HETATM   20  C2  UNL     1     -20.546 -37.469   2.435  1.00  0.00     0.056 C 
HETATM   21  C1  UNL     1     -21.132 -36.350   1.618  1.00  0.00     0.011 C 
ENDBRANCH   1  20
BRANCH   4  22
HETATM   22  C4  UNL     1     -24.021 -38.867   5.680  1.00  0.00     0.116 C 
HETATM   23  C5  UNL     1     -23.643 -40.016   6.587  1.00  0.00     0.053 C 
HETATM   24  C6  UNL     1     -24.955 -40.602   7.109  1.00  0.00     0.169 C 
HETATM   25  O1  UNL     1     -25.682 -41.105   6.049  1.00  0.00    -0.391 OA
HETATM   26  C7  UNL     1     -26.121 -40.085   5.205  1.00  0.00     0.169 C 
HETATM   27  C8  UNL     1     -24.918 -39.425   4.588  1.00  0.00     0.053 C 
ENDBRANCH   4  22
TORSDOF 5
ENDMDL
MODEL 3
REMARK VINA RESULT: -7.342216823      5.184      6.856
REMARK  5 active torsions:
REMARK  status: ('A' for Active; 'I' for Inactive)
REMARK    1  A    between atoms: C2_2  and  C3_3 
REMARK    2  A    between atoms: N2_6  and  C4_7 
REMARK    3  A    between atoms: C10_15  and  N3_16 
REMARK       I    between atoms: N3_16  and  C11_18 
REMARK    4  A    between atoms: C11_18  and  O4_20 
REMARK    5  A    between atoms: O4_20  and  C12_21 
ROOT
HETATM    1  C3  UNL     1     -21.393 -38.004   2.601  1.00  0.00     0.058 A 
HETATM    2  N1  UNL     1     -22.046 -38.571   3.624  1.00  0.00    -0.297 N 
ATOM      3  H1  UNL     1     -22.924 -39.086   3.556  1.00  0.00     0.187 HD
HETATM    4  N2  UNL     1     -21.365 -38.352   4.739  1.00  0.00    -0.250 N 
HETATM    5  C9  UNL     1     -20.261 -37.641   4.462  1.00  0.00     0.291 A 
HETATM    6  O2  UNL     1     -19.355 -37.230   5.253  1.00  0.00    -0.264 OA
HETATM    7  C10 UNL     1     -20.246 -37.400   3.099  1.00  0.00     0.131 A 
ENDROOT
BRANCH   7   8
HETATM    8  N3  UNL     1     -19.281 -36.693   2.352  1.00  0.00    -0.296 N 
HETATM    9  C11 UNL     1     -19.282 -35.274   2.291  1.00  0.00     0.365 C 
HETATM   10  O3  UNL     1     -20.145 -34.575   2.901  1.00  0.00    -0.238 OA
ATOM     11  H3  UNL     1     -18.565 -37.213   1.844  1.00  0.00     0.171 HD
BRANCH   9  12
HETATM   12  O4  UNL     1     -18.335 -34.576   1.558  1.00  0.00    -0.297 OA
BRANCH  12  13
HETATM   13  C12 UNL     1     -18.504 -34.370   0.172  1.00  0.00     0.153 C 
HETATM   14  C13 UNL     1     -18.591 -35.771  -0.530  1.00  0.00     0.113 C 
HETATM   15  C14 UNL     1     -17.832 -35.600  -1.686  1.00  0.00    -0.180 C 
HETATM   16  C15 UNL     1     -17.191 -35.835  -2.916  1.00  0.00     0.090 C 
HETATM   17  C16 UNL     1     -16.414 -34.479  -3.139  1.00  0.00     0.085 C 
HETATM   18  S1  UNL     1     -16.857 -33.241  -1.918  1.00  0.00    -0.166 SA
HETATM   19  C17 UNL     1     -17.337 -33.551  -0.311  1.00  0.00     0.107 C 
ENDBRANCH  12  13
ENDBRANCH   9  12
ENDBRANCH   7   8
BRANCH   1  20
HETATM   20  C2  UNL     1     -21.765 -37.984   1.161  1.00  0.00     0.056 C 
HETATM   21  C1  UNL     1     -22.282 -39.349   0.798  1.00  0.00     0.011 C 
ENDBRANCH   1  20
BRANCH   4  22
HETATM   22  C4  UNL     1     -21.758 -38.811   6.048  1.00  0.00     0.116 C 
HETATM   23  C5  UNL     1     -21.229 -40.189   6.369  1.00  0.00     0.053 C 
HETATM   24  C6  UNL     1     -21.730 -40.528   7.772  1.00  0.00     0.169 C 
HETATM   25  O1  UNL     1     -23.110 -40.582   7.761  1.00  0.00    -0.391 OA
HETATM   26  C7  UNL     1     -23.666 -39.323   7.537  1.00  0.00     0.169 C 
HETATM   27  C8  UNL     1     -23.273 -38.866   6.159  1.00  0.00     0.053 C 
ENDBRANCH   4  22
TORSDOF 5
ENDMDL
MODEL 4
REMARK VINA RESULT: -7.311903228      2.948      8.611
REMARK  5 active torsions:
REMARK  status: ('A' for Active; 'I' for Inactive)
REMARK    1  A    between atoms: C2_2  and  C3_3 
REMARK    2  A    between atoms: N2_6  and  C4_7 
REMARK    3  A    between atoms: C10_15  and  N3_16 
REMARK       I    between atoms: N3_16  and  C11_18 
REMARK    4  A    between atoms: C11_18  and  O4_20 
REMARK    5  A    between atoms: O4_20  and  C12_21 
ROOT
HETATM    1  C3  UNL     1     -17.546 -33.881   3.981  1.00  0.00     0.058 A 
HETATM    2  N1  UNL     1     -18.044 -34.162   2.769  1.00  0.00    -0.297 N 
ATOM      3  H1  UNL     1     -17.700 -33.787   1.884  1.00  0.00     0.187 HD
HETATM    4  N2  UNL     1     -19.055 -35.006   2.909  1.00  0.00    -0.250 N 
HETATM    5  C9  UNL     1     -19.233 -35.287   4.208  1.00  0.00     0.291 A 
HETATM    6  O2  UNL     1     -20.093 -36.050   4.752  1.00  0.00    -0.264 OA
HETATM    7  C10 UNL     1     -18.281 -34.583   4.926  1.00  0.00     0.131 A 
ENDROOT
BRANCH   7   8
HETATM    8  N3  UNL     1     -18.082 -34.567   6.322  1.00  0.00    -0.296 N 
HETATM    9  C11 UNL     1     -17.359 -35.597   6.981  1.00  0.00     0.365 C 
HETATM   10  O3  UNL     1     -16.860 -36.576   6.352  1.00  0.00    -0.238 OA
ATOM     11  H3  UNL     1     -18.466 -33.797   6.872  1.00  0.00     0.171 HD
BRANCH   9  12
HETATM   12  O4  UNL     1     -17.162 -35.584   8.353  1.00  0.00    -0.297 OA
BRANCH  12  13
HETATM   13  C12 UNL     1     -15.970 -35.069   8.906  1.00  0.00     0.153 C 
HETATM   14  C13 UNL     1     -15.392 -36.128   9.909  1.00  0.00     0.113 C 
HETATM   15  C14 UNL     1     -14.960 -35.352  10.984  1.00  0.00    -0.180 C 
HETATM   16  C15 UNL     1     -14.403 -34.957  12.212  1.00  0.00     0.090 C 
HETATM   17  C16 UNL     1     -14.689 -33.405  12.212  1.00  0.00     0.085 C 
HETATM   18  S1  UNL     1     -15.346 -32.842  10.640  1.00  0.00    -0.166 SA
HETATM   19  C17 UNL     1     -16.307 -33.762   9.572  1.00  0.00     0.107 C 
ENDBRANCH  12  13
ENDBRANCH   9  12
ENDBRANCH   7   8
BRANCH   1  20
HETATM   20  C2  UNL     1     -16.410 -32.987   4.331  1.00  0.00     0.056 C 
HETATM   21  C1  UNL     1     -16.036 -32.210   3.099  1.00  0.00     0.011 C 
ENDBRANCH   1  20
BRANCH   4  22
HETATM   22  C4  UNL     1     -19.841 -35.536   1.822  1.00  0.00     0.116 C 
HETATM   23  C5  UNL     1     -19.791 -37.045   1.745  1.00  0.00     0.053 C 
HETATM   24  C6  UNL     1     -20.662 -37.445   0.555  1.00  0.00     0.169 C 
HETATM   25  O1  UNL     1     -20.113 -36.931  -0.603  1.00  0.00    -0.391 OA
HETATM   26  C7  UNL     1     -20.189 -35.539  -0.627  1.00  0.00     0.169 C 
HETATM   27  C8  UNL     1     -19.343 -34.995   0.492  1.00  0.00     0.053 C 
ENDBRANCH   4  22
TORSDOF 5
ENDMDL
MODEL 5
REMARK VINA RESULT: -7.275740639      2.881      8.377
REMARK  5 active torsions:
REMARK  status: ('A' for Active; 'I' for Inactive)
REMARK    1  A    between atoms: C2_2  and  C3_3 
REMARK    2  A    between atoms: N2_6  and  C4_7 
REMARK    3  A    between atoms: C10_15  and  N3_16 
REMARK       I    between atoms: N3_16  and  C11_18 
REMARK    4  A    between atoms: C11_18  and  O4_20 
REMARK    5  A    between atoms: O4_20  and  C12_21 
ROOT
HETATM    1  C3  UNL     1     -17.299 -32.934   2.454  1.00  0.00     0.058 A 
HETATM    2  N1  UNL     1     -18.002 -33.559   1.499  1.00  0.00    -0.297 N 
ATOM      3  H1  UNL     1     -17.971 -33.345   0.502  1.00  0.00     0.187 HD
HETATM    4  N2  UNL     1     -18.744 -34.500   2.063  1.00  0.00    -0.250 N 
HETATM    5  C9  UNL     1     -18.539 -34.504   3.389  1.00  0.00     0.291 A 
HETATM    6  O2  UNL     1     -19.058 -35.250   4.277  1.00  0.00    -0.264 OA
HETATM    7  C10 UNL     1     -17.617 -33.512   3.676  1.00  0.00     0.131 A 
ENDROOT
BRANCH   7   8
HETATM    8  N3  UNL     1     -17.095 -33.147   4.935  1.00  0.00    -0.296 N 
HETATM    9  C11 UNL     1     -15.877 -33.694   5.420  1.00  0.00     0.365 C 
HETATM   10  O3  UNL     1     -15.202 -34.531   4.751  1.00  0.00    -0.238 OA
ATOM     11  H3  UNL     1     -17.604 -32.475   5.509  1.00  0.00     0.171 HD
BRANCH   9  12
HETATM   12  O4  UNL     1     -15.362 -33.338   6.657  1.00  0.00    -0.297 OA
BRANCH  12  13
HETATM   13  C12 UNL     1     -15.994 -33.753   7.848  1.00  0.00     0.153 C 
HETATM   14  C13 UNL     1     -15.825 -32.619   8.919  1.00  0.00     0.113 C 
HETATM   15  C14 UNL     1     -15.543 -33.320  10.090  1.00  0.00    -0.180 C 
HETATM   16  C15 UNL     1     -15.259 -33.629  11.432  1.00  0.00     0.090 C 
HETATM   17  C16 UNL     1     -15.069 -35.195  11.371  1.00  0.00     0.085 C 
HETATM   18  S1  UNL     1     -15.506 -35.862   9.764  1.00  0.00    -0.166 SA
HETATM   19  C17 UNL     1     -15.358 -35.050   8.271  1.00  0.00     0.107 C 
ENDBRANCH  12  13
ENDBRANCH   9  12
ENDBRANCH   7   8
BRANCH   1  20
HETATM   20  C2  UNL     1     -16.331 -31.814   2.308  1.00  0.00     0.056 C 
HETATM   21  C1  UNL     1     -17.106 -30.526   2.346  1.00  0.00     0.011 C 
ENDBRANCH   1  20
BRANCH   4  22
HETATM   22  C4  UNL     1     -19.636 -35.382   1.352  1.00  0.00     0.116 C 
HETATM   23  C5  UNL     1     -19.645 -36.784   1.916  1.00  0.00     0.053 C 
HETATM   24  C6  UNL     1     -20.625 -37.586   1.060  1.00  0.00     0.169 C 
HETATM   25  O1  UNL     1     -20.157 -37.641  -0.237  1.00  0.00    -0.391 OA
HETATM   26  C7  UNL     1     -20.187 -36.384  -0.841  1.00  0.00     0.169 C 
HETATM   27  C8  UNL     1     -19.232 -35.480  -0.110  1.00  0.00     0.053 C 
ENDBRANCH   4  22
TORSDOF 5
ENDMDL
