MODEL 1
REMARK VINA RESULT: -7.872954031      0.000      0.000
REMARK  6 active torsions:
REMARK  status: ('A' for Active; 'I' for Inactive)
REMARK    1  A    between atoms: C2_2  and  C3_3 
REMARK    2  A    between atoms: C3_3  and  C4_4 
REMARK    3  A    between atoms: N1_6  and  C6_7 
REMARK    4  A    between atoms: C8_13  and  N4_14 
REMARK    5  A    between atoms: C9_19  and  O1_20 
REMARK    6  A    between atoms: C12_25  and  C14_27 
ROOT
HETATM    1  C6  UNL     1     -18.980 -35.787   4.366  1.00  0.00     0.683 A 
HETATM    2  N2  UNL     1     -18.818 -36.149   5.631  1.00  0.00    -0.173 N 
ATOM      3  H2  UNL     1     -18.291 -35.619   6.325  1.00  0.00     0.186 HD
HETATM    4  C7  UNL     1     -19.434 -37.290   5.866  1.00  0.00     0.168 A 
HETATM    5  N3  UNL     1     -19.521 -38.015   7.025  1.00  0.00    -0.174 N 
ATOM      6  H3  UNL     1     -19.075 -37.702   7.886  1.00  0.00     0.186 HD
HETATM    7  C8  UNL     1     -20.224 -39.157   6.972  1.00  0.00     0.679 A 
HETATM    8  N5  UNL     1     -20.810 -39.566   5.841  1.00  0.00    -0.168 N 
ATOM      9  H5  UNL     1     -21.333 -40.442   5.860  1.00  0.00     0.186 HD
HETATM   10  C9  UNL     1     -20.751 -38.894   4.687  1.00  0.00     0.188 A 
HETATM   11  C11 UNL     1     -20.029 -37.702   4.705  1.00  0.00     0.145 A 
HETATM   12  N6  UNL     1     -19.740 -36.767   3.794  1.00  0.00    -0.184 N 
ATOM     13  H6  UNL     1     -20.042 -36.784   2.821  1.00  0.00     0.184 HD
ENDROOT
BRANCH   1  14
HETATM   14  N1  UNL     1     -18.470 -34.634   3.752  1.00  0.00    -0.202 N 
HETATM   15  C5  UNL     1     -18.976 -34.220   2.444  1.00  0.00     0.174 C 
HETATM   16  C4  UNL     1     -17.805 -34.194   1.497  1.00  0.00     0.141 C 
HETATM   17  O2  UNL     1     -16.614 -33.960   2.062  1.00  0.00    -0.371 OA
HETATM   18  C15 UNL     1     -16.544 -33.265   3.258  1.00  0.00     0.081 C 
HETATM   19  C12 UNL     1     -17.443 -33.804   4.350  1.00  0.00     0.089 C 
HETATM   20  C16 UNL     1     -16.683 -31.774   3.043  1.00  0.00     0.048 C 
HETATM   21  C17 UNL     1     -15.085 -33.475   3.684  1.00  0.00     0.048 C 
HETATM   22  C13 UNL     1     -16.646 -34.496   5.428  1.00  0.00     0.043 C 
BRANCH  16  23
HETATM   23  C3  UNL     1     -18.123 -33.272   0.350  1.00  0.00     0.033 C 
BRANCH  23  24
HETATM   24  C2  UNL     1     -17.108 -33.387  -0.774  1.00  0.00    -0.002 C 
HETATM   25  C1  UNL     1     -17.249 -34.661  -1.551  1.00  0.00     0.005 C 
ENDBRANCH  23  24
ENDBRANCH  16  23
BRANCH  19  26
HETATM   26  C14 UNL     1     -18.218 -32.704   5.070  1.00  0.00     0.149 C 
HETATM   27 CL1  UNL     1     -18.065 -32.788   6.831  1.00  0.00    -0.128 Cl
ENDBRANCH  19  26
ENDBRANCH   1  14
BRANCH  10  28
HETATM   28  O1  UNL     1     -21.338 -39.280   3.509  1.00  0.00    -0.339 OA
HETATM   29  C10 UNL     1     -22.579 -38.814   3.064  1.00  0.00     0.211 C 
ENDBRANCH  10  28
BRANCH   7  30
HETATM   30  N4  UNL     1     -20.329 -39.875   8.064  1.00  0.00    -0.234 N 
ATOM     31  H42 UNL     1     -21.200 -40.361   8.276  1.00  0.00     0.174 HD
ATOM     32  H41 UNL     1     -19.523 -39.931   8.687  1.00  0.00     0.174 HD
ENDBRANCH   7  30
TORSDOF 6
ENDMDL
MODEL 2
REMARK VINA RESULT: -7.832918800      2.954      6.653
REMARK  6 active torsions:
REMARK  status: ('A' for Active; 'I' for Inactive)
REMARK    1  A    between atoms: C2_2  and  C3_3 
REMARK    2  A    between atoms: C3_3  and  C4_4 
REMARK    3  A    between atoms: N1_6  and  C6_7 
REMARK    4  A    between atoms: C8_13  and  N4_14 
REMARK    5  A    between atoms: C9_19  and  O1_20 
REMARK    6  A    between atoms: C12_25  and  C14_27 
ROOT
HETATM    1  C6  UNL     1     -19.204 -36.669   5.310  1.00  0.00     0.683 A 
HETATM    2  N2  UNL     1     -17.956 -36.893   5.697  1.00  0.00    -0.173 N 
ATOM      3  H2  UNL     1     -17.604 -37.788   6.036  1.00  0.00     0.186 HD
HETATM    4  C7  UNL     1     -17.234 -35.796   5.580  1.00  0.00     0.168 A 
HETATM    5  N3  UNL     1     -15.911 -35.585   5.866  1.00  0.00    -0.174 N 
ATOM      6  H3  UNL     1     -15.317 -36.330   6.227  1.00  0.00     0.186 HD
HETATM    7  C8  UNL     1     -15.435 -34.349   5.647  1.00  0.00     0.679 A 
HETATM    8  N5  UNL     1     -16.217 -33.372   5.172  1.00  0.00    -0.168 N 
ATOM      9  H5  UNL     1     -15.801 -32.453   5.024  1.00  0.00     0.186 HD
HETATM   10  C9  UNL     1     -17.512 -33.531   4.881  1.00  0.00     0.188 A 
HETATM   11  C11 UNL     1     -18.041 -34.803   5.096  1.00  0.00     0.145 A 
HETATM   12  N6  UNL     1     -19.246 -35.356   4.936  1.00  0.00    -0.184 N 
ATOM     13  H6  UNL     1     -20.073 -34.871   4.587  1.00  0.00     0.184 HD
ENDROOT
BRANCH   1  14
HETATM   14  N1  UNL     1     -20.255 -37.596   5.294  1.00  0.00    -0.202 N 
HETATM   15  C5  UNL     1     -20.655 -38.225   4.036  1.00  0.00     0.174 C 
HETATM   16  C4  UNL     1     -22.103 -37.882   3.801  1.00  0.00     0.141 C 
HETATM   17  O2  UNL     1     -22.825 -37.653   4.905  1.00  0.00    -0.371 OA
HETATM   18  C15 UNL     1     -22.441 -38.221   6.108  1.00  0.00     0.081 C 
HETATM   19  C12 UNL     1     -20.993 -37.981   6.481  1.00  0.00     0.089 C 
HETATM   20  C16 UNL     1     -22.854 -39.673   6.195  1.00  0.00     0.048 C 
HETATM   21  C17 UNL     1     -23.330 -37.489   7.123  1.00  0.00     0.048 C 
HETATM   22  C13 UNL     1     -20.873 -37.002   7.622  1.00  0.00     0.043 C 
BRANCH  16  23
HETATM   23  C3  UNL     1     -22.707 -38.911   2.884  1.00  0.00     0.033 C 
BRANCH  23  24
HETATM   24  C2  UNL     1     -22.835 -38.400   1.459  1.00  0.00    -0.002 C 
HETATM   25  C1  UNL     1     -22.097 -39.252   0.471  1.00  0.00     0.005 C 
ENDBRANCH  23  24
ENDBRANCH  16  23
BRANCH  19  26
HETATM   26  C14 UNL     1     -20.294 -39.248   6.967  1.00  0.00     0.149 C 
HETATM   27 CL1  UNL     1     -20.514 -39.539   8.699  1.00  0.00    -0.128 Cl
ENDBRANCH  19  26
ENDBRANCH   1  14
BRANCH  10  28
HETATM   28  O1  UNL     1     -18.344 -32.556   4.393  1.00  0.00    -0.339 OA
HETATM   29  C10 UNL     1     -17.913 -31.287   3.994  1.00  0.00     0.211 C 
ENDBRANCH  10  28
BRANCH   7  30
HETATM   30  N4  UNL     1     -14.172 -34.112   5.909  1.00  0.00    -0.234 N 
ATOM     31  H42 UNL     1     -13.828 -34.174   6.867  1.00  0.00     0.174 HD
ATOM     32  H41 UNL     1     -13.555 -33.867   5.136  1.00  0.00     0.174 HD
ENDBRANCH   7  30
TORSDOF 6
ENDMDL
MODEL 3
REMARK VINA RESULT: -7.797566973      2.583      3.662
REMARK  6 active torsions:
REMARK  status: ('A' for Active; 'I' for Inactive)
REMARK    1  A    between atoms: C2_2  and  C3_3 
REMARK    2  A    between atoms: C3_3  and  C4_4 
REMARK    3  A    between atoms: N1_6  and  C6_7 
REMARK    4  A    between atoms: C8_13  and  N4_14 
REMARK    5  A    between atoms: C9_19  and  O1_20 
REMARK    6  A    between atoms: C12_25  and  C14_27 
ROOT
HETATM    1  C6  UNL     1     -19.842 -35.704   3.921  1.00  0.00     0.683 A 
HETATM    2  N2  UNL     1     -19.845 -35.902   2.610  1.00  0.00    -0.173 N 
ATOM      3  H2  UNL     1     -19.308 -35.354   1.938  1.00  0.00     0.186 HD
HETATM    4  C7  UNL     1     -20.639 -36.906   2.298  1.00  0.00     0.168 A 
HETATM    5  N3  UNL     1     -20.932 -37.441   1.071  1.00  0.00    -0.174 N 
ATOM      6  H3  UNL     1     -20.521 -37.072   0.214  1.00  0.00     0.186 HD
HETATM    7  C8  UNL     1     -21.787 -38.476   1.051  1.00  0.00     0.679 A 
HETATM    8  N5  UNL     1     -22.325 -38.960   2.177  1.00  0.00    -0.168 N 
ATOM      9  H5  UNL     1     -22.968 -39.749   2.102  1.00  0.00     0.186 HD
HETATM   10  C9  UNL     1     -22.070 -38.470   3.394  1.00  0.00     0.188 A 
HETATM   11  C11 UNL     1     -21.185 -37.394   3.453  1.00  0.00     0.145 A 
HETATM   12  N6  UNL     1     -20.685 -36.645   4.439  1.00  0.00    -0.184 N 
ATOM     13  H6  UNL     1     -20.901 -36.758   5.429  1.00  0.00     0.184 HD
ENDROOT
BRANCH   1  14
HETATM   14  N1  UNL     1     -19.118 -34.727   4.619  1.00  0.00    -0.202 N 
HETATM   15  C5  UNL     1     -19.225 -33.322   4.229  1.00  0.00     0.174 C 
HETATM   16  C4  UNL     1     -17.842 -32.849   3.865  1.00  0.00     0.141 C 
HETATM   17  O2  UNL     1     -16.838 -33.488   4.476  1.00  0.00    -0.371 OA
HETATM   18  C15 UNL     1     -17.054 -34.098   5.701  1.00  0.00     0.081 C 
HETATM   19  C12 UNL     1     -18.245 -35.032   5.735  1.00  0.00     0.089 C 
HETATM   20  C16 UNL     1     -17.043 -33.093   6.832  1.00  0.00     0.048 C 
HETATM   21  C17 UNL     1     -15.780 -34.931   5.891  1.00  0.00     0.048 C 
HETATM   22  C13 UNL     1     -17.812 -36.475   5.799  1.00  0.00     0.043 C 
BRANCH  16  23
HETATM   23  C3  UNL     1     -17.784 -31.352   4.006  1.00  0.00     0.033 C 
BRANCH  23  24
HETATM   24  C2  UNL     1     -17.365 -30.673   2.713  1.00  0.00    -0.002 C 
HETATM   25  C1  UNL     1     -16.223 -31.369   2.039  1.00  0.00     0.005 C 
ENDBRANCH  23  24
ENDBRANCH  16  23
BRANCH  19  26
HETATM   26  C14 UNL     1     -19.120 -34.823   6.968  1.00  0.00     0.149 C 
HETATM   27 CL1  UNL     1     -19.458 -36.326   7.840  1.00  0.00    -0.128 Cl
ENDBRANCH  19  26
ENDBRANCH   1  14
BRANCH  10  28
HETATM   28  O1  UNL     1     -22.601 -38.938   4.569  1.00  0.00    -0.339 OA
HETATM   29  C10 UNL     1     -23.966 -38.917   4.873  1.00  0.00     0.211 C 
ENDBRANCH  10  28
BRANCH   7  30
HETATM   30  N4  UNL     1     -22.089 -39.013  -0.106  1.00  0.00    -0.234 N 
ATOM     31  H42 UNL     1     -21.378 -39.097  -0.833  1.00  0.00     0.174 HD
ATOM     32  H41 UNL     1     -23.044 -39.337  -0.255  1.00  0.00     0.174 HD
ENDBRANCH   7  30
TORSDOF 6
ENDMDL
MODEL 4
REMARK VINA RESULT: -7.753224336      3.188      4.704
REMARK  6 active torsions:
REMARK  status: ('A' for Active; 'I' for Inactive)
REMARK    1  A    between atoms: C2_2  and  C3_3 
REMARK    2  A    between atoms: C3_3  and  C4_4 
REMARK    3  A    between atoms: N1_6  and  C6_7 
REMARK    4  A    between atoms: C8_13  and  N4_14 
REMARK    5  A    between atoms: C9_19  and  O1_20 
REMARK    6  A    between atoms: C12_25  and  C14_27 
ROOT
HETATM    1  C6  UNL     1     -17.739 -34.351   4.873  1.00  0.00     0.683 A 
HETATM    2  N2  UNL     1     -17.085 -35.431   5.277  1.00  0.00    -0.173 N 
ATOM      3  H2  UNL     1     -16.859 -36.230   4.684  1.00  0.00     0.186 HD
HETATM    4  C7  UNL     1     -16.767 -35.327   6.551  1.00  0.00     0.168 A 
HETATM    5  N3  UNL     1     -16.095 -36.205   7.361  1.00  0.00    -0.174 N 
ATOM      6  H3  UNL     1     -15.752 -37.099   7.011  1.00  0.00     0.186 HD
HETATM    7  C8  UNL     1     -15.911 -35.832   8.636  1.00  0.00     0.679 A 
HETATM    8  N5  UNL     1     -16.361 -34.657   9.094  1.00  0.00    -0.168 N 
ATOM      9  H5  UNL     1     -16.191 -34.426  10.072  1.00  0.00     0.186 HD
HETATM   10  C9  UNL     1     -17.021 -33.771   8.343  1.00  0.00     0.188 A 
HETATM   11  C11 UNL     1     -17.232 -34.125   7.011  1.00  0.00     0.145 A 
HETATM   12  N6  UNL     1     -17.826 -33.539   5.968  1.00  0.00    -0.184 N 
ATOM     13  H6  UNL     1     -18.275 -32.624   5.986  1.00  0.00     0.184 HD
ENDROOT
BRANCH   1  14
HETATM   14  N1  UNL     1     -18.236 -34.105   3.585  1.00  0.00    -0.202 N 
HETATM   15  C5  UNL     1     -19.506 -34.697   3.168  1.00  0.00     0.174 C 
HETATM   16  C4  UNL     1     -19.229 -35.552   1.959  1.00  0.00     0.141 C 
HETATM   17  O2  UNL     1     -18.182 -35.174   1.216  1.00  0.00    -0.371 OA
HETATM   18  C15 UNL     1     -17.770 -33.852   1.229  1.00  0.00     0.081 C 
HETATM   19  C12 UNL     1     -17.548 -33.278   2.613  1.00  0.00     0.089 C 
HETATM   20  C16 UNL     1     -18.647 -32.987   0.351  1.00  0.00     0.048 C 
HETATM   21  C17 UNL     1     -16.416 -33.914   0.509  1.00  0.00     0.048 C 
HETATM   22  C13 UNL     1     -16.080 -33.085   2.901  1.00  0.00     0.043 C 
BRANCH  16  23
HETATM   23  C3  UNL     1     -20.502 -35.716   1.174  1.00  0.00     0.033 C 
BRANCH  23  24
HETATM   24  C2  UNL     1     -20.236 -36.116  -0.268  1.00  0.00    -0.002 C 
HETATM   25  C1  UNL     1     -20.269 -37.600  -0.471  1.00  0.00     0.005 C 
ENDBRANCH  23  24
ENDBRANCH  16  23
BRANCH  19  26
HETATM   26  C14 UNL     1     -18.174 -31.896   2.783  1.00  0.00     0.149 C 
HETATM   27 CL1  UNL     1     -17.060 -30.578   2.387  1.00  0.00    -0.128 Cl
ENDBRANCH  19  26
ENDBRANCH   1  14
BRANCH  10  28
HETATM   28  O1  UNL     1     -17.498 -32.559   8.774  1.00  0.00    -0.339 OA
HETATM   29  C10 UNL     1     -18.690 -32.397   9.488  1.00  0.00     0.211 C 
ENDBRANCH  10  28
BRANCH   7  30
HETATM   30  N4  UNL     1     -15.271 -36.649   9.438  1.00  0.00    -0.234 N 
ATOM     31  H42 UNL     1     -15.538 -37.632   9.487  1.00  0.00     0.174 HD
ATOM     32  H41 UNL     1     -14.510 -36.274  10.005  1.00  0.00     0.174 HD
ENDBRANCH   7  30
TORSDOF 6
ENDMDL
MODEL 5
REMARK VINA RESULT: -7.651917228      0.935      1.067
REMARK  6 active torsions:
REMARK  status: ('A' for Active; 'I' for Inactive)
REMARK    1  A    between atoms: C2_2  and  C3_3 
REMARK    2  A    between atoms: C3_3  and  C4_4 
REMARK    3  A    between atoms: N1_6  and  C6_7 
REMARK    4  A    between atoms: C8_13  and  N4_14 
REMARK    5  A    between atoms: C9_19  and  O1_20 
REMARK    6  A    between atoms: C12_25  and  C14_27 
ROOT
HETATM    1  C6  UNL     1     -19.219 -35.769   3.520  1.00  0.00     0.683 A 
HETATM    2  N2  UNL     1     -19.048 -36.418   4.663  1.00  0.00    -0.173 N 
ATOM      3  H2  UNL     1     -18.410 -36.131   5.405  1.00  0.00     0.186 HD
HETATM    4  C7  UNL     1     -19.819 -37.486   4.706  1.00  0.00     0.168 A 
HETATM    5  N3  UNL     1     -19.956 -38.428   5.692  1.00  0.00    -0.174 N 
ATOM      6  H3  UNL     1     -19.422 -38.376   6.558  1.00  0.00     0.186 HD
HETATM    7  C8  UNL     1     -20.828 -39.422   5.461  1.00  0.00     0.679 A 
HETATM    8  N5  UNL     1     -21.529 -39.488   4.323  1.00  0.00    -0.168 N 
ATOM      9  H5  UNL     1     -22.178 -40.265   4.202  1.00  0.00     0.186 HD
HETATM   10  C9  UNL     1     -21.427 -38.594   3.334  1.00  0.00     0.188 A 
HETATM   11  C11 UNL     1     -20.530 -37.546   3.539  1.00  0.00     0.145 A 
HETATM   12  N6  UNL     1     -20.150 -36.485   2.823  1.00  0.00    -0.184 N 
ATOM     13  H6  UNL     1     -20.501 -36.246   1.896  1.00  0.00     0.184 HD
ENDROOT
BRANCH   1  14
HETATM   14  N1  UNL     1     -18.571 -34.592   3.120  1.00  0.00    -0.202 N 
HETATM   15  C5  UNL     1     -18.832 -34.029   1.795  1.00  0.00     0.174 C 
HETATM   16  C4  UNL     1     -17.517 -33.976   1.062  1.00  0.00     0.141 C 
HETATM   17  O2  UNL     1     -16.432 -33.860   1.836  1.00  0.00    -0.371 OA
HETATM   18  C15 UNL     1     -16.540 -33.285   3.092  1.00  0.00     0.081 C 
HETATM   19  C12 UNL     1     -17.631 -33.878   3.960  1.00  0.00     0.089 C 
HETATM   20  C16 UNL     1     -16.587 -31.776   3.011  1.00  0.00     0.048 C 
HETATM   21  C17 UNL     1     -15.184 -33.612   3.729  1.00  0.00     0.048 C 
HETATM   22  C13 UNL     1     -17.054 -34.709   5.079  1.00  0.00     0.043 C 
BRANCH  16  23
HETATM   23  C3  UNL     1     -17.603 -32.935  -0.021  1.00  0.00     0.033 C 
BRANCH  23  24
HETATM   24  C2  UNL     1     -16.914 -33.382  -1.299  1.00  0.00    -0.002 C 
HETATM   25  C1  UNL     1     -17.267 -34.786  -1.685  1.00  0.00     0.005 C 
ENDBRANCH  23  24
ENDBRANCH  16  23
BRANCH  19  26
HETATM   26  C14 UNL     1     -18.476 -32.810   4.651  1.00  0.00     0.149 C 
HETATM   27 CL1  UNL     1     -18.047 -32.582   6.353  1.00  0.00    -0.128 Cl
ENDBRANCH  19  26
ENDBRANCH   1  14
BRANCH  10  28
HETATM   28  O1  UNL     1     -22.127 -38.627   2.155  1.00  0.00    -0.339 OA
HETATM   29  C10 UNL     1     -22.381 -39.796   1.429  1.00  0.00     0.211 C 
ENDBRANCH  10  28
BRANCH   7  30
HETATM   30  N4  UNL     1     -20.984 -40.340   6.384  1.00  0.00    -0.234 N 
ATOM     31  H42 UNL     1     -20.510 -41.239   6.298  1.00  0.00     0.174 HD
ATOM     32  H41 UNL     1     -21.587 -40.129   7.179  1.00  0.00     0.174 HD
ENDBRANCH   7  30
TORSDOF 6
ENDMDL
