MODEL 1
REMARK VINA RESULT: -8.332986226      0.000      0.000
REMARK  6 active torsions:
REMARK  status: ('A' for Active; 'I' for Inactive)
REMARK    1  A    between atoms: C3_3  and  O1_4 
REMARK    2  A    between atoms: O1_4  and  C4_5 
REMARK    3  A    between atoms: C6_7  and  C7_8 
REMARK    4  A    between atoms: C10_12  and  N1_13 
REMARK    5  A    between atoms: C13_17  and  N2_18 
REMARK    6  A    between atoms: C18_26  and  O3_27 
ROOT
HETATM    1  C1  UNL     1     -16.791 -35.966  -3.137  1.00  0.00     0.014 C 
HETATM    2  C2  UNL     1     -16.756 -34.879  -2.586  1.00  0.00    -0.091 C 
HETATM    3  C3  UNL     1     -16.708 -33.561  -1.945  1.00  0.00     0.261 C 
ENDROOT
BRANCH   3   4
HETATM    4  O1  UNL     1     -17.881 -33.420  -1.218  1.00  0.00    -0.371 OA
BRANCH   4   5
HETATM    5  C4  UNL     1     -17.810 -33.918   0.060  1.00  0.00     0.158 C 
HETATM    6  C5  UNL     1     -17.735 -32.836   1.112  1.00  0.00     0.067 C 
HETATM    7  C6  UNL     1     -17.735 -33.485   2.478  1.00  0.00     0.130 C 
HETATM    8  O2  UNL     1     -18.224 -34.771   2.474  1.00  0.00    -0.358 OA
HETATM    9  C10 UNL     1     -19.440 -34.749   1.772  1.00  0.00     0.260 C 
HETATM   10  C18 UNL     1     -19.088 -34.714   0.306  1.00  0.00     0.196 C 
BRANCH   7  11
HETATM   11  C7  UNL     1     -16.345 -33.381   3.061  1.00  0.00     0.006 C 
HETATM   12  C8  UNL     1     -15.862 -31.963   2.928  1.00  0.00     0.012 C 
HETATM   13  C9  UNL     1     -16.296 -33.806   4.503  1.00  0.00     0.012 C 
ENDBRANCH   7  11
BRANCH   9  14
HETATM   14  N1  UNL     1     -20.280 -35.871   2.098  1.00  0.00    -0.319 N 
HETATM   15  C11 UNL     1     -20.636 -36.727   1.126  1.00  0.00     0.120 A 
HETATM   16  C12 UNL     1     -21.445 -37.776   1.533  1.00  0.00     0.076 A 
HETATM   17 CL1  UNL     1     -21.913 -38.904   0.249  1.00  0.00    -0.080 Cl
HETATM   18  C13 UNL     1     -21.870 -37.957   2.825  1.00  0.00     0.062 A 
HETATM   19  C14 UNL     1     -21.483 -37.045   3.823  1.00  0.00     0.026 A 
HETATM   20  C15 UNL     1     -21.801 -37.063   5.135  1.00  0.00     0.024 A 
HETATM   21  C17 UNL     1     -20.686 -36.026   3.386  1.00  0.00     0.090 A 
HETATM   22  C16 UNL     1     -21.299 -36.060   5.911  1.00  0.00     0.053 A 
HETATM   23  S1  UNL     1     -20.403 -35.123   4.804  1.00  0.00    -0.083 SA
BRANCH  18  24
HETATM   24  N2  UNL     1     -22.614 -38.963   3.080  1.00  0.00    -0.397 N 
ATOM     25  H22 UNL     1     -22.463 -39.872   2.643  1.00  0.00     0.156 HD
ATOM     26  H21 UNL     1     -23.380 -38.840   3.744  1.00  0.00     0.156 HD
ENDBRANCH  18  24
ENDBRANCH   9  14
BRANCH  10  27
HETATM   27  O3  UNL     1     -20.107 -34.103  -0.402  1.00  0.00    -0.389 OA
ATOM     28  H3  UNL     1     -20.916 -34.241   0.078  1.00  0.00     0.210 HD
ENDBRANCH  10  27
ENDBRANCH   4   5
ENDBRANCH   3   4
TORSDOF 6
ENDMDL
MODEL 2
REMARK VINA RESULT: -8.247724721      3.144      7.128
REMARK  6 active torsions:
REMARK  status: ('A' for Active; 'I' for Inactive)
REMARK    1  A    between atoms: C3_3  and  O1_4 
REMARK    2  A    between atoms: O1_4  and  C4_5 
REMARK    3  A    between atoms: C6_7  and  C7_8 
REMARK    4  A    between atoms: C10_12  and  N1_13 
REMARK    5  A    between atoms: C13_17  and  N2_18 
REMARK    6  A    between atoms: C18_26  and  O3_27 
ROOT
HETATM    1  C1  UNL     1     -20.613 -40.112   5.842  1.00  0.00     0.014 C 
HETATM    2  C2  UNL     1     -21.535 -39.405   5.474  1.00  0.00    -0.091 C 
HETATM    3  C3  UNL     1     -22.657 -38.562   5.050  1.00  0.00     0.261 C 
ENDROOT
BRANCH   3   4
HETATM    4  O1  UNL     1     -22.151 -37.290   4.832  1.00  0.00    -0.371 OA
BRANCH   4   5
HETATM    5  C4  UNL     1     -21.296 -37.204   3.760  1.00  0.00     0.158 C 
HETATM    6  C5  UNL     1     -22.017 -37.040   2.442  1.00  0.00     0.067 C 
HETATM    7  C6  UNL     1     -20.992 -36.882   1.343  1.00  0.00     0.130 C 
HETATM    8  O2  UNL     1     -19.752 -36.496   1.800  1.00  0.00    -0.358 OA
HETATM    9  C10 UNL     1     -19.952 -35.401   2.657  1.00  0.00     0.260 C 
HETATM   10  C18 UNL     1     -20.431 -35.966   3.970  1.00  0.00     0.196 C 
BRANCH   7  11
HETATM   11  C7  UNL     1     -20.952 -38.158   0.533  1.00  0.00     0.006 C 
HETATM   12  C8  UNL     1     -22.331 -38.757   0.495  1.00  0.00     0.012 C 
HETATM   13  C9  UNL     1     -20.454 -37.931  -0.868  1.00  0.00     0.012 C 
ENDBRANCH   7  11
BRANCH   9  14
HETATM   14  N1  UNL     1     -18.762 -34.606   2.813  1.00  0.00    -0.319 N 
HETATM   15  C11 UNL     1     -18.266 -34.406   4.046  1.00  0.00     0.120 A 
HETATM   16  C12 UNL     1     -17.120 -33.629   4.098  1.00  0.00     0.076 A 
HETATM   17 CL1  UNL     1     -16.467 -33.366   5.725  1.00  0.00    -0.080 Cl
HETATM   18  C13 UNL     1     -16.510 -33.088   2.995  1.00  0.00     0.062 A 
HETATM   19  C14 UNL     1     -17.051 -33.314   1.717  1.00  0.00     0.026 A 
HETATM   20  C15 UNL     1     -16.592 -32.867   0.528  1.00  0.00     0.024 A 
HETATM   21  C17 UNL     1     -18.179 -34.083   1.703  1.00  0.00     0.090 A 
HETATM   22  C16 UNL     1     -17.296 -33.222  -0.584  1.00  0.00     0.053 A 
HETATM   23  S1  UNL     1     -18.570 -34.163   0.045  1.00  0.00    -0.083 SA
BRANCH  18  24
HETATM   24  N2  UNL     1     -15.456 -32.388   3.169  1.00  0.00    -0.397 N 
ATOM     25  H22 UNL     1     -14.659 -32.445   2.536  1.00  0.00     0.156 HD
ATOM     26  H21 UNL     1     -15.424 -31.756   3.970  1.00  0.00     0.156 HD
ENDBRANCH  18  24
ENDBRANCH   9  14
BRANCH  10  27
HETATM   27  O3  UNL     1     -21.199 -35.023   4.629  1.00  0.00    -0.389 OA
ATOM     28  H3  UNL     1     -20.807 -34.171   4.474  1.00  0.00     0.210 HD
ENDBRANCH  10  27
ENDBRANCH   4   5
ENDBRANCH   3   4
TORSDOF 6
ENDMDL
MODEL 3
REMARK VINA RESULT: -8.172509214      3.422      5.978
REMARK  6 active torsions:
REMARK  status: ('A' for Active; 'I' for Inactive)
REMARK    1  A    between atoms: C3_3  and  O1_4 
REMARK    2  A    between atoms: O1_4  and  C4_5 
REMARK    3  A    between atoms: C6_7  and  C7_8 
REMARK    4  A    between atoms: C10_12  and  N1_13 
REMARK    5  A    between atoms: C13_17  and  N2_18 
REMARK    6  A    between atoms: C18_26  and  O3_27 
ROOT
HETATM    1  C1  UNL     1     -15.315 -36.363  10.502  1.00  0.00     0.014 C 
HETATM    2  C2  UNL     1     -15.310 -35.564   9.582  1.00  0.00    -0.091 C 
HETATM    3  C3  UNL     1     -15.283 -34.593   8.484  1.00  0.00     0.261 C 
ENDROOT
BRANCH   3   4
HETATM    4  O1  UNL     1     -15.461 -35.305   7.307  1.00  0.00    -0.371 OA
BRANCH   4   5
HETATM    5  C4  UNL     1     -16.407 -34.770   6.468  1.00  0.00     0.158 C 
HETATM    6  C5  UNL     1     -15.852 -34.399   5.111  1.00  0.00     0.067 C 
HETATM    7  C6  UNL     1     -16.982 -33.892   4.245  1.00  0.00     0.130 C 
HETATM    8  O2  UNL     1     -18.228 -34.277   4.687  1.00  0.00    -0.358 OA
HETATM    9  C10 UNL     1     -18.171 -35.660   4.927  1.00  0.00     0.260 C 
HETATM   10  C18 UNL     1     -17.476 -35.836   6.253  1.00  0.00     0.196 C 
BRANCH   7  11
HETATM   11  C7  UNL     1     -16.843 -32.394   4.099  1.00  0.00     0.006 C 
HETATM   12  C8  UNL     1     -16.273 -32.085   2.742  1.00  0.00     0.012 C 
HETATM   13  C9  UNL     1     -18.153 -31.678   4.279  1.00  0.00     0.012 C 
ENDBRANCH   7  11
BRANCH   9  14
HETATM   14  N1  UNL     1     -19.475 -36.270   4.915  1.00  0.00    -0.319 N 
HETATM   15  C11 UNL     1     -20.116 -36.466   6.080  1.00  0.00     0.120 A 
HETATM   16  C12 UNL     1     -21.364 -37.059   5.970  1.00  0.00     0.076 A 
HETATM   17 CL1  UNL     1     -22.208 -37.317   7.507  1.00  0.00    -0.080 Cl
HETATM   18  C13 UNL     1     -21.933 -37.431   4.778  1.00  0.00     0.062 A 
HETATM   19  C14 UNL     1     -21.239 -37.214   3.575  1.00  0.00     0.026 A 
HETATM   20  C15 UNL     1     -21.637 -37.512   2.320  1.00  0.00     0.024 A 
HETATM   21  C17 UNL     1     -20.014 -36.629   3.720  1.00  0.00     0.090 A 
HETATM   22  C16 UNL     1     -20.780 -37.202   1.305  1.00  0.00     0.053 A 
HETATM   23  S1  UNL     1     -19.451 -36.509   2.116  1.00  0.00    -0.083 SA
BRANCH  18  24
HETATM   24  N2  UNL     1     -23.090 -37.970   4.804  1.00  0.00    -0.397 N 
ATOM     25  H22 UNL     1     -23.645 -38.019   5.659  1.00  0.00     0.156 HD
ATOM     26  H21 UNL     1     -23.460 -38.359   3.936  1.00  0.00     0.156 HD
ENDBRANCH  18  24
ENDBRANCH   9  14
BRANCH  10  27
HETATM   27  O3  UNL     1     -16.852 -37.070   6.290  1.00  0.00    -0.389 OA
ATOM     28  H3  UNL     1     -17.217 -37.558   7.019  1.00  0.00     0.210 HD
ENDBRANCH  10  27
ENDBRANCH   4   5
ENDBRANCH   3   4
TORSDOF 6
ENDMDL
MODEL 4
REMARK VINA RESULT: -8.095791212      3.088      6.429
REMARK  6 active torsions:
REMARK  status: ('A' for Active; 'I' for Inactive)
REMARK    1  A    between atoms: C3_3  and  O1_4 
REMARK    2  A    between atoms: O1_4  and  C4_5 
REMARK    3  A    between atoms: C6_7  and  C7_8 
REMARK    4  A    between atoms: C10_12  and  N1_13 
REMARK    5  A    between atoms: C13_17  and  N2_18 
REMARK    6  A    between atoms: C18_26  and  O3_27 
ROOT
HETATM    1  C1  UNL     1     -22.417 -40.035   1.313  1.00  0.00     0.014 C 
HETATM    2  C2  UNL     1     -22.328 -39.445   2.377  1.00  0.00    -0.091 C 
HETATM    3  C3  UNL     1     -22.203 -38.751   3.661  1.00  0.00     0.261 C 
ENDROOT
BRANCH   3   4
HETATM    4  O1  UNL     1     -22.209 -37.390   3.390  1.00  0.00    -0.371 OA
BRANCH   4   5
HETATM    5  C4  UNL     1     -21.101 -36.952   2.706  1.00  0.00     0.158 C 
HETATM    6  C5  UNL     1     -21.442 -36.016   1.568  1.00  0.00     0.067 C 
HETATM    7  C6  UNL     1     -20.157 -35.537   0.931  1.00  0.00     0.130 C 
HETATM    8  O2  UNL     1     -19.055 -35.680   1.743  1.00  0.00    -0.358 OA
HETATM    9  C10 UNL     1     -19.393 -35.142   2.996  1.00  0.00     0.260 C 
HETATM   10  C18 UNL     1     -20.236 -36.179   3.695  1.00  0.00     0.196 C 
BRANCH   7  11
HETATM   11  C7  UNL     1     -19.998 -36.220  -0.408  1.00  0.00     0.006 C 
HETATM   12  C8  UNL     1     -18.682 -35.815  -1.011  1.00  0.00     0.012 C 
HETATM   13  C9  UNL     1     -20.072 -37.718  -0.298  1.00  0.00     0.012 C 
ENDBRANCH   7  11
BRANCH   9  14
HETATM   14  N1  UNL     1     -18.232 -34.781   3.766  1.00  0.00    -0.319 N 
HETATM   15  C11 UNL     1     -17.966 -35.449   4.902  1.00  0.00     0.120 A 
HETATM   16  C12 UNL     1     -16.830 -35.032   5.575  1.00  0.00     0.076 A 
HETATM   17 CL1  UNL     1     -16.480 -35.914   7.072  1.00  0.00    -0.080 Cl
HETATM   18  C13 UNL     1     -16.013 -34.016   5.145  1.00  0.00     0.062 A 
HETATM   19  C14 UNL     1     -16.316 -33.334   3.953  1.00  0.00     0.026 A 
HETATM   20  C15 UNL     1     -15.635 -32.319   3.380  1.00  0.00     0.024 A 
HETATM   21  C17 UNL     1     -17.442 -33.771   3.316  1.00  0.00     0.090 A 
HETATM   22  C16 UNL     1     -16.131 -31.818   2.213  1.00  0.00     0.053 A 
HETATM   23  S1  UNL     1     -17.523 -32.764   1.944  1.00  0.00    -0.083 SA
BRANCH  18  24
HETATM   24  N2  UNL     1     -14.992 -33.722   5.853  1.00  0.00    -0.397 N 
ATOM     25  H22 UNL     1     -14.839 -34.127   6.776  1.00  0.00     0.156 HD
ATOM     26  H21 UNL     1     -14.316 -33.060   5.471  1.00  0.00     0.156 HD
ENDBRANCH  18  24
ENDBRANCH   9  14
BRANCH  10  27
HETATM   27  O3  UNL     1     -21.080 -35.559   4.598  1.00  0.00    -0.389 OA
ATOM     28  H3  UNL     1     -20.850 -35.867   5.467  1.00  0.00     0.210 HD
ENDBRANCH  10  27
ENDBRANCH   4   5
ENDBRANCH   3   4
TORSDOF 6
ENDMDL
MODEL 5
REMARK VINA RESULT: -7.939450145      3.455      7.053
REMARK  6 active torsions:
REMARK  status: ('A' for Active; 'I' for Inactive)
REMARK    1  A    between atoms: C3_3  and  O1_4 
REMARK    2  A    between atoms: O1_4  and  C4_5 
REMARK    3  A    between atoms: C6_7  and  C7_8 
REMARK    4  A    between atoms: C10_12  and  N1_13 
REMARK    5  A    between atoms: C13_17  and  N2_18 
REMARK    6  A    between atoms: C18_26  and  O3_27 
ROOT
HETATM    1  C1  UNL     1     -20.884 -40.123   5.919  1.00  0.00     0.014 C 
HETATM    2  C2  UNL     1     -21.746 -39.414   5.429  1.00  0.00    -0.091 C 
HETATM    3  C3  UNL     1     -22.799 -38.572   4.854  1.00  0.00     0.261 C 
ENDROOT
BRANCH   3   4
HETATM    4  O1  UNL     1     -22.305 -37.277   4.812  1.00  0.00    -0.371 OA
BRANCH   4   5
HETATM    5  C4  UNL     1     -21.208 -37.122   4.001  1.00  0.00     0.158 C 
HETATM    6  C5  UNL     1     -21.537 -36.465   2.680  1.00  0.00     0.067 C 
HETATM    7  C6  UNL     1     -20.257 -36.276   1.898  1.00  0.00     0.130 C 
HETATM    8  O2  UNL     1     -19.125 -36.319   2.680  1.00  0.00    -0.358 OA
HETATM    9  C10 UNL     1     -19.346 -35.463   3.771  1.00  0.00     0.260 C 
HETATM   10  C18 UNL     1     -20.227 -36.215   4.736  1.00  0.00     0.196 C 
BRANCH   7  11
HETATM   11  C7  UNL     1     -20.232 -37.277   0.765  1.00  0.00     0.006 C 
HETATM   12  C8  UNL     1     -21.564 -37.970   0.694  1.00  0.00     0.012 C 
HETATM   13  C9  UNL     1     -19.917 -36.635  -0.558  1.00  0.00     0.012 C 
ENDBRANCH   7  11
BRANCH   9  14
HETATM   14  N1  UNL     1     -18.116 -35.033   4.386  1.00  0.00    -0.319 N 
HETATM   15  C11 UNL     1     -17.735 -35.591   5.548  1.00  0.00     0.120 A 
HETATM   16  C12 UNL     1     -16.541 -35.116   6.063  1.00  0.00     0.076 A 
HETATM   17 CL1  UNL     1     -16.040 -35.853   7.595  1.00  0.00    -0.080 Cl
HETATM   18  C13 UNL     1     -15.777 -34.148   5.459  1.00  0.00     0.062 A 
HETATM   19  C14 UNL     1     -16.200 -33.582   4.244  1.00  0.00     0.026 A 
HETATM   20  C15 UNL     1     -15.585 -32.628   3.512  1.00  0.00     0.024 A 
HETATM   21  C17 UNL     1     -17.380 -34.074   3.766  1.00  0.00     0.090 A 
HETATM   22  C16 UNL     1     -16.197 -32.238   2.358  1.00  0.00     0.053 A 
HETATM   23  S1  UNL     1     -17.603 -33.201   2.318  1.00  0.00    -0.083 SA
BRANCH  18  24
HETATM   24  N2  UNL     1     -14.693 -33.791   6.031  1.00  0.00    -0.397 N 
ATOM     25  H22 UNL     1     -14.489 -32.814   6.242  1.00  0.00     0.156 HD
ATOM     26  H21 UNL     1     -14.018 -34.515   6.281  1.00  0.00     0.156 HD
ENDBRANCH  18  24
ENDBRANCH   9  14
BRANCH  10  27
HETATM   27  O3  UNL     1     -20.965 -35.319   5.487  1.00  0.00    -0.389 OA
ATOM     28  H3  UNL     1     -20.683 -35.399   6.391  1.00  0.00     0.210 HD
ENDBRANCH  10  27
ENDBRANCH   4   5
ENDBRANCH   3   4
TORSDOF 6
ENDMDL
