MODEL 1
REMARK VINA RESULT: -8.532811237      0.000      0.000
REMARK  5 active torsions:
REMARK  status: ('A' for Active; 'I' for Inactive)
REMARK    1  A    between atoms: C2_2  and  O1_4 
REMARK    2  A    between atoms: C2_2  and  C4_6 
REMARK    3  A    between atoms: C5_7  and  C6_8 
REMARK    4  A    between atoms: C9_11  and  N1_12 
REMARK    5  A    between atoms: N3_22  and  O2_23 
ROOT
HETATM    1  C6  UNL     1      14.385 -38.094  14.158  1.00  0.00     0.035 A 
HETATM    2  C7  UNL     1      13.238 -37.460  14.598  1.00  0.00     0.026 A 
HETATM    3  C8  UNL     1      13.283 -36.108  14.853  1.00  0.00     0.053 A 
HETATM    4  C9  UNL     1      14.443 -35.363  14.685  1.00  0.00     0.140 A 
HETATM    5  N3  UNL     1      15.538 -36.019  14.255  1.00  0.00    -0.217 N 
HETATM    6  C17 UNL     1      15.541 -37.338  13.993  1.00  0.00     0.145 A 
ENDROOT
BRANCH   4   7
HETATM    7  N1  UNL     1      14.453 -33.960  14.960  1.00  0.00    -0.290 N 
HETATM    8  C10 UNL     1      14.038 -32.953  14.180  1.00  0.00     0.191 A 
HETATM    9  N2  UNL     1      14.222 -31.785  14.813  1.00  0.00    -0.350 N 
HETATM   10  C11 UNL     1      14.766 -32.030  16.030  1.00  0.00     0.060 A 
ATOM     11  H2  UNL     1      13.989 -30.864  14.441  1.00  0.00     0.166 HD
HETATM   12  C12 UNL     1      15.155 -31.230  17.074  1.00  0.00     0.032 A 
HETATM   13  C16 UNL     1      14.903 -33.386  16.106  1.00  0.00     0.068 A 
HETATM   14  C13 UNL     1      15.690 -31.841  18.204  1.00  0.00     0.002 A 
HETATM   15  C14 UNL     1      15.831 -33.203  18.287  1.00  0.00     0.002 A 
HETATM   16  C15 UNL     1      15.433 -33.993  17.222  1.00  0.00     0.032 A 
ENDBRANCH   4   7
BRANCH   5  17
HETATM   17  O2  UNL     1      16.701 -35.276  14.085  1.00  0.00    -0.281 OA
ATOM     18  H2  UNL     1      16.661 -34.533  13.495  1.00  0.00     0.245 HD
ENDBRANCH   5  17
BRANCH   1  19
HETATM   19  C5  UNL     1      14.346 -39.507  13.890  1.00  0.00    -0.062 C 
HETATM   20  C4  UNL     1      14.334 -40.694  13.673  1.00  0.00    -0.064 C 
BRANCH  20  21
HETATM   21  C2  UNL     1      14.344 -42.132  13.406  1.00  0.00     0.114 C 
HETATM   22  C1  UNL     1      14.516 -42.862  14.720  1.00  0.00     0.060 C 
HETATM   23  C3  UNL     1      15.484 -42.537  12.498  1.00  0.00     0.060 C 
BRANCH  21  24
HETATM   24  O1  UNL     1      13.159 -42.499  12.770  1.00  0.00    -0.378 OA
ATOM     25  H1  UNL     1      12.419 -42.462  13.366  1.00  0.00     0.211 HD
ENDBRANCH  21  24
ENDBRANCH  20  21
ENDBRANCH   1  19
TORSDOF 5
ENDMDL
MODEL 2
REMARK VINA RESULT: -8.301556636      2.216      2.435
REMARK  5 active torsions:
REMARK  status: ('A' for Active; 'I' for Inactive)
REMARK    1  A    between atoms: C2_2  and  O1_4 
REMARK    2  A    between atoms: C2_2  and  C4_6 
REMARK    3  A    between atoms: C5_7  and  C6_8 
REMARK    4  A    between atoms: C9_11  and  N1_12 
REMARK    5  A    between atoms: N3_22  and  O2_23 
ROOT
HETATM    1  C6  UNL     1      15.338 -38.049  14.843  1.00  0.00     0.035 A 
HETATM    2  C7  UNL     1      15.564 -37.794  16.182  1.00  0.00     0.026 A 
HETATM    3  C8  UNL     1      15.924 -36.520  16.564  1.00  0.00     0.053 A 
HETATM    4  C9  UNL     1      16.067 -35.488  15.646  1.00  0.00     0.140 A 
HETATM    5  N3  UNL     1      15.839 -35.779  14.352  1.00  0.00    -0.217 N 
HETATM    6  C17 UNL     1      15.485 -37.008  13.932  1.00  0.00     0.145 A 
ENDROOT
BRANCH   4   7
HETATM    7  N1  UNL     1      16.442 -34.178  16.079  1.00  0.00    -0.290 N 
HETATM    8  C10 UNL     1      15.676 -33.084  16.192  1.00  0.00     0.191 A 
HETATM    9  N2  UNL     1      16.417 -32.056  16.633  1.00  0.00    -0.350 N 
HETATM   10  C11 UNL     1      17.691 -32.483  16.812  1.00  0.00     0.060 A 
ATOM     11  H2  UNL     1      16.078 -31.110  16.805  1.00  0.00     0.166 HD
HETATM   12  C12 UNL     1      18.845 -31.874  17.236  1.00  0.00     0.032 A 
HETATM   13  C16 UNL     1      17.690 -33.803  16.463  1.00  0.00     0.068 A 
HETATM   14  C13 UNL     1      20.005 -32.640  17.299  1.00  0.00     0.002 A 
HETATM   15  C14 UNL     1      20.011 -33.967  16.950  1.00  0.00     0.002 A 
HETATM   16  C15 UNL     1      18.837 -34.562  16.523  1.00  0.00     0.032 A 
ENDBRANCH   4   7
BRANCH   5  17
HETATM   17  O2  UNL     1      15.981 -34.747  13.430  1.00  0.00    -0.281 OA
ATOM     18  H2  UNL     1      16.739 -34.182  13.522  1.00  0.00     0.245 HD
ENDBRANCH   5  17
BRANCH   1  19
HETATM   19  C5  UNL     1      14.962 -39.377  14.436  1.00  0.00    -0.062 C 
HETATM   20  C4  UNL     1      14.668 -40.498  14.098  1.00  0.00    -0.064 C 
BRANCH  20  21
HETATM   21  C2  UNL     1      14.333 -41.859  13.681  1.00  0.00     0.114 C 
HETATM   22  C1  UNL     1      14.395 -42.761  14.894  1.00  0.00     0.060 C 
HETATM   23  C3  UNL     1      15.305 -42.397  12.654  1.00  0.00     0.060 C 
BRANCH  21  24
HETATM   24  O1  UNL     1      13.067 -41.874  13.099  1.00  0.00    -0.378 OA
ATOM     25  H1  UNL     1      13.074 -42.324  12.262  1.00  0.00     0.211 HD
ENDBRANCH  21  24
ENDBRANCH  20  21
ENDBRANCH   1  19
TORSDOF 5
ENDMDL
MODEL 3
REMARK VINA RESULT: -8.134656847      7.367     11.541
REMARK  5 active torsions:
REMARK  status: ('A' for Active; 'I' for Inactive)
REMARK    1  A    between atoms: C2_2  and  O1_4 
REMARK    2  A    between atoms: C2_2  and  C4_6 
REMARK    3  A    between atoms: C5_7  and  C6_8 
REMARK    4  A    between atoms: C9_11  and  N1_12 
REMARK    5  A    between atoms: N3_22  and  O2_23 
ROOT
HETATM    1  C6  UNL     1      14.310 -27.471  19.885  1.00  0.00     0.035 A 
HETATM    2  C7  UNL     1      14.706 -28.225  20.973  1.00  0.00     0.026 A 
HETATM    3  C8  UNL     1      15.807 -29.042  20.849  1.00  0.00     0.053 A 
HETATM    4  C9  UNL     1      16.529 -29.134  19.666  1.00  0.00     0.140 A 
HETATM    5  N3  UNL     1      16.109 -28.384  18.630  1.00  0.00    -0.217 N 
HETATM    6  C17 UNL     1      15.040 -27.570  18.705  1.00  0.00     0.145 A 
ENDROOT
BRANCH   4   7
HETATM    7  N1  UNL     1      17.667 -29.994  19.574  1.00  0.00    -0.290 N 
HETATM    8  C10 UNL     1      18.964 -29.678  19.691  1.00  0.00     0.191 A 
HETATM    9  N2  UNL     1      19.714 -30.780  19.537  1.00  0.00    -0.350 N 
HETATM   10  C11 UNL     1      18.894 -31.837  19.315  1.00  0.00     0.060 A 
ATOM     11  H2  UNL     1      20.733 -30.817  19.580  1.00  0.00     0.166 HD
HETATM   12  C12 UNL     1      19.109 -33.174  19.095  1.00  0.00     0.032 A 
HETATM   13  C16 UNL     1      17.627 -31.331  19.341  1.00  0.00     0.068 A 
HETATM   14  C13 UNL     1      18.000 -33.991  18.900  1.00  0.00     0.002 A 
HETATM   15  C14 UNL     1      16.722 -33.490  18.925  1.00  0.00     0.002 A 
HETATM   16  C15 UNL     1      16.528 -32.138  19.148  1.00  0.00     0.032 A 
ENDBRANCH   4   7
BRANCH   5  17
HETATM   17  O2  UNL     1      16.830 -28.472  17.444  1.00  0.00    -0.281 OA
ATOM     18  H2  UNL     1      16.380 -28.826  16.686  1.00  0.00     0.245 HD
ENDBRANCH   5  17
BRANCH   1  19
HETATM   19  C5  UNL     1      13.160 -26.615  20.006  1.00  0.00    -0.062 C 
HETATM   20  C4  UNL     1      12.196 -25.893  20.086  1.00  0.00    -0.064 C 
BRANCH  20  21
HETATM   21  C2  UNL     1      11.036 -25.005  20.164  1.00  0.00     0.114 C 
HETATM   22  C1  UNL     1      11.530 -23.585  20.335  1.00  0.00     0.060 C 
HETATM   23  C3  UNL     1      10.145 -25.331  21.341  1.00  0.00     0.060 C 
BRANCH  21  24
HETATM   24  O1  UNL     1      10.264 -25.141  19.011  1.00  0.00    -0.378 OA
ATOM     25  H1  UNL     1      10.784 -25.452  18.279  1.00  0.00     0.211 HD
ENDBRANCH  21  24
ENDBRANCH  20  21
ENDBRANCH   1  19
TORSDOF 5
ENDMDL
MODEL 4
REMARK VINA RESULT: -8.121373506      6.735      9.787
REMARK  5 active torsions:
REMARK  status: ('A' for Active; 'I' for Inactive)
REMARK    1  A    between atoms: C2_2  and  O1_4 
REMARK    2  A    between atoms: C2_2  and  C4_6 
REMARK    3  A    between atoms: C5_7  and  C6_8 
REMARK    4  A    between atoms: C9_11  and  N1_12 
REMARK    5  A    between atoms: N3_22  and  O2_23 
ROOT
HETATM    1  C6  UNL     1      16.424 -30.148  19.966  1.00  0.00     0.035 A 
HETATM    2  C7  UNL     1      15.918 -29.780  21.198  1.00  0.00     0.026 A 
HETATM    3  C8  UNL     1      15.398 -28.513  21.351  1.00  0.00     0.053 A 
HETATM    4  C9  UNL     1      15.369 -27.597  20.307  1.00  0.00     0.140 A 
HETATM    5  N3  UNL     1      15.872 -27.996  19.124  1.00  0.00    -0.217 N 
HETATM    6  C17 UNL     1      16.389 -29.223  18.928  1.00  0.00     0.145 A 
ENDROOT
BRANCH   4   7
HETATM    7  N1  UNL     1      14.822 -26.291  20.502  1.00  0.00    -0.290 N 
HETATM    8  C10 UNL     1      15.458 -25.161  20.843  1.00  0.00     0.191 A 
HETATM    9  N2  UNL     1      14.577 -24.152  20.922  1.00  0.00    -0.350 N 
HETATM   10  C11 UNL     1      13.343 -24.629  20.629  1.00  0.00     0.060 A 
ATOM     11  H2  UNL     1      14.800 -23.187  21.164  1.00  0.00     0.166 HD
HETATM   12  C12 UNL     1      12.097 -24.057  20.559  1.00  0.00     0.032 A 
HETATM   13  C16 UNL     1      13.512 -25.958  20.371  1.00  0.00     0.068 A 
HETATM   14  C13 UNL     1      11.021 -24.870  20.219  1.00  0.00     0.002 A 
HETATM   15  C14 UNL     1      11.184 -26.208  19.957  1.00  0.00     0.002 A 
HETATM   16  C15 UNL     1      12.448 -26.765  20.034  1.00  0.00     0.032 A 
ENDBRANCH   4   7
BRANCH   5  17
HETATM   17  O2  UNL     1      15.844 -27.081  18.077  1.00  0.00    -0.281 OA
ATOM     18  H2  UNL     1      15.573 -27.402  17.225  1.00  0.00     0.245 HD
ENDBRANCH   5  17
BRANCH   1  19
HETATM   19  C5  UNL     1      16.968 -31.469  19.798  1.00  0.00    -0.062 C 
HETATM   20  C4  UNL     1      17.407 -32.583  19.646  1.00  0.00    -0.064 C 
BRANCH  20  21
HETATM   21  C2  UNL     1      17.916 -33.943  19.462  1.00  0.00     0.114 C 
HETATM   22  C1  UNL     1      19.363 -33.858  19.028  1.00  0.00     0.060 C 
HETATM   23  C3  UNL     1      17.155 -34.698  18.395  1.00  0.00     0.060 C 
BRANCH  21  24
HETATM   24  O1  UNL     1      17.781 -34.659  20.651  1.00  0.00    -0.378 OA
ATOM     25  H1  UNL     1      17.274 -35.452  20.523  1.00  0.00     0.211 HD
ENDBRANCH  21  24
ENDBRANCH  20  21
ENDBRANCH   1  19
TORSDOF 5
ENDMDL
MODEL 5
REMARK VINA RESULT: -8.010817909      7.007     11.150
REMARK  5 active torsions:
REMARK  status: ('A' for Active; 'I' for Inactive)
REMARK    1  A    between atoms: C2_2  and  O1_4 
REMARK    2  A    between atoms: C2_2  and  C4_6 
REMARK    3  A    between atoms: C5_7  and  C6_8 
REMARK    4  A    between atoms: C9_11  and  N1_12 
REMARK    5  A    between atoms: N3_22  and  O2_23 
ROOT
HETATM    1  C6  UNL     1      15.179 -28.399  19.659  1.00  0.00     0.035 A 
HETATM    2  C7  UNL     1      16.041 -28.837  20.647  1.00  0.00     0.026 A 
HETATM    3  C8  UNL     1      16.636 -30.072  20.509  1.00  0.00     0.053 A 
HETATM    4  C9  UNL     1      16.395 -30.889  19.412  1.00  0.00     0.140 A 
HETATM    5  N3  UNL     1      15.549 -30.425  18.473  1.00  0.00    -0.217 N 
HETATM    6  C17 UNL     1      14.945 -29.225  18.565  1.00  0.00     0.145 A 
ENDROOT
BRANCH   4   7
HETATM    7  N1  UNL     1      17.030 -32.165  19.303  1.00  0.00    -0.290 N 
HETATM    8  C10 UNL     1      16.670 -33.328  19.863  1.00  0.00     0.191 A 
HETATM    9  N2  UNL     1      17.536 -34.289  19.508  1.00  0.00    -0.350 N 
HETATM   10  C11 UNL     1      18.481 -33.746  18.702  1.00  0.00     0.060 A 
ATOM     11  H2  UNL     1      17.491 -35.266  19.797  1.00  0.00     0.166 HD
HETATM   12  C12 UNL     1      19.584 -34.251  18.061  1.00  0.00     0.032 A 
HETATM   13  C16 UNL     1      18.152 -32.427  18.584  1.00  0.00     0.068 A 
HETATM   14  C13 UNL     1      20.351 -33.380  17.293  1.00  0.00     0.002 A 
HETATM   15  C14 UNL     1      20.027 -32.052  17.171  1.00  0.00     0.002 A 
HETATM   16  C15 UNL     1      18.910 -31.563  17.826  1.00  0.00     0.032 A 
ENDBRANCH   4   7
BRANCH   5  17
HETATM   17  O2  UNL     1      15.306 -31.240  17.374  1.00  0.00    -0.281 OA
ATOM     18  H2  UNL     1      15.540 -32.157  17.451  1.00  0.00     0.245 HD
ENDBRANCH   5  17
BRANCH   1  19
HETATM   19  C5  UNL     1      14.554 -27.111  19.796  1.00  0.00    -0.062 C 
HETATM   20  C4  UNL     1      14.037 -26.024  19.890  1.00  0.00    -0.064 C 
BRANCH  20  21
HETATM   21  C2  UNL     1      13.428 -24.698  19.990  1.00  0.00     0.114 C 
HETATM   22  C1  UNL     1      14.520 -23.690  20.276  1.00  0.00     0.060 C 
HETATM   23  C3  UNL     1      12.417 -24.616  21.111  1.00  0.00     0.060 C 
BRANCH  21  24
HETATM   24  O1  UNL     1      12.756 -24.399  18.805  1.00  0.00    -0.378 OA
ATOM     25  H1  UNL     1      13.163 -23.672  18.349  1.00  0.00     0.211 HD
ENDBRANCH  21  24
ENDBRANCH  20  21
ENDBRANCH   1  19
TORSDOF 5
ENDMDL
