MODEL 1
REMARK VINA RESULT: -8.595738400      0.000      0.000
REMARK  4 active torsions:
REMARK  status: ('A' for Active; 'I' for Inactive)
REMARK    1  A    between atoms: C10_12  and  C11_13 
REMARK    2  A    between atoms: C11_13  and  N2_15 
REMARK    3  A    between atoms: N2_15  and  O1_17 
REMARK    4  A    between atoms: N3_23  and  O2_24 
ROOT
HETATM    1  C1  UNL     1      14.083 -33.230  17.496  1.00  0.00     0.049 C 
HETATM    2  C2  UNL     1      14.506 -33.806  16.198  1.00  0.00    -0.046 A 
HETATM    3  C3  UNL     1      14.858 -33.008  15.113  1.00  0.00     0.096 A 
HETATM    4  N1  UNL     1      15.222 -33.615  13.970  1.00  0.00    -0.349 N 
ATOM      5  H1  UNL     1      15.481 -33.034  13.172  1.00  0.00     0.167 HD
HETATM    6  C4  UNL     1      15.263 -34.961  13.826  1.00  0.00     0.144 A 
HETATM    7  C5  UNL     1      14.912 -35.760  14.907  1.00  0.00     0.022 A 
HETATM    8  C6  UNL     1      14.535 -35.185  16.089  1.00  0.00     0.024 A 
HETATM    9  C7  UNL     1      14.961 -37.118  14.729  1.00  0.00    -0.010 A 
HETATM   10  C8  UNL     1      14.625 -37.958  15.765  1.00  0.00     0.014 A 
HETATM   11  C9  UNL     1      14.697 -39.325  15.513  1.00  0.00     0.010 A 
HETATM   12  C10 UNL     1      15.083 -39.831  14.298  1.00  0.00    -0.038 A 
HETATM   13  C14 UNL     1      15.417 -38.981  13.272  1.00  0.00     0.023 A 
HETATM   14  C15 UNL     1      15.359 -37.601  13.481  1.00  0.00     0.000 A 
HETATM   15  C16 UNL     1      15.703 -36.791  12.419  1.00  0.00     0.049 A 
HETATM   16  C17 UNL     1      16.114 -37.354  11.102  1.00  0.00     0.072 C 
HETATM   17  N3  UNL     1      15.643 -35.464  12.629  1.00  0.00    -0.211 N 
ENDROOT
BRANCH  12  18
HETATM   18  C11 UNL     1      15.140 -41.287  14.068  1.00  0.00     0.114 C 
HETATM   19  C12 UNL     1      14.351 -42.069  15.063  1.00  0.00     0.034 C 
BRANCH  18  20
HETATM   20  N2  UNL     1      14.714 -41.660  12.739  1.00  0.00    -0.195 NA
HETATM   21  C13 UNL     1      15.746 -42.307  11.989  1.00  0.00     0.144 C 
BRANCH  20  22
HETATM   22  O1  UNL     1      13.520 -42.239  12.678  1.00  0.00    -0.313 OA
ATOM     23  H1  UNL     1      13.521 -43.115  12.309  1.00  0.00     0.237 HD
ENDBRANCH  20  22
ENDBRANCH  18  20
ENDBRANCH  12  18
BRANCH  17  24
HETATM   24  O2  UNL     1      15.985 -34.655  11.578  1.00  0.00    -0.281 OA
ATOM     25  H2  UNL     1      16.246 -35.008  10.736  1.00  0.00     0.245 HD
ENDBRANCH  17  24
TORSDOF 4
ENDMDL
MODEL 2
REMARK VINA RESULT: -8.421160443      1.646      1.716
REMARK  4 active torsions:
REMARK  status: ('A' for Active; 'I' for Inactive)
REMARK    1  A    between atoms: C10_12  and  C11_13 
REMARK    2  A    between atoms: C11_13  and  N2_15 
REMARK    3  A    between atoms: N2_15  and  O1_17 
REMARK    4  A    between atoms: N3_23  and  O2_24 
ROOT
HETATM    1  C1  UNL     1      17.406 -34.540  18.922  1.00  0.00     0.049 C 
HETATM    2  C2  UNL     1      16.956 -34.847  17.544  1.00  0.00    -0.046 A 
HETATM    3  C3  UNL     1      16.745 -33.850  16.595  1.00  0.00     0.096 A 
HETATM    4  N1  UNL     1      16.330 -34.216  15.370  1.00  0.00    -0.349 N 
ATOM      5  H1  UNL     1      16.174 -33.489  14.671  1.00  0.00     0.167 HD
HETATM    6  C4  UNL     1      16.109 -35.505  15.018  1.00  0.00     0.144 A 
HETATM    7  C5  UNL     1      16.319 -36.503  15.962  1.00  0.00     0.022 A 
HETATM    8  C6  UNL     1      16.741 -36.175  17.221  1.00  0.00     0.024 A 
HETATM    9  C7  UNL     1      16.083 -37.796  15.576  1.00  0.00    -0.010 A 
HETATM   10  C8  UNL     1      16.275 -38.824  16.469  1.00  0.00     0.014 A 
HETATM   11  C9  UNL     1      16.016 -40.112  16.009  1.00  0.00     0.010 A 
HETATM   12  C10 UNL     1      15.592 -40.366  14.730  1.00  0.00    -0.038 A 
HETATM   13  C14 UNL     1      15.405 -39.330  13.847  1.00  0.00     0.023 A 
HETATM   14  C15 UNL     1      15.653 -38.021  14.267  1.00  0.00     0.000 A 
HETATM   15  C16 UNL     1      15.450 -37.017  13.343  1.00  0.00     0.049 A 
HETATM   16  C17 UNL     1      14.982 -37.306  11.959  1.00  0.00     0.072 C 
HETATM   17  N3  UNL     1      15.690 -35.760  13.757  1.00  0.00    -0.211 N 
ENDROOT
BRANCH  12  18
HETATM   18  C11 UNL     1      15.321 -41.745  14.281  1.00  0.00     0.114 C 
HETATM   19  C12 UNL     1      14.341 -42.461  15.147  1.00  0.00     0.034 C 
BRANCH  18  20
HETATM   20  N2  UNL     1      14.867 -41.809  12.912  1.00  0.00    -0.195 NA
HETATM   21  C13 UNL     1      15.895 -42.219  12.006  1.00  0.00     0.144 C 
BRANCH  20  22
HETATM   22  O1  UNL     1      13.691 -42.402  12.742  1.00  0.00    -0.313 OA
ATOM     23  H1  UNL     1      12.946 -41.813  12.718  1.00  0.00     0.237 HD
ENDBRANCH  20  22
ENDBRANCH  18  20
ENDBRANCH  12  18
BRANCH  17  24
HETATM   24  O2  UNL     1      15.492 -34.759  12.843  1.00  0.00    -0.281 OA
ATOM     25  H2  UNL     1      14.628 -34.403  12.667  1.00  0.00     0.245 HD
ENDBRANCH  17  24
TORSDOF 4
ENDMDL
MODEL 3
REMARK VINA RESULT: -8.398727735      6.666     11.091
REMARK  4 active torsions:
REMARK  status: ('A' for Active; 'I' for Inactive)
REMARK    1  A    between atoms: C10_12  and  C11_13 
REMARK    2  A    between atoms: C11_13  and  N2_15 
REMARK    3  A    between atoms: N2_15  and  O1_17 
REMARK    4  A    between atoms: N3_23  and  O2_24 
ROOT
HETATM    1  C1  UNL     1      18.112 -34.613  20.447  1.00  0.00     0.049 C 
HETATM    2  C2  UNL     1      17.487 -33.699  19.461  1.00  0.00    -0.046 A 
HETATM    3  C3  UNL     1      17.290 -34.067  18.133  1.00  0.00     0.096 A 
HETATM    4  N1  UNL     1      16.722 -33.173  17.304  1.00  0.00    -0.349 N 
ATOM      5  H1  UNL     1      16.575 -33.438  16.330  1.00  0.00     0.167 HD
HETATM    6  C4  UNL     1      16.336 -31.937  17.701  1.00  0.00     0.144 A 
HETATM    7  C5  UNL     1      16.532 -31.567  19.026  1.00  0.00     0.022 A 
HETATM    8  C6  UNL     1      17.106 -32.446  19.904  1.00  0.00     0.024 A 
HETATM    9  C7  UNL     1      16.133 -30.309  19.395  1.00  0.00    -0.010 A 
HETATM   10  C8  UNL     1      16.303 -29.889  20.693  1.00  0.00     0.014 A 
HETATM   11  C9  UNL     1      15.875 -28.600  20.997  1.00  0.00     0.010 A 
HETATM   12  C10 UNL     1      15.309 -27.772  20.062  1.00  0.00    -0.038 A 
HETATM   13  C14 UNL     1      15.144 -28.204  18.769  1.00  0.00     0.023 A 
HETATM   14  C15 UNL     1      15.560 -29.492  18.419  1.00  0.00     0.000 A 
HETATM   15  C16 UNL     1      15.373 -29.876  17.108  1.00  0.00     0.049 A 
HETATM   16  C17 UNL     1      14.763 -28.965  16.100  1.00  0.00     0.072 C 
HETATM   17  N3  UNL     1      15.777 -31.117  16.781  1.00  0.00    -0.211 N 
ENDROOT
BRANCH  12  18
HETATM   18  C11 UNL     1      14.874 -26.409  20.421  1.00  0.00     0.114 C 
HETATM   19  C12 UNL     1      15.733 -25.776  21.463  1.00  0.00     0.034 C 
BRANCH  18  20
HETATM   20  N2  UNL     1      14.800 -25.527  19.280  1.00  0.00    -0.195 NA
HETATM   21  C13 UNL     1      13.552 -24.832  19.199  1.00  0.00     0.144 C 
BRANCH  20  22
HETATM   22  O1  UNL     1      15.880 -24.779  19.082  1.00  0.00    -0.313 OA
ATOM     23  H1  UNL     1      16.019 -24.512  18.181  1.00  0.00     0.237 HD
ENDBRANCH  20  22
ENDBRANCH  18  20
ENDBRANCH  12  18
BRANCH  17  24
HETATM   24  O2  UNL     1      15.593 -31.505  15.481  1.00  0.00    -0.281 OA
ATOM     25  H2  UNL     1      15.720 -30.906  14.754  1.00  0.00     0.245 HD
ENDBRANCH  17  24
TORSDOF 4
ENDMDL
MODEL 4
REMARK VINA RESULT: -8.285004195      3.728      6.717
REMARK  4 active torsions:
REMARK  status: ('A' for Active; 'I' for Inactive)
REMARK    1  A    between atoms: C10_12  and  C11_13 
REMARK    2  A    between atoms: C11_13  and  N2_15 
REMARK    3  A    between atoms: N2_15  and  O1_17 
REMARK    4  A    between atoms: N3_23  and  O2_24 
ROOT
HETATM    1  C1  UNL     1      14.425 -41.864  16.095  1.00  0.00     0.049 C 
HETATM    2  C2  UNL     1      14.253 -40.410  15.867  1.00  0.00    -0.046 A 
HETATM    3  C3  UNL     1      13.228 -39.901  15.074  1.00  0.00     0.096 A 
HETATM    4  N1  UNL     1      13.150 -38.568  14.915  1.00  0.00    -0.349 N 
ATOM      5  H1  UNL     1      12.400 -38.191  14.335  1.00  0.00     0.167 HD
HETATM    6  C4  UNL     1      14.021 -37.702  15.486  1.00  0.00     0.144 A 
HETATM    7  C5  UNL     1      15.045 -38.207  16.277  1.00  0.00     0.022 A 
HETATM    8  C6  UNL     1      15.161 -39.556  16.467  1.00  0.00     0.024 A 
HETATM    9  C7  UNL     1      15.911 -37.305  16.839  1.00  0.00    -0.010 A 
HETATM   10  C8  UNL     1      16.944 -37.748  17.631  1.00  0.00     0.014 A 
HETATM   11  C9  UNL     1      17.784 -36.777  18.168  1.00  0.00     0.010 A 
HETATM   12  C10 UNL     1      17.607 -35.437  17.933  1.00  0.00    -0.038 A 
HETATM   13  C14 UNL     1      16.571 -35.008  17.140  1.00  0.00     0.023 A 
HETATM   14  C15 UNL     1      15.703 -35.949  16.580  1.00  0.00     0.000 A 
HETATM   15  C16 UNL     1      14.680 -35.467  15.791  1.00  0.00     0.049 A 
HETATM   16  C17 UNL     1      14.503 -34.009  15.537  1.00  0.00     0.072 C 
HETATM   17  N3  UNL     1      13.850 -36.380  15.255  1.00  0.00    -0.211 N 
ENDROOT
BRANCH  12  18
HETATM   18  C11 UNL     1      18.523 -34.439  18.514  1.00  0.00     0.114 C 
HETATM   19  C12 UNL     1      18.530 -34.447  20.006  1.00  0.00     0.034 C 
BRANCH  18  20
HETATM   20  N2  UNL     1      19.880 -34.582  18.042  1.00  0.00    -0.195 NA
HETATM   21  C13 UNL     1      20.297 -33.493  17.213  1.00  0.00     0.144 C 
BRANCH  20  22
HETATM   22  O1  UNL     1      20.756 -34.958  18.968  1.00  0.00    -0.313 OA
ATOM     23  H1  UNL     1      20.918 -34.314  19.648  1.00  0.00     0.237 HD
ENDBRANCH  20  22
ENDBRANCH  18  20
ENDBRANCH  12  18
BRANCH  17  24
HETATM   24  O2  UNL     1      12.831 -35.906  14.473  1.00  0.00    -0.281 OA
ATOM     25  H2  UNL     1      12.818 -35.012  14.150  1.00  0.00     0.245 HD
ENDBRANCH  17  24
TORSDOF 4
ENDMDL
MODEL 5
REMARK VINA RESULT: -8.252069400      2.503      2.824
REMARK  4 active torsions:
REMARK  status: ('A' for Active; 'I' for Inactive)
REMARK    1  A    between atoms: C10_12  and  C11_13 
REMARK    2  A    between atoms: C11_13  and  N2_15 
REMARK    3  A    between atoms: N2_15  and  O1_17 
REMARK    4  A    between atoms: N3_23  and  O2_24 
ROOT
HETATM    1  C1  UNL     1      18.421 -34.608  20.171  1.00  0.00     0.049 C 
HETATM    2  C2  UNL     1      17.762 -34.541  18.846  1.00  0.00    -0.046 A 
HETATM    3  C3  UNL     1      17.498 -33.330  18.212  1.00  0.00     0.096 A 
HETATM    4  N1  UNL     1      16.890 -33.360  17.013  1.00  0.00    -0.349 N 
ATOM      5  H1  UNL     1      16.694 -32.475  16.544  1.00  0.00     0.167 HD
HETATM    6  C4  UNL     1      16.523 -34.509  16.397  1.00  0.00     0.144 A 
HETATM    7  C5  UNL     1      16.785 -35.720  17.028  1.00  0.00     0.022 A 
HETATM    8  C6  UNL     1      17.403 -35.735  18.248  1.00  0.00     0.024 A 
HETATM    9  C7  UNL     1      16.400 -36.864  16.380  1.00  0.00    -0.010 A 
HETATM   10  C8  UNL     1      16.634 -38.090  16.957  1.00  0.00     0.014 A 
HETATM   11  C9  UNL     1      16.216 -39.210  16.244  1.00  0.00     0.010 A 
HETATM   12  C10 UNL     1      15.599 -39.117  15.022  1.00  0.00    -0.038 A 
HETATM   13  C14 UNL     1      15.372 -37.887  14.457  1.00  0.00     0.023 A 
HETATM   14  C15 UNL     1      15.775 -36.735  15.138  1.00  0.00     0.000 A 
HETATM   15  C16 UNL     1      15.523 -35.525  14.528  1.00  0.00     0.049 A 
HETATM   16  C17 UNL     1      14.847 -35.437  13.204  1.00  0.00     0.072 C 
HETATM   17  N3  UNL     1      15.914 -34.422  15.192  1.00  0.00    -0.211 N 
ENDROOT
BRANCH  12  18
HETATM   18  C11 UNL     1      15.164 -40.327  14.300  1.00  0.00     0.114 C 
HETATM   19  C12 UNL     1      13.681 -40.471  14.237  1.00  0.00     0.034 C 
BRANCH  18  20
HETATM   20  N2  UNL     1      15.696 -40.400  12.960  1.00  0.00    -0.195 NA
HETATM   21  C13 UNL     1      16.525 -41.548  12.755  1.00  0.00     0.144 C 
BRANCH  20  22
HETATM   22  O1  UNL     1      14.815 -40.158  11.996  1.00  0.00    -0.313 OA
ATOM     23  H1  UNL     1      14.795 -40.806  11.301  1.00  0.00     0.237 HD
ENDBRANCH  20  22
ENDBRANCH  18  20
ENDBRANCH  12  18
BRANCH  17  24
HETATM   24  O2  UNL     1      15.668 -33.217  14.590  1.00  0.00    -0.281 OA
ATOM     25  H2  UNL     1      14.787 -32.929  14.383  1.00  0.00     0.245 HD
ENDBRANCH  17  24
TORSDOF 4
ENDMDL
