MODEL 1
REMARK VINA RESULT: -9.216009773      0.000      0.000
REMARK  3 active torsions:
REMARK  status: ('A' for Active; 'I' for Inactive)
REMARK    1  A    between atoms: C6_6  and  N1_7 
REMARK    2  A    between atoms: N1_7  and  C7_9 
REMARK    3  A    between atoms: N5_23  and  O1_24 
ROOT
HETATM    1  C7  UNL     1      14.437 -38.592  12.568  1.00  0.00     0.132 A 
HETATM    2  N2  UNL     1      15.346 -38.396  11.605  1.00  0.00    -0.283 N 
ATOM      3  H2  UNL     1      15.690 -39.218  11.108  1.00  0.00     0.188 HD
HETATM    4  N3  UNL     1      15.840 -37.207  11.245  1.00  0.00    -0.280 N 
ATOM      5  H3  UNL     1      16.532 -37.159  10.496  1.00  0.00     0.188 HD
HETATM    6  C8  UNL     1      15.440 -36.069  11.853  1.00  0.00     0.180 A 
HETATM    7  C9  UNL     1      14.509 -36.221  12.846  1.00  0.00     0.055 A 
HETATM    8  C10 UNL     1      14.201 -34.996  13.367  1.00  0.00     0.065 A 
HETATM    9  C11 UNL     1      13.267 -34.999  14.387  1.00  0.00     0.032 A 
HETATM   10  C12 UNL     1      12.709 -36.208  14.815  1.00  0.00     0.003 A 
HETATM   11  C13 UNL     1      13.068 -37.434  14.238  1.00  0.00     0.016 A 
HETATM   12  C14 UNL     1      13.999 -37.433  13.222  1.00  0.00     0.026 A 
HETATM   13  N4  UNL     1      14.989 -34.033  12.652  1.00  0.00    -0.272 N 
ATOM     14  H4  UNL     1      14.986 -33.025  12.805  1.00  0.00     0.189 HD
HETATM   15  N5  UNL     1      15.707 -34.668  11.772  1.00  0.00    -0.144 N 
ENDROOT
BRANCH   1  16
HETATM   16  N1  UNL     1      13.963 -39.722  12.915  1.00  0.00    -0.341 N 
ATOM     17  H1  UNL     1      13.024 -39.954  12.593  1.00  0.00     0.167 HD
BRANCH  16  18
HETATM   18  C6  UNL     1      14.623 -40.674  13.703  1.00  0.00     0.034 A 
HETATM   19  C5  UNL     1      14.200 -41.993  13.764  1.00  0.00     0.029 A 
HETATM   20  C4  UNL     1      14.853 -42.929  14.543  1.00  0.00     0.003 A 
HETATM   21  C3  UNL     1      15.955 -42.549  15.280  1.00  0.00     0.007 A 
HETATM   22  C2  UNL     1      16.411 -41.243  15.248  1.00  0.00    -0.060 A 
HETATM   23  C1  UNL     1      17.603 -40.798  16.035  1.00  0.00     0.048 C 
HETATM   24  C15 UNL     1      15.727 -40.333  14.454  1.00  0.00     0.036 A 
ENDBRANCH  16  18
ENDBRANCH   1  16
BRANCH  15  25
HETATM   25  O1  UNL     1      16.574 -34.095  10.911  1.00  0.00    -0.266 OA
ATOM     26  H1  UNL     1      16.695 -34.355  10.005  1.00  0.00     0.247 HD
ENDBRANCH  15  25
TORSDOF 3
ENDMDL
MODEL 2
REMARK VINA RESULT: -9.181858451      2.980      6.535
REMARK  3 active torsions:
REMARK  status: ('A' for Active; 'I' for Inactive)
REMARK    1  A    between atoms: C6_6  and  N1_7 
REMARK    2  A    between atoms: N1_7  and  C7_9 
REMARK    3  A    between atoms: N5_23  and  O1_24 
ROOT
HETATM    1  C7  UNL     1      14.327 -33.914  13.736  1.00  0.00     0.132 A 
HETATM    2  N2  UNL     1      15.180 -33.586  12.758  1.00  0.00    -0.283 N 
ATOM      3  H2  UNL     1      15.445 -32.605  12.674  1.00  0.00     0.188 HD
HETATM    4  N3  UNL     1      15.712 -34.445  11.883  1.00  0.00    -0.280 N 
ATOM      5  H3  UNL     1      16.356 -34.100  11.171  1.00  0.00     0.188 HD
HETATM    6  C8  UNL     1      15.413 -35.763  11.923  1.00  0.00     0.180 A 
HETATM    7  C9  UNL     1      14.542 -36.144  12.909  1.00  0.00     0.055 A 
HETATM    8  C10 UNL     1      14.332 -37.492  12.828  1.00  0.00     0.065 A 
HETATM    9  C11 UNL     1      13.467 -38.019  13.770  1.00  0.00     0.032 A 
HETATM   10  C12 UNL     1      12.875 -37.177  14.717  1.00  0.00     0.003 A 
HETATM   11  C13 UNL     1      13.131 -35.799  14.746  1.00  0.00     0.016 A 
HETATM   12  C14 UNL     1      13.993 -35.273  13.808  1.00  0.00     0.026 A 
HETATM   13  N4  UNL     1      15.123 -37.968  11.729  1.00  0.00    -0.272 N 
ATOM     14  H4  UNL     1      15.184 -38.935  11.411  1.00  0.00     0.189 HD
HETATM   15  N5  UNL     1      15.748 -36.953  11.208  1.00  0.00    -0.144 N 
ENDROOT
BRANCH   1  16
HETATM   16  N1  UNL     1      13.817 -33.100  14.573  1.00  0.00    -0.341 N 
ATOM     17  H1  UNL     1      12.847 -32.824  14.424  1.00  0.00     0.167 HD
BRANCH  16  18
HETATM   18  C6  UNL     1      14.477 -32.552  15.681  1.00  0.00     0.034 A 
HETATM   19  C5  UNL     1      14.774 -33.310  16.803  1.00  0.00     0.029 A 
HETATM   20  C4  UNL     1      15.424 -32.766  17.894  1.00  0.00     0.003 A 
HETATM   21  C3  UNL     1      15.791 -31.437  17.872  1.00  0.00     0.007 A 
HETATM   22  C2  UNL     1      15.515 -30.645  16.771  1.00  0.00    -0.060 A 
HETATM   23  C1  UNL     1      15.899 -29.200  16.714  1.00  0.00     0.048 C 
HETATM   24  C15 UNL     1      14.859 -31.228  15.696  1.00  0.00     0.036 A 
ENDBRANCH  16  18
ENDBRANCH   1  16
BRANCH  15  25
HETATM   25  O1  UNL     1      16.587 -37.010  10.152  1.00  0.00    -0.266 OA
ATOM     26  H1  UNL     1      16.693 -37.762   9.581  1.00  0.00     0.247 HD
ENDBRANCH  15  25
TORSDOF 3
ENDMDL
MODEL 3
REMARK VINA RESULT: -9.159552928      2.942      6.339
REMARK  3 active torsions:
REMARK  status: ('A' for Active; 'I' for Inactive)
REMARK    1  A    between atoms: C6_6  and  N1_7 
REMARK    2  A    between atoms: N1_7  and  C7_9 
REMARK    3  A    between atoms: N5_23  and  O1_24 
ROOT
HETATM    1  C7  UNL     1      14.414 -33.878  13.789  1.00  0.00     0.132 A 
HETATM    2  N2  UNL     1      15.252 -33.567  12.793  1.00  0.00    -0.283 N 
ATOM      3  H2  UNL     1      15.537 -32.591  12.705  1.00  0.00     0.188 HD
HETATM    4  N3  UNL     1      15.745 -34.435  11.904  1.00  0.00    -0.280 N 
ATOM      5  H3  UNL     1      16.380 -34.102  11.178  1.00  0.00     0.188 HD
HETATM    6  C8  UNL     1      15.418 -35.745  11.949  1.00  0.00     0.180 A 
HETATM    7  C9  UNL     1      14.561 -36.110  12.953  1.00  0.00     0.055 A 
HETATM    8  C10 UNL     1      14.320 -37.453  12.875  1.00  0.00     0.065 A 
HETATM    9  C11 UNL     1      13.465 -37.962  13.836  1.00  0.00     0.032 A 
HETATM   10  C12 UNL     1      12.913 -37.110  14.798  1.00  0.00     0.003 A 
HETATM   11  C13 UNL     1      13.200 -35.738  14.823  1.00  0.00     0.016 A 
HETATM   12  C14 UNL     1      14.052 -35.229  13.866  1.00  0.00     0.026 A 
HETATM   13  N4  UNL     1      15.074 -37.944  11.757  1.00  0.00    -0.272 N 
ATOM     14  H4  UNL     1      15.107 -38.911  11.436  1.00  0.00     0.189 HD
HETATM   15  N5  UNL     1      15.710 -36.941  11.224  1.00  0.00    -0.144 N 
ENDROOT
BRANCH   1  16
HETATM   16  N1  UNL     1      13.942 -33.054  14.639  1.00  0.00    -0.341 N 
ATOM     17  H1  UNL     1      12.957 -32.808  14.553  1.00  0.00     0.167 HD
BRANCH  16  18
HETATM   18  C6  UNL     1      14.663 -32.459  15.683  1.00  0.00     0.034 A 
HETATM   19  C5  UNL     1      14.857 -31.088  15.748  1.00  0.00     0.029 A 
HETATM   20  C4  UNL     1      15.568 -30.505  16.779  1.00  0.00     0.003 A 
HETATM   21  C3  UNL     1      16.101 -31.300  17.771  1.00  0.00     0.007 A 
HETATM   22  C2  UNL     1      15.931 -32.674  17.745  1.00  0.00    -0.060 A 
HETATM   23  C1  UNL     1      16.495 -33.565  18.805  1.00  0.00     0.048 C 
HETATM   24  C15 UNL     1      15.211 -33.221  16.692  1.00  0.00     0.036 A 
ENDBRANCH  16  18
ENDBRANCH   1  16
BRANCH  15  25
HETATM   25  O1  UNL     1      16.523 -37.015  10.149  1.00  0.00    -0.266 OA
ATOM     26  H1  UNL     1      16.812 -37.821   9.739  1.00  0.00     0.247 HD
ENDBRANCH  15  25
TORSDOF 3
ENDMDL
MODEL 4
REMARK VINA RESULT: -8.934980212      3.831      5.268
REMARK  3 active torsions:
REMARK  status: ('A' for Active; 'I' for Inactive)
REMARK    1  A    between atoms: C6_6  and  N1_7 
REMARK    2  A    between atoms: N1_7  and  C7_9 
REMARK    3  A    between atoms: N5_23  and  O1_24 
ROOT
HETATM    1  C7  UNL     1      15.872 -36.054  15.418  1.00  0.00     0.132 A 
HETATM    2  N2  UNL     1      16.611 -35.382  14.528  1.00  0.00    -0.283 N 
ATOM      3  H2  UNL     1      17.139 -34.577  14.866  1.00  0.00     0.188 HD
HETATM    4  N3  UNL     1      16.712 -35.683  13.229  1.00  0.00    -0.280 N 
ATOM      5  H3  UNL     1      17.303 -35.109  12.627  1.00  0.00     0.188 HD
HETATM    6  C8  UNL     1      16.044 -36.731  12.699  1.00  0.00     0.180 A 
HETATM    7  C9  UNL     1      15.273 -37.449  13.575  1.00  0.00     0.055 A 
HETATM    8  C10 UNL     1      14.661 -38.470  12.904  1.00  0.00     0.065 A 
HETATM    9  C11 UNL     1      13.845 -39.283  13.670  1.00  0.00     0.032 A 
HETATM   10  C12 UNL     1      13.695 -39.025  15.037  1.00  0.00     0.003 A 
HETATM   11  C13 UNL     1      14.351 -37.959  15.666  1.00  0.00     0.016 A 
HETATM   12  C14 UNL     1      15.164 -37.148  14.904  1.00  0.00     0.026 A 
HETATM   13  N4  UNL     1      15.082 -38.376  11.535  1.00  0.00    -0.272 N 
ATOM     14  H4  UNL     1      14.799 -38.998  10.778  1.00  0.00     0.189 HD
HETATM   15  N5  UNL     1      15.887 -37.360  11.425  1.00  0.00    -0.144 N 
ENDROOT
BRANCH   1  16
HETATM   16  N1  UNL     1      15.773 -35.772  16.656  1.00  0.00    -0.341 N 
ATOM     17  H1  UNL     1      14.851 -35.506  17.003  1.00  0.00     0.167 HD
BRANCH  16  18
HETATM   18  C6  UNL     1      16.823 -35.796  17.583  1.00  0.00     0.034 A 
HETATM   19  C5  UNL     1      17.538 -36.953  17.848  1.00  0.00     0.029 A 
HETATM   20  C4  UNL     1      18.572 -36.973  18.764  1.00  0.00     0.003 A 
HETATM   21  C3  UNL     1      18.909 -35.815  19.433  1.00  0.00     0.007 A 
HETATM   22  C2  UNL     1      18.221 -34.637  19.198  1.00  0.00    -0.060 A 
HETATM   23  C1  UNL     1      18.560 -33.364  19.907  1.00  0.00     0.048 C 
HETATM   24  C15 UNL     1      17.188 -34.659  18.272  1.00  0.00     0.036 A 
ENDBRANCH  16  18
ENDBRANCH   1  16
BRANCH  15  25
HETATM   25  O1  UNL     1      16.486 -36.956  10.285  1.00  0.00    -0.266 OA
ATOM     26  H1  UNL     1      17.164 -36.294  10.232  1.00  0.00     0.247 HD
ENDBRANCH  15  25
TORSDOF 3
ENDMDL
MODEL 5
REMARK VINA RESULT: -8.875143407      4.118      5.503
REMARK  3 active torsions:
REMARK  status: ('A' for Active; 'I' for Inactive)
REMARK    1  A    between atoms: C6_6  and  N1_7 
REMARK    2  A    between atoms: N1_7  and  C7_9 
REMARK    3  A    between atoms: N5_23  and  O1_24 
ROOT
HETATM    1  C7  UNL     1      15.825 -36.922  15.880  1.00  0.00     0.132 A 
HETATM    2  N2  UNL     1      15.986 -38.250  15.882  1.00  0.00    -0.283 N 
ATOM      3  H2  UNL     1      16.304 -38.684  16.749  1.00  0.00     0.188 HD
HETATM    4  N3  UNL     1      15.764 -39.053  14.836  1.00  0.00    -0.280 N 
ATOM      5  H3  UNL     1      15.915 -40.057  14.935  1.00  0.00     0.188 HD
HETATM    6  C8  UNL     1      15.343 -38.559  13.651  1.00  0.00     0.180 A 
HETATM    7  C9  UNL     1      15.165 -37.202  13.602  1.00  0.00     0.055 A 
HETATM    8  C10 UNL     1      14.742 -36.847  12.352  1.00  0.00     0.065 A 
HETATM    9  C11 UNL     1      14.520 -35.496  12.158  1.00  0.00     0.032 A 
HETATM   10  C12 UNL     1      14.732 -34.599  13.210  1.00  0.00     0.003 A 
HETATM   11  C13 UNL     1      15.168 -35.027  14.472  1.00  0.00     0.016 A 
HETATM   12  C14 UNL     1      15.390 -36.374  14.666  1.00  0.00     0.026 A 
HETATM   13  N4  UNL     1      14.654 -38.058  11.587  1.00  0.00    -0.272 N 
ATOM     14  H4  UNL     1      14.365 -38.130  10.611  1.00  0.00     0.189 HD
HETATM   15  N5  UNL     1      15.007 -39.050  12.352  1.00  0.00    -0.144 N 
ENDROOT
BRANCH   1  16
HETATM   16  N1  UNL     1      16.035 -36.152  16.874  1.00  0.00    -0.341 N 
ATOM     17  H1  UNL     1      15.228 -35.673  17.271  1.00  0.00     0.167 HD
BRANCH  16  18
HETATM   18  C6  UNL     1      17.281 -35.909  17.466  1.00  0.00     0.034 A 
HETATM   19  C5  UNL     1      17.748 -36.672  18.525  1.00  0.00     0.029 A 
HETATM   20  C4  UNL     1      18.977 -36.428  19.107  1.00  0.00     0.003 A 
HETATM   21  C3  UNL     1      19.764 -35.403  18.627  1.00  0.00     0.007 A 
HETATM   22  C2  UNL     1      19.336 -34.618  17.571  1.00  0.00    -0.060 A 
HETATM   23  C1  UNL     1      20.166 -33.498  17.026  1.00  0.00     0.048 C 
HETATM   24  C15 UNL     1      18.095 -34.894  17.014  1.00  0.00     0.036 A 
ENDBRANCH  16  18
ENDBRANCH   1  16
BRANCH  15  25
HETATM   25  O1  UNL     1      15.050 -40.347  11.981  1.00  0.00    -0.266 OA
ATOM     26  H1  UNL     1      15.714 -40.969  12.254  1.00  0.00     0.247 HD
ENDBRANCH  15  25
TORSDOF 3
ENDMDL
