MODEL 1
REMARK VINA RESULT: -8.135180399      0.000      0.000
REMARK  7 active torsions:
REMARK  status: ('A' for Active; 'I' for Inactive)
REMARK    1  A    between atoms: C2_2  and  C4_4 
REMARK    2  A    between atoms: C8_8  and  C9_9 
REMARK    3  A    between atoms: C9_9  and  O2_11 
REMARK    4  A    between atoms: O2_11  and  C10_12 
REMARK    5  A    between atoms: C10_12  and  C11_13 
REMARK    6  A    between atoms: C11_13  and  C12_14 
REMARK    7  A    between atoms: C12_14  and  O3_15 
ROOT
HETATM    1  C4  UNL     1       3.195   7.074  -4.710  1.00  0.00     0.044 C 
HETATM    2  C5  UNL     1       2.298   8.234  -4.739  1.00  0.00    -0.020 C 
HETATM    3  C6  UNL     1       2.180   8.778  -3.533  1.00  0.00    -0.024 C 
HETATM    4  C7  UNL     1       2.967   8.081  -2.519  1.00  0.00     0.030 C 
HETATM    5  C8  UNL     1       2.218   7.394  -1.438  1.00  0.00     0.094 C 
HETATM    6  C18 UNL     1       1.456   6.181  -1.936  1.00  0.00     0.015 C 
HETATM    7  C19 UNL     1       2.406   5.154  -2.521  1.00  0.00     0.002 C 
HETATM    8  C20 UNL     1       3.797   5.728  -2.692  1.00  0.00     0.011 C 
HETATM    9  C21 UNL     1       3.791   7.095  -3.340  1.00  0.00    -0.026 C 
HETATM   10  C22 UNL     1       5.208   7.603  -3.358  1.00  0.00     0.017 C 
ENDROOT
BRANCH   5  11
HETATM   11  C9  UNL     1       1.272   8.272  -0.722  1.00  0.00     0.263 C 
HETATM   12  O1  UNL     1       0.049   8.008  -0.772  1.00  0.00    -0.265 OA
BRANCH  11  13
HETATM   13  O2  UNL     1       1.651   9.371   0.000  1.00  0.00    -0.320 OA
BRANCH  13  14
HETATM   14  C10 UNL     1       1.176  10.618   0.149  1.00  0.00     0.190 C 
BRANCH  14  15
HETATM   15  C11 UNL     1       0.875  11.546  -0.962  1.00  0.00     0.003 C 
HETATM   16  C13 UNL     1       0.708  12.990  -0.417  1.00  0.00     0.014 C 
HETATM   17  C14 UNL     1      -0.283  13.777  -1.215  1.00  0.00     0.001 C 
HETATM   18  C15 UNL     1      -1.679  13.302  -0.822  1.00  0.00     0.000 C 
HETATM   19  C16 UNL     1      -1.600  11.794  -0.671  1.00  0.00     0.001 C 
HETATM   20  C17 UNL     1      -0.520  11.224  -1.558  1.00  0.00     0.014 C 
BRANCH  15  21
HETATM   21  C12 UNL     1       1.783  11.666  -2.123  1.00  0.00     0.175 C 
BRANCH  21  22
HETATM   22  O3  UNL     1       3.111  11.625  -1.794  1.00  0.00    -0.400 OA
ATOM     23  H3  UNL     1       3.694  11.681  -2.542  1.00  0.00     0.209 HD
ENDBRANCH  21  22
ENDBRANCH  15  21
ENDBRANCH  14  15
ENDBRANCH  13  14
ENDBRANCH  11  13
ENDBRANCH   5  11
BRANCH   1  24
HETATM   24  C2  UNL     1       4.191   7.051  -5.817  1.00  0.00    -0.085 C 
HETATM   25  C1  UNL     1       4.245   8.090  -6.633  1.00  0.00     0.014 C 
HETATM   26  C3  UNL     1       5.091   5.898  -6.028  1.00  0.00     0.043 C 
ENDBRANCH   1  24
TORSDOF 7
ENDMDL
MODEL 2
REMARK VINA RESULT: -7.856770016      2.032      6.694
REMARK  7 active torsions:
REMARK  status: ('A' for Active; 'I' for Inactive)
REMARK    1  A    between atoms: C2_2  and  C4_4 
REMARK    2  A    between atoms: C8_8  and  C9_9 
REMARK    3  A    between atoms: C9_9  and  O2_11 
REMARK    4  A    between atoms: O2_11  and  C10_12 
REMARK    5  A    between atoms: C10_12  and  C11_13 
REMARK    6  A    between atoms: C11_13  and  C12_14 
REMARK    7  A    between atoms: C12_14  and  O3_15 
ROOT
HETATM    1  C4  UNL     1       1.271  10.522  -0.811  1.00  0.00     0.044 C 
HETATM    2  C5  UNL     1       2.364  10.638  -1.782  1.00  0.00    -0.020 C 
HETATM    3  C6  UNL     1       2.433   9.562  -2.556  1.00  0.00    -0.024 C 
HETATM    4  C7  UNL     1       1.412   8.568  -2.234  1.00  0.00     0.030 C 
HETATM    5  C8  UNL     1       1.883   7.266  -1.697  1.00  0.00     0.094 C 
HETATM    6  C18 UNL     1       2.461   7.385  -0.301  1.00  0.00     0.015 C 
HETATM    7  C19 UNL     1       1.416   7.899   0.670  1.00  0.00     0.002 C 
HETATM    8  C20 UNL     1       0.187   8.399  -0.060  1.00  0.00     0.011 C 
HETATM    9  C21 UNL     1       0.527   9.297  -1.229  1.00  0.00    -0.026 C 
HETATM   10  C22 UNL     1      -0.759   9.640  -1.934  1.00  0.00     0.017 C 
ENDROOT
BRANCH   5  11
HETATM   11  C9  UNL     1       2.881   6.598  -2.556  1.00  0.00     0.263 C 
HETATM   12  O1  UNL     1       4.032   6.404  -2.103  1.00  0.00    -0.265 OA
BRANCH  11  13
HETATM   13  O2  UNL     1       2.625   6.173  -3.831  1.00  0.00    -0.320 OA
BRANCH  13  14
HETATM   14  C10 UNL     1       3.317   6.156  -4.982  1.00  0.00     0.190 C 
BRANCH  14  15
HETATM   15  C11 UNL     1       3.889   7.350  -5.642  1.00  0.00     0.003 C 
HETATM   16  C13 UNL     1       4.162   7.049  -7.140  1.00  0.00     0.014 C 
HETATM   17  C14 UNL     1       5.349   7.801  -7.654  1.00  0.00     0.001 C 
HETATM   18  C15 UNL     1       6.602   7.110  -7.126  1.00  0.00     0.000 C 
HETATM   19  C16 UNL     1       6.309   6.710  -5.692  1.00  0.00     0.001 C 
HETATM   20  C17 UNL     1       5.300   7.646  -5.072  1.00  0.00     0.014 C 
BRANCH  15  21
HETATM   21  C12 UNL     1       3.176   8.645  -5.625  1.00  0.00     0.175 C 
BRANCH  21  22
HETATM   22  O3  UNL     1       1.834   8.543  -5.875  1.00  0.00    -0.400 OA
ATOM     23  H3  UNL     1       1.306   8.421  -5.095  1.00  0.00     0.209 HD
ENDBRANCH  21  22
ENDBRANCH  15  21
ENDBRANCH  14  15
ENDBRANCH  13  14
ENDBRANCH  11  13
ENDBRANCH   5  11
BRANCH   1  24
HETATM   24  C2  UNL     1       0.431  11.747  -0.697  1.00  0.00    -0.085 C 
HETATM   25  C1  UNL     1       0.680  12.756  -1.514  1.00  0.00     0.014 C 
HETATM   26  C3  UNL     1      -0.644  11.860   0.311  1.00  0.00     0.043 C 
ENDBRANCH   1  24
TORSDOF 7
ENDMDL
MODEL 3
REMARK VINA RESULT: -7.494192424      3.361      7.250
REMARK  7 active torsions:
REMARK  status: ('A' for Active; 'I' for Inactive)
REMARK    1  A    between atoms: C2_2  and  C4_4 
REMARK    2  A    between atoms: C8_8  and  C9_9 
REMARK    3  A    between atoms: C9_9  and  O2_11 
REMARK    4  A    between atoms: O2_11  and  C10_12 
REMARK    5  A    between atoms: C10_12  and  C11_13 
REMARK    6  A    between atoms: C11_13  and  C12_14 
REMARK    7  A    between atoms: C12_14  and  O3_15 
ROOT
HETATM    1  C4  UNL     1      -0.076  10.926  -1.481  1.00  0.00     0.044 C 
HETATM    2  C5  UNL     1      -0.995   9.823  -1.185  1.00  0.00    -0.020 C 
HETATM    3  C6  UNL     1      -0.363   8.820  -0.587  1.00  0.00    -0.024 C 
HETATM    4  C7  UNL     1       1.059   9.087  -0.389  1.00  0.00     0.030 C 
HETATM    5  C8  UNL     1       2.016   8.231  -1.134  1.00  0.00     0.094 C 
HETATM    6  C18 UNL     1       1.993   8.492  -2.627  1.00  0.00     0.015 C 
HETATM    7  C19 UNL     1       2.378   9.929  -2.926  1.00  0.00     0.002 C 
HETATM    8  C20 UNL     1       2.412  10.762  -1.662  1.00  0.00     0.011 C 
HETATM    9  C21 UNL     1       1.194  10.552  -0.789  1.00  0.00    -0.026 C 
HETATM   10  C22 UNL     1       1.392  11.343   0.476  1.00  0.00     0.017 C 
ENDROOT
BRANCH   5  11
HETATM   11  C9  UNL     1       1.813   6.785  -0.915  1.00  0.00     0.263 C 
HETATM   12  O1  UNL     1       1.912   6.007  -1.892  1.00  0.00    -0.265 OA
BRANCH  11  13
HETATM   13  O2  UNL     1       1.519   6.234   0.303  1.00  0.00    -0.320 OA
BRANCH  13  14
HETATM   14  C10 UNL     1       2.160   5.416   1.153  1.00  0.00     0.190 C 
BRANCH  14  15
HETATM   15  C11 UNL     1       1.642   4.115   1.628  1.00  0.00     0.003 C 
HETATM   16  C13 UNL     1       0.796   4.317   2.914  1.00  0.00     0.014 C 
HETATM   17  C14 UNL     1       0.892   3.144   3.836  1.00  0.00     0.001 C 
HETATM   18  C15 UNL     1       2.247   3.209   4.532  1.00  0.00     0.000 C 
HETATM   19  C16 UNL     1       3.254   3.649   3.486  1.00  0.00     0.001 C 
HETATM   20  C17 UNL     1       2.814   3.221   2.107  1.00  0.00     0.014 C 
BRANCH  15  21
HETATM   21  C12 UNL     1       0.822   3.254   0.749  1.00  0.00     0.175 C 
BRANCH  21  22
HETATM   22  O3  UNL     1       1.053   3.445  -0.587  1.00  0.00    -0.400 OA
ATOM     23  H3  UNL     1       1.501   2.721  -1.007  1.00  0.00     0.209 HD
ENDBRANCH  21  22
ENDBRANCH  15  21
ENDBRANCH  14  15
ENDBRANCH  13  14
ENDBRANCH  11  13
ENDBRANCH   5  11
BRANCH   1  24
HETATM   24  C2  UNL     1      -0.605  12.269  -1.117  1.00  0.00    -0.085 C 
HETATM   25  C1  UNL     1      -1.786  12.339  -0.527  1.00  0.00     0.014 C 
HETATM   26  C3  UNL     1       0.145  13.507  -1.417  1.00  0.00     0.043 C 
ENDBRANCH   1  24
TORSDOF 7
ENDMDL
MODEL 4
REMARK VINA RESULT: -7.450629037      3.120      7.353
REMARK  7 active torsions:
REMARK  status: ('A' for Active; 'I' for Inactive)
REMARK    1  A    between atoms: C2_2  and  C4_4 
REMARK    2  A    between atoms: C8_8  and  C9_9 
REMARK    3  A    between atoms: C9_9  and  O2_11 
REMARK    4  A    between atoms: O2_11  and  C10_12 
REMARK    5  A    between atoms: C10_12  and  C11_13 
REMARK    6  A    between atoms: C11_13  and  C12_14 
REMARK    7  A    between atoms: C12_14  and  O3_15 
ROOT
HETATM    1  C4  UNL     1      -0.069  10.890  -1.475  1.00  0.00     0.044 C 
HETATM    2  C5  UNL     1      -0.998   9.799  -1.164  1.00  0.00    -0.020 C 
HETATM    3  C6  UNL     1      -0.376   8.803  -0.545  1.00  0.00    -0.024 C 
HETATM    4  C7  UNL     1       1.048   9.064  -0.344  1.00  0.00     0.030 C 
HETATM    5  C8  UNL     1       2.003   8.188  -1.068  1.00  0.00     0.094 C 
HETATM    6  C18 UNL     1       1.989   8.422  -2.566  1.00  0.00     0.015 C 
HETATM    7  C19 UNL     1       2.384   9.850  -2.889  1.00  0.00     0.002 C 
HETATM    8  C20 UNL     1       2.418  10.706  -1.640  1.00  0.00     0.011 C 
HETATM    9  C21 UNL     1       1.194  10.520  -0.770  1.00  0.00    -0.026 C 
HETATM   10  C22 UNL     1       1.392  11.333   0.481  1.00  0.00     0.017 C 
ENDROOT
BRANCH   5  11
HETATM   11  C9  UNL     1       1.788   6.747  -0.824  1.00  0.00     0.263 C 
HETATM   12  O1  UNL     1       1.887   5.952  -1.786  1.00  0.00    -0.265 OA
BRANCH  11  13
HETATM   13  O2  UNL     1       1.485   6.221   0.402  1.00  0.00    -0.320 OA
BRANCH  13  14
HETATM   14  C10 UNL     1       2.154   5.501   1.317  1.00  0.00     0.190 C 
BRANCH  14  15
HETATM   15  C11 UNL     1       1.662   4.252   1.935  1.00  0.00     0.003 C 
HETATM   16  C13 UNL     1       2.857   3.322   2.278  1.00  0.00     0.014 C 
HETATM   17  C14 UNL     1       2.492   1.876   2.162  1.00  0.00     0.001 C 
HETATM   18  C15 UNL     1       2.445   1.526   0.678  1.00  0.00     0.000 C 
HETATM   19  C16 UNL     1       1.800   2.703  -0.028  1.00  0.00     0.001 C 
HETATM   20  C17 UNL     1       0.854   3.429   0.898  1.00  0.00     0.014 C 
BRANCH  15  21
HETATM   21  C12 UNL     1       0.825   4.281   3.154  1.00  0.00     0.175 C 
BRANCH  21  22
HETATM   22  O3  UNL     1       1.542   4.391   4.316  1.00  0.00    -0.400 OA
ATOM     23  H3  UNL     1       1.331   3.728   4.962  1.00  0.00     0.209 HD
ENDBRANCH  21  22
ENDBRANCH  15  21
ENDBRANCH  14  15
ENDBRANCH  13  14
ENDBRANCH  11  13
ENDBRANCH   5  11
BRANCH   1  24
HETATM   24  C2  UNL     1      -0.591  12.243  -1.139  1.00  0.00    -0.085 C 
HETATM   25  C1  UNL     1      -1.779  12.333  -0.564  1.00  0.00     0.014 C 
HETATM   26  C3  UNL     1       0.173  13.470  -1.449  1.00  0.00     0.043 C 
ENDBRANCH   1  24
TORSDOF 7
ENDMDL
MODEL 5
REMARK VINA RESULT: -7.422712850      4.985      7.630
REMARK  7 active torsions:
REMARK  status: ('A' for Active; 'I' for Inactive)
REMARK    1  A    between atoms: C2_2  and  C4_4 
REMARK    2  A    between atoms: C8_8  and  C9_9 
REMARK    3  A    between atoms: C9_9  and  O2_11 
REMARK    4  A    between atoms: O2_11  and  C10_12 
REMARK    5  A    between atoms: C10_12  and  C11_13 
REMARK    6  A    between atoms: C11_13  and  C12_14 
REMARK    7  A    between atoms: C12_14  and  O3_15 
ROOT
HETATM    1  C4  UNL     1       1.558   7.650  -1.615  1.00  0.00     0.044 C 
HETATM    2  C5  UNL     1       1.262   8.102  -0.251  1.00  0.00    -0.020 C 
HETATM    3  C6  UNL     1       1.834   7.311   0.649  1.00  0.00    -0.024 C 
HETATM    4  C7  UNL     1       2.592   6.219   0.042  1.00  0.00     0.030 C 
HETATM    5  C8  UNL     1       2.095   4.840   0.276  1.00  0.00     0.094 C 
HETATM    6  C18 UNL     1       0.786   4.563  -0.435  1.00  0.00     0.015 C 
HETATM    7  C19 UNL     1       0.949   4.713  -1.936  1.00  0.00     0.002 C 
HETATM    8  C20 UNL     1       2.277   5.351  -2.283  1.00  0.00     0.011 C 
HETATM    9  C21 UNL     1       2.577   6.573  -1.441  1.00  0.00    -0.026 C 
HETATM   10  C22 UNL     1       3.959   7.051  -1.800  1.00  0.00     0.017 C 
ENDROOT
BRANCH   5  11
HETATM   11  C9  UNL     1       1.925   4.506   1.704  1.00  0.00     0.263 C 
HETATM   12  O1  UNL     1       0.785   4.194   2.118  1.00  0.00    -0.265 OA
BRANCH  11  13
HETATM   13  O2  UNL     1       2.946   4.517   2.615  1.00  0.00    -0.320 OA
BRANCH  13  14
HETATM   14  C10 UNL     1       3.756   3.585   3.144  1.00  0.00     0.190 C 
BRANCH  14  15
HETATM   15  C11 UNL     1       4.603   3.781   4.339  1.00  0.00     0.003 C 
HETATM   16  C13 UNL     1       5.758   4.768   4.016  1.00  0.00     0.014 C 
HETATM   17  C14 UNL     1       6.998   4.450   4.790  1.00  0.00     0.001 C 
HETATM   18  C15 UNL     1       7.651   3.233   4.144  1.00  0.00     0.000 C 
HETATM   19  C16 UNL     1       6.528   2.285   3.765  1.00  0.00     0.001 C 
HETATM   20  C17 UNL     1       5.344   2.463   4.685  1.00  0.00     0.014 C 
BRANCH  15  21
HETATM   21  C12 UNL     1       4.026   4.255   5.615  1.00  0.00     0.175 C 
BRANCH  21  22
HETATM   22  O3  UNL     1       2.690   4.548   5.543  1.00  0.00    -0.400 OA
ATOM     23  H3  UNL     1       2.484   5.265   4.955  1.00  0.00     0.209 HD
ENDBRANCH  21  22
ENDBRANCH  15  21
ENDBRANCH  14  15
ENDBRANCH  13  14
ENDBRANCH  11  13
ENDBRANCH   5  11
BRANCH   1  24
HETATM   24  C2  UNL     1       1.966   8.744  -2.539  1.00  0.00    -0.085 C 
HETATM   25  C1  UNL     1       1.908   9.990  -2.100  1.00  0.00     0.014 C 
HETATM   26  C3  UNL     1       2.407   8.468  -3.922  1.00  0.00     0.043 C 
ENDBRANCH   1  24
TORSDOF 7
ENDMDL
