MODEL 1
REMARK VINA RESULT: -8.751327697      0.000      0.000
REMARK  6 active torsions:
REMARK  status: ('A' for Active; 'I' for Inactive)
REMARK    1  A    between atoms: C2_2  and  C3_3 
REMARK    2  A    between atoms: C3_3  and  C4_4 
REMARK    3  A    between atoms: C4_4  and  O2_6 
REMARK    4  A    between atoms: O2_6  and  C5_7 
REMARK    5  A    between atoms: C7_9  and  N1_10 
REMARK    6  A    between atoms: N1_10  and  C8_12 
ROOT
HETATM    1  C5  UNL     1       2.726   6.322  -3.006  1.00  0.00     0.138 C 
HETATM    2  C6  UNL     1       2.966   7.511  -2.112  1.00  0.00     0.057 C 
HETATM    3  C7  UNL     1       2.970   8.813  -2.820  1.00  0.00     0.080 C 
HETATM    4  C16 UNL     1       3.037   8.545  -4.328  1.00  0.00     0.034 C 
HETATM    5  C17 UNL     1       4.138   7.585  -4.629  1.00  0.00     0.022 C 
HETATM    6  C18 UNL     1       4.224   7.454  -6.103  1.00  0.00    -0.085 C 
HETATM    7  C19 UNL     1       4.709   8.372  -6.910  1.00  0.00     0.014 C 
HETATM    8  C20 UNL     1       3.687   6.144  -6.520  1.00  0.00     0.034 C 
HETATM    9  C21 UNL     1       3.092   5.510  -5.278  1.00  0.00     0.012 C 
HETATM   10  C22 UNL     1       3.741   6.215  -4.109  1.00  0.00     0.024 C 
ENDROOT
BRANCH   3  11
HETATM   11  N1  UNL     1       1.827   9.647  -2.624  1.00  0.00    -0.412 N 
ATOM     12  H1  UNL     1       1.075   9.676  -3.313  1.00  0.00     0.154 HD
BRANCH  11  13
HETATM   13  C8  UNL     1       1.765  10.432  -1.449  1.00  0.00     0.084 C 
HETATM   14  C9  UNL     1       1.847  11.902  -1.697  1.00  0.00     0.025 C 
HETATM   15  C10 UNL     1       0.511  12.606  -1.748  1.00  0.00     0.002 C 
HETATM   16  C11 UNL     1      -0.359  12.356  -0.561  1.00  0.00     0.001 C 
HETATM   17  C12 UNL     1       0.050  11.142   0.236  1.00  0.00     0.011 C 
HETATM   18  C13 UNL     1       0.514  10.029  -0.675  1.00  0.00    -0.028 C 
HETATM   19  C14 UNL     1      -0.606   9.578  -1.573  1.00  0.00     0.017 C 
HETATM   20  C15 UNL     1       0.864   8.856   0.249  1.00  0.00     0.017 C 
ENDBRANCH  11  13
ENDBRANCH   3  11
BRANCH   1  21
HETATM   21  O2  UNL     1       2.664   5.131  -2.290  1.00  0.00    -0.315 OA
BRANCH  21  22
HETATM   22  C4  UNL     1       1.624   4.829  -1.412  1.00  0.00     0.262 C 
HETATM   23  O1  UNL     1       0.562   4.428  -1.941  1.00  0.00    -0.265 OA
BRANCH  22  24
HETATM   24  C3  UNL     1       1.716   4.954   0.044  1.00  0.00     0.137 C 
BRANCH  24  25
HETATM   25  C2  UNL     1       1.262   3.754   0.776  1.00  0.00    -0.027 C 
HETATM   26  C1  UNL     1       1.956   2.634   0.677  1.00  0.00     0.007 C 
ENDBRANCH  24  25
ENDBRANCH  22  24
ENDBRANCH  21  22
ENDBRANCH   1  21
TORSDOF 6
ENDMDL
MODEL 2
REMARK VINA RESULT: -8.699438031      1.582      5.723
REMARK  6 active torsions:
REMARK  status: ('A' for Active; 'I' for Inactive)
REMARK    1  A    between atoms: C2_2  and  C3_3 
REMARK    2  A    between atoms: C3_3  and  C4_4 
REMARK    3  A    between atoms: C4_4  and  O2_6 
REMARK    4  A    between atoms: O2_6  and  C5_7 
REMARK    5  A    between atoms: C7_9  and  N1_10 
REMARK    6  A    between atoms: N1_10  and  C8_12 
ROOT
HETATM    1  C5  UNL     1       1.493   8.674  -0.454  1.00  0.00     0.138 C 
HETATM    2  C6  UNL     1       1.335   8.067  -1.825  1.00  0.00     0.057 C 
HETATM    3  C7  UNL     1       1.631   8.998  -2.939  1.00  0.00     0.080 C 
HETATM    4  C16 UNL     1       1.717  10.421  -2.373  1.00  0.00     0.034 C 
HETATM    5  C17 UNL     1       0.524  10.707  -1.525  1.00  0.00     0.022 C 
HETATM    6  C18 UNL     1       0.609  12.126  -1.102  1.00  0.00    -0.085 C 
HETATM    7  C19 UNL     1       0.386  13.157  -1.887  1.00  0.00     0.014 C 
HETATM    8  C20 UNL     1       0.978  12.200   0.325  1.00  0.00     0.034 C 
HETATM    9  C21 UNL     1       1.298  10.783   0.759  1.00  0.00     0.012 C 
HETATM   10  C22 UNL     1       0.626   9.883  -0.253  1.00  0.00     0.024 C 
ENDROOT
BRANCH   3  11
HETATM   11  N1  UNL     1       2.858   8.783  -3.638  1.00  0.00    -0.412 N 
ATOM     12  H1  UNL     1       3.684   9.347  -3.434  1.00  0.00     0.154 HD
BRANCH  11  13
HETATM   13  C8  UNL     1       2.899   7.767  -4.621  1.00  0.00     0.084 C 
HETATM   14  C9  UNL     1       3.128   8.273  -6.007  1.00  0.00     0.025 C 
HETATM   15  C10 UNL     1       4.565   8.212  -6.469  1.00  0.00     0.002 C 
HETATM   16  C11 UNL     1       5.198   6.867  -6.326  1.00  0.00     0.001 C 
HETATM   17  C12 UNL     1       4.462   5.957  -5.374  1.00  0.00     0.011 C 
HETATM   18  C13 UNL     1       3.932   6.731  -4.189  1.00  0.00    -0.028 C 
HETATM   19  C14 UNL     1       5.064   7.331  -3.399  1.00  0.00     0.017 C 
HETATM   20  C15 UNL     1       3.243   5.694  -3.292  1.00  0.00     0.017 C 
ENDBRANCH  11  13
ENDBRANCH   3  11
BRANCH   1  21
HETATM   21  O2  UNL     1       1.271   7.747   0.559  1.00  0.00    -0.315 OA
BRANCH  21  22
HETATM   22  C4  UNL     1       2.012   6.573   0.688  1.00  0.00     0.262 C 
HETATM   23  O1  UNL     1       3.039   6.652   1.400  1.00  0.00    -0.265 OA
BRANCH  22  24
HETATM   24  C3  UNL     1       1.656   5.303   0.053  1.00  0.00     0.137 C 
BRANCH  24  25
HETATM   25  C2  UNL     1       1.734   4.140   0.961  1.00  0.00    -0.027 C 
HETATM   26  C1  UNL     1       1.742   2.921   0.452  1.00  0.00     0.007 C 
ENDBRANCH  24  25
ENDBRANCH  22  24
ENDBRANCH  21  22
ENDBRANCH   1  21
TORSDOF 6
ENDMDL
MODEL 3
REMARK VINA RESULT: -7.665172660      4.631      8.685
REMARK  6 active torsions:
REMARK  status: ('A' for Active; 'I' for Inactive)
REMARK    1  A    between atoms: C2_2  and  C3_3 
REMARK    2  A    between atoms: C3_3  and  C4_4 
REMARK    3  A    between atoms: C4_4  and  O2_6 
REMARK    4  A    between atoms: O2_6  and  C5_7 
REMARK    5  A    between atoms: C7_9  and  N1_10 
REMARK    6  A    between atoms: N1_10  and  C8_12 
ROOT
HETATM    1  C5  UNL     1       2.171   3.420   1.301  1.00  0.00     0.138 C 
HETATM    2  C6  UNL     1       2.396   4.043   2.655  1.00  0.00     0.057 C 
HETATM    3  C7  UNL     1       3.509   3.438   3.424  1.00  0.00     0.080 C 
HETATM    4  C16 UNL     1       3.919   2.129   2.738  1.00  0.00     0.034 C 
HETATM    5  C17 UNL     1       2.715   1.289   2.478  1.00  0.00     0.022 C 
HETATM    6  C18 UNL     1       3.184  -0.002   1.920  1.00  0.00    -0.085 C 
HETATM    7  C19 UNL     1       3.780  -0.946   2.614  1.00  0.00     0.014 C 
HETATM    8  C20 UNL     1       2.880  -0.061   0.477  1.00  0.00     0.034 C 
HETATM    9  C21 UNL     1       2.356   1.308   0.092  1.00  0.00     0.012 C 
HETATM   10  C22 UNL     1       1.893   1.946   1.382  1.00  0.00     0.024 C 
ENDROOT
BRANCH   3  11
HETATM   11  N1  UNL     1       4.705   4.213   3.529  1.00  0.00    -0.412 N 
ATOM     12  H1  UNL     1       5.354   4.282   2.745  1.00  0.00     0.154 HD
BRANCH  11  13
HETATM   13  C8  UNL     1       4.964   4.881   4.748  1.00  0.00     0.084 C 
HETATM   14  C9  UNL     1       4.394   4.198   5.947  1.00  0.00     0.025 C 
HETATM   15  C10 UNL     1       5.369   3.318   6.693  1.00  0.00     0.002 C 
HETATM   16  C11 UNL     1       6.642   4.000   7.075  1.00  0.00     0.001 C 
HETATM   17  C12 UNL     1       6.902   5.263   6.293  1.00  0.00     0.011 C 
HETATM   18  C13 UNL     1       6.470   5.105   4.853  1.00  0.00    -0.028 C 
HETATM   19  C14 UNL     1       7.269   4.026   4.175  1.00  0.00     0.017 C 
HETATM   20  C15 UNL     1       6.817   6.434   4.169  1.00  0.00     0.017 C 
ENDBRANCH  11  13
ENDBRANCH   3  11
BRANCH   1  21
HETATM   21  O2  UNL     1       1.163   4.062   0.589  1.00  0.00    -0.315 OA
BRANCH  21  22
HETATM   22  C4  UNL     1       1.409   4.826  -0.552  1.00  0.00     0.262 C 
HETATM   23  O1  UNL     1       0.920   4.386  -1.618  1.00  0.00    -0.265 OA
BRANCH  22  24
HETATM   24  C3  UNL     1       2.182   6.068  -0.557  1.00  0.00     0.137 C 
BRANCH  24  25
HETATM   25  C2  UNL     1       1.787   7.021   0.500  1.00  0.00    -0.027 C 
HETATM   26  C1  UNL     1       1.075   8.087   0.177  1.00  0.00     0.007 C 
ENDBRANCH  24  25
ENDBRANCH  22  24
ENDBRANCH  21  22
ENDBRANCH   1  21
TORSDOF 6
ENDMDL
MODEL 4
REMARK VINA RESULT: -7.655467592      4.914      8.907
REMARK  6 active torsions:
REMARK  status: ('A' for Active; 'I' for Inactive)
REMARK    1  A    between atoms: C2_2  and  C3_3 
REMARK    2  A    between atoms: C3_3  and  C4_4 
REMARK    3  A    between atoms: C4_4  and  O2_6 
REMARK    4  A    between atoms: O2_6  and  C5_7 
REMARK    5  A    between atoms: C7_9  and  N1_10 
REMARK    6  A    between atoms: N1_10  and  C8_12 
ROOT
HETATM    1  C5  UNL     1       2.498   2.238   1.654  1.00  0.00     0.138 C 
HETATM    2  C6  UNL     1       2.643   2.864   3.017  1.00  0.00     0.057 C 
HETATM    3  C7  UNL     1       4.017   2.806   3.569  1.00  0.00     0.080 C 
HETATM    4  C16 UNL     1       4.843   1.837   2.715  1.00  0.00     0.034 C 
HETATM    5  C17 UNL     1       4.108   0.552   2.543  1.00  0.00     0.022 C 
HETATM    6  C18 UNL     1       4.999  -0.377   1.809  1.00  0.00    -0.085 C 
HETATM    7  C19 UNL     1       6.055  -0.968   2.325  1.00  0.00     0.014 C 
HETATM    8  C20 UNL     1       4.523  -0.534   0.421  1.00  0.00     0.034 C 
HETATM    9  C21 UNL     1       3.395   0.462   0.240  1.00  0.00     0.012 C 
HETATM   10  C22 UNL     1       2.915   0.795   1.634  1.00  0.00     0.024 C 
ENDROOT
BRANCH   3  11
HETATM   11  N1  UNL     1       4.748   4.033   3.584  1.00  0.00    -0.412 N 
ATOM     12  H1  UNL     1       5.092   4.448   2.717  1.00  0.00     0.154 HD
BRANCH  11  13
HETATM   13  C8  UNL     1       4.983   4.658   4.831  1.00  0.00     0.084 C 
HETATM   14  C9  UNL     1       4.582   3.831   6.008  1.00  0.00     0.025 C 
HETATM   15  C10 UNL     1       5.710   3.055   6.645  1.00  0.00     0.002 C 
HETATM   16  C11 UNL     1       6.897   3.886   7.009  1.00  0.00     0.001 C 
HETATM   17  C12 UNL     1       6.935   5.217   6.302  1.00  0.00     0.011 C 
HETATM   18  C13 UNL     1       6.447   5.086   4.877  1.00  0.00    -0.028 C 
HETATM   19  C14 UNL     1       7.347   4.172   4.091  1.00  0.00     0.017 C 
HETATM   20  C15 UNL     1       6.568   6.489   4.267  1.00  0.00     0.017 C 
ENDBRANCH  11  13
ENDBRANCH   3  11
BRANCH   1  21
HETATM   21  O2  UNL     1       1.210   2.374   1.148  1.00  0.00    -0.315 OA
BRANCH  21  22
HETATM   22  C4  UNL     1       0.903   3.207   0.072  1.00  0.00     0.262 C 
HETATM   23  O1  UNL     1      -0.073   2.855  -0.629  1.00  0.00    -0.265 OA
BRANCH  22  24
HETATM   24  C3  UNL     1       1.642   4.426  -0.260  1.00  0.00     0.137 C 
BRANCH  24  25
HETATM   25  C2  UNL     1       1.436   4.890  -1.647  1.00  0.00    -0.027 C 
HETATM   26  C1  UNL     1       2.445   5.433  -2.305  1.00  0.00     0.007 C 
ENDBRANCH  24  25
ENDBRANCH  22  24
ENDBRANCH  21  22
ENDBRANCH   1  21
TORSDOF 6
ENDMDL
MODEL 5
REMARK VINA RESULT: -7.542546820      4.111      8.491
REMARK  6 active torsions:
REMARK  status: ('A' for Active; 'I' for Inactive)
REMARK    1  A    between atoms: C2_2  and  C3_3 
REMARK    2  A    between atoms: C3_3  and  C4_4 
REMARK    3  A    between atoms: C4_4  and  O2_6 
REMARK    4  A    between atoms: O2_6  and  C5_7 
REMARK    5  A    between atoms: C7_9  and  N1_10 
REMARK    6  A    between atoms: N1_10  and  C8_12 
ROOT
HETATM    1  C5  UNL     1       1.340   3.971   1.557  1.00  0.00     0.138 C 
HETATM    2  C6  UNL     1       0.929   3.402   0.224  1.00  0.00     0.057 C 
HETATM    3  C7  UNL     1       0.949   1.922   0.162  1.00  0.00     0.080 C 
HETATM    4  C16 UNL     1       1.688   1.394   1.397  1.00  0.00     0.034 C 
HETATM    5  C17 UNL     1       2.992   2.101   1.554  1.00  0.00     0.022 C 
HETATM    6  C18 UNL     1       3.705   1.473   2.692  1.00  0.00    -0.085 C 
HETATM    7  C19 UNL     1       4.272   0.287   2.658  1.00  0.00     0.014 C 
HETATM    8  C20 UNL     1       3.680   2.378   3.857  1.00  0.00     0.034 C 
HETATM    9  C21 UNL     1       2.776   3.535   3.482  1.00  0.00     0.012 C 
HETATM   10  C22 UNL     1       2.717   3.535   1.972  1.00  0.00     0.024 C 
ENDROOT
BRANCH   3  11
HETATM   11  N1  UNL     1      -0.322   1.269   0.161  1.00  0.00    -0.412 N 
ATOM     12  H1  UNL     1      -0.388   0.251   0.128  1.00  0.00     0.154 HD
BRANCH  11  13
HETATM   13  C8  UNL     1      -1.487   2.071   0.207  1.00  0.00     0.084 C 
HETATM   14  C9  UNL     1      -2.290   2.046  -1.051  1.00  0.00     0.025 C 
HETATM   15  C10 UNL     1      -3.449   1.078  -1.037  1.00  0.00     0.002 C 
HETATM   16  C11 UNL     1      -4.368   1.238   0.129  1.00  0.00     0.001 C 
HETATM   17  C12 UNL     1      -3.756   2.009   1.272  1.00  0.00     0.011 C 
HETATM   18  C13 UNL     1      -2.294   1.661   1.435  1.00  0.00    -0.028 C 
HETATM   19  C14 UNL     1      -2.131   0.207   1.782  1.00  0.00     0.017 C 
HETATM   20  C15 UNL     1      -1.807   2.479   2.639  1.00  0.00     0.017 C 
ENDBRANCH  11  13
ENDBRANCH   3  11
BRANCH   1  21
HETATM   21  O2  UNL     1       1.243   5.358   1.589  1.00  0.00    -0.315 OA
BRANCH  21  22
HETATM   22  C4  UNL     1       2.075   6.193   0.845  1.00  0.00     0.262 C 
HETATM   23  O1  UNL     1       3.109   6.592   1.427  1.00  0.00    -0.265 OA
BRANCH  22  24
HETATM   24  C3  UNL     1       1.803   6.607  -0.533  1.00  0.00     0.137 C 
BRANCH  24  25
HETATM   25  C2  UNL     1       1.445   8.034  -0.667  1.00  0.00    -0.027 C 
HETATM   26  C1  UNL     1       0.507   8.542   0.113  1.00  0.00     0.007 C 
ENDBRANCH  24  25
ENDBRANCH  22  24
ENDBRANCH  21  22
ENDBRANCH   1  21
TORSDOF 6
ENDMDL
