MODEL 1
REMARK VINA RESULT: -6.880031948      0.000      0.000
REMARK  7 active torsions:
REMARK  status: ('A' for Active; 'I' for Inactive)
REMARK    1  A    between atoms: C11_11  and  C12_12 
REMARK    2  A    between atoms: C13_13  and  C14_14 
REMARK    3  A    between atoms: C18_18  and  C19_19 
REMARK    4  A    between atoms: C18_18  and  C20_22 
REMARK    5  A    between atoms: C19_19  and  O1_20 
REMARK    6  A    between atoms: C20_22  and  O2_23 
REMARK    7  A    between atoms: O2_23  and  C21_24 
ROOT
HETATM    1  C14 UNL     1       1.768   1.699   2.013  1.00  0.00     0.020 C 
HETATM    2  C15 UNL     1       1.129   1.358   3.293  1.00  0.00     0.009 C 
HETATM    3  C16 UNL     1       0.616   2.741   3.733  1.00  0.00     0.002 C 
HETATM    4  C17 UNL     1      -0.106   3.144   2.454  1.00  0.00     0.014 C 
HETATM    5  C18 UNL     1       0.721   2.530   1.314  1.00  0.00     0.010 C 
ENDROOT
BRANCH   1   6
HETATM    6  C13 UNL     1       3.122   2.198   1.887  1.00  0.00    -0.024 C 
HETATM    7  C12 UNL     1       4.221   2.136   2.800  1.00  0.00    -0.021 C 
BRANCH   7   8
HETATM    8  C11 UNL     1       4.443   2.706   4.107  1.00  0.00     0.040 C 
HETATM    9  C2  UNL     1       5.187   2.070   5.170  1.00  0.00    -0.081 C 
HETATM   10  C1  UNL     1       4.712   1.770   6.393  1.00  0.00     0.015 C 
HETATM   11  C3  UNL     1       6.628   1.751   4.878  1.00  0.00     0.034 C 
HETATM   12  C4  UNL     1       7.262   2.883   4.133  1.00  0.00     0.010 C 
HETATM   13  C5  UNL     1       6.527   4.152   4.059  1.00  0.00    -0.001 C 
HETATM   14  C6  UNL     1       5.053   4.123   3.970  1.00  0.00     0.003 C 
HETATM   15  C8  UNL     1       6.496   5.075   5.238  1.00  0.00    -0.043 C 
HETATM   16  C7  UNL     1       4.974   4.853   5.273  1.00  0.00     0.015 C 
HETATM   17  C9  UNL     1       7.229   4.702   6.470  1.00  0.00     0.015 C 
HETATM   18  C10 UNL     1       6.764   6.546   4.890  1.00  0.00     0.015 C 
ENDBRANCH   7   8
ENDBRANCH   1   6
BRANCH   5  19
HETATM   19  C19 UNL     1       1.187   3.614   0.420  1.00  0.00     0.176 C 
BRANCH  19  20
HETATM   20  O1  UNL     1       0.687   3.544  -0.848  1.00  0.00    -0.400 OA
ATOM     21  H1  UNL     1       1.274   3.880  -1.516  1.00  0.00     0.209 HD
ENDBRANCH  19  20
ENDBRANCH   5  19
BRANCH   5  22
HETATM   22  C20 UNL     1      -0.235   1.579   0.583  1.00  0.00     0.191 C 
BRANCH  22  23
HETATM   23  O2  UNL     1      -1.569   2.047   0.697  1.00  0.00    -0.321 OA
BRANCH  23  24
HETATM   24  C21 UNL     1      -2.366   1.943  -0.429  1.00  0.00     0.254 C 
HETATM   25  C22 UNL     1      -3.807   1.624  -0.263  1.00  0.00     0.126 C 
HETATM   26  O3  UNL     1      -1.864   2.119  -1.587  1.00  0.00    -0.266 OA
ENDBRANCH  23  24
ENDBRANCH  22  23
ENDBRANCH   5  22
TORSDOF 7
ENDMDL
MODEL 2
REMARK VINA RESULT: -6.877378998      1.108      1.605
REMARK  7 active torsions:
REMARK  status: ('A' for Active; 'I' for Inactive)
REMARK    1  A    between atoms: C11_11  and  C12_12 
REMARK    2  A    between atoms: C13_13  and  C14_14 
REMARK    3  A    between atoms: C18_18  and  C19_19 
REMARK    4  A    between atoms: C18_18  and  C20_22 
REMARK    5  A    between atoms: C19_19  and  O1_20 
REMARK    6  A    between atoms: C20_22  and  O2_23 
REMARK    7  A    between atoms: O2_23  and  C21_24 
ROOT
HETATM    1  C14 UNL     1       1.873   2.942   1.914  1.00  0.00     0.020 C 
HETATM    2  C15 UNL     1       1.540   4.374   1.891  1.00  0.00     0.009 C 
HETATM    3  C16 UNL     1       1.942   4.737   0.450  1.00  0.00     0.002 C 
HETATM    4  C17 UNL     1       1.196   3.634  -0.290  1.00  0.00     0.014 C 
HETATM    5  C18 UNL     1       1.241   2.419   0.649  1.00  0.00     0.010 C 
ENDROOT
BRANCH   1   6
HETATM    6  C13 UNL     1       3.195   2.418   2.193  1.00  0.00    -0.024 C 
HETATM    7  C12 UNL     1       3.801   2.047   3.434  1.00  0.00    -0.021 C 
BRANCH   7   8
HETATM    8  C11 UNL     1       4.169   2.799   4.609  1.00  0.00     0.040 C 
HETATM    9  C2  UNL     1       5.032   2.316   5.663  1.00  0.00    -0.081 C 
HETATM   10  C1  UNL     1       4.700   2.204   6.963  1.00  0.00     0.015 C 
HETATM   11  C3  UNL     1       6.431   1.939   5.260  1.00  0.00     0.034 C 
HETATM   12  C4  UNL     1       6.972   2.941   4.289  1.00  0.00     0.010 C 
HETATM   13  C5  UNL     1       6.228   4.195   4.113  1.00  0.00    -0.001 C 
HETATM   14  C6  UNL     1       4.753   4.173   4.197  1.00  0.00     0.003 C 
HETATM   15  C8  UNL     1       6.328   5.281   5.139  1.00  0.00    -0.043 C 
HETATM   16  C7  UNL     1       4.821   5.087   5.379  1.00  0.00     0.015 C 
HETATM   17  C9  UNL     1       7.198   5.083   6.321  1.00  0.00     0.015 C 
HETATM   18  C10 UNL     1       6.549   6.682   4.550  1.00  0.00     0.015 C 
ENDBRANCH   7   8
ENDBRANCH   1   6
BRANCH   5  19
HETATM   19  C19 UNL     1       1.916   1.299  -0.046  1.00  0.00     0.176 C 
BRANCH  19  20
HETATM   20  O1  UNL     1       1.079   0.288  -0.418  1.00  0.00    -0.400 OA
ATOM     21  H1  UNL     1       0.288   0.580  -0.857  1.00  0.00     0.209 HD
ENDBRANCH  19  20
ENDBRANCH   5  19
BRANCH   5  22
HETATM   22  C20 UNL     1      -0.225   2.082   0.950  1.00  0.00     0.191 C 
BRANCH  22  23
HETATM   23  O2  UNL     1      -1.038   2.402  -0.167  1.00  0.00    -0.321 OA
BRANCH  23  24
HETATM   24  C21 UNL     1      -2.022   1.490  -0.505  1.00  0.00     0.254 C 
HETATM   25  C22 UNL     1      -3.390   1.671   0.047  1.00  0.00     0.126 C 
HETATM   26  O3  UNL     1      -1.752   0.513  -1.277  1.00  0.00    -0.266 OA
ENDBRANCH  23  24
ENDBRANCH  22  23
ENDBRANCH   5  22
TORSDOF 7
ENDMDL
MODEL 3
REMARK VINA RESULT: -6.464941804      1.486      2.775
REMARK  7 active torsions:
REMARK  status: ('A' for Active; 'I' for Inactive)
REMARK    1  A    between atoms: C11_11  and  C12_12 
REMARK    2  A    between atoms: C13_13  and  C14_14 
REMARK    3  A    between atoms: C18_18  and  C19_19 
REMARK    4  A    between atoms: C18_18  and  C20_22 
REMARK    5  A    between atoms: C19_19  and  O1_20 
REMARK    6  A    between atoms: C20_22  and  O2_23 
REMARK    7  A    between atoms: O2_23  and  C21_24 
ROOT
HETATM    1  C14 UNL     1       1.958   2.820   1.833  1.00  0.00     0.020 C 
HETATM    2  C15 UNL     1       1.903   4.264   1.560  1.00  0.00     0.009 C 
HETATM    3  C16 UNL     1       1.757   4.260   0.028  1.00  0.00     0.002 C 
HETATM    4  C17 UNL     1       0.596   3.282  -0.097  1.00  0.00     0.014 C 
HETATM    5  C18 UNL     1       0.793   2.274   1.045  1.00  0.00     0.010 C 
ENDROOT
BRANCH   1   6
HETATM    6  C13 UNL     1       3.166   2.024   1.760  1.00  0.00    -0.024 C 
HETATM    7  C12 UNL     1       4.225   1.857   2.707  1.00  0.00    -0.021 C 
BRANCH   7   8
HETATM    8  C11 UNL     1       5.205   2.766   3.251  1.00  0.00     0.040 C 
HETATM    9  C2  UNL     1       4.895   3.961   4.002  1.00  0.00    -0.081 C 
HETATM   10  C1  UNL     1       5.264   5.214   3.675  1.00  0.00     0.015 C 
HETATM   11  C3  UNL     1       4.119   3.768   5.275  1.00  0.00     0.034 C 
HETATM   12  C4  UNL     1       4.631   2.569   6.010  1.00  0.00     0.010 C 
HETATM   13  C5  UNL     1       5.899   1.981   5.561  1.00  0.00    -0.001 C 
HETATM   14  C6  UNL     1       6.224   1.989   4.119  1.00  0.00     0.003 C 
HETATM   15  C8  UNL     1       7.200   2.632   5.916  1.00  0.00    -0.043 C 
HETATM   16  C7  UNL     1       7.420   2.839   4.408  1.00  0.00     0.015 C 
HETATM   17  C9  UNL     1       7.193   3.863   6.739  1.00  0.00     0.015 C 
HETATM   18  C10 UNL     1       8.268   1.658   6.434  1.00  0.00     0.015 C 
ENDBRANCH   7   8
ENDBRANCH   1   6
BRANCH   5  19
HETATM   19  C19 UNL     1       0.926   0.916   0.471  1.00  0.00     0.176 C 
BRANCH  19  20
HETATM   20  O1  UNL     1      -0.061   0.585  -0.411  1.00  0.00    -0.400 OA
ATOM     21  H1  UNL     1      -0.482   1.332  -0.821  1.00  0.00     0.209 HD
ENDBRANCH  19  20
ENDBRANCH   5  19
BRANCH   5  22
HETATM   22  C20 UNL     1      -0.467   2.390   1.913  1.00  0.00     0.191 C 
BRANCH  22  23
HETATM   23  O2  UNL     1      -1.615   2.519   1.091  1.00  0.00    -0.321 OA
BRANCH  23  24
HETATM   24  C21 UNL     1      -2.833   2.204   1.665  1.00  0.00     0.254 C 
HETATM   25  C22 UNL     1      -3.927   1.697   0.797  1.00  0.00     0.126 C 
HETATM   26  O3  UNL     1      -3.008   2.350   2.919  1.00  0.00    -0.266 OA
ENDBRANCH  23  24
ENDBRANCH  22  23
ENDBRANCH   5  22
TORSDOF 7
ENDMDL
MODEL 4
REMARK VINA RESULT: -6.351961885      1.178      1.403
REMARK  7 active torsions:
REMARK  status: ('A' for Active; 'I' for Inactive)
REMARK    1  A    between atoms: C11_11  and  C12_12 
REMARK    2  A    between atoms: C13_13  and  C14_14 
REMARK    3  A    between atoms: C18_18  and  C19_19 
REMARK    4  A    between atoms: C18_18  and  C20_22 
REMARK    5  A    between atoms: C19_19  and  O1_20 
REMARK    6  A    between atoms: C20_22  and  O2_23 
REMARK    7  A    between atoms: O2_23  and  C21_24 
ROOT
HETATM    1  C14 UNL     1       2.777   0.437   1.802  1.00  0.00     0.020 C 
HETATM    2  C15 UNL     1       2.251  -0.506   2.799  1.00  0.00     0.009 C 
HETATM    3  C16 UNL     1       1.768   0.470   3.887  1.00  0.00     0.002 C 
HETATM    4  C17 UNL     1       0.938   1.404   3.016  1.00  0.00     0.014 C 
HETATM    5  C18 UNL     1       1.671   1.453   1.667  1.00  0.00     0.010 C 
ENDROOT
BRANCH   1   6
HETATM    6  C13 UNL     1       4.113   0.996   1.837  1.00  0.00    -0.024 C 
HETATM    7  C12 UNL     1       4.978   1.261   2.945  1.00  0.00    -0.021 C 
BRANCH   7   8
HETATM    8  C11 UNL     1       4.885   2.162   4.068  1.00  0.00     0.040 C 
HETATM    9  C2  UNL     1       5.434   1.906   5.380  1.00  0.00    -0.081 C 
HETATM   10  C1  UNL     1       4.736   1.867   6.530  1.00  0.00     0.015 C 
HETATM   11  C3  UNL     1       6.922   1.699   5.453  1.00  0.00     0.034 C 
HETATM   12  C4  UNL     1       7.619   2.675   4.559  1.00  0.00     0.010 C 
HETATM   13  C5  UNL     1       6.832   3.788   4.013  1.00  0.00    -0.001 C 
HETATM   14  C6  UNL     1       5.413   3.562   3.668  1.00  0.00     0.003 C 
HETATM   15  C8  UNL     1       6.495   4.967   4.874  1.00  0.00    -0.043 C 
HETATM   16  C7  UNL     1       5.017   4.580   4.689  1.00  0.00     0.015 C 
HETATM   17  C9  UNL     1       6.979   5.004   6.273  1.00  0.00     0.015 C 
HETATM   18  C10 UNL     1       6.730   6.325   4.198  1.00  0.00     0.015 C 
ENDBRANCH   7   8
ENDBRANCH   1   6
BRANCH   5  19
HETATM   19  C19 UNL     1       2.053   2.853   1.376  1.00  0.00     0.176 C 
BRANCH  19  20
HETATM   20  O1  UNL     1       1.198   3.782   1.893  1.00  0.00    -0.400 OA
ATOM     21  H1  UNL     1       1.581   4.647   1.995  1.00  0.00     0.209 HD
ENDBRANCH  19  20
ENDBRANCH   5  19
BRANCH   5  22
HETATM   22  C20 UNL     1       0.662   0.927   0.637  1.00  0.00     0.191 C 
BRANCH  22  23
HETATM   23  O2  UNL     1       0.063   2.010  -0.056  1.00  0.00    -0.321 OA
BRANCH  23  24
HETATM   24  C21 UNL     1      -1.319   2.031  -0.107  1.00  0.00     0.254 C 
HETATM   25  C22 UNL     1      -2.083   2.160   1.161  1.00  0.00     0.126 C 
HETATM   26  O3  UNL     1      -1.920   1.939  -1.227  1.00  0.00    -0.266 OA
ENDBRANCH  23  24
ENDBRANCH  22  23
ENDBRANCH   5  22
TORSDOF 7
ENDMDL
MODEL 5
REMARK VINA RESULT: -6.333665205      3.925      7.762
REMARK  7 active torsions:
REMARK  status: ('A' for Active; 'I' for Inactive)
REMARK    1  A    between atoms: C11_11  and  C12_12 
REMARK    2  A    between atoms: C13_13  and  C14_14 
REMARK    3  A    between atoms: C18_18  and  C19_19 
REMARK    4  A    between atoms: C18_18  and  C20_22 
REMARK    5  A    between atoms: C19_19  and  O1_20 
REMARK    6  A    between atoms: C20_22  and  O2_23 
REMARK    7  A    between atoms: O2_23  and  C21_24 
ROOT
HETATM    1  C14 UNL     1       5.473   4.510   5.005  1.00  0.00     0.020 C 
HETATM    2  C15 UNL     1       6.254   5.262   4.013  1.00  0.00     0.009 C 
HETATM    3  C16 UNL     1       6.422   6.607   4.742  1.00  0.00     0.002 C 
HETATM    4  C17 UNL     1       6.938   6.089   6.079  1.00  0.00     0.014 C 
HETATM    5  C18 UNL     1       6.227   4.743   6.290  1.00  0.00     0.010 C 
ENDROOT
BRANCH   1   6
HETATM    6  C13 UNL     1       4.031   4.579   5.128  1.00  0.00    -0.024 C 
HETATM    7  C12 UNL     1       3.040   3.555   4.998  1.00  0.00    -0.021 C 
BRANCH   7   8
HETATM    8  C11 UNL     1       2.615   2.737   3.888  1.00  0.00     0.040 C 
HETATM    9  C2  UNL     1       1.399   1.956   3.855  1.00  0.00    -0.081 C 
HETATM   10  C1  UNL     1       1.325   0.624   3.674  1.00  0.00     0.015 C 
HETATM   11  C3  UNL     1       0.112   2.718   4.005  1.00  0.00     0.034 C 
HETATM   12  C4  UNL     1       0.173   3.988   3.215  1.00  0.00     0.010 C 
HETATM   13  C5  UNL     1       1.276   4.147   2.259  1.00  0.00    -0.001 C 
HETATM   14  C6  UNL     1       2.599   3.577   2.587  1.00  0.00     0.003 C 
HETATM   15  C8  UNL     1       1.236   3.443   0.937  1.00  0.00    -0.043 C 
HETATM   16  C7  UNL     1       2.495   2.685   1.391  1.00  0.00     0.015 C 
HETATM   17  C9  UNL     1       0.065   2.601   0.601  1.00  0.00     0.015 C 
HETATM   18  C10 UNL     1       1.608   4.331  -0.258  1.00  0.00     0.015 C 
ENDBRANCH   7   8
ENDBRANCH   1   6
BRANCH   5  19
HETATM   19  C19 UNL     1       5.446   4.804   7.546  1.00  0.00     0.176 C 
BRANCH  19  20
HETATM   20  O1  UNL     1       5.918   3.992   8.535  1.00  0.00    -0.400 OA
ATOM     21  H1  UNL     1       6.774   3.619   8.356  1.00  0.00     0.209 HD
ENDBRANCH  19  20
ENDBRANCH   5  19
BRANCH   5  22
HETATM   22  C20 UNL     1       7.348   3.701   6.383  1.00  0.00     0.191 C 
BRANCH  22  23
HETATM   23  O2  UNL     1       6.829   2.403   6.142  1.00  0.00    -0.321 OA
BRANCH  23  24
HETATM   24  C21 UNL     1       7.615   1.544   5.395  1.00  0.00     0.254 C 
HETATM   25  C22 UNL     1       8.005   1.942   4.017  1.00  0.00     0.126 C 
HETATM   26  O3  UNL     1       7.993   0.431   5.886  1.00  0.00    -0.266 OA
ENDBRANCH  23  24
ENDBRANCH  22  23
ENDBRANCH   5  22
TORSDOF 7
ENDMDL
