MODEL 1
REMARK VINA RESULT: -8.337832808      0.000      0.000
REMARK  6 active torsions:
REMARK  status: ('A' for Active; 'I' for Inactive)
REMARK       I    between atoms: C1_2  and  N1_3 
REMARK    1  A    between atoms: C1_2  and  O2_20 
REMARK    2  A    between atoms: N1_3  and  C2_5 
REMARK    3  A    between atoms: N2_8  and  C5_9 
REMARK    4  A    between atoms: C5_9  and  C6_10 
REMARK    5  A    between atoms: C6_10  and  C7_11 
REMARK    6  A    between atoms: O2_20  and  C16_21 
ROOT
HETATM    1  C2  UNL     1       1.300   2.831   0.470  1.00  0.00     0.096 C 
HETATM    2  C3  UNL     1       2.284   1.867   1.097  1.00  0.00     0.070 C 
HETATM    3  C4  UNL     1       3.004   2.498   2.233  1.00  0.00     0.065 C 
HETATM    4  N2  UNL     1       2.303   3.372   3.052  1.00  0.00    -0.374 N 
HETATM    5  C14 UNL     1       1.072   3.903   2.637  1.00  0.00     0.065 C 
HETATM    6  C15 UNL     1       0.314   3.159   1.596  1.00  0.00     0.070 C 
ENDROOT
BRANCH   1   7
HETATM    7  N1  UNL     1       1.940   4.066   0.095  1.00  0.00    -0.332 N 
HETATM    8  C1  UNL     1       1.534   4.781  -1.083  1.00  0.00     0.361 C 
HETATM    9  O1  UNL     1       0.618   4.331  -1.792  1.00  0.00    -0.238 OA
ATOM     10  H1  UNL     1       2.692   4.439   0.675  1.00  0.00     0.165 HD
BRANCH   8  11
HETATM   11  O2  UNL     1       2.129   5.964  -1.465  1.00  0.00    -0.299 OA
BRANCH  11  12
HETATM   12  C16 UNL     1       1.443   7.206  -1.403  1.00  0.00     0.133 C 
HETATM   13  C17 UNL     1       1.454   7.633   0.050  1.00  0.00     0.032 C 
HETATM   14  C18 UNL     1       0.561   8.821   0.225  1.00  0.00     0.002 C 
HETATM   15  C19 UNL     1       1.059   9.936  -0.650  1.00  0.00     0.000 C 
HETATM   16  C20 UNL     1       1.288   9.538  -2.072  1.00  0.00     0.002 C 
HETATM   17  C21 UNL     1       2.152   8.291  -2.189  1.00  0.00     0.032 C 
ENDBRANCH  11  12
ENDBRANCH   8  11
ENDBRANCH   1   7
BRANCH   4  18
HETATM   18  C5  UNL     1       2.471   3.228   4.473  1.00  0.00     0.127 C 
BRANCH  18  19
HETATM   19  C6  UNL     1       3.915   3.011   4.763  1.00  0.00     0.024 C 
BRANCH  19  20
HETATM   20  C7  UNL     1       4.758   4.264   4.762  1.00  0.00    -0.013 C 
HETATM   21  C8  UNL     1       6.078   3.970   4.141  1.00  0.00     0.005 C 
HETATM   22  C9  UNL     1       6.965   5.185   4.012  1.00  0.00     0.000 C 
HETATM   23  C10 UNL     1       6.463   6.359   4.798  1.00  0.00     0.000 C 
HETATM   24  C11 UNL     1       6.858   6.160   6.244  1.00  0.00     0.000 C 
HETATM   25  C12 UNL     1       6.210   4.882   6.727  1.00  0.00     0.000 C 
HETATM   26  C13 UNL     1       4.836   4.794   6.156  1.00  0.00     0.005 C 
ENDBRANCH  19  20
ENDBRANCH  18  19
ENDBRANCH   4  18
TORSDOF 6
ENDMDL
MODEL 2
REMARK VINA RESULT: -8.195084198      2.587      7.478
REMARK  6 active torsions:
REMARK  status: ('A' for Active; 'I' for Inactive)
REMARK       I    between atoms: C1_2  and  N1_3 
REMARK    1  A    between atoms: C1_2  and  O2_20 
REMARK    2  A    between atoms: N1_3  and  C2_5 
REMARK    3  A    between atoms: N2_8  and  C5_9 
REMARK    4  A    between atoms: C5_9  and  C6_10 
REMARK    5  A    between atoms: C6_10  and  C7_11 
REMARK    6  A    between atoms: O2_20  and  C16_21 
ROOT
HETATM    1  C2  UNL     1       1.929   3.043   2.718  1.00  0.00     0.096 C 
HETATM    2  C3  UNL     1       1.248   4.385   2.559  1.00  0.00     0.070 C 
HETATM    3  C4  UNL     1       1.643   5.041   1.286  1.00  0.00     0.065 C 
HETATM    4  N2  UNL     1       1.829   4.245   0.165  1.00  0.00    -0.374 N 
HETATM    5  C14 UNL     1       1.972   2.854   0.297  1.00  0.00     0.065 C 
HETATM    6  C15 UNL     1       1.431   2.217   1.527  1.00  0.00     0.070 C 
ENDROOT
BRANCH   1   7
HETATM    7  N1  UNL     1       3.358   3.160   2.583  1.00  0.00    -0.332 N 
HETATM    8  C1  UNL     1       4.241   2.644   3.592  1.00  0.00     0.361 C 
HETATM    9  O1  UNL     1       3.768   2.087   4.598  1.00  0.00    -0.238 OA
ATOM     10  H1  UNL     1       3.750   3.615   1.758  1.00  0.00     0.165 HD
BRANCH   8  11
HETATM   11  O2  UNL     1       5.612   2.742   3.488  1.00  0.00    -0.299 OA
BRANCH  11  12
HETATM   12  C16 UNL     1       6.356   3.707   4.217  1.00  0.00     0.133 C 
HETATM   13  C17 UNL     1       5.656   5.034   4.013  1.00  0.00     0.032 C 
HETATM   14  C18 UNL     1       6.506   6.133   4.571  1.00  0.00     0.002 C 
HETATM   15  C19 UNL     1       6.730   5.880   6.034  1.00  0.00     0.000 C 
HETATM   16  C20 UNL     1       7.217   4.502   6.347  1.00  0.00     0.002 C 
HETATM   17  C21 UNL     1       6.352   3.427   5.706  1.00  0.00     0.032 C 
ENDBRANCH  11  12
ENDBRANCH   8  11
ENDBRANCH   1   7
BRANCH   4  18
HETATM   18  C5  UNL     1       1.254   4.696  -1.073  1.00  0.00     0.127 C 
BRANCH  18  19
HETATM   19  C6  UNL     1       1.477   6.163  -1.194  1.00  0.00     0.024 C 
BRANCH  19  20
HETATM   20  C7  UNL     1       2.699   6.557  -1.989  1.00  0.00    -0.013 C 
HETATM   21  C8  UNL     1       2.436   7.840  -2.695  1.00  0.00     0.005 C 
HETATM   22  C9  UNL     1       3.633   8.366  -3.448  1.00  0.00     0.000 C 
HETATM   23  C10 UNL     1       4.731   7.354  -3.579  1.00  0.00     0.000 C 
HETATM   24  C11 UNL     1       4.371   6.412  -4.706  1.00  0.00     0.000 C 
HETATM   25  C12 UNL     1       3.067   5.737  -4.343  1.00  0.00     0.000 C 
HETATM   26  C13 UNL     1       3.077   5.425  -2.885  1.00  0.00     0.005 C 
ENDBRANCH  19  20
ENDBRANCH  18  19
ENDBRANCH   4  18
TORSDOF 6
ENDMDL
MODEL 3
REMARK VINA RESULT: -8.189469001      3.320      7.038
REMARK  6 active torsions:
REMARK  status: ('A' for Active; 'I' for Inactive)
REMARK       I    between atoms: C1_2  and  N1_3 
REMARK    1  A    between atoms: C1_2  and  O2_20 
REMARK    2  A    between atoms: N1_3  and  C2_5 
REMARK    3  A    between atoms: N2_8  and  C5_9 
REMARK    4  A    between atoms: C5_9  and  C6_10 
REMARK    5  A    between atoms: C6_10  and  C7_11 
REMARK    6  A    between atoms: O2_20  and  C16_21 
ROOT
HETATM    1  C2  UNL     1       2.092   3.952   1.512  1.00  0.00     0.096 C 
HETATM    2  C3  UNL     1       1.229   3.849   2.752  1.00  0.00     0.070 C 
HETATM    3  C4  UNL     1      -0.143   3.389   2.414  1.00  0.00     0.065 C 
HETATM    4  N2  UNL     1      -0.291   2.442   1.410  1.00  0.00    -0.374 N 
HETATM    5  C14 UNL     1       0.763   2.178   0.520  1.00  0.00     0.065 C 
HETATM    6  C15 UNL     1       2.141   2.524   0.959  1.00  0.00     0.070 C 
ENDROOT
BRANCH   1   7
HETATM    7  N1  UNL     1       1.471   4.774   0.506  1.00  0.00    -0.332 N 
HETATM    8  C1  UNL     1       1.833   6.156   0.353  1.00  0.00     0.361 C 
HETATM    9  O1  UNL     1       2.695   6.653   1.098  1.00  0.00    -0.238 OA
ATOM     10  H1  UNL     1       0.764   4.369  -0.108  1.00  0.00     0.165 HD
BRANCH   8  11
HETATM   11  O2  UNL     1       1.255   6.965  -0.601  1.00  0.00    -0.299 OA
BRANCH  11  12
HETATM   12  C16 UNL     1       1.387   8.378  -0.572  1.00  0.00     0.133 C 
HETATM   13  C17 UNL     1       1.597   8.822  -2.004  1.00  0.00     0.032 C 
HETATM   14  C18 UNL     1       1.963  10.273  -2.025  1.00  0.00     0.002 C 
HETATM   15  C19 UNL     1       0.854  11.063  -1.392  1.00  0.00     0.000 C 
HETATM   16  C20 UNL     1       0.430  10.552  -0.053  1.00  0.00     0.002 C 
HETATM   17  C21 UNL     1       0.128   9.060  -0.076  1.00  0.00     0.032 C 
ENDBRANCH  11  12
ENDBRANCH   8  11
ENDBRANCH   1   7
BRANCH   4  18
HETATM   18  C5  UNL     1      -1.183   1.342   1.661  1.00  0.00     0.127 C 
BRANCH  18  19
HETATM   19  C6  UNL     1      -2.538   1.707   1.164  1.00  0.00     0.024 C 
BRANCH  19  20
HETATM   20  C7  UNL     1      -2.954   1.017  -0.113  1.00  0.00    -0.013 C 
HETATM   21  C8  UNL     1      -1.829   0.178  -0.609  1.00  0.00     0.005 C 
HETATM   22  C9  UNL     1      -2.177  -0.625  -1.839  1.00  0.00     0.000 C 
HETATM   23  C10 UNL     1      -3.463  -0.191  -2.474  1.00  0.00     0.000 C 
HETATM   24  C11 UNL     1      -3.186   1.047  -3.298  1.00  0.00     0.000 C 
HETATM   25  C12 UNL     1      -2.668   2.116  -2.363  1.00  0.00     0.000 C 
HETATM   26  C13 UNL     1      -3.431   2.046  -1.084  1.00  0.00     0.005 C 
ENDBRANCH  19  20
ENDBRANCH  18  19
ENDBRANCH   4  18
TORSDOF 6
ENDMDL
MODEL 4
REMARK VINA RESULT: -8.163491896      1.343      2.065
REMARK  6 active torsions:
REMARK  status: ('A' for Active; 'I' for Inactive)
REMARK       I    between atoms: C1_2  and  N1_3 
REMARK    1  A    between atoms: C1_2  and  O2_20 
REMARK    2  A    between atoms: N1_3  and  C2_5 
REMARK    3  A    between atoms: N2_8  and  C5_9 
REMARK    4  A    between atoms: C5_9  and  C6_10 
REMARK    5  A    between atoms: C6_10  and  C7_11 
REMARK    6  A    between atoms: O2_20  and  C16_21 
ROOT
HETATM    1  C2  UNL     1       1.238   2.962   0.566  1.00  0.00     0.096 C 
HETATM    2  C3  UNL     1       2.189   1.921   1.116  1.00  0.00     0.070 C 
HETATM    3  C4  UNL     1       2.973   2.460   2.258  1.00  0.00     0.065 C 
HETATM    4  N2  UNL     1       2.342   3.328   3.138  1.00  0.00    -0.374 N 
HETATM    5  C14 UNL     1       1.128   3.940   2.786  1.00  0.00     0.065 C 
HETATM    6  C15 UNL     1       0.303   3.286   1.736  1.00  0.00     0.070 C 
ENDROOT
BRANCH   1   7
HETATM    7  N1  UNL     1       1.930   4.180   0.229  1.00  0.00    -0.332 N 
HETATM    8  C1  UNL     1       1.641   4.881  -0.992  1.00  0.00     0.361 C 
HETATM    9  O1  UNL     1       0.782   4.434  -1.771  1.00  0.00    -0.238 OA
ATOM     10  H1  UNL     1       2.635   4.550   0.866  1.00  0.00     0.165 HD
BRANCH   8  11
HETATM   11  O2  UNL     1       2.287   6.048  -1.339  1.00  0.00    -0.299 OA
BRANCH  11  12
HETATM   12  C16 UNL     1       2.617   6.355  -2.685  1.00  0.00     0.133 C 
HETATM   13  C17 UNL     1       2.723   7.863  -2.770  1.00  0.00     0.032 C 
HETATM   14  C18 UNL     1       2.852   8.271  -4.204  1.00  0.00     0.002 C 
HETATM   15  C19 UNL     1       4.079   7.628  -4.785  1.00  0.00     0.000 C 
HETATM   16  C20 UNL     1       4.163   6.155  -4.551  1.00  0.00     0.002 C 
HETATM   17  C21 UNL     1       3.965   5.791  -3.086  1.00  0.00     0.032 C 
ENDBRANCH  11  12
ENDBRANCH   8  11
ENDBRANCH   1   7
BRANCH   4  18
HETATM   18  C5  UNL     1       2.543   3.109   4.545  1.00  0.00     0.127 C 
BRANCH  18  19
HETATM   19  C6  UNL     1       3.998   2.914   4.793  1.00  0.00     0.024 C 
BRANCH  19  20
HETATM   20  C7  UNL     1       4.822   4.179   4.767  1.00  0.00    -0.013 C 
HETATM   21  C8  UNL     1       6.154   3.888   4.171  1.00  0.00     0.005 C 
HETATM   22  C9  UNL     1       7.023   5.112   4.017  1.00  0.00     0.000 C 
HETATM   23  C10 UNL     1       6.493   6.300   4.762  1.00  0.00     0.000 C 
HETATM   24  C11 UNL     1       6.873   6.150   6.218  1.00  0.00     0.000 C 
HETATM   25  C12 UNL     1       6.238   4.876   6.730  1.00  0.00     0.000 C 
HETATM   26  C13 UNL     1       4.873   4.751   6.145  1.00  0.00     0.005 C 
ENDBRANCH  19  20
ENDBRANCH  18  19
ENDBRANCH   4  18
TORSDOF 6
ENDMDL
MODEL 5
REMARK VINA RESULT: -8.146297444      0.691      1.352
REMARK  6 active torsions:
REMARK  status: ('A' for Active; 'I' for Inactive)
REMARK       I    between atoms: C1_2  and  N1_3 
REMARK    1  A    between atoms: C1_2  and  O2_20 
REMARK    2  A    between atoms: N1_3  and  C2_5 
REMARK    3  A    between atoms: N2_8  and  C5_9 
REMARK    4  A    between atoms: C5_9  and  C6_10 
REMARK    5  A    between atoms: C6_10  and  C7_11 
REMARK    6  A    between atoms: O2_20  and  C16_21 
ROOT
HETATM    1  C2  UNL     1       0.931   3.182   1.049  1.00  0.00     0.096 C 
HETATM    2  C3  UNL     1       1.840   1.972   0.998  1.00  0.00     0.070 C 
HETATM    3  C4  UNL     1       3.094   2.210   1.759  1.00  0.00     0.065 C 
HETATM    4  N2  UNL     1       3.022   2.950   2.931  1.00  0.00    -0.374 N 
HETATM    5  C14 UNL     1       1.887   3.726   3.214  1.00  0.00     0.065 C 
HETATM    6  C15 UNL     1       0.614   3.362   2.538  1.00  0.00     0.070 C 
ENDROOT
BRANCH   1   7
HETATM    7  N1  UNL     1       1.617   4.373   0.617  1.00  0.00    -0.332 N 
HETATM    8  C1  UNL     1       1.491   4.850  -0.733  1.00  0.00     0.361 C 
HETATM    9  O1  UNL     1       0.780   4.228  -1.542  1.00  0.00    -0.238 OA
ATOM     10  H1  UNL     1       2.201   4.886   1.278  1.00  0.00     0.165 HD
BRANCH   8  11
HETATM   11  O2  UNL     1       2.135   5.985  -1.173  1.00  0.00    -0.299 OA
BRANCH  11  12
HETATM   12  C16 UNL     1       1.474   7.239  -1.267  1.00  0.00     0.133 C 
HETATM   13  C17 UNL     1       1.453   7.820   0.131  1.00  0.00     0.032 C 
HETATM   14  C18 UNL     1       0.580   9.036   0.148  1.00  0.00     0.002 C 
HETATM   15  C19 UNL     1       1.125  10.041  -0.827  1.00  0.00     0.000 C 
HETATM   16  C20 UNL     1       1.386   9.486  -2.189  1.00  0.00     0.002 C 
HETATM   17  C21 UNL     1       2.227   8.218  -2.144  1.00  0.00     0.032 C 
ENDBRANCH  11  12
ENDBRANCH   8  11
ENDBRANCH   1   7
BRANCH   4  18
HETATM   18  C5  UNL     1       3.735   2.449   4.076  1.00  0.00     0.127 C 
BRANCH  18  19
HETATM   19  C6  UNL     1       5.194   2.640   3.849  1.00  0.00     0.024 C 
BRANCH  19  20
HETATM   20  C7  UNL     1       5.868   3.586   4.814  1.00  0.00    -0.013 C 
HETATM   21  C8  UNL     1       4.844   4.196   5.704  1.00  0.00     0.005 C 
HETATM   22  C9  UNL     1       5.430   5.093   6.767  1.00  0.00     0.000 C 
HETATM   23  C10 UNL     1       6.873   5.419   6.524  1.00  0.00     0.000 C 
HETATM   24  C11 UNL     1       6.938   6.519   5.488  1.00  0.00     0.000 C 
HETATM   25  C12 UNL     1       6.290   5.999   4.224  1.00  0.00     0.000 C 
HETATM   26  C13 UNL     1       6.678   4.571   4.038  1.00  0.00     0.005 C 
ENDBRANCH  19  20
ENDBRANCH  18  19
ENDBRANCH   4  18
TORSDOF 6
ENDMDL
