MODEL 1
REMARK VINA RESULT: -6.952526531      0.000      0.000
REMARK  5 active torsions:
REMARK  status: ('A' for Active; 'I' for Inactive)
REMARK    1  A    between atoms: C3_3  and  C4_4 
REMARK    2  A    between atoms: C5_6  and  N1_7 
REMARK    3  A    between atoms: N1_7  and  C6_9 
REMARK    4  A    between atoms: C10_16  and  N3_17 
REMARK    5  A    between atoms: C11_22  and  O3_24 
ROOT
HETATM    1  N1  UNL     1      88.868  72.700  29.513  1.00  0.00    -0.390 N 
ATOM      2  H1  UNL     1      88.730  72.621  28.506  1.00  0.00     0.156 HD
ENDROOT
BRANCH   1   3
HETATM    3  C5  UNL     1      87.953  73.419  30.257  1.00  0.00     0.231 C 
HETATM    4  C3  UNL     1      86.939  72.544  31.025  1.00  0.00     0.104 C 
HETATM    5  C2  UNL     1      86.184  73.714  31.683  1.00  0.00     0.058 C 
HETATM    6  C1  UNL     1      84.898  73.314  32.267  1.00  0.00     0.016 C 
HETATM    7  C11 UNL     1      86.142  74.678  30.542  1.00  0.00     0.164 C 
HETATM    8  O2  UNL     1      87.028  74.217  29.559  1.00  0.00    -0.331 OA
HETATM    9  C12 UNL     1      84.795  74.917  29.951  1.00  0.00     0.079 C 
BRANCH   4  10
HETATM   10  C4  UNL     1      86.004  71.851  30.126  1.00  0.00     0.240 C 
HETATM   11  O1  UNL     1      86.280  70.972  29.331  1.00  0.00    -0.306 OA
ENDBRANCH   4  10
BRANCH   7  12
HETATM   12  O3  UNL     1      86.637  75.926  30.979  1.00  0.00    -0.365 OA
ATOM     13  H3  UNL     1      86.680  76.517  30.236  1.00  0.00     0.213 HD
ENDBRANCH   7  12
ENDBRANCH   1   3
BRANCH   1  14
HETATM   14  C6  UNL     1      89.978  72.073  30.097  1.00  0.00     0.112 C 
HETATM   15  C7  UNL     1      90.933  73.026  30.795  1.00  0.00     0.054 C 
HETATM   16  C8  UNL     1      92.174  72.229  31.142  1.00  0.00     0.234 C 
HETATM   17  N2  UNL     1      92.946  72.111  29.895  1.00  0.00    -0.073 N 
HETATM   18  C9  UNL     1      92.053  71.834  28.779  1.00  0.00     0.267 C 
ATOM     19  H22 UNL     1      93.525  72.933  29.726  1.00  0.00     0.277 HD
ATOM     20  H21 UNL     1      93.689  71.417  29.970  1.00  0.00     0.277 HD
HETATM   21  C10 UNL     1      90.787  71.138  29.274  1.00  0.00     0.231 C 
BRANCH  21  22
HETATM   22  N3  UNL     1      90.141  70.539  28.157  1.00  0.00    -0.071 N 
ATOM     23  H33 UNL     1      89.703  69.664  28.446  1.00  0.00     0.274 HD
ATOM     24  H32 UNL     1      89.319  71.087  27.904  1.00  0.00     0.274 HD
ATOM     25  H31 UNL     1      90.710  70.377  27.326  1.00  0.00     0.274 HD
ENDBRANCH  21  22
ENDBRANCH   1  14
TORSDOF 5
ENDMDL
MODEL 2
REMARK VINA RESULT: -6.435590561      1.381      2.017
REMARK  5 active torsions:
REMARK  status: ('A' for Active; 'I' for Inactive)
REMARK    1  A    between atoms: C3_3  and  C4_4 
REMARK    2  A    between atoms: C5_6  and  N1_7 
REMARK    3  A    between atoms: N1_7  and  C6_9 
REMARK    4  A    between atoms: C10_16  and  N3_17 
REMARK    5  A    between atoms: C11_22  and  O3_24 
ROOT
HETATM    1  N1  UNL     1      88.799  72.693  29.638  1.00  0.00    -0.390 N 
ATOM      2  H1  UNL     1      88.609  72.454  28.665  1.00  0.00     0.156 HD
ENDROOT
BRANCH   1   3
HETATM    3  C5  UNL     1      87.853  73.408  30.346  1.00  0.00     0.231 C 
HETATM    4  C3  UNL     1      86.812  72.528  31.072  1.00  0.00     0.104 C 
HETATM    5  C2  UNL     1      86.027  73.695  31.701  1.00  0.00     0.058 C 
HETATM    6  C1  UNL     1      84.720  73.289  32.232  1.00  0.00     0.016 C 
HETATM    7  C11 UNL     1      86.028  74.660  30.561  1.00  0.00     0.164 C 
HETATM    8  O2  UNL     1      86.954  74.204  29.613  1.00  0.00    -0.331 OA
HETATM    9  C12 UNL     1      84.704  74.896  29.916  1.00  0.00     0.079 C 
BRANCH   4  10
HETATM   10  C4  UNL     1      85.916  71.834  30.134  1.00  0.00     0.240 C 
HETATM   11  O1  UNL     1      86.227  70.961  29.345  1.00  0.00    -0.306 OA
ENDBRANCH   4  10
BRANCH   7  12
HETATM   12  O3  UNL     1      86.501  75.909  31.019  1.00  0.00    -0.365 OA
ATOM     13  H3  UNL     1      86.412  76.547  30.321  1.00  0.00     0.213 HD
ENDBRANCH   7  12
ENDBRANCH   1   3
BRANCH   1  14
HETATM   14  C6  UNL     1      90.011  72.285  30.212  1.00  0.00     0.112 C 
HETATM   15  C7  UNL     1      89.988  70.875  30.775  1.00  0.00     0.054 C 
HETATM   16  C8  UNL     1      91.271  70.694  31.562  1.00  0.00     0.234 C 
HETATM   17  N2  UNL     1      91.063  71.384  32.845  1.00  0.00    -0.073 N 
HETATM   18  C9  UNL     1      90.381  72.651  32.627  1.00  0.00     0.267 C 
ATOM     19  H22 UNL     1      90.571  70.797  33.518  1.00  0.00     0.277 HD
ATOM     20  H21 UNL     1      91.935  71.504  33.360  1.00  0.00     0.277 HD
HETATM   21  C10 UNL     1      90.660  73.167  31.216  1.00  0.00     0.231 C 
BRANCH  21  22
HETATM   22  N3  UNL     1      90.327  74.549  31.172  1.00  0.00    -0.071 N 
ATOM     23  H33 UNL     1      89.375  74.680  31.513  1.00  0.00     0.274 HD
ATOM     24  H32 UNL     1      90.854  75.050  31.888  1.00  0.00     0.274 HD
ATOM     25  H31 UNL     1      90.437  75.023  30.276  1.00  0.00     0.274 HD
ENDBRANCH  21  22
ENDBRANCH   1  14
TORSDOF 5
ENDMDL
MODEL 3
REMARK VINA RESULT: -6.419785921      2.771      5.965
REMARK  5 active torsions:
REMARK  status: ('A' for Active; 'I' for Inactive)
REMARK    1  A    between atoms: C3_3  and  C4_4 
REMARK    2  A    between atoms: C5_6  and  N1_7 
REMARK    3  A    between atoms: N1_7  and  C6_9 
REMARK    4  A    between atoms: C10_16  and  N3_17 
REMARK    5  A    between atoms: C11_22  and  O3_24 
ROOT
HETATM    1  N1  UNL     1      87.235  72.503  31.145  1.00  0.00    -0.390 N 
ATOM      2  H1  UNL     1      87.185  72.188  30.176  1.00  0.00     0.156 HD
ENDROOT
BRANCH   1   3
HETATM    3  C5  UNL     1      88.249  72.021  31.950  1.00  0.00     0.231 C 
HETATM    4  C3  UNL     1      89.663  72.460  31.511  1.00  0.00     0.104 C 
HETATM    5  C2  UNL     1      90.413  71.743  32.649  1.00  0.00     0.058 C 
HETATM    6  C1  UNL     1      91.858  71.640  32.411  1.00  0.00     0.016 C 
HETATM    7  C11 UNL     1      89.642  70.464  32.711  1.00  0.00     0.164 C 
HETATM    8  O2  UNL     1      88.472  70.633  31.958  1.00  0.00    -0.331 OA
HETATM    9  C12 UNL     1      90.375  69.248  32.258  1.00  0.00     0.079 C 
BRANCH   4  10
HETATM   10  C4  UNL     1      90.070  71.841  30.240  1.00  0.00     0.240 C 
HETATM   11  O1  UNL     1      89.544  72.001  29.154  1.00  0.00    -0.306 OA
ENDBRANCH   4  10
BRANCH   7  12
HETATM   12  O3  UNL     1      89.235  70.239  34.044  1.00  0.00    -0.365 OA
ATOM     13  H3  UNL     1      88.456  70.755  34.219  1.00  0.00     0.213 HD
ENDBRANCH   7  12
ENDBRANCH   1   3
BRANCH   1  14
HETATM   14  C6  UNL     1      86.274  73.409  31.614  1.00  0.00     0.112 C 
HETATM   15  C7  UNL     1      84.848  72.891  31.550  1.00  0.00     0.054 C 
HETATM   16  C8  UNL     1      83.939  74.066  31.853  1.00  0.00     0.234 C 
HETATM   17  N2  UNL     1      83.878  74.864  30.618  1.00  0.00    -0.073 N 
HETATM   18  C9  UNL     1      85.200  74.956  30.016  1.00  0.00     0.267 C 
ATOM     19  H22 UNL     1      83.185  74.501  29.964  1.00  0.00     0.277 HD
ATOM     20  H21 UNL     1      83.466  75.783  30.778  1.00  0.00     0.277 HD
HETATM   21  C10 UNL     1      86.280  74.797  31.085  1.00  0.00     0.231 C 
BRANCH  21  22
HETATM   22  N3  UNL     1      87.508  75.279  30.553  1.00  0.00    -0.071 N 
ATOM     23  H33 UNL     1      88.148  75.496  31.317  1.00  0.00     0.274 HD
ATOM     24  H32 UNL     1      88.008  74.513  30.100  1.00  0.00     0.274 HD
ATOM     25  H31 UNL     1      87.456  76.074  29.916  1.00  0.00     0.274 HD
ENDBRANCH  21  22
ENDBRANCH   1  14
TORSDOF 5
ENDMDL
MODEL 4
REMARK VINA RESULT: -6.341956899      2.676      5.741
REMARK  5 active torsions:
REMARK  status: ('A' for Active; 'I' for Inactive)
REMARK    1  A    between atoms: C3_3  and  C4_4 
REMARK    2  A    between atoms: C5_6  and  N1_7 
REMARK    3  A    between atoms: N1_7  and  C6_9 
REMARK    4  A    between atoms: C10_16  and  N3_17 
REMARK    5  A    between atoms: C11_22  and  O3_24 
ROOT
HETATM    1  N1  UNL     1      86.978  72.204  31.187  1.00  0.00    -0.390 N 
ATOM      2  H1  UNL     1      86.723  71.299  31.584  1.00  0.00     0.156 HD
ENDROOT
BRANCH   1   3
HETATM    3  C5  UNL     1      88.287  72.631  31.287  1.00  0.00     0.231 C 
HETATM    4  C3  UNL     1      89.203  72.122  30.153  1.00  0.00     0.104 C 
HETATM    5  C2  UNL     1      90.479  72.830  30.649  1.00  0.00     0.058 C 
HETATM    6  C1  UNL     1      91.701  72.332  30.005  1.00  0.00     0.016 C 
HETATM    7  C11 UNL     1      90.348  72.610  32.121  1.00  0.00     0.164 C 
HETATM    8  O2  UNL     1      89.046  72.159  32.373  1.00  0.00    -0.331 OA
HETATM    9  C12 UNL     1      91.343  71.678  32.724  1.00  0.00     0.079 C 
BRANCH   4  10
HETATM   10  C4  UNL     1      89.432  70.671  30.228  1.00  0.00     0.240 C 
HETATM   11  O1  UNL     1      88.601  69.797  30.072  1.00  0.00    -0.306 OA
ENDBRANCH   4  10
BRANCH   7  12
HETATM   12  O3  UNL     1      90.480  73.851  32.781  1.00  0.00    -0.365 OA
ATOM     13  H3  UNL     1      90.550  74.540  32.131  1.00  0.00     0.213 HD
ENDBRANCH   7  12
ENDBRANCH   1   3
BRANCH   1  14
HETATM   14  C6  UNL     1      85.987  72.971  30.558  1.00  0.00     0.112 C 
HETATM   15  C7  UNL     1      86.178  74.471  30.701  1.00  0.00     0.054 C 
HETATM   16  C8  UNL     1      84.912  75.126  30.189  1.00  0.00     0.234 C 
HETATM   17  N2  UNL     1      83.916  74.987  31.263  1.00  0.00    -0.073 N 
HETATM   18  C9  UNL     1      83.997  73.657  31.849  1.00  0.00     0.267 C 
ATOM     19  H22 UNL     1      84.007  75.720  31.966  1.00  0.00     0.277 HD
ATOM     20  H21 UNL     1      82.973  75.205  30.941  1.00  0.00     0.277 HD
HETATM   21  C10 UNL     1      84.560  72.664  30.834  1.00  0.00     0.231 C 
BRANCH  21  22
HETATM   22  N3  UNL     1      84.259  71.348  31.283  1.00  0.00    -0.071 N 
ATOM     23  H33 UNL     1      83.644  70.891  30.609  1.00  0.00     0.274 HD
ATOM     24  H32 UNL     1      85.091  70.762  31.206  1.00  0.00     0.274 HD
ATOM     25  H31 UNL     1      83.866  71.257  32.219  1.00  0.00     0.274 HD
ENDBRANCH  21  22
ENDBRANCH   1  14
TORSDOF 5
ENDMDL
MODEL 5
REMARK VINA RESULT: -6.221388371      3.783      5.864
REMARK  5 active torsions:
REMARK  status: ('A' for Active; 'I' for Inactive)
REMARK    1  A    between atoms: C3_3  and  C4_4 
REMARK    2  A    between atoms: C5_6  and  N1_7 
REMARK    3  A    between atoms: N1_7  and  C6_9 
REMARK    4  A    between atoms: C10_16  and  N3_17 
REMARK    5  A    between atoms: C11_22  and  O3_24 
ROOT
HETATM    1  N1  UNL     1      86.646  72.147  30.898  1.00  0.00    -0.390 N 
ATOM      2  H1  UNL     1      87.660  72.181  30.999  1.00  0.00     0.156 HD
ENDROOT
BRANCH   1   3
HETATM    3  C5  UNL     1      86.086  71.144  30.130  1.00  0.00     0.231 C 
HETATM    4  C3  UNL     1      85.900  69.807  30.881  1.00  0.00     0.104 C 
HETATM    5  C2  UNL     1      85.265  69.049  29.700  1.00  0.00     0.058 C 
HETATM    6  C1  UNL     1      85.226  67.595  29.903  1.00  0.00     0.016 C 
HETATM    7  C11 UNL     1      86.109  69.555  28.575  1.00  0.00     0.164 C 
HETATM    8  O2  UNL     1      86.839  70.654  29.048  1.00  0.00    -0.331 OA
HETATM    9  C12 UNL     1      87.025  68.555  27.957  1.00  0.00     0.079 C 
BRANCH   4  10
HETATM   10  C4  UNL     1      87.182  69.161  31.197  1.00  0.00     0.240 C 
HETATM   11  O1  UNL     1      88.008  69.545  32.004  1.00  0.00    -0.306 OA
ENDBRANCH   4  10
BRANCH   7  12
HETATM   12  O3  UNL     1      85.265  70.041  27.553  1.00  0.00    -0.365 OA
ATOM     13  H3  UNL     1      85.313  70.990  27.540  1.00  0.00     0.213 HD
ENDBRANCH   7  12
ENDBRANCH   1   3
BRANCH   1  14
HETATM   14  C6  UNL     1      85.867  73.118  31.543  1.00  0.00     0.112 C 
HETATM   15  C7  UNL     1      84.371  72.861  31.473  1.00  0.00     0.054 C 
HETATM   16  C8  UNL     1      83.686  74.110  31.991  1.00  0.00     0.234 C 
HETATM   17  N2  UNL     1      83.735  75.087  30.892  1.00  0.00    -0.073 N 
HETATM   18  C9  UNL     1      85.039  75.050  30.246  1.00  0.00     0.267 C 
ATOM     19  H22 UNL     1      82.975  74.951  30.226  1.00  0.00     0.277 HD
ATOM     20  H21 UNL     1      83.492  76.027  31.205  1.00  0.00     0.277 HD
HETATM   21  C10 UNL     1      86.100  74.550  31.224  1.00  0.00     0.231 C 
BRANCH  21  22
HETATM   22  N3  UNL     1      87.380  74.896  30.709  1.00  0.00    -0.071 N 
ATOM     23  H33 UNL     1      87.267  75.507  29.901  1.00  0.00     0.274 HD
ATOM     24  H32 UNL     1      87.850  75.527  31.359  1.00  0.00     0.274 HD
ATOM     25  H31 UNL     1      88.006  74.127  30.471  1.00  0.00     0.274 HD
ENDBRANCH  21  22
ENDBRANCH   1  14
TORSDOF 5
ENDMDL
