MODEL 1
REMARK VINA RESULT: -8.492006339      0.000      0.000
REMARK  5 active torsions:
REMARK  status: ('A' for Active; 'I' for Inactive)
REMARK    1  A    between atoms: C2_2  and  C4_4 
REMARK    2  A    between atoms: C4_4  and  C5_5 
REMARK    3  A    between atoms: C5_5  and  C6_6 
REMARK    4  A    between atoms: C6_6  and  O1_7 
REMARK    5  A    between atoms: C6_6  and  C7_9 
ROOT
HETATM    1  C7  UNL     1      63.861  47.798  29.234  1.00  0.00     0.023 C 
HETATM    2  C8  UNL     1      64.138  48.926  30.191  1.00  0.00     0.008 C 
HETATM    3  C9  UNL     1      64.751  48.222  31.391  1.00  0.00     0.006 C 
HETATM    4  C10 UNL     1      64.767  46.780  31.024  1.00  0.00    -0.002 C 
HETATM    5  C11 UNL     1      65.715  45.919  31.739  1.00  0.00    -0.005 C 
HETATM    6  C12 UNL     1      65.829  46.289  33.196  1.00  0.00     0.010 C 
HETATM    7  C13 UNL     1      67.266  46.092  33.551  1.00  0.00    -0.009 A 
HETATM    8  C14 UNL     1      68.222  47.168  33.102  1.00  0.00     0.010 A 
HETATM    9  C15 UNL     1      68.043  45.926  32.320  1.00  0.00    -0.006 A 
HETATM   10  C16 UNL     1      67.074  45.863  31.162  1.00  0.00    -0.006 C 
HETATM   11  C17 UNL     1      67.415  46.955  30.209  1.00  0.00     0.006 C 
HETATM   12  C18 UNL     1      66.342  47.351  29.264  1.00  0.00     0.010 C 
HETATM   13  C19 UNL     1      64.976  46.854  29.513  1.00  0.00    -0.034 C 
HETATM   14  C20 UNL     1      64.721  45.474  28.943  1.00  0.00     0.016 C 
ENDROOT
BRANCH   1  15
HETATM   15  C6  UNL     1      63.537  48.167  27.870  1.00  0.00     0.123 C 
BRANCH  15  16
HETATM   16  C5  UNL     1      62.168  47.955  27.353  1.00  0.00     0.032 C 
BRANCH  16  17
HETATM   17  C4  UNL     1      61.207  48.136  28.541  1.00  0.00     0.006 C 
BRANCH  17  18
HETATM   18  C2  UNL     1      60.326  46.914  28.689  1.00  0.00    -0.023 C 
HETATM   19  C1  UNL     1      60.379  46.355  30.089  1.00  0.00     0.009 C 
HETATM   20  C3  UNL     1      58.898  47.184  28.317  1.00  0.00     0.009 C 
ENDBRANCH  17  18
ENDBRANCH  16  17
ENDBRANCH  15  16
BRANCH  15  21
HETATM   21  O1  UNL     1      63.886  49.502  27.627  1.00  0.00    -0.395 OA
ATOM     22  H1  UNL     1      64.276  49.549  26.762  1.00  0.00     0.210 HD
ENDBRANCH  15  21
ENDBRANCH   1  15
TORSDOF 5
ENDMDL
MODEL 2
REMARK VINA RESULT: -8.110013895      0.995      2.378
REMARK  5 active torsions:
REMARK  status: ('A' for Active; 'I' for Inactive)
REMARK    1  A    between atoms: C2_2  and  C4_4 
REMARK    2  A    between atoms: C4_4  and  C5_5 
REMARK    3  A    between atoms: C5_5  and  C6_6 
REMARK    4  A    between atoms: C6_6  and  O1_7 
REMARK    5  A    between atoms: C6_6  and  C7_9 
ROOT
HETATM    1  C7  UNL     1      63.675  47.252  28.028  1.00  0.00     0.023 C 
HETATM    2  C8  UNL     1      63.622  45.786  28.362  1.00  0.00     0.008 C 
HETATM    3  C9  UNL     1      64.907  45.559  29.141  1.00  0.00     0.006 C 
HETATM    4  C10 UNL     1      65.573  46.888  29.182  1.00  0.00    -0.002 C 
HETATM    5  C11 UNL     1      66.559  47.111  30.244  1.00  0.00    -0.005 C 
HETATM    6  C12 UNL     1      67.393  45.883  30.509  1.00  0.00     0.010 C 
HETATM    7  C13 UNL     1      67.619  45.859  31.985  1.00  0.00    -0.009 A 
HETATM    8  C14 UNL     1      66.468  45.379  32.832  1.00  0.00     0.010 A 
HETATM    9  C15 UNL     1      66.715  46.822  32.621  1.00  0.00    -0.006 A 
HETATM   10  C16 UNL     1      66.004  47.586  31.528  1.00  0.00    -0.006 C 
HETATM   11  C17 UNL     1      64.538  47.399  31.706  1.00  0.00     0.006 C 
HETATM   12  C18 UNL     1      63.699  47.672  30.513  1.00  0.00     0.010 C 
HETATM   13  C19 UNL     1      64.370  47.830  29.210  1.00  0.00    -0.034 C 
HETATM   14  C20 UNL     1      64.876  49.234  28.954  1.00  0.00     0.016 C 
ENDROOT
BRANCH   1  15
HETATM   15  C6  UNL     1      62.453  47.852  27.532  1.00  0.00     0.123 C 
BRANCH  15  16
HETATM   16  C5  UNL     1      61.355  48.176  28.469  1.00  0.00     0.032 C 
BRANCH  16  17
HETATM   17  C4  UNL     1      60.156  47.297  28.075  1.00  0.00     0.006 C 
BRANCH  17  18
HETATM   18  C2  UNL     1      59.395  46.871  29.313  1.00  0.00    -0.023 C 
HETATM   19  C1  UNL     1      58.044  46.295  28.967  1.00  0.00     0.009 C 
HETATM   20  C3  UNL     1      60.156  45.882  30.146  1.00  0.00     0.009 C 
ENDBRANCH  17  18
ENDBRANCH  16  17
ENDBRANCH  15  16
BRANCH  15  21
HETATM   21  O1  UNL     1      62.740  49.007  26.791  1.00  0.00    -0.395 OA
ATOM     22  H1  UNL     1      63.095  49.655  27.387  1.00  0.00     0.210 HD
ENDBRANCH  15  21
ENDBRANCH   1  15
TORSDOF 5
ENDMDL
MODEL 3
REMARK VINA RESULT: -7.498786905      2.174      6.073
REMARK  5 active torsions:
REMARK  status: ('A' for Active; 'I' for Inactive)
REMARK    1  A    between atoms: C2_2  and  C4_4 
REMARK    2  A    between atoms: C4_4  and  C5_5 
REMARK    3  A    between atoms: C5_5  and  C6_6 
REMARK    4  A    between atoms: C6_6  and  O1_7 
REMARK    5  A    between atoms: C6_6  and  C7_9 
ROOT
HETATM    1  C7  UNL     1      65.383  47.858  31.802  1.00  0.00     0.023 C 
HETATM    2  C8  UNL     1      63.971  48.353  31.958  1.00  0.00     0.008 C 
HETATM    3  C9  UNL     1      63.624  48.862  30.569  1.00  0.00     0.006 C 
HETATM    4  C10 UNL     1      64.845  48.622  29.755  1.00  0.00    -0.002 C 
HETATM    5  C11 UNL     1      64.676  48.552  28.300  1.00  0.00    -0.005 C 
HETATM    6  C12 UNL     1      63.666  49.551  27.798  1.00  0.00     0.010 C 
HETATM    7  C13 UNL     1      62.937  48.867  26.689  1.00  0.00    -0.009 A 
HETATM    8  C14 UNL     1      61.888  47.863  27.094  1.00  0.00     0.010 A 
HETATM    9  C15 UNL     1      63.254  47.436  26.722  1.00  0.00    -0.006 A 
HETATM   10  C16 UNL     1      64.320  47.219  27.771  1.00  0.00    -0.006 C 
HETATM   11  C17 UNL     1      63.798  46.247  28.771  1.00  0.00     0.006 C 
HETATM   12  C18 UNL     1      64.477  46.245  30.090  1.00  0.00     0.010 C 
HETATM   13  C19 UNL     1      65.398  47.354  30.402  1.00  0.00    -0.034 C 
HETATM   14  C20 UNL     1      66.802  47.141  29.878  1.00  0.00     0.016 C 
ENDROOT
BRANCH   1  15
HETATM   15  C6  UNL     1      65.911  47.045  32.879  1.00  0.00     0.123 C 
BRANCH  15  16
HETATM   16  C5  UNL     1      67.364  47.037  33.154  1.00  0.00     0.032 C 
BRANCH  16  17
HETATM   17  C4  UNL     1      67.879  45.628  32.809  1.00  0.00     0.006 C 
BRANCH  17  18
HETATM   18  C2  UNL     1      66.747  44.626  32.897  1.00  0.00    -0.023 C 
HETATM   19  C1  UNL     1      66.712  43.719  31.692  1.00  0.00     0.009 C 
HETATM   20  C3  UNL     1      66.811  43.792  34.142  1.00  0.00     0.009 C 
ENDBRANCH  17  18
ENDBRANCH  16  17
ENDBRANCH  15  16
BRANCH  15  21
HETATM   21  O1  UNL     1      65.248  47.332  34.080  1.00  0.00    -0.395 OA
ATOM     22  H1  UNL     1      65.100  46.511  34.534  1.00  0.00     0.210 HD
ENDBRANCH  15  21
ENDBRANCH   1  15
TORSDOF 5
ENDMDL
MODEL 4
REMARK VINA RESULT: -7.345971155      1.799      6.173
REMARK  5 active torsions:
REMARK  status: ('A' for Active; 'I' for Inactive)
REMARK    1  A    between atoms: C2_2  and  C4_4 
REMARK    2  A    between atoms: C4_4  and  C5_5 
REMARK    3  A    between atoms: C5_5  and  C6_6 
REMARK    4  A    between atoms: C6_6  and  O1_7 
REMARK    5  A    between atoms: C6_6  and  C7_9 
ROOT
HETATM    1  C7  UNL     1      66.082  46.691  30.648  1.00  0.00     0.023 C 
HETATM    2  C8  UNL     1      65.889  45.784  29.464  1.00  0.00     0.008 C 
HETATM    3  C9  UNL     1      64.410  45.934  29.146  1.00  0.00     0.006 C 
HETATM    4  C10 UNL     1      63.895  46.894  30.159  1.00  0.00    -0.002 C 
HETATM    5  C11 UNL     1      62.655  47.606  29.835  1.00  0.00    -0.005 C 
HETATM    6  C12 UNL     1      61.666  46.724  29.116  1.00  0.00     0.010 C 
HETATM    7  C13 UNL     1      60.994  47.605  28.115  1.00  0.00    -0.009 A 
HETATM    8  C14 UNL     1      61.774  47.916  26.863  1.00  0.00     0.010 A 
HETATM    9  C15 UNL     1      61.744  48.859  28.003  1.00  0.00    -0.006 A 
HETATM   10  C16 UNL     1      62.828  48.849  29.056  1.00  0.00    -0.006 C 
HETATM   11  C17 UNL     1      64.142  49.005  28.373  1.00  0.00     0.006 C 
HETATM   12  C18 UNL     1      65.331  48.573  29.148  1.00  0.00     0.010 C 
HETATM   13  C19 UNL     1      65.114  47.788  30.378  1.00  0.00    -0.034 C 
HETATM   14  C20 UNL     1      64.849  48.640  31.601  1.00  0.00     0.016 C 
ENDROOT
BRANCH   1  15
HETATM   15  C6  UNL     1      67.450  46.996  31.019  1.00  0.00     0.123 C 
BRANCH  15  16
HETATM   16  C5  UNL     1      67.818  47.121  32.446  1.00  0.00     0.032 C 
BRANCH  16  17
HETATM   17  C4  UNL     1      68.395  45.762  32.881  1.00  0.00     0.006 C 
BRANCH  17  18
HETATM   18  C2  UNL     1      67.391  45.020  33.736  1.00  0.00    -0.023 C 
HETATM   19  C1  UNL     1      66.390  45.959  34.362  1.00  0.00     0.009 C 
HETATM   20  C3  UNL     1      66.661  43.954  32.975  1.00  0.00     0.009 C 
ENDBRANCH  17  18
ENDBRANCH  16  17
ENDBRANCH  15  16
BRANCH  15  21
HETATM   21  O1  UNL     1      68.333  46.084  30.426  1.00  0.00    -0.395 OA
ATOM     22  H1  UNL     1      69.215  46.323  30.683  1.00  0.00     0.210 HD
ENDBRANCH  15  21
ENDBRANCH   1  15
TORSDOF 5
ENDMDL
MODEL 5
REMARK VINA RESULT: -7.111381861      2.132      6.108
REMARK  5 active torsions:
REMARK  status: ('A' for Active; 'I' for Inactive)
REMARK    1  A    between atoms: C2_2  and  C4_4 
REMARK    2  A    between atoms: C4_4  and  C5_5 
REMARK    3  A    between atoms: C5_5  and  C6_6 
REMARK    4  A    between atoms: C6_6  and  O1_7 
REMARK    5  A    between atoms: C6_6  and  C7_9 
ROOT
HETATM    1  C7  UNL     1      65.922  46.772  31.769  1.00  0.00     0.023 C 
HETATM    2  C8  UNL     1      64.490  46.837  32.225  1.00  0.00     0.008 C 
HETATM    3  C9  UNL     1      63.830  47.718  31.177  1.00  0.00     0.006 C 
HETATM    4  C10 UNL     1      64.921  48.076  30.233  1.00  0.00    -0.002 C 
HETATM    5  C11 UNL     1      64.528  48.498  28.884  1.00  0.00    -0.005 C 
HETATM    6  C12 UNL     1      63.284  49.348  28.897  1.00  0.00     0.010 C 
HETATM    7  C13 UNL     1      62.517  48.961  27.676  1.00  0.00    -0.009 A 
HETATM    8  C14 UNL     1      61.749  47.666  27.748  1.00  0.00     0.010 A 
HETATM    9  C15 UNL     1      63.089  47.729  27.125  1.00  0.00    -0.006 A 
HETATM   10  C16 UNL     1      64.335  47.401  27.913  1.00  0.00    -0.006 C 
HETATM   11  C17 UNL     1      64.172  46.042  28.498  1.00  0.00     0.006 C 
HETATM   12  C18 UNL     1      65.051  45.721  29.650  1.00  0.00     0.010 C 
HETATM   13  C19 UNL     1      65.794  46.824  30.288  1.00  0.00    -0.034 C 
HETATM   14  C20 UNL     1      67.107  47.145  29.605  1.00  0.00     0.016 C 
ENDROOT
BRANCH   1  15
HETATM   15  C6  UNL     1      66.761  45.771  32.397  1.00  0.00     0.123 C 
BRANCH  15  16
HETATM   16  C5  UNL     1      67.268  45.987  33.770  1.00  0.00     0.032 C 
BRANCH  16  17
HETATM   17  C4  UNL     1      67.239  47.505  34.025  1.00  0.00     0.006 C 
BRANCH  17  18
HETATM   18  C2  UNL     1      66.450  47.807  35.280  1.00  0.00    -0.023 C 
HETATM   19  C1  UNL     1      65.466  48.929  35.063  1.00  0.00     0.009 C 
HETATM   20  C3  UNL     1      65.721  46.605  35.806  1.00  0.00     0.009 C 
ENDBRANCH  17  18
ENDBRANCH  16  17
ENDBRANCH  15  16
BRANCH  15  21
HETATM   21  O1  UNL     1      66.137  44.517  32.362  1.00  0.00    -0.395 OA
ATOM     22  H1  UNL     1      65.858  44.355  31.469  1.00  0.00     0.210 HD
ENDBRANCH  15  21
ENDBRANCH   1  15
TORSDOF 5
ENDMDL
