MODEL 1
REMARK VINA RESULT: -8.487650711      0.000      0.000
REMARK  3 active torsions:
REMARK  status: ('A' for Active; 'I' for Inactive)
REMARK    1  A    between atoms: C2_2  and  N1_4 
REMARK    2  A    between atoms: N1_4  and  C4_7 
REMARK    3  A    between atoms: C4_7  and  C5_8 
ROOT
HETATM    1  C5  UNL     1      66.340  47.441  32.264  1.00  0.00     0.011 C 
HETATM    2  C6  UNL     1      64.942  47.125  32.624  1.00  0.00     0.006 C 
HETATM    3  C7  UNL     1      64.101  48.300  32.260  1.00  0.00     0.001 C 
HETATM    4  C8  UNL     1      63.739  48.312  30.814  1.00  0.00     0.006 C 
HETATM    5  C9  UNL     1      64.806  48.303  29.831  1.00  0.00    -0.002 C 
HETATM    6  C10 UNL     1      65.820  47.247  29.789  1.00  0.00    -0.009 C 
HETATM    7  C11 UNL     1      65.331  45.884  29.353  1.00  0.00     0.006 C 
HETATM    8  C12 UNL     1      63.999  45.860  28.714  1.00  0.00     0.010 C 
HETATM    9  C13 UNL     1      63.581  47.090  27.991  1.00  0.00    -0.036 C 
HETATM   10  C14 UNL     1      63.840  46.928  26.485  1.00  0.00     0.016 C 
HETATM   11  C15 UNL     1      62.069  47.210  28.134  1.00  0.00     0.010 C 
HETATM   12  C16 UNL     1      61.765  48.640  28.431  1.00  0.00     0.002 C 
HETATM   13  C17 UNL     1      63.083  49.355  28.302  1.00  0.00     0.010 C 
HETATM   14  C18 UNL     1      64.177  48.361  28.432  1.00  0.00    -0.033 C 
HETATM   15  C19 UNL     1      65.319  48.799  27.502  1.00  0.00     0.016 C 
HETATM   16  C20 UNL     1      66.785  47.142  30.903  1.00  0.00     0.011 C 
ENDROOT
BRANCH   1  17
HETATM   17  C4  UNL     1      67.257  46.755  33.268  1.00  0.00     0.237 C 
BRANCH  17  18
HETATM   18  N1  UNL     1      67.881  45.644  32.600  1.00  0.00    -0.071 N 
ATOM     19  H12 UNL     1      68.898  45.722  32.632  1.00  0.00     0.277 HD
ATOM     20  H11 UNL     1      67.743  45.699  31.591  1.00  0.00     0.277 HD
BRANCH  18  21
HETATM   21  C2  UNL     1      67.442  44.366  33.114  1.00  0.00     0.177 C 
HETATM   22  C1  UNL     1      66.700  44.531  34.431  1.00  0.00     0.039 C 
HETATM   23  C3  UNL     1      66.516  43.658  32.172  1.00  0.00     0.039 C 
ENDBRANCH  18  21
ENDBRANCH  17  18
ENDBRANCH   1  17
TORSDOF 3
ENDMDL
MODEL 2
REMARK VINA RESULT: -7.603798284      1.958      6.165
REMARK  3 active torsions:
REMARK  status: ('A' for Active; 'I' for Inactive)
REMARK    1  A    between atoms: C2_2  and  N1_4 
REMARK    2  A    between atoms: N1_4  and  C4_7 
REMARK    3  A    between atoms: C4_7  and  C5_8 
ROOT
HETATM    1  C5  UNL     1      64.542  47.272  29.272  1.00  0.00     0.011 C 
HETATM    2  C6  UNL     1      64.566  48.489  30.109  1.00  0.00     0.006 C 
HETATM    3  C7  UNL     1      63.958  48.149  31.426  1.00  0.00     0.001 C 
HETATM    4  C8  UNL     1      64.926  47.483  32.343  1.00  0.00     0.006 C 
HETATM    5  C9  UNL     1      65.567  46.258  31.906  1.00  0.00    -0.002 C 
HETATM    6  C10 UNL     1      66.357  46.186  30.673  1.00  0.00    -0.009 C 
HETATM    7  C11 UNL     1      67.671  46.934  30.692  1.00  0.00     0.006 C 
HETATM    8  C12 UNL     1      68.146  47.353  32.026  1.00  0.00     0.010 C 
HETATM    9  C13 UNL     1      67.727  46.514  33.180  1.00  0.00    -0.036 C 
HETATM   10  C14 UNL     1      68.851  45.534  33.552  1.00  0.00     0.016 C 
HETATM   11  C15 UNL     1      67.577  47.438  34.383  1.00  0.00     0.010 C 
HETATM   12  C16 UNL     1      66.323  47.043  35.089  1.00  0.00     0.002 C 
HETATM   13  C17 UNL     1      65.849  45.802  34.381  1.00  0.00     0.010 C 
HETATM   14  C18 UNL     1      66.476  45.754  33.036  1.00  0.00    -0.033 C 
HETATM   15  C19 UNL     1      66.748  44.281  32.699  1.00  0.00     0.016 C 
HETATM   16  C20 UNL     1      65.666  46.341  29.377  1.00  0.00     0.011 C 
ENDROOT
BRANCH   1  17
HETATM   17  C4  UNL     1      64.358  47.697  27.820  1.00  0.00     0.237 C 
BRANCH  17  18
HETATM   18  N1  UNL     1      63.163  47.065  27.329  1.00  0.00    -0.071 N 
ATOM     19  H12 UNL     1      62.925  46.247  27.891  1.00  0.00     0.277 HD
ATOM     20  H11 UNL     1      63.334  46.606  26.434  1.00  0.00     0.277 HD
BRANCH  18  21
HETATM   21  C2  UNL     1      62.046  47.977  27.239  1.00  0.00     0.177 C 
HETATM   22  C1  UNL     1      61.079  47.774  28.396  1.00  0.00     0.039 C 
HETATM   23  C3  UNL     1      62.476  49.412  27.270  1.00  0.00     0.039 C 
ENDBRANCH  18  21
ENDBRANCH  17  18
ENDBRANCH   1  17
TORSDOF 3
ENDMDL
MODEL 3
REMARK VINA RESULT: -7.488306102      1.879      6.177
REMARK  3 active torsions:
REMARK  status: ('A' for Active; 'I' for Inactive)
REMARK    1  A    between atoms: C2_2  and  N1_4 
REMARK    2  A    between atoms: N1_4  and  C4_7 
REMARK    3  A    between atoms: C4_7  and  C5_8 
ROOT
HETATM    1  C5  UNL     1      65.162  46.889  28.545  1.00  0.00     0.011 C 
HETATM    2  C6  UNL     1      64.575  45.635  29.061  1.00  0.00     0.006 C 
HETATM    3  C7  UNL     1      65.695  44.727  29.435  1.00  0.00     0.001 C 
HETATM    4  C8  UNL     1      66.250  45.036  30.783  1.00  0.00     0.006 C 
HETATM    5  C9  UNL     1      66.758  46.371  31.035  1.00  0.00    -0.002 C 
HETATM    6  C10 UNL     1      65.928  47.567  30.866  1.00  0.00    -0.009 C 
HETATM    7  C11 UNL     1      64.813  47.740  31.873  1.00  0.00     0.006 C 
HETATM    8  C12 UNL     1      64.902  46.885  33.074  1.00  0.00     0.010 C 
HETATM    9  C13 UNL     1      66.265  46.476  33.505  1.00  0.00    -0.036 C 
HETATM   10  C14 UNL     1      66.755  47.393  34.637  1.00  0.00     0.016 C 
HETATM   11  C15 UNL     1      66.148  45.089  34.126  1.00  0.00     0.010 C 
HETATM   12  C16 UNL     1      67.293  44.279  33.615  1.00  0.00     0.002 C 
HETATM   13  C17 UNL     1      68.140  45.248  32.835  1.00  0.00     0.010 C 
HETATM   14  C18 UNL     1      67.306  46.419  32.468  1.00  0.00    -0.033 C 
HETATM   15  C19 UNL     1      68.206  47.664  32.506  1.00  0.00     0.016 C 
HETATM   16  C20 UNL     1      65.490  47.942  29.506  1.00  0.00     0.011 C 
ENDROOT
BRANCH   1  17
HETATM   17  C4  UNL     1      64.234  47.442  27.471  1.00  0.00     0.237 C 
BRANCH  17  18
HETATM   18  N1  UNL     1      62.929  46.880  27.690  1.00  0.00    -0.071 N 
ATOM     19  H12 UNL     1      62.897  46.358  28.566  1.00  0.00     0.277 HD
ATOM     20  H11 UNL     1      62.745  46.118  27.038  1.00  0.00     0.277 HD
BRANCH  18  21
HETATM   21  C2  UNL     1      61.878  47.871  27.639  1.00  0.00     0.177 C 
HETATM   22  C1  UNL     1      60.749  47.523  28.597  1.00  0.00     0.039 C 
HETATM   23  C3  UNL     1      62.365  49.240  28.009  1.00  0.00     0.039 C 
ENDBRANCH  18  21
ENDBRANCH  17  18
ENDBRANCH   1  17
TORSDOF 3
ENDMDL
MODEL 4
REMARK VINA RESULT: -7.351398997      0.976      1.175
REMARK  3 active torsions:
REMARK  status: ('A' for Active; 'I' for Inactive)
REMARK    1  A    between atoms: C2_2  and  N1_4 
REMARK    2  A    between atoms: N1_4  and  C4_7 
REMARK    3  A    between atoms: C4_7  and  C5_8 
ROOT
HETATM    1  C5  UNL     1      66.467  47.308  31.441  1.00  0.00     0.011 C 
HETATM    2  C6  UNL     1      65.132  47.095  32.036  1.00  0.00     0.006 C 
HETATM    3  C7  UNL     1      64.345  48.346  31.850  1.00  0.00     0.001 C 
HETATM    4  C8  UNL     1      63.738  48.439  30.492  1.00  0.00     0.006 C 
HETATM    5  C9  UNL     1      64.612  48.379  29.336  1.00  0.00    -0.002 C 
HETATM    6  C10 UNL     1      65.508  47.246  29.093  1.00  0.00    -0.009 C 
HETATM    7  C11 UNL     1      64.835  45.943  28.722  1.00  0.00     0.006 C 
HETATM    8  C12 UNL     1      63.415  46.051  28.329  1.00  0.00     0.010 C 
HETATM    9  C13 UNL     1      62.985  47.336  27.717  1.00  0.00    -0.036 C 
HETATM   10  C14 UNL     1      62.962  47.207  26.186  1.00  0.00     0.016 C 
HETATM   11  C15 UNL     1      61.537  47.574  28.127  1.00  0.00     0.010 C 
HETATM   12  C16 UNL     1      61.414  49.012  28.504  1.00  0.00     0.002 C 
HETATM   13  C17 UNL     1      62.747  49.622  28.158  1.00  0.00     0.010 C 
HETATM   14  C18 UNL     1      63.756  48.538  28.071  1.00  0.00    -0.033 C 
HETATM   15  C19 UNL     1      64.752  48.914  26.964  1.00  0.00     0.016 C 
HETATM   16  C20 UNL     1      66.640  47.023  30.016  1.00  0.00     0.011 C 
ENDROOT
BRANCH   1  17
HETATM   17  C4  UNL     1      67.483  46.514  32.252  1.00  0.00     0.237 C 
BRANCH  17  18
HETATM   18  N1  UNL     1      67.570  47.119  33.554  1.00  0.00    -0.071 N 
ATOM     19  H12 UNL     1      67.003  47.966  33.603  1.00  0.00     0.277 HD
ATOM     20  H11 UNL     1      68.491  47.528  33.706  1.00  0.00     0.277 HD
BRANCH  18  21
HETATM   21  C2  UNL     1      67.227  46.203  34.619  1.00  0.00     0.177 C 
HETATM   22  C1  UNL     1      66.017  46.697  35.397  1.00  0.00     0.039 C 
HETATM   23  C3  UNL     1      66.896  44.833  34.110  1.00  0.00     0.039 C 
ENDBRANCH  18  21
ENDBRANCH  17  18
ENDBRANCH   1  17
TORSDOF 3
ENDMDL
MODEL 5
REMARK VINA RESULT: -7.065316222      2.058      6.026
REMARK  3 active torsions:
REMARK  status: ('A' for Active; 'I' for Inactive)
REMARK    1  A    between atoms: C2_2  and  N1_4 
REMARK    2  A    between atoms: N1_4  and  C4_7 
REMARK    3  A    between atoms: C4_7  and  C5_8 
ROOT
HETATM    1  C5  UNL     1      63.858  47.471  29.618  1.00  0.00     0.011 C 
HETATM    2  C6  UNL     1      64.079  48.663  30.463  1.00  0.00     0.006 C 
HETATM    3  C7  UNL     1      63.713  48.304  31.862  1.00  0.00     0.001 C 
HETATM    4  C8  UNL     1      64.810  47.584  32.569  1.00  0.00     0.006 C 
HETATM    5  C9  UNL     1      65.316  46.352  31.993  1.00  0.00    -0.002 C 
HETATM    6  C10 UNL     1      65.861  46.291  30.635  1.00  0.00    -0.009 C 
HETATM    7  C11 UNL     1      67.181  46.997  30.424  1.00  0.00     0.006 C 
HETATM    8  C12 UNL     1      67.910  47.364  31.656  1.00  0.00     0.010 C 
HETATM    9  C13 UNL     1      67.682  46.507  32.849  1.00  0.00    -0.036 C 
HETATM   10  C14 UNL     1      68.820  45.483  32.985  1.00  0.00     0.016 C 
HETATM   11  C15 UNL     1      67.789  47.400  34.079  1.00  0.00     0.010 C 
HETATM   12  C16 UNL     1      66.675  47.024  34.997  1.00  0.00     0.002 C 
HETATM   13  C17 UNL     1      66.035  45.819  34.362  1.00  0.00     0.010 C 
HETATM   14  C18 UNL     1      66.400  45.790  32.924  1.00  0.00    -0.033 C 
HETATM   15  C19 UNL     1      66.552  44.318  32.510  1.00  0.00     0.016 C 
HETATM   16  C20 UNL     1      64.948  46.504  29.492  1.00  0.00     0.011 C 
ENDROOT
BRANCH   1  17
HETATM   17  C4  UNL     1      63.424  47.941  28.236  1.00  0.00     0.237 C 
BRANCH  17  18
HETATM   18  N1  UNL     1      62.223  47.229  27.891  1.00  0.00    -0.071 N 
ATOM     19  H12 UNL     1      62.419  46.242  27.721  1.00  0.00     0.277 HD
ATOM     20  H11 UNL     1      61.895  47.494  26.962  1.00  0.00     0.277 HD
BRANCH  18  21
HETATM   21  C2  UNL     1      61.176  47.389  28.875  1.00  0.00     0.177 C 
HETATM   22  C1  UNL     1      59.863  47.787  28.218  1.00  0.00     0.039 C 
HETATM   23  C3  UNL     1      60.920  46.130  29.646  1.00  0.00     0.039 C 
ENDBRANCH  18  21
ENDBRANCH  17  18
ENDBRANCH   1  17
TORSDOF 3
ENDMDL
