MODEL 1
REMARK VINA RESULT: -7.908194080      0.000      0.000
REMARK  5 active torsions:
REMARK  status: ('A' for Active; 'I' for Inactive)
REMARK    1  A    between atoms: C3_3  and  N1_5 
REMARK    2  A    between atoms: C3_3  and  O1_17 
REMARK    3  A    between atoms: N1_5  and  C5_7 
REMARK    4  A    between atoms: O1_17  and  C15_18 
REMARK    5  A    between atoms: C15_18  and  C18_21 
ROOT
HETATM    1  C1  UNL     1      68.560  47.679  32.736  1.00  0.00     0.102 C 
HETATM    2  C2  UNL     1      67.465  47.256  32.362  1.00  0.00    -0.129 C 
HETATM    3  C3  UNL     1      66.145  46.741  31.858  1.00  0.00     0.182 C 
HETATM    4  C4  UNL     1      66.331  45.199  31.768  1.00  0.00     0.085 C 
ENDROOT
BRANCH   3   5
HETATM    5  N1  UNL     1      66.145  47.158  30.505  1.00  0.00    -0.374 N 
ATOM      6  H1  UNL     1      67.058  47.207  30.054  1.00  0.00     0.158 HD
BRANCH   5   7
HETATM    7  C5  UNL     1      65.080  47.502  29.732  1.00  0.00     0.030 C 
HETATM    8  C6  UNL     1      64.319  46.277  29.270  1.00  0.00     0.035 C 
HETATM    9  C7  UNL     1      63.320  46.578  28.172  1.00  0.00    -0.012 C 
HETATM   10  C8  UNL     1      64.080  47.084  26.975  1.00  0.00     0.009 C 
HETATM   11  C12 UNL     1      62.325  47.575  28.684  1.00  0.00     0.009 C 
HETATM   12  C9  UNL     1      64.739  48.366  27.378  1.00  0.00    -0.012 C 
HETATM   13  C10 UNL     1      63.732  49.390  27.874  1.00  0.00     0.009 C 
HETATM   14  C14 UNL     1      65.715  48.122  28.462  1.00  0.00     0.035 C 
HETATM   15  C11 UNL     1      63.101  48.812  29.093  1.00  0.00    -0.012 C 
HETATM   16  C13 UNL     1      64.089  48.511  30.205  1.00  0.00     0.035 C 
ENDBRANCH   5   7
ENDBRANCH   3   5
BRANCH   3  17
HETATM   17  O1  UNL     1      65.163  47.013  32.616  1.00  0.00    -0.341 OA
BRANCH  17  18
HETATM   18  C15 UNL     1      64.850  47.521  33.749  1.00  0.00     0.057 C 
HETATM   19  C16 UNL     1      65.332  46.927  35.037  1.00  0.00     0.045 C 
HETATM   20  C17 UNL     1      63.297  47.416  33.857  1.00  0.00     0.045 C 
BRANCH  18  21
HETATM   21  C18 UNL     1      65.085  49.015  33.827  1.00  0.00     0.033 C 
HETATM   22  C19 UNL     1      65.324  49.518  35.239  1.00  0.00     0.008 C 
ENDBRANCH  18  21
ENDBRANCH  17  18
ENDBRANCH   3  17
TORSDOF 5
ENDMDL
MODEL 2
REMARK VINA RESULT: -7.845931209      1.277      3.319
REMARK  5 active torsions:
REMARK  status: ('A' for Active; 'I' for Inactive)
REMARK    1  A    between atoms: C3_3  and  N1_5 
REMARK    2  A    between atoms: C3_3  and  O1_17 
REMARK    3  A    between atoms: N1_5  and  C5_7 
REMARK    4  A    between atoms: O1_17  and  C15_18 
REMARK    5  A    between atoms: C15_18  and  C18_21 
ROOT
HETATM    1  C1  UNL     1      62.927  47.410  33.601  1.00  0.00     0.102 C 
HETATM    2  C2  UNL     1      64.013  47.377  33.021  1.00  0.00    -0.129 C 
HETATM    3  C3  UNL     1      65.328  47.381  32.291  1.00  0.00     0.182 C 
HETATM    4  C4  UNL     1      66.283  48.204  33.203  1.00  0.00     0.085 C 
ENDROOT
BRANCH   3   5
HETATM    5  N1  UNL     1      65.075  48.247  31.201  1.00  0.00    -0.374 N 
ATOM      6  H1  UNL     1      65.357  49.218  31.328  1.00  0.00     0.158 HD
BRANCH   5   7
HETATM    7  C5  UNL     1      64.501  47.946  30.004  1.00  0.00     0.030 C 
HETATM    8  C6  UNL     1      65.448  48.224  28.857  1.00  0.00     0.035 C 
HETATM    9  C7  UNL     1      64.766  48.197  27.504  1.00  0.00    -0.012 C 
HETATM   10  C8  UNL     1      63.734  49.293  27.480  1.00  0.00     0.009 C 
HETATM   11  C12 UNL     1      64.168  46.840  27.291  1.00  0.00     0.009 C 
HETATM   12  C9  UNL     1      62.717  48.967  28.529  1.00  0.00    -0.012 C 
HETATM   13  C10 UNL     1      62.088  47.601  28.303  1.00  0.00     0.009 C 
HETATM   14  C14 UNL     1      63.343  48.966  29.869  1.00  0.00     0.035 C 
HETATM   15  C11 UNL     1      63.186  46.602  28.422  1.00  0.00    -0.012 C 
HETATM   16  C13 UNL     1      63.875  46.612  29.774  1.00  0.00     0.035 C 
ENDBRANCH   5   7
ENDBRANCH   3   5
BRANCH   3  17
HETATM   17  O1  UNL     1      65.811  46.222  32.095  1.00  0.00    -0.341 OA
BRANCH  17  18
HETATM   18  C15 UNL     1      66.885  45.594  31.792  1.00  0.00     0.057 C 
HETATM   19  C16 UNL     1      67.841  46.120  30.766  1.00  0.00     0.045 C 
HETATM   20  C17 UNL     1      66.434  44.223  31.202  1.00  0.00     0.045 C 
BRANCH  18  21
HETATM   21  C18 UNL     1      67.702  45.180  32.998  1.00  0.00     0.033 C 
HETATM   22  C19 UNL     1      66.968  44.238  33.934  1.00  0.00     0.008 C 
ENDBRANCH  18  21
ENDBRANCH  17  18
ENDBRANCH   3  17
TORSDOF 5
ENDMDL
MODEL 3
REMARK VINA RESULT: -7.794715645      1.218      3.140
REMARK  5 active torsions:
REMARK  status: ('A' for Active; 'I' for Inactive)
REMARK    1  A    between atoms: C3_3  and  N1_5 
REMARK    2  A    between atoms: C3_3  and  O1_17 
REMARK    3  A    between atoms: N1_5  and  C5_7 
REMARK    4  A    between atoms: O1_17  and  C15_18 
REMARK    5  A    between atoms: C15_18  and  C18_21 
ROOT
HETATM    1  C1  UNL     1      62.278  47.056  33.853  1.00  0.00     0.102 C 
HETATM    2  C2  UNL     1      63.281  47.604  33.394  1.00  0.00    -0.129 C 
HETATM    3  C3  UNL     1      64.476  48.303  32.806  1.00  0.00     0.182 C 
HETATM    4  C4  UNL     1      64.695  49.545  33.717  1.00  0.00     0.085 C 
ENDROOT
BRANCH   3   5
HETATM    5  N1  UNL     1      63.957  48.852  31.609  1.00  0.00    -0.374 N 
ATOM      6  H1  UNL     1      63.585  49.798  31.677  1.00  0.00     0.158 HD
BRANCH   5   7
HETATM    7  C5  UNL     1      63.892  48.274  30.379  1.00  0.00     0.030 C 
HETATM    8  C6  UNL     1      65.178  47.548  30.045  1.00  0.00     0.035 C 
HETATM    9  C7  UNL     1      65.274  47.152  28.586  1.00  0.00    -0.012 C 
HETATM   10  C8  UNL     1      65.267  48.410  27.759  1.00  0.00     0.009 C 
HETATM   11  C12 UNL     1      64.130  46.241  28.256  1.00  0.00     0.009 C 
HETATM   12  C9  UNL     1      63.947  49.079  27.981  1.00  0.00    -0.012 C 
HETATM   13  C10 UNL     1      62.783  48.169  27.623  1.00  0.00     0.009 C 
HETATM   14  C14 UNL     1      63.802  49.471  29.400  1.00  0.00     0.035 C 
HETATM   15  C11 UNL     1      62.853  47.004  28.549  1.00  0.00    -0.012 C 
HETATM   16  C13 UNL     1      62.751  47.385  30.015  1.00  0.00     0.035 C 
ENDBRANCH   5   7
ENDBRANCH   3   5
BRANCH   3  17
HETATM   17  O1  UNL     1      65.529  47.592  32.786  1.00  0.00    -0.341 OA
BRANCH  17  18
HETATM   18  C15 UNL     1      66.239  46.788  33.485  1.00  0.00     0.057 C 
HETATM   19  C16 UNL     1      66.146  46.751  34.979  1.00  0.00     0.045 C 
HETATM   20  C17 UNL     1      67.726  47.181  33.221  1.00  0.00     0.045 C 
BRANCH  18  21
HETATM   21  C18 UNL     1      66.186  45.356  32.996  1.00  0.00     0.033 C 
HETATM   22  C19 UNL     1      67.277  44.476  33.578  1.00  0.00     0.008 C 
ENDBRANCH  18  21
ENDBRANCH  17  18
ENDBRANCH   3  17
TORSDOF 5
ENDMDL
MODEL 4
REMARK VINA RESULT: -7.708118155      1.276      3.367
REMARK  5 active torsions:
REMARK  status: ('A' for Active; 'I' for Inactive)
REMARK    1  A    between atoms: C3_3  and  N1_5 
REMARK    2  A    between atoms: C3_3  and  O1_17 
REMARK    3  A    between atoms: N1_5  and  C5_7 
REMARK    4  A    between atoms: O1_17  and  C15_18 
REMARK    5  A    between atoms: C15_18  and  C18_21 
ROOT
HETATM    1  C1  UNL     1      62.695  47.329  34.594  1.00  0.00     0.102 C 
HETATM    2  C2  UNL     1      63.432  47.699  33.680  1.00  0.00    -0.129 C 
HETATM    3  C3  UNL     1      64.293  48.154  32.533  1.00  0.00     0.182 C 
HETATM    4  C4  UNL     1      64.233  49.708  32.587  1.00  0.00     0.085 C 
ENDROOT
BRANCH   3   5
HETATM    5  N1  UNL     1      63.504  47.826  31.404  1.00  0.00    -0.374 N 
ATOM      6  H1  UNL     1      62.551  47.522  31.600  1.00  0.00     0.158 HD
BRANCH   5   7
HETATM    7  C5  UNL     1      63.858  47.866  30.091  1.00  0.00     0.030 C 
HETATM    8  C6  UNL     1      64.163  49.281  29.648  1.00  0.00     0.035 C 
HETATM    9  C7  UNL     1      64.264  49.424  28.143  1.00  0.00    -0.012 C 
HETATM   10  C8  UNL     1      62.926  49.070  27.550  1.00  0.00     0.009 C 
HETATM   11  C12 UNL     1      65.365  48.536  27.647  1.00  0.00     0.009 C 
HETATM   12  C9  UNL     1      62.665  47.632  27.872  1.00  0.00    -0.012 C 
HETATM   13  C10 UNL     1      63.766  46.724  27.349  1.00  0.00     0.009 C 
HETATM   14  C14 UNL     1      62.574  47.442  29.336  1.00  0.00     0.035 C 
HETATM   15  C11 UNL     1      65.016  47.119  28.057  1.00  0.00    -0.012 C 
HETATM   16  C13 UNL     1      64.932  46.976  29.565  1.00  0.00     0.035 C 
ENDBRANCH   5   7
ENDBRANCH   3   5
BRANCH   3  17
HETATM   17  O1  UNL     1      65.500  47.766  32.610  1.00  0.00    -0.341 OA
BRANCH  17  18
HETATM   18  C15 UNL     1      66.278  46.943  33.208  1.00  0.00     0.057 C 
HETATM   19  C16 UNL     1      66.359  46.879  34.702  1.00  0.00     0.045 C 
HETATM   20  C17 UNL     1      67.728  47.329  32.780  1.00  0.00     0.045 C 
BRANCH  18  21
HETATM   21  C18 UNL     1      66.154  45.520  32.703  1.00  0.00     0.033 C 
HETATM   22  C19 UNL     1      67.043  44.536  33.441  1.00  0.00     0.008 C 
ENDBRANCH  18  21
ENDBRANCH  17  18
ENDBRANCH   3  17
TORSDOF 5
ENDMDL
MODEL 5
REMARK VINA RESULT: -7.663058470      0.293      1.577
REMARK  5 active torsions:
REMARK  status: ('A' for Active; 'I' for Inactive)
REMARK    1  A    between atoms: C3_3  and  N1_5 
REMARK    2  A    between atoms: C3_3  and  O1_17 
REMARK    3  A    between atoms: N1_5  and  C5_7 
REMARK    4  A    between atoms: O1_17  and  C15_18 
REMARK    5  A    between atoms: C15_18  and  C18_21 
ROOT
HETATM    1  C1  UNL     1      68.474  47.593  33.029  1.00  0.00     0.102 C 
HETATM    2  C2  UNL     1      67.403  47.260  32.520  1.00  0.00    -0.129 C 
HETATM    3  C3  UNL     1      66.118  46.851  31.854  1.00  0.00     0.182 C 
HETATM    4  C4  UNL     1      66.176  45.297  31.804  1.00  0.00     0.085 C 
ENDROOT
BRANCH   3   5
HETATM    5  N1  UNL     1      66.329  47.238  30.509  1.00  0.00    -0.374 N 
ATOM      6  H1  UNL     1      67.300  47.267  30.200  1.00  0.00     0.158 HD
BRANCH   5   7
HETATM    7  C5  UNL     1      65.398  47.578  29.577  1.00  0.00     0.030 C 
HETATM    8  C6  UNL     1      64.287  48.406  30.186  1.00  0.00     0.035 C 
HETATM    9  C7  UNL     1      63.086  48.552  29.274  1.00  0.00    -0.012 C 
HETATM   10  C8  UNL     1      62.513  47.180  29.035  1.00  0.00     0.009 C 
HETATM   11  C12 UNL     1      63.521  49.223  28.007  1.00  0.00     0.009 C 
HETATM   12  C9  UNL     1      63.557  46.383  28.317  1.00  0.00    -0.012 C 
HETATM   13  C10 UNL     1      63.983  47.046  27.017  1.00  0.00     0.009 C 
HETATM   14  C14 UNL     1      64.758  46.228  29.166  1.00  0.00     0.035 C 
HETATM   15  C11 UNL     1      64.596  48.352  27.386  1.00  0.00    -0.012 C 
HETATM   16  C13 UNL     1      65.805  48.223  28.295  1.00  0.00     0.035 C 
ENDBRANCH   5   7
ENDBRANCH   3   5
BRANCH   3  17
HETATM   17  O1  UNL     1      65.075  47.224  32.476  1.00  0.00    -0.341 OA
BRANCH  17  18
HETATM   18  C15 UNL     1      64.642  47.609  33.618  1.00  0.00     0.057 C 
HETATM   19  C16 UNL     1      65.082  46.949  34.889  1.00  0.00     0.045 C 
HETATM   20  C17 UNL     1      63.100  47.374  33.599  1.00  0.00     0.045 C 
BRANCH  18  21
HETATM   21  C18 UNL     1      64.745  49.105  33.830  1.00  0.00     0.033 C 
HETATM   22  C19 UNL     1      65.486  49.489  35.097  1.00  0.00     0.008 C 
ENDBRANCH  18  21
ENDBRANCH  17  18
ENDBRANCH   3  17
TORSDOF 5
ENDMDL
