MODEL 1
REMARK VINA RESULT: -7.768721939      0.000      0.000
REMARK  4 active torsions:
REMARK  status: ('A' for Active; 'I' for Inactive)
REMARK       I    between atoms: N2_3  and  C2_5 
REMARK       I    between atoms: C2_5  and  N4_9 
REMARK       I    between atoms: C3_11  and  N5_12 
REMARK       I    between atoms: C3_11  and  N8_19 
REMARK    1  A    between atoms: N6_14  and  N7_16 
REMARK    2  A    between atoms: N8_19  and  C4_21 
REMARK    3  A    between atoms: C4_21  and  C5_22 
REMARK    4  A    between atoms: C5_22  and  C6_23 
ROOT
HETATM    1  N1  UNL     1      18.696   7.582   7.296  1.00  0.00    -0.171 NA
HETATM    2  C1  UNL     1      17.887   8.347   7.643  1.00  0.00     0.196 C 
HETATM    3  N2  UNL     1      16.942   9.278   8.027  1.00  0.00    -0.126 N 
ATOM      4  H2  UNL     1      16.873  10.155   7.512  1.00  0.00     0.197 HD
HETATM    5  C2  UNL     1      16.044   9.042   9.145  1.00  0.00     0.699 C 
HETATM    6  N3  UNL     1      15.813   7.809   9.421  1.00  0.00    -0.233 N 
ATOM      7  H31 UNL     1      15.182   7.643  10.206  1.00  0.00     0.174 HD
ATOM      8  H32 UNL     1      16.206   7.010   8.923  1.00  0.00     0.174 HD
HETATM    9  N4  UNL     1      15.518  10.113   9.813  1.00  0.00    -0.021 N 
ATOM     10  H4  UNL     1      15.674  10.971   9.284  1.00  0.00     0.203 HD
HETATM   11  C3  UNL     1      14.916  10.356  10.854  1.00  0.00     0.708 C 
HETATM   12  N5  UNL     1      14.541  11.721  11.159  1.00  0.00    -0.118 N 
ATOM     13  H5  UNL     1      15.257  12.362  11.503  1.00  0.00     0.207 HD
HETATM   14  N6  UNL     1      13.359  12.150  11.016  1.00  0.00    -0.235 N 
ATOM     15  H6  UNL     1      12.635  11.518  10.674  1.00  0.00     0.208 HD
HETATM   16  N8  UNL     1      14.536   9.424  11.836  1.00  0.00    -0.224 N 
ATOM     17  H8  UNL     1      13.604   9.015  11.777  1.00  0.00     0.177 HD
ENDROOT
BRANCH  16  18
HETATM   18  C4  UNL     1      15.399   9.014  12.929  1.00  0.00     0.148 C 
BRANCH  18  19
HETATM   19  C5  UNL     1      14.469   8.499  14.050  1.00  0.00     0.133 C 
BRANCH  19  20
HETATM   20  C6  UNL     1      13.717   9.597  14.693  1.00  0.00     0.174 C 
HETATM   21  O1  UNL     1      13.410   9.451  15.920  1.00  0.00    -0.648 OA
HETATM   22  O2  UNL     1      13.382  10.713  13.953  1.00  0.00    -0.648 OA
ENDBRANCH  19  20
ENDBRANCH  18  19
ENDBRANCH  16  18
BRANCH  14  23
HETATM   23  N7  UNL     1      13.031  13.457  11.314  1.00  0.00    -0.330 N 
ATOM     24  H72 UNL     1      13.442  13.883  12.144  1.00  0.00     0.178 HD
ATOM     25  H71 UNL     1      12.393  13.990  10.722  1.00  0.00     0.178 HD
ENDBRANCH  14  23
TORSDOF 4
ENDMDL
MODEL 2
REMARK VINA RESULT: -7.768557516      4.369      7.363
REMARK  4 active torsions:
REMARK  status: ('A' for Active; 'I' for Inactive)
REMARK       I    between atoms: N2_3  and  C2_5 
REMARK       I    between atoms: C2_5  and  N4_9 
REMARK       I    between atoms: C3_11  and  N5_12 
REMARK       I    between atoms: C3_11  and  N8_19 
REMARK    1  A    between atoms: N6_14  and  N7_16 
REMARK    2  A    between atoms: N8_19  and  C4_21 
REMARK    3  A    between atoms: C4_21  and  C5_22 
REMARK    4  A    between atoms: C5_22  and  C6_23 
ROOT
HETATM    1  N1  UNL     1      11.313  10.595  20.281  1.00  0.00    -0.171 NA
HETATM    2  C1  UNL     1      11.229  11.037  19.205  1.00  0.00     0.196 C 
HETATM    3  N2  UNL     1      11.094  11.571  17.939  1.00  0.00    -0.126 N 
ATOM      4  H2  UNL     1      10.227  12.049  17.693  1.00  0.00     0.197 HD
HETATM    5  C2  UNL     1      12.151  11.470  16.947  1.00  0.00     0.699 C 
HETATM    6  N3  UNL     1      13.340  11.339  17.414  1.00  0.00    -0.233 N 
ATOM      7  H31 UNL     1      14.082  11.268  16.718  1.00  0.00     0.174 HD
ATOM      8  H32 UNL     1      13.583  11.302  18.405  1.00  0.00     0.174 HD
HETATM    9  N4  UNL     1      11.825  11.519  15.620  1.00  0.00    -0.021 N 
ATOM     10  H4  UNL     1      10.863  11.838  15.503  1.00  0.00     0.203 HD
HETATM   11  C3  UNL     1      12.337  11.296  14.527  1.00  0.00     0.708 C 
HETATM   12  N5  UNL     1      11.561  11.502  13.321  1.00  0.00    -0.118 N 
ATOM     13  H5  UNL     1      10.863  10.804  13.061  1.00  0.00     0.207 HD
HETATM   14  N6  UNL     1      11.717  12.514  12.577  1.00  0.00    -0.235 N 
ATOM     15  H6  UNL     1      12.412  13.216  12.827  1.00  0.00     0.208 HD
HETATM   16  N8  UNL     1      13.644  10.834  14.296  1.00  0.00    -0.224 N 
ATOM     17  H8  UNL     1      14.376  11.524  14.132  1.00  0.00     0.177 HD
ENDROOT
BRANCH  16  18
HETATM   18  C4  UNL     1      14.008   9.429  14.278  1.00  0.00     0.148 C 
BRANCH  18  19
HETATM   19  C5  UNL     1      14.878   9.218  13.019  1.00  0.00     0.133 C 
BRANCH  19  20
HETATM   20  C6  UNL     1      14.799  10.368  12.094  1.00  0.00     0.174 C 
HETATM   21  O1  UNL     1      15.837  11.098  11.984  1.00  0.00    -0.648 OA
HETATM   22  O2  UNL     1      13.627  10.603  11.402  1.00  0.00    -0.648 OA
ENDBRANCH  19  20
ENDBRANCH  18  19
ENDBRANCH  16  18
BRANCH  14  23
HETATM   23  N7  UNL     1      10.963  12.685  11.434  1.00  0.00    -0.330 N 
ATOM     24  H72 UNL     1      10.010  12.320  11.423  1.00  0.00     0.178 HD
ATOM     25  H71 UNL     1      11.342  13.162  10.617  1.00  0.00     0.178 HD
ENDBRANCH  14  23
TORSDOF 4
ENDMDL
MODEL 3
REMARK VINA RESULT: -7.412341980      1.758      2.014
REMARK  4 active torsions:
REMARK  status: ('A' for Active; 'I' for Inactive)
REMARK       I    between atoms: N2_3  and  C2_5 
REMARK       I    between atoms: C2_5  and  N4_9 
REMARK       I    between atoms: C3_11  and  N5_12 
REMARK       I    between atoms: C3_11  and  N8_19 
REMARK    1  A    between atoms: N6_14  and  N7_16 
REMARK    2  A    between atoms: N8_19  and  C4_21 
REMARK    3  A    between atoms: C4_21  and  C5_22 
REMARK    4  A    between atoms: C5_22  and  C6_23 
ROOT
HETATM    1  N1  UNL     1      18.609   7.398   7.422  1.00  0.00    -0.171 NA
HETATM    2  C1  UNL     1      17.807   8.178   7.752  1.00  0.00     0.196 C 
HETATM    3  N2  UNL     1      16.870   9.125   8.116  1.00  0.00    -0.126 N 
ATOM      4  H2  UNL     1      16.789   9.980   7.564  1.00  0.00     0.197 HD
HETATM    5  C2  UNL     1      15.995   8.939   9.261  1.00  0.00     0.699 C 
HETATM    6  N3  UNL     1      15.770   7.719   9.595  1.00  0.00    -0.233 N 
ATOM      7  H31 UNL     1      15.157   7.588  10.400  1.00  0.00     0.174 HD
ATOM      8  H32 UNL     1      16.153   6.899   9.124  1.00  0.00     0.174 HD
HETATM    9  N4  UNL     1      15.483  10.038   9.892  1.00  0.00    -0.021 N 
ATOM     10  H4  UNL     1      15.627  10.873   9.324  1.00  0.00     0.203 HD
HETATM   11  C3  UNL     1      14.902  10.327  10.935  1.00  0.00     0.708 C 
HETATM   12  N5  UNL     1      14.534  11.704  11.188  1.00  0.00    -0.118 N 
ATOM     13  H5  UNL     1      15.257  12.359  11.488  1.00  0.00     0.207 HD
HETATM   14  N6  UNL     1      13.349  12.127  11.050  1.00  0.00    -0.235 N 
ATOM     15  H6  UNL     1      12.618  11.481  10.752  1.00  0.00     0.208 HD
HETATM   16  N8  UNL     1      14.544   9.439  11.964  1.00  0.00    -0.224 N 
ATOM     17  H8  UNL     1      13.611   9.028  11.942  1.00  0.00     0.177 HD
ENDROOT
BRANCH  16  18
HETATM   18  C4  UNL     1      15.429   9.077  13.056  1.00  0.00     0.148 C 
BRANCH  18  19
HETATM   19  C5  UNL     1      14.685   8.008  13.887  1.00  0.00     0.133 C 
BRANCH  19  20
HETATM   20  C6  UNL     1      14.790   6.664  13.281  1.00  0.00     0.174 C 
HETATM   21  O1  UNL     1      15.614   6.523  12.320  1.00  0.00    -0.648 OA
HETATM   22  O2  UNL     1      14.006   5.637  13.768  1.00  0.00    -0.648 OA
ENDBRANCH  19  20
ENDBRANCH  18  19
ENDBRANCH  16  18
BRANCH  14  23
HETATM   23  N7  UNL     1      13.027  13.446  11.298  1.00  0.00    -0.330 N 
ATOM     24  H72 UNL     1      12.730  13.705  12.239  1.00  0.00     0.178 HD
ATOM     25  H71 UNL     1      13.081  14.150  10.562  1.00  0.00     0.178 HD
ENDBRANCH  14  23
TORSDOF 4
ENDMDL
MODEL 4
REMARK VINA RESULT: -7.167361540      3.550      6.834
REMARK  4 active torsions:
REMARK  status: ('A' for Active; 'I' for Inactive)
REMARK       I    between atoms: N2_3  and  C2_5 
REMARK       I    between atoms: C2_5  and  N4_9 
REMARK       I    between atoms: C3_11  and  N5_12 
REMARK       I    between atoms: C3_11  and  N8_19 
REMARK    1  A    between atoms: N6_14  and  N7_16 
REMARK    2  A    between atoms: N8_19  and  C4_21 
REMARK    3  A    between atoms: C4_21  and  C5_22 
REMARK    4  A    between atoms: C5_22  and  C6_23 
ROOT
HETATM    1  N1  UNL     1      12.910  13.077  16.903  1.00  0.00    -0.171 NA
HETATM    2  C1  UNL     1      12.919  11.946  16.619  1.00  0.00     0.196 C 
HETATM    3  N2  UNL     1      12.921  10.598  16.319  1.00  0.00    -0.126 N 
ATOM      4  H2  UNL     1      12.644   9.930  17.038  1.00  0.00     0.197 HD
HETATM    5  C2  UNL     1      13.305  10.105  15.007  1.00  0.00     0.699 C 
HETATM    6  N3  UNL     1      13.151  10.932  14.036  1.00  0.00    -0.233 N 
ATOM      7  H31 UNL     1      13.421  10.585  13.115  1.00  0.00     0.174 HD
ATOM      8  H32 UNL     1      12.788  11.881  14.122  1.00  0.00     0.174 HD
HETATM    9  N4  UNL     1      13.792   8.833  14.891  1.00  0.00    -0.021 N 
ATOM     10  H4  UNL     1      13.621   8.308  15.750  1.00  0.00     0.203 HD
HETATM   11  C3  UNL     1      14.372   8.129  14.069  1.00  0.00     0.708 C 
HETATM   12  N5  UNL     1      14.705   6.761  14.410  1.00  0.00    -0.118 N 
ATOM     13  H5  UNL     1      15.503   6.587  15.022  1.00  0.00     0.207 HD
HETATM   14  N6  UNL     1      14.043   5.773  13.978  1.00  0.00    -0.235 N 
ATOM     15  H6  UNL     1      13.244   5.935  13.365  1.00  0.00     0.208 HD
HETATM   16  N8  UNL     1      14.779   8.514  12.780  1.00  0.00    -0.224 N 
ATOM     17  H8  UNL     1      14.146   8.333  12.001  1.00  0.00     0.177 HD
ENDROOT
BRANCH  16  18
HETATM   18  C4  UNL     1      16.050   9.154  12.497  1.00  0.00     0.148 C 
BRANCH  18  19
HETATM   19  C5  UNL     1      15.736  10.380  11.612  1.00  0.00     0.133 C 
BRANCH  19  20
HETATM   20  C6  UNL     1      14.663  10.096  10.636  1.00  0.00     0.174 C 
HETATM   21  O1  UNL     1      14.972   9.390   9.622  1.00  0.00    -0.648 OA
HETATM   22  O2  UNL     1      13.396  10.599  10.855  1.00  0.00    -0.648 OA
ENDBRANCH  19  20
ENDBRANCH  18  19
ENDBRANCH  16  18
BRANCH  14  23
HETATM   23  N7  UNL     1      14.382   4.480  14.320  1.00  0.00    -0.330 N 
ATOM     24  H72 UNL     1      15.330   4.158  14.122  1.00  0.00     0.178 HD
ATOM     25  H71 UNL     1      13.707   3.855  14.760  1.00  0.00     0.178 HD
ENDBRANCH  14  23
TORSDOF 4
ENDMDL
MODEL 5
REMARK VINA RESULT: -7.077197593      3.260      5.780
REMARK  4 active torsions:
REMARK  status: ('A' for Active; 'I' for Inactive)
REMARK       I    between atoms: N2_3  and  C2_5 
REMARK       I    between atoms: C2_5  and  N4_9 
REMARK       I    between atoms: C3_11  and  N5_12 
REMARK       I    between atoms: C3_11  and  N8_19 
REMARK    1  A    between atoms: N6_14  and  N7_16 
REMARK    2  A    between atoms: N8_19  and  C4_21 
REMARK    3  A    between atoms: C4_21  and  C5_22 
REMARK    4  A    between atoms: C5_22  and  C6_23 
ROOT
HETATM    1  N1  UNL     1      11.858  12.661  12.640  1.00  0.00    -0.171 NA
HETATM    2  C1  UNL     1      12.650  12.372  11.834  1.00  0.00     0.196 C 
HETATM    3  N2  UNL     1      13.568  12.051  10.854  1.00  0.00    -0.126 N 
ATOM      4  H2  UNL     1      13.468  12.463   9.927  1.00  0.00     0.197 HD
HETATM    5  C2  UNL     1      14.673  11.141  11.107  1.00  0.00     0.699 C 
HETATM    6  N3  UNL     1      15.054  11.056  12.331  1.00  0.00    -0.233 N 
ATOM      7  H31 UNL     1      15.829  10.417  12.508  1.00  0.00     0.174 HD
ATOM      8  H32 UNL     1      14.644  11.569  13.112  1.00  0.00     0.174 HD
HETATM    9  N4  UNL     1      15.221  10.453  10.060  1.00  0.00    -0.021 N 
ATOM     10  H4  UNL     1      14.900  10.842   9.173  1.00  0.00     0.203 HD
HETATM   11  C3  UNL     1      15.982   9.511   9.861  1.00  0.00     0.708 C 
HETATM   12  N5  UNL     1      16.290   9.117   8.502  1.00  0.00    -0.118 N 
ATOM     13  H5  UNL     1      15.598   8.581   7.977  1.00  0.00     0.207 HD
HETATM   14  N6  UNL     1      17.386   9.412   7.941  1.00  0.00    -0.235 N 
ATOM     15  H6  UNL     1      18.085   9.945   8.457  1.00  0.00     0.208 HD
HETATM   16  N8  UNL     1      16.612   8.726  10.842  1.00  0.00    -0.224 N 
ATOM     17  H8  UNL     1      17.548   8.993  11.145  1.00  0.00     0.177 HD
ENDROOT
BRANCH  16  18
HETATM   18  C4  UNL     1      16.003   7.556  11.447  1.00  0.00     0.148 C 
BRANCH  18  19
HETATM   19  C5  UNL     1      16.826   6.338  10.972  1.00  0.00     0.133 C 
BRANCH  19  20
HETATM   20  C6  UNL     1      18.131   6.740  10.406  1.00  0.00     0.174 C 
HETATM   21  O1  UNL     1      19.075   6.970  11.230  1.00  0.00    -0.648 OA
HETATM   22  O2  UNL     1      18.271   6.852   9.038  1.00  0.00    -0.648 OA
ENDBRANCH  19  20
ENDBRANCH  18  19
ENDBRANCH  16  18
BRANCH  14  23
HETATM   23  N7  UNL     1      17.652   9.024   6.644  1.00  0.00    -0.330 N 
ATOM     24  H72 UNL     1      16.869   8.759   6.046  1.00  0.00     0.178 HD
ATOM     25  H71 UNL     1      18.606   9.000   6.284  1.00  0.00     0.178 HD
ENDBRANCH  14  23
TORSDOF 4
ENDMDL
