MODEL 1
REMARK VINA RESULT: -6.105193359      0.000      0.000
REMARK  6 active torsions:
REMARK  status: ('A' for Active; 'I' for Inactive)
REMARK    1  A    between atoms: N1_2  and  C3_4 
REMARK    2  A    between atoms: N1_2  and  C6_11 
REMARK    3  A    between atoms: C3_4  and  C4_5 
REMARK    4  A    between atoms: C4_5  and  C5_6 
REMARK    5  A    between atoms: C5_6  and  N2_7 
REMARK    6  A    between atoms: C9_17  and  N4_18 
ROOT
HETATM    1  C6  UNL     1      12.569  10.845  14.788  1.00  0.00     0.281 C 
HETATM    2  C7  UNL     1      13.564   9.731  14.957  1.00  0.00     0.273 C 
HETATM    3  N3  UNL     1      13.970   9.121  13.726  1.00  0.00    -0.069 N 
ATOM      4  H31 UNL     1      13.192   8.928  13.094  1.00  0.00     0.277 HD
ATOM      5  H32 UNL     1      14.285   8.156  13.836  1.00  0.00     0.277 HD
HETATM    6  C8  UNL     1      14.984   9.998  13.144  1.00  0.00     0.286 C 
HETATM    7  C9  UNL     1      14.359  10.652  11.966  1.00  0.00     0.308 C 
HETATM    8  N5  UNL     1      13.222  11.442  12.288  1.00  0.00    -0.350 N 
ATOM      9  H5  UNL     1      12.993  12.193  11.637  1.00  0.00     0.163 HD
HETATM   10  C10 UNL     1      12.355  11.298  13.430  1.00  0.00     0.105 C 
HETATM   11  N6  UNL     1      11.132  11.658  13.113  1.00  0.00    -0.387 N 
ATOM     12  H61 UNL     1      10.981  11.978  12.156  1.00  0.00     0.157 HD
ATOM     13  H62 UNL     1      10.519  11.557  13.921  1.00  0.00     0.157 HD
ENDROOT
BRANCH   1  14
HETATM   14  N1  UNL     1      12.790  11.897  15.778  1.00  0.00    -0.062 N 
HETATM   15  C1  UNL     1      13.290  13.053  15.040  1.00  0.00     0.273 C 
HETATM   16  C2  UNL     1      11.498  12.349  16.267  1.00  0.00     0.273 C 
BRANCH  14  17
HETATM   17  C3  UNL     1      13.730  11.620  16.783  1.00  0.00     0.239 C 
BRANCH  17  18
HETATM   18  C4  UNL     1      13.298  11.722  18.200  1.00  0.00     0.055 C 
BRANCH  18  19
HETATM   19  C5  UNL     1      14.109  12.853  18.845  1.00  0.00     0.231 C 
BRANCH  19  20
HETATM   20  N2  UNL     1      13.354  13.466  19.930  1.00  0.00    -0.079 N 
ATOM     21  H23 UNL     1      12.372  13.593  19.685  1.00  0.00     0.274 HD
ATOM     22  H22 UNL     1      13.232  12.828  20.716  1.00  0.00     0.274 HD
ATOM     23  H21 UNL     1      13.789  14.343  20.216  1.00  0.00     0.274 HD
ENDBRANCH  19  20
ENDBRANCH  18  19
ENDBRANCH  17  18
ENDBRANCH  14  17
ENDBRANCH   1  14
BRANCH   7  24
HETATM   24  N4  UNL     1      15.311  11.524  11.259  1.00  0.00    -0.057 N 
ATOM     25  H43 UNL     1      14.842  12.329  10.844  1.00  0.00     0.276 HD
ATOM     26  H42 UNL     1      15.921  12.015  11.912  1.00  0.00     0.276 HD
ATOM     27  H41 UNL     1      15.849  11.009  10.562  1.00  0.00     0.276 HD
ENDBRANCH   7  24
TORSDOF 6
ENDMDL
MODEL 2
REMARK VINA RESULT: -5.926151168      5.218      8.025
REMARK  6 active torsions:
REMARK  status: ('A' for Active; 'I' for Inactive)
REMARK    1  A    between atoms: N1_2  and  C3_4 
REMARK    2  A    between atoms: N1_2  and  C6_11 
REMARK    3  A    between atoms: C3_4  and  C4_5 
REMARK    4  A    between atoms: C4_5  and  C5_6 
REMARK    5  A    between atoms: C5_6  and  N2_7 
REMARK    6  A    between atoms: C9_17  and  N4_18 
ROOT
HETATM    1  C6  UNL     1      16.205   8.271   8.384  1.00  0.00     0.281 C 
HETATM    2  C7  UNL     1      15.401   7.012   8.557  1.00  0.00     0.273 C 
HETATM    3  N3  UNL     1      15.747   5.970   7.635  1.00  0.00    -0.069 N 
ATOM      4  H31 UNL     1      15.856   6.299   6.676  1.00  0.00     0.277 HD
ATOM      5  H32 UNL     1      14.984   5.316   7.459  1.00  0.00     0.277 HD
HETATM    6  C8  UNL     1      16.947   5.329   8.168  1.00  0.00     0.286 C 
HETATM    7  C9  UNL     1      18.072   5.721   7.280  1.00  0.00     0.308 C 
HETATM    8  N5  UNL     1      18.301   7.123   7.234  1.00  0.00    -0.350 N 
ATOM      9  H5  UNL     1      19.243   7.420   6.981  1.00  0.00     0.163 HD
HETATM   10  C10 UNL     1      17.350   8.172   7.505  1.00  0.00     0.105 C 
HETATM   11  N6  UNL     1      17.623   9.225   6.769  1.00  0.00    -0.387 N 
ATOM     12  H61 UNL     1      18.430   9.156   6.150  1.00  0.00     0.157 HD
ATOM     13  H62 UNL     1      16.951   9.968   6.961  1.00  0.00     0.157 HD
ENDROOT
BRANCH   1  14
HETATM   14  N1  UNL     1      16.452   8.912   9.674  1.00  0.00    -0.062 N 
HETATM   15  C1  UNL     1      15.909   8.014  10.688  1.00  0.00     0.273 C 
HETATM   16  C2  UNL     1      17.882   8.884   9.936  1.00  0.00     0.273 C 
BRANCH  14  17
HETATM   17  C3  UNL     1      15.846  10.163   9.875  1.00  0.00     0.239 C 
BRANCH  17  18
HETATM   18  C4  UNL     1      15.265  10.459  11.208  1.00  0.00     0.055 C 
BRANCH  18  19
HETATM   19  C5  UNL     1      13.814  10.903  10.985  1.00  0.00     0.231 C 
BRANCH  19  20
HETATM   20  N2  UNL     1      13.714  12.357  11.027  1.00  0.00    -0.079 N 
ATOM     21  H23 UNL     1      13.522  12.697  11.970  1.00  0.00     0.274 HD
ATOM     22  H22 UNL     1      14.620  12.804  10.886  1.00  0.00     0.274 HD
ATOM     23  H21 UNL     1      13.019  12.686  10.357  1.00  0.00     0.274 HD
ENDBRANCH  19  20
ENDBRANCH  18  19
ENDBRANCH  17  18
ENDBRANCH  14  17
ENDBRANCH   1  14
BRANCH   7  24
HETATM   24  N4  UNL     1      19.335   5.085   7.687  1.00  0.00    -0.057 N 
ATOM     25  H43 UNL     1      19.174   4.163   8.093  1.00  0.00     0.276 HD
ATOM     26  H42 UNL     1      19.889   4.807   6.877  1.00  0.00     0.276 HD
ATOM     27  H41 UNL     1      19.871   5.680   8.319  1.00  0.00     0.276 HD
ENDBRANCH   7  24
TORSDOF 6
ENDMDL
MODEL 3
REMARK VINA RESULT: -5.922937055      1.867      5.661
REMARK  6 active torsions:
REMARK  status: ('A' for Active; 'I' for Inactive)
REMARK    1  A    between atoms: N1_2  and  C3_4 
REMARK    2  A    between atoms: N1_2  and  C6_11 
REMARK    3  A    between atoms: C3_4  and  C4_5 
REMARK    4  A    between atoms: C4_5  and  C5_6 
REMARK    5  A    between atoms: C5_6  and  N2_7 
REMARK    6  A    between atoms: C9_17  and  N4_18 
ROOT
HETATM    1  C6  UNL     1      13.598  11.511  16.717  1.00  0.00     0.281 C 
HETATM    2  C7  UNL     1      13.199  10.065  16.816  1.00  0.00     0.273 C 
HETATM    3  N3  UNL     1      13.112   9.578  18.161  1.00  0.00    -0.069 N 
ATOM      4  H31 UNL     1      13.898   9.863  18.746  1.00  0.00     0.277 HD
ATOM      5  H32 UNL     1      13.257   8.570  18.237  1.00  0.00     0.277 HD
HETATM    6  C8  UNL     1      11.817  10.016  18.677  1.00  0.00     0.286 C 
HETATM    7  C9  UNL     1      12.093  11.081  19.676  1.00  0.00     0.308 C 
HETATM    8  N5  UNL     1      12.760  12.213  19.133  1.00  0.00    -0.350 N 
ATOM      9  H5  UNL     1      12.634  13.094  19.630  1.00  0.00     0.163 HD
HETATM   10  C10 UNL     1      13.595  12.254  17.958  1.00  0.00     0.105 C 
HETATM   11  N6  UNL     1      14.533  13.162  18.107  1.00  0.00    -0.387 N 
ATOM     12  H61 UNL     1      14.531  13.685  18.982  1.00  0.00     0.157 HD
ATOM     13  H62 UNL     1      15.123  13.191  17.276  1.00  0.00     0.157 HD
ENDROOT
BRANCH   1  14
HETATM   14  N1  UNL     1      12.927  12.160  15.591  1.00  0.00    -0.062 N 
HETATM   15  C1  UNL     1      11.567  12.448  16.036  1.00  0.00     0.273 C 
HETATM   16  C2  UNL     1      13.504  13.483  15.412  1.00  0.00     0.273 C 
BRANCH  14  17
HETATM   17  C3  UNL     1      12.817  11.407  14.412  1.00  0.00     0.239 C 
BRANCH  17  18
HETATM   18  C4  UNL     1      12.095  12.002  13.260  1.00  0.00     0.055 C 
BRANCH  18  19
HETATM   19  C5  UNL     1      12.999  11.860  12.030  1.00  0.00     0.231 C 
BRANCH  19  20
HETATM   20  N2  UNL     1      13.044  13.111  11.283  1.00  0.00    -0.079 N 
ATOM     21  H23 UNL     1      12.446  13.081  10.457  1.00  0.00     0.274 HD
ATOM     22  H22 UNL     1      12.577  13.868  11.781  1.00  0.00     0.274 HD
ATOM     23  H21 UNL     1      14.007  13.350  11.045  1.00  0.00     0.274 HD
ENDBRANCH  19  20
ENDBRANCH  18  19
ENDBRANCH  17  18
ENDBRANCH  14  17
ENDBRANCH   1  14
BRANCH   7  24
HETATM   24  N4  UNL     1      10.856  11.565  20.311  1.00  0.00    -0.057 N 
ATOM     25  H43 UNL     1      10.056  11.478  19.684  1.00  0.00     0.276 HD
ATOM     26  H42 UNL     1      10.547  10.936  21.051  1.00  0.00     0.276 HD
ATOM     27  H41 UNL     1      10.956  12.521  20.652  1.00  0.00     0.276 HD
ENDBRANCH   7  24
TORSDOF 6
ENDMDL
MODEL 4
REMARK VINA RESULT: -5.712788158      4.571      8.556
REMARK  6 active torsions:
REMARK  status: ('A' for Active; 'I' for Inactive)
REMARK    1  A    between atoms: N1_2  and  C3_4 
REMARK    2  A    between atoms: N1_2  and  C6_11 
REMARK    3  A    between atoms: C3_4  and  C4_5 
REMARK    4  A    between atoms: C4_5  and  C5_6 
REMARK    5  A    between atoms: C5_6  and  N2_7 
REMARK    6  A    between atoms: C9_17  and  N4_18 
ROOT
HETATM    1  C6  UNL     1      17.057   8.898  10.114  1.00  0.00     0.281 C 
HETATM    2  C7  UNL     1      17.034   8.601  11.588  1.00  0.00     0.273 C 
HETATM    3  N3  UNL     1      16.529   9.676  12.390  1.00  0.00    -0.069 N 
ATOM      4  H31 UNL     1      16.904  10.588  12.126  1.00  0.00     0.277 HD
ATOM      5  H32 UNL     1      16.881   9.667  13.347  1.00  0.00     0.277 HD
HETATM    6  C8  UNL     1      15.072   9.604  12.308  1.00  0.00     0.286 C 
HETATM    7  C9  UNL     1      14.632  10.757  11.481  1.00  0.00     0.308 C 
HETATM    8  N5  UNL     1      15.152  10.742  10.158  1.00  0.00    -0.350 N 
ATOM      9  H5  UNL     1      14.613  11.247   9.455  1.00  0.00     0.163 HD
HETATM   10  C10 UNL     1      16.355  10.094   9.700  1.00  0.00     0.105 C 
HETATM   11  N6  UNL     1      16.884  10.779   8.712  1.00  0.00    -0.387 N 
ATOM     12  H61 UNL     1      16.390  11.621   8.420  1.00  0.00     0.157 HD
ATOM     13  H62 UNL     1      17.735  10.320   8.387  1.00  0.00     0.157 HD
ENDROOT
BRANCH   1  14
HETATM   14  N1  UNL     1      16.767   7.695   9.336  1.00  0.00    -0.062 N 
HETATM   15  C1  UNL     1      16.730   6.590  10.289  1.00  0.00     0.273 C 
HETATM   16  C2  UNL     1      15.394   7.772   8.862  1.00  0.00     0.273 C 
BRANCH  14  17
HETATM   17  C3  UNL     1      17.706   7.349   8.350  1.00  0.00     0.239 C 
BRANCH  17  18
HETATM   18  C4  UNL     1      17.514   6.076   7.611  1.00  0.00     0.055 C 
BRANCH  18  19
HETATM   19  C5  UNL     1      18.887   5.643   7.083  1.00  0.00     0.231 C 
BRANCH  19  20
HETATM   20  N2  UNL     1      19.465   6.689   6.248  1.00  0.00    -0.079 N 
ATOM     21  H23 UNL     1      20.376   6.991   6.594  1.00  0.00     0.274 HD
ATOM     22  H22 UNL     1      19.760   6.330   5.339  1.00  0.00     0.274 HD
ATOM     23  H21 UNL     1      18.816   7.471   6.155  1.00  0.00     0.274 HD
ENDBRANCH  19  20
ENDBRANCH  18  19
ENDBRANCH  17  18
ENDBRANCH  14  17
ENDBRANCH   1  14
BRANCH   7  24
HETATM   24  N4  UNL     1      13.165  10.823  11.374  1.00  0.00    -0.057 N 
ATOM     25  H43 UNL     1      12.737   9.918  11.569  1.00  0.00     0.276 HD
ATOM     26  H42 UNL     1      12.760  11.358  12.142  1.00  0.00     0.276 HD
ATOM     27  H41 UNL     1      12.869  11.187  10.469  1.00  0.00     0.276 HD
ENDBRANCH   7  24
TORSDOF 6
ENDMDL
MODEL 5
REMARK VINA RESULT: -5.679533926      6.051      9.655
REMARK  6 active torsions:
REMARK  status: ('A' for Active; 'I' for Inactive)
REMARK    1  A    between atoms: N1_2  and  C3_4 
REMARK    2  A    between atoms: N1_2  and  C6_11 
REMARK    3  A    between atoms: C3_4  and  C4_5 
REMARK    4  A    between atoms: C4_5  and  C5_6 
REMARK    5  A    between atoms: C5_6  and  N2_7 
REMARK    6  A    between atoms: C9_17  and  N4_18 
ROOT
HETATM    1  C6  UNL     1      17.603   7.544   8.746  1.00  0.00     0.281 C 
HETATM    2  C7  UNL     1      17.981   7.556  10.201  1.00  0.00     0.273 C 
HETATM    3  N3  UNL     1      18.072   8.870  10.767  1.00  0.00    -0.069 N 
ATOM      4  H31 UNL     1      18.571   9.533  10.173  1.00  0.00     0.277 HD
ATOM      5  H32 UNL     1      18.700   8.922  11.570  1.00  0.00     0.277 HD
HETATM    6  C8  UNL     1      16.705   9.283  11.074  1.00  0.00     0.286 C 
HETATM    7  C9  UNL     1      16.346  10.339  10.093  1.00  0.00     0.308 C 
HETATM    8  N5  UNL     1      16.383   9.899   8.742  1.00  0.00    -0.350 N 
ATOM      9  H5  UNL     1      15.802  10.414   8.082  1.00  0.00     0.163 HD
HETATM   10  C10 UNL     1      17.152   8.806   8.201  1.00  0.00     0.105 C 
HETATM   11  N6  UNL     1      17.494   9.071   6.960  1.00  0.00    -0.387 N 
ATOM     12  H61 UNL     1      17.177   9.960   6.576  1.00  0.00     0.157 HD
ATOM     13  H62 UNL     1      18.038   8.298   6.577  1.00  0.00     0.157 HD
ENDROOT
BRANCH   1  14
HETATM   14  N1  UNL     1      16.765   6.387   8.436  1.00  0.00    -0.062 N 
HETATM   15  C1  UNL     1      16.727   5.573   9.647  1.00  0.00     0.273 C 
HETATM   16  C2  UNL     1      15.389   6.838   8.297  1.00  0.00     0.273 C 
BRANCH  14  17
HETATM   17  C3  UNL     1      17.212   5.553   7.399  1.00  0.00     0.239 C 
BRANCH  17  18
HETATM   18  C4  UNL     1      18.510   4.852   7.569  1.00  0.00     0.055 C 
BRANCH  18  19
HETATM   19  C5  UNL     1      19.265   4.960   6.238  1.00  0.00     0.231 C 
BRANCH  19  20
HETATM   20  N2  UNL     1      19.699   6.333   6.010  1.00  0.00    -0.079 N 
ATOM     21  H23 UNL     1      20.236   6.423   5.147  1.00  0.00     0.274 HD
ATOM     22  H22 UNL     1      18.918   6.943   5.766  1.00  0.00     0.274 HD
ATOM     23  H21 UNL     1      20.217   6.683   6.816  1.00  0.00     0.274 HD
ENDBRANCH  19  20
ENDBRANCH  18  19
ENDBRANCH  17  18
ENDBRANCH  14  17
ENDBRANCH   1  14
BRANCH   7  24
HETATM   24  N4  UNL     1      14.998  10.878  10.341  1.00  0.00    -0.057 N 
ATOM     25  H43 UNL     1      14.601  10.505  11.203  1.00  0.00     0.276 HD
ATOM     26  H42 UNL     1      15.034  11.865  10.596  1.00  0.00     0.276 HD
ATOM     27  H41 UNL     1      14.377  10.719   9.547  1.00  0.00     0.276 HD
ENDBRANCH   7  24
TORSDOF 6
ENDMDL
