MODEL 1
REMARK VINA RESULT: -6.347713139      0.000      0.000
REMARK  7 active torsions:
REMARK  status: ('A' for Active; 'I' for Inactive)
REMARK    1  A    between atoms: N1_1  and  N2_4 
REMARK    2  A    between atoms: N2_4  and  N3_6 
REMARK       I    between atoms: C1_8  and  N4_9 
REMARK       I    between atoms: C1_8  and  N8_22 
REMARK    3  A    between atoms: N4_9  and  C2_11 
REMARK    4  A    between atoms: C2_11  and  C3_12 
REMARK    5  A    between atoms: C3_12  and  N5_13 
REMARK    6  A    between atoms: N6_17  and  N7_19 
REMARK    7  A    between atoms: N8_22  and  C4_24 
ROOT
HETATM    1  N3  UNL     1      14.311  11.206  11.649  1.00  0.00    -0.118 N 
ATOM      2  H3  UNL     1      13.774  10.856  12.442  1.00  0.00     0.207 HD
HETATM    3  C1  UNL     1      15.502  10.763  11.478  1.00  0.00     0.695 C 
HETATM    4  N4  UNL     1      16.026   9.818  12.382  1.00  0.00    -0.176 N 
ATOM      5  H4  UNL     1      17.031   9.795  12.552  1.00  0.00     0.185 HD
HETATM    6  N8  UNL     1      16.278  11.219  10.394  1.00  0.00    -0.219 N 
ATOM      7  H8  UNL     1      16.539  12.204  10.377  1.00  0.00     0.178 HD
ENDROOT
BRANCH   1   8
HETATM    8  N2  UNL     1      13.713  12.144  10.803  1.00  0.00    -0.235 N 
ATOM      9  H2  UNL     1      13.794  12.022   9.793  1.00  0.00     0.208 HD
BRANCH   8  10
HETATM   10  N1  UNL     1      13.063  13.156  11.257  1.00  0.00    -0.330 N 
ATOM     11  H12 UNL     1      13.558  13.810  11.863  1.00  0.00     0.178 HD
ATOM     12  H11 UNL     1      12.081  13.316  11.028  1.00  0.00     0.178 HD
ENDBRANCH   8  10
ENDBRANCH   1   8
BRANCH   4  13
HETATM   13  C2  UNL     1      15.186   8.900  13.062  1.00  0.00     0.137 C 
HETATM   14  N6  UNL     1      14.379   9.359  13.936  1.00  0.00    -0.294 N 
ATOM     15  H6  UNL     1      14.392  10.367  14.090  1.00  0.00     0.187 HD
BRANCH  13  16
HETATM   16  C3  UNL     1      15.264   7.439  12.742  1.00  0.00     0.307 C 
BRANCH  16  17
HETATM   17  N5  UNL     1      16.558   7.132  12.138  1.00  0.00    -0.073 N 
ATOM     18  H53 UNL     1      16.459   6.644  11.248  1.00  0.00     0.274 HD
ATOM     19  H52 UNL     1      17.029   7.970  11.797  1.00  0.00     0.274 HD
ATOM     20  H51 UNL     1      17.134   6.611  12.799  1.00  0.00     0.274 HD
ENDBRANCH  16  17
ENDBRANCH  13  16
BRANCH  14  21
HETATM   21  N7  UNL     1      13.491   8.626  14.693  1.00  0.00    -0.344 N 
ATOM     22  H72 UNL     1      13.877   8.196  15.534  1.00  0.00     0.176 HD
ATOM     23  H71 UNL     1      12.503   8.478  14.491  1.00  0.00     0.176 HD
ENDBRANCH  14  21
ENDBRANCH   4  13
BRANCH   6  24
HETATM   24  C4  UNL     1      16.726  10.388   9.309  1.00  0.00     0.118 C 
HETATM   25  C5  UNL     1      15.945   9.098   9.122  1.00  0.00     0.100 C 
HETATM   26  S1  UNL     1      17.438   8.367   8.394  1.00  0.00    -0.165 SA
HETATM   27  C6  UNL     1      17.918   9.533   9.715  1.00  0.00     0.100 C 
ENDBRANCH   6  24
TORSDOF 7
ENDMDL
MODEL 2
REMARK VINA RESULT: -6.325410345      3.049      3.922
REMARK  7 active torsions:
REMARK  status: ('A' for Active; 'I' for Inactive)
REMARK    1  A    between atoms: N1_1  and  N2_4 
REMARK    2  A    between atoms: N2_4  and  N3_6 
REMARK       I    between atoms: C1_8  and  N4_9 
REMARK       I    between atoms: C1_8  and  N8_22 
REMARK    3  A    between atoms: N4_9  and  C2_11 
REMARK    4  A    between atoms: C2_11  and  C3_12 
REMARK    5  A    between atoms: C3_12  and  N5_13 
REMARK    6  A    between atoms: N6_17  and  N7_19 
REMARK    7  A    between atoms: N8_22  and  C4_24 
ROOT
HETATM    1  N3  UNL     1      11.665  11.702  13.690  1.00  0.00    -0.118 N 
ATOM      2  H3  UNL     1      11.112  11.780  14.543  1.00  0.00     0.207 HD
HETATM    3  C1  UNL     1      12.940  11.621  13.796  1.00  0.00     0.695 C 
HETATM    4  N4  UNL     1      13.532  11.644  15.074  1.00  0.00    -0.176 N 
ATOM      5  H4  UNL     1      14.471  12.026  15.183  1.00  0.00     0.185 HD
HETATM    6  N8  UNL     1      13.741  11.510  12.642  1.00  0.00    -0.219 N 
ATOM      7  H8  UNL     1      13.748  12.295  11.991  1.00  0.00     0.178 HD
ENDROOT
BRANCH   1   8
HETATM    8  N2  UNL     1      10.995  11.688  12.463  1.00  0.00    -0.235 N 
ATOM      9  H2  UNL     1      10.589  10.813  12.131  1.00  0.00     0.208 HD
BRANCH   8  10
HETATM   10  N1  UNL     1      10.874  12.744  11.740  1.00  0.00    -0.330 N 
ATOM     11  H12 UNL     1      10.914  13.650  12.206  1.00  0.00     0.178 HD
ATOM     12  H11 UNL     1      10.741  12.696  10.729  1.00  0.00     0.178 HD
ENDBRANCH   8  10
ENDBRANCH   1   8
BRANCH   4  13
HETATM   13  C2  UNL     1      12.848  11.149  16.214  1.00  0.00     0.137 C 
HETATM   14  N6  UNL     1      11.972  11.897  16.761  1.00  0.00    -0.294 N 
ATOM     15  H6  UNL     1      11.820  12.812  16.337  1.00  0.00     0.187 HD
BRANCH  13  16
HETATM   16  C3  UNL     1      13.166   9.782  16.739  1.00  0.00     0.307 C 
BRANCH  16  17
HETATM   17  N5  UNL     1      13.627   8.927  15.649  1.00  0.00    -0.073 N 
ATOM     18  H53 UNL     1      13.356   9.291  14.736  1.00  0.00     0.274 HD
ATOM     19  H52 UNL     1      14.640   8.970  15.531  1.00  0.00     0.274 HD
ATOM     20  H51 UNL     1      13.299   7.973  15.794  1.00  0.00     0.274 HD
ENDBRANCH  16  17
ENDBRANCH  13  16
BRANCH  14  21
HETATM   21  N7  UNL     1      11.212  11.590  17.868  1.00  0.00    -0.344 N 
ATOM     22  H72 UNL     1      11.545  10.805  18.429  1.00  0.00     0.176 HD
ATOM     23  H71 UNL     1      10.363  12.067  18.170  1.00  0.00     0.176 HD
ENDBRANCH  14  21
ENDBRANCH   4  13
BRANCH   6  24
HETATM   24  C4  UNL     1      14.548  10.365  12.320  1.00  0.00     0.118 C 
HETATM   25  C5  UNL     1      16.025  10.656  12.113  1.00  0.00     0.100 C 
HETATM   26  S1  UNL     1      16.097   9.213  11.015  1.00  0.00    -0.165 SA
HETATM   27  C6  UNL     1      14.473  10.027  10.837  1.00  0.00     0.100 C 
ENDBRANCH   6  24
TORSDOF 7
ENDMDL
MODEL 3
REMARK VINA RESULT: -6.228640206      3.284      4.370
REMARK  7 active torsions:
REMARK  status: ('A' for Active; 'I' for Inactive)
REMARK    1  A    between atoms: N1_1  and  N2_4 
REMARK    2  A    between atoms: N2_4  and  N3_6 
REMARK       I    between atoms: C1_8  and  N4_9 
REMARK       I    between atoms: C1_8  and  N8_22 
REMARK    3  A    between atoms: N4_9  and  C2_11 
REMARK    4  A    between atoms: C2_11  and  C3_12 
REMARK    5  A    between atoms: C3_12  and  N5_13 
REMARK    6  A    between atoms: N6_17  and  N7_19 
REMARK    7  A    between atoms: N8_22  and  C4_24 
ROOT
HETATM    1  N3  UNL     1      11.747  11.759  13.741  1.00  0.00    -0.118 N 
ATOM      2  H3  UNL     1      11.253  11.900  14.622  1.00  0.00     0.207 HD
HETATM    3  C1  UNL     1      13.027  11.681  13.765  1.00  0.00     0.695 C 
HETATM    4  N4  UNL     1      13.704  11.795  14.995  1.00  0.00    -0.176 N 
ATOM      5  H4  UNL     1      14.648  12.180  15.011  1.00  0.00     0.185 HD
HETATM    6  N8  UNL     1      13.747  11.483  12.571  1.00  0.00    -0.219 N 
ATOM      7  H8  UNL     1      13.709  12.219  11.865  1.00  0.00     0.178 HD
ENDROOT
BRANCH   1   8
HETATM    8  N2  UNL     1      10.995  11.658  12.566  1.00  0.00    -0.235 N 
ATOM      9  H2  UNL     1      10.581  10.759  12.319  1.00  0.00     0.208 HD
BRANCH   8  10
HETATM   10  N1  UNL     1      10.808  12.664  11.788  1.00  0.00    -0.330 N 
ATOM     11  H12 UNL     1      10.955  12.528  10.788  1.00  0.00     0.178 HD
ATOM     12  H11 UNL     1      10.521  13.577  12.142  1.00  0.00     0.178 HD
ENDBRANCH   8  10
ENDBRANCH   1   8
BRANCH   4  13
HETATM   13  C2  UNL     1      13.100  11.386  16.212  1.00  0.00     0.137 C 
HETATM   14  N6  UNL     1      13.263  10.178  16.586  1.00  0.00    -0.294 N 
ATOM     15  H6  UNL     1      13.822   9.579  15.978  1.00  0.00     0.187 HD
BRANCH  13  16
HETATM   16  C3  UNL     1      12.301  12.366  17.015  1.00  0.00     0.307 C 
BRANCH  16  17
HETATM   17  N5  UNL     1      13.112  12.890  18.110  1.00  0.00    -0.073 N 
ATOM     18  H53 UNL     1      13.536  12.144  18.663  1.00  0.00     0.274 HD
ATOM     19  H52 UNL     1      13.969  13.331  17.775  1.00  0.00     0.274 HD
ATOM     20  H51 UNL     1      12.555  13.523  18.683  1.00  0.00     0.274 HD
ENDBRANCH  16  17
ENDBRANCH  13  16
BRANCH  14  21
HETATM   21  N7  UNL     1      12.757   9.602  17.731  1.00  0.00    -0.344 N 
ATOM     22  H72 UNL     1      12.029  10.134  18.209  1.00  0.00     0.176 HD
ATOM     23  H71 UNL     1      13.039   8.709  18.134  1.00  0.00     0.176 HD
ENDBRANCH  14  21
ENDBRANCH   4  13
BRANCH   6  24
HETATM   24  C4  UNL     1      14.531  10.315  12.278  1.00  0.00     0.118 C 
HETATM   25  C5  UNL     1      16.028  10.555  12.170  1.00  0.00     0.100 C 
HETATM   26  S1  UNL     1      16.118   9.129  11.052  1.00  0.00    -0.165 SA
HETATM   27  C6  UNL     1      14.538  10.004  10.788  1.00  0.00     0.100 C 
ENDBRANCH   6  24
TORSDOF 7
ENDMDL
MODEL 4
REMARK VINA RESULT: -6.124559766      2.414      4.329
REMARK  7 active torsions:
REMARK  status: ('A' for Active; 'I' for Inactive)
REMARK    1  A    between atoms: N1_1  and  N2_4 
REMARK    2  A    between atoms: N2_4  and  N3_6 
REMARK       I    between atoms: C1_8  and  N4_9 
REMARK       I    between atoms: C1_8  and  N8_22 
REMARK    3  A    between atoms: N4_9  and  C2_11 
REMARK    4  A    between atoms: C2_11  and  C3_12 
REMARK    5  A    between atoms: C3_12  and  N5_13 
REMARK    6  A    between atoms: N6_17  and  N7_19 
REMARK    7  A    between atoms: N8_22  and  C4_24 
ROOT
HETATM    1  N3  UNL     1      15.882  11.266  11.078  1.00  0.00    -0.118 N 
ATOM      2  H3  UNL     1      15.405  12.157  10.943  1.00  0.00     0.207 HD
HETATM    3  C1  UNL     1      15.522  10.526  12.062  1.00  0.00     0.695 C 
HETATM    4  N4  UNL     1      14.493  10.964  12.917  1.00  0.00    -0.176 N 
ATOM      5  H4  UNL     1      14.494  10.667  13.893  1.00  0.00     0.185 HD
HETATM    6  N8  UNL     1      16.154   9.286  12.282  1.00  0.00    -0.219 N 
ATOM      7  H8  UNL     1      17.145   9.294  12.525  1.00  0.00     0.178 HD
ENDROOT
BRANCH   1   8
HETATM    8  N2  UNL     1      16.894  10.911  10.181  1.00  0.00    -0.235 N 
ATOM      9  H2  UNL     1      17.817  10.675  10.545  1.00  0.00     0.208 HD
BRANCH   8  10
HETATM   10  N1  UNL     1      16.698  10.873   8.911  1.00  0.00    -0.330 N 
ATOM     11  H12 UNL     1      15.836  11.281   8.548  1.00  0.00     0.178 HD
ATOM     12  H11 UNL     1      17.371  10.452   8.271  1.00  0.00     0.178 HD
ENDBRANCH   8  10
ENDBRANCH   1   8
BRANCH   4  13
HETATM   13  C2  UNL     1      13.453  11.810  12.451  1.00  0.00     0.137 C 
HETATM   14  N6  UNL     1      13.504  12.212  11.243  1.00  0.00    -0.294 N 
ATOM     15  H6  UNL     1      14.298  11.896  10.685  1.00  0.00     0.187 HD
BRANCH  13  16
HETATM   16  C3  UNL     1      12.341  12.202  13.374  1.00  0.00     0.307 C 
BRANCH  16  17
HETATM   17  N5  UNL     1      11.111  11.516  12.989  1.00  0.00    -0.073 N 
ATOM     18  H53 UNL     1      11.274  10.535  12.763  1.00  0.00     0.274 HD
ATOM     19  H52 UNL     1      10.482  11.384  13.781  1.00  0.00     0.274 HD
ATOM     20  H51 UNL     1      10.661  12.016  12.222  1.00  0.00     0.274 HD
ENDBRANCH  16  17
ENDBRANCH  13  16
BRANCH  14  21
HETATM   21  N7  UNL     1      12.592  13.033  10.616  1.00  0.00    -0.344 N 
ATOM     22  H72 UNL     1      11.614  12.872  10.856  1.00  0.00     0.176 HD
ATOM     23  H71 UNL     1      12.804  13.773   9.947  1.00  0.00     0.176 HD
ENDBRANCH  14  21
ENDBRANCH   4  13
BRANCH   6  24
HETATM   24  C4  UNL     1      15.496   8.011  12.188  1.00  0.00     0.118 C 
HETATM   25  C5  UNL     1      14.997   7.447  13.507  1.00  0.00     0.100 C 
HETATM   26  S1  UNL     1      15.178   5.786  12.800  1.00  0.00    -0.165 SA
HETATM   27  C6  UNL     1      16.499   6.866  12.151  1.00  0.00     0.100 C 
ENDBRANCH   6  24
TORSDOF 7
ENDMDL
MODEL 5
REMARK VINA RESULT: -6.030607842      2.672      4.444
REMARK  7 active torsions:
REMARK  status: ('A' for Active; 'I' for Inactive)
REMARK    1  A    between atoms: N1_1  and  N2_4 
REMARK    2  A    between atoms: N2_4  and  N3_6 
REMARK       I    between atoms: C1_8  and  N4_9 
REMARK       I    between atoms: C1_8  and  N8_22 
REMARK    3  A    between atoms: N4_9  and  C2_11 
REMARK    4  A    between atoms: C2_11  and  C3_12 
REMARK    5  A    between atoms: C3_12  and  N5_13 
REMARK    6  A    between atoms: N6_17  and  N7_19 
REMARK    7  A    between atoms: N8_22  and  C4_24 
ROOT
HETATM    1  N3  UNL     1      15.003  11.274  11.254  1.00  0.00    -0.118 N 
ATOM      2  H3  UNL     1      14.494  12.156  11.201  1.00  0.00     0.207 HD
HETATM    3  C1  UNL     1      14.912  10.582  12.329  1.00  0.00     0.695 C 
HETATM    4  N4  UNL     1      14.121  11.056  13.393  1.00  0.00    -0.176 N 
ATOM      5  H4  UNL     1      14.370  10.807  14.350  1.00  0.00     0.185 HD
HETATM    6  N8  UNL     1      15.598   9.356  12.442  1.00  0.00    -0.219 N 
ATOM      7  H8  UNL     1      16.618   9.379  12.429  1.00  0.00     0.178 HD
ENDROOT
BRANCH   1   8
HETATM    8  N2  UNL     1      15.765  10.880  10.150  1.00  0.00    -0.235 N 
ATOM      9  H2  UNL     1      15.384  10.185   9.508  1.00  0.00     0.208 HD
BRANCH   8  10
HETATM   10  N1  UNL     1      16.932  11.367   9.918  1.00  0.00    -0.330 N 
ATOM     11  H12 UNL     1      17.418  11.831  10.685  1.00  0.00     0.178 HD
ATOM     12  H11 UNL     1      17.375  11.299   9.001  1.00  0.00     0.178 HD
ENDBRANCH   8  10
ENDBRANCH   1   8
BRANCH   4  13
HETATM   13  C2  UNL     1      12.985  11.874  13.163  1.00  0.00     0.137 C 
HETATM   14  N6  UNL     1      12.286  11.650  12.121  1.00  0.00    -0.294 N 
ATOM     15  H6  UNL     1      12.594  10.889  11.515  1.00  0.00     0.187 HD
BRANCH  13  16
HETATM   16  C3  UNL     1      12.640  12.962  14.134  1.00  0.00     0.307 C 
BRANCH  16  17
HETATM   17  N5  UNL     1      11.808  12.425  15.206  1.00  0.00    -0.073 N 
ATOM     18  H53 UNL     1      12.356  11.899  15.888  1.00  0.00     0.274 HD
ATOM     19  H52 UNL     1      11.462  13.158  15.826  1.00  0.00     0.274 HD
ATOM     20  H51 UNL     1      11.050  11.868  14.812  1.00  0.00     0.274 HD
ENDBRANCH  16  17
ENDBRANCH  13  16
BRANCH  14  21
HETATM   21  N7  UNL     1      11.156  12.336  11.733  1.00  0.00    -0.344 N 
ATOM     22  H72 UNL     1      10.271  11.847  11.875  1.00  0.00     0.176 HD
ATOM     23  H71 UNL     1      11.126  13.270  11.324  1.00  0.00     0.176 HD
ENDBRANCH  14  21
ENDBRANCH   4  13
BRANCH   6  24
HETATM   24  C4  UNL     1      14.958   8.075  12.574  1.00  0.00     0.118 C 
HETATM   25  C5  UNL     1      14.921   7.518  13.987  1.00  0.00     0.100 C 
HETATM   26  S1  UNL     1      14.878   5.853  13.269  1.00  0.00    -0.165 SA
HETATM   27  C6  UNL     1      15.905   6.937  12.220  1.00  0.00     0.100 C 
ENDBRANCH   6  24
TORSDOF 7
ENDMDL
