MODEL 1
REMARK VINA RESULT: -8.243931346      0.000      0.000
REMARK  4 active torsions:
REMARK  status: ('A' for Active; 'I' for Inactive)
REMARK    1  A    between atoms: N1_1  and  N2_4 
REMARK    2  A    between atoms: N2_4  and  N3_6 
REMARK       I    between atoms: N3_6  and  C1_8 
REMARK       I    between atoms: C1_8  and  N5_12 
REMARK       I    between atoms: N5_12  and  C2_14 
REMARK    3  A    between atoms: C2_14  and  C3_16 
REMARK    4  A    between atoms: C5_18  and  C6_19 
ROOT
HETATM    1  N3  UNL     1      12.849  11.385  11.491  1.00  0.00    -0.118 N 
ATOM      2  H3  UNL     1      12.713  10.485  11.030  1.00  0.00     0.207 HD
HETATM    3  C1  UNL     1      11.773  11.958  12.252  1.00  0.00     0.694 C 
HETATM    4  N4  UNL     1      10.910  12.638  11.548  1.00  0.00    -0.233 N 
ATOM      5  H41 UNL     1      10.147  13.045  12.088  1.00  0.00     0.174 HD
ATOM      6  H42 UNL     1      11.053  12.740  10.544  1.00  0.00     0.174 HD
HETATM    7  N5  UNL     1      11.577  11.819  13.629  1.00  0.00    -0.153 N 
ATOM      8  H5  UNL     1      10.749  12.226  14.064  1.00  0.00     0.187 HD
HETATM    9  C2  UNL     1      12.552  11.091  14.461  1.00  0.00     0.281 C 
HETATM   10  O1  UNL     1      13.543  10.581  13.911  1.00  0.00    -0.266 OA
ENDROOT
BRANCH   9  11
HETATM   11  C3  UNL     1      12.348  10.991  15.911  1.00  0.00     0.075 C 
HETATM   12  C4  UNL     1      11.983  12.063  16.799  1.00  0.00     0.079 C 
HETATM   13  C5  UNL     1      12.764  11.792  18.098  1.00  0.00     0.110 C 
HETATM   14  C7  UNL     1      13.224  10.399  17.976  1.00  0.00     0.135 C 
HETATM   15  N6  UNL     1      13.426  10.182  16.544  1.00  0.00    -0.388 N 
ATOM     16  H6  UNL     1      14.137   9.612  16.087  1.00  0.00     0.159 HD
BRANCH  13  17
HETATM   17  C6  UNL     1      13.789  12.807  18.363  1.00  0.00     0.178 C 
HETATM   18  O2  UNL     1      14.316  13.490  17.452  1.00  0.00    -0.648 OA
HETATM   19  O3  UNL     1      14.248  13.086  19.647  1.00  0.00    -0.648 OA
ENDBRANCH  13  17
ENDBRANCH   9  11
BRANCH   1  20
HETATM   20  N2  UNL     1      14.030  12.014  11.380  1.00  0.00    -0.235 N 
ATOM     21  H2  UNL     1      14.055  13.034  11.386  1.00  0.00     0.208 HD
BRANCH  20  22
HETATM   22  N1  UNL     1      15.141  11.355  11.263  1.00  0.00    -0.330 N 
ATOM     23  H12 UNL     1      15.121  10.347  11.412  1.00  0.00     0.178 HD
ATOM     24  H11 UNL     1      16.016  11.823  11.027  1.00  0.00     0.178 HD
ENDBRANCH  20  22
ENDBRANCH   1  20
TORSDOF 4
ENDMDL
MODEL 2
REMARK VINA RESULT: -8.079182954      4.165      6.550
REMARK  4 active torsions:
REMARK  status: ('A' for Active; 'I' for Inactive)
REMARK    1  A    between atoms: N1_1  and  N2_4 
REMARK    2  A    between atoms: N2_4  and  N3_6 
REMARK       I    between atoms: N3_6  and  C1_8 
REMARK       I    between atoms: C1_8  and  N5_12 
REMARK       I    between atoms: N5_12  and  C2_14 
REMARK    3  A    between atoms: C2_14  and  C3_16 
REMARK    4  A    between atoms: C5_18  and  C6_19 
ROOT
HETATM    1  N3  UNL     1      11.941  11.503  13.145  1.00  0.00    -0.118 N 
ATOM      2  H3  UNL     1      11.301  10.720  13.277  1.00  0.00     0.207 HD
HETATM    3  C1  UNL     1      13.318  11.362  13.531  1.00  0.00     0.694 C 
HETATM    4  N4  UNL     1      13.557  11.595  14.792  1.00  0.00    -0.233 N 
ATOM      5  H41 UNL     1      14.535  11.495  15.065  1.00  0.00     0.174 HD
ATOM      6  H42 UNL     1      12.791  11.874  15.403  1.00  0.00     0.174 HD
HETATM    7  N5  UNL     1      14.369  10.979  12.692  1.00  0.00    -0.153 N 
ATOM      8  H5  UNL     1      15.305  10.860  13.080  1.00  0.00     0.187 HD
HETATM    9  C2  UNL     1      14.143  10.746  11.255  1.00  0.00     0.281 C 
HETATM   10  O1  UNL     1      12.991  10.873  10.803  1.00  0.00    -0.266 OA
ENDROOT
BRANCH   9  11
HETATM   11  C3  UNL     1      15.268  10.384  10.384  1.00  0.00     0.075 C 
HETATM   12  C4  UNL     1      15.730   9.052  10.094  1.00  0.00     0.079 C 
HETATM   13  C5  UNL     1      17.263   9.168  10.016  1.00  0.00     0.110 C 
HETATM   14  C7  UNL     1      17.526  10.613   9.906  1.00  0.00     0.135 C 
HETATM   15  N6  UNL     1      16.443  11.260  10.645  1.00  0.00    -0.388 N 
ATOM     16  H6  UNL     1      16.483  12.111  11.205  1.00  0.00     0.159 HD
BRANCH  13  17
HETATM   17  C6  UNL     1      17.940   8.454  11.104  1.00  0.00     0.178 C 
HETATM   18  O2  UNL     1      18.740   7.510  10.899  1.00  0.00    -0.648 OA
HETATM   19  O3  UNL     1      17.741   8.775  12.444  1.00  0.00    -0.648 OA
ENDBRANCH  13  17
ENDBRANCH   9  11
BRANCH   1  20
HETATM   20  N2  UNL     1      11.484  12.649  12.613  1.00  0.00    -0.235 N 
ATOM     21  H2  UNL     1      11.674  13.530  13.090  1.00  0.00     0.208 HD
BRANCH  20  22
HETATM   22  N1  UNL     1      10.807  12.660  11.508  1.00  0.00    -0.330 N 
ATOM     23  H12 UNL     1      10.674  11.778  11.015  1.00  0.00     0.178 HD
ATOM     24  H11 UNL     1      10.413  13.523  11.133  1.00  0.00     0.178 HD
ENDBRANCH  20  22
ENDBRANCH   1  20
TORSDOF 4
ENDMDL
MODEL 3
REMARK VINA RESULT: -7.950418047      1.252      1.888
REMARK  4 active torsions:
REMARK  status: ('A' for Active; 'I' for Inactive)
REMARK    1  A    between atoms: N1_1  and  N2_4 
REMARK    2  A    between atoms: N2_4  and  N3_6 
REMARK       I    between atoms: N3_6  and  C1_8 
REMARK       I    between atoms: C1_8  and  N5_12 
REMARK       I    between atoms: N5_12  and  C2_14 
REMARK    3  A    between atoms: C2_14  and  C3_16 
REMARK    4  A    between atoms: C5_18  and  C6_19 
ROOT
HETATM    1  N3  UNL     1      13.678  12.398  11.503  1.00  0.00    -0.118 N 
ATOM      2  H3  UNL     1      14.525  12.967  11.524  1.00  0.00     0.207 HD
HETATM    3  C1  UNL     1      13.709  11.065  12.036  1.00  0.00     0.694 C 
HETATM    4  N4  UNL     1      14.141  10.156  11.206  1.00  0.00    -0.233 N 
ATOM      5  H41 UNL     1      14.162   9.209  11.586  1.00  0.00     0.174 HD
ATOM      6  H42 UNL     1      14.400  10.426  10.258  1.00  0.00     0.174 HD
HETATM    7  N5  UNL     1      13.354  10.694  13.337  1.00  0.00    -0.153 N 
ATOM      8  H5  UNL     1      13.462   9.723  13.631  1.00  0.00     0.187 HD
HETATM    9  C2  UNL     1      12.826  11.687  14.289  1.00  0.00     0.281 C 
HETATM   10  O1  UNL     1      12.724  12.870  13.922  1.00  0.00    -0.266 OA
ENDROOT
BRANCH   9  11
HETATM   11  C3  UNL     1      12.422  11.269  15.636  1.00  0.00     0.075 C 
HETATM   12  C4  UNL     1      12.026  12.133  16.717  1.00  0.00     0.079 C 
HETATM   13  C5  UNL     1      12.601  11.477  17.986  1.00  0.00     0.110 C 
HETATM   14  C7  UNL     1      12.963  10.111  17.572  1.00  0.00     0.135 C 
HETATM   15  N6  UNL     1      13.338  10.220  16.163  1.00  0.00    -0.388 N 
ATOM     16  H6  UNL     1      14.056   9.700  15.660  1.00  0.00     0.159 HD
BRANCH  13  17
HETATM   17  C6  UNL     1      13.658  12.282  18.607  1.00  0.00     0.178 C 
HETATM   18  O2  UNL     1      14.854  12.233  18.233  1.00  0.00    -0.648 OA
HETATM   19  O3  UNL     1      13.406  13.161  19.657  1.00  0.00    -0.648 OA
ENDBRANCH  13  17
ENDBRANCH   9  11
BRANCH   1  20
HETATM   20  N2  UNL     1      12.552  12.908  10.977  1.00  0.00    -0.235 N 
ATOM     21  H2  UNL     1      12.617  13.560  10.195  1.00  0.00     0.208 HD
BRANCH  20  22
HETATM   22  N1  UNL     1      11.383  12.591  11.441  1.00  0.00    -0.330 N 
ATOM     23  H12 UNL     1      10.595  12.579  10.795  1.00  0.00     0.178 HD
ATOM     24  H11 UNL     1      11.246  12.358  12.425  1.00  0.00     0.178 HD
ENDBRANCH  20  22
ENDBRANCH   1  20
TORSDOF 4
ENDMDL
MODEL 4
REMARK VINA RESULT: -7.855297952      0.961      1.068
REMARK  4 active torsions:
REMARK  status: ('A' for Active; 'I' for Inactive)
REMARK    1  A    between atoms: N1_1  and  N2_4 
REMARK    2  A    between atoms: N2_4  and  N3_6 
REMARK       I    between atoms: N3_6  and  C1_8 
REMARK       I    between atoms: C1_8  and  N5_12 
REMARK       I    between atoms: N5_12  and  C2_14 
REMARK    3  A    between atoms: C2_14  and  C3_16 
REMARK    4  A    between atoms: C5_18  and  C6_19 
ROOT
HETATM    1  N3  UNL     1      14.101  11.306  11.022  1.00  0.00    -0.118 N 
ATOM      2  H3  UNL     1      13.820  10.493  10.473  1.00  0.00     0.207 HD
HETATM    3  C1  UNL     1      13.094  12.175  11.563  1.00  0.00     0.694 C 
HETATM    4  N4  UNL     1      12.663  13.090  10.739  1.00  0.00    -0.233 N 
ATOM      5  H41 UNL     1      11.948  13.707  11.124  1.00  0.00     0.174 HD
ATOM      6  H42 UNL     1      13.065  13.149   9.804  1.00  0.00     0.174 HD
HETATM    7  N5  UNL     1      12.544  12.094  12.846  1.00  0.00    -0.153 N 
ATOM      8  H5  UNL     1      11.794  12.731  13.114  1.00  0.00     0.187 HD
HETATM    9  C2  UNL     1      13.033  11.099  13.817  1.00  0.00     0.281 C 
HETATM   10  O1  UNL     1      13.930  10.313  13.466  1.00  0.00    -0.266 OA
ENDROOT
BRANCH   9  11
HETATM   11  C3  UNL     1      12.469  11.057  15.171  1.00  0.00     0.075 C 
HETATM   12  C4  UNL     1      12.035  12.185  15.952  1.00  0.00     0.079 C 
HETATM   13  C5  UNL     1      12.434  11.848  17.400  1.00  0.00     0.110 C 
HETATM   14  C7  UNL     1      12.733  10.406  17.382  1.00  0.00     0.135 C 
HETATM   15  N6  UNL     1      13.250  10.135  16.042  1.00  0.00    -0.388 N 
ATOM     16  H6  UNL     1      13.973   9.471  15.768  1.00  0.00     0.159 HD
BRANCH  13  17
HETATM   17  C6  UNL     1      13.483  12.734  17.918  1.00  0.00     0.178 C 
HETATM   18  O2  UNL     1      14.195  13.447  17.171  1.00  0.00    -0.648 OA
HETATM   19  O3  UNL     1      13.759  12.848  19.278  1.00  0.00    -0.648 OA
ENDBRANCH  13  17
ENDBRANCH   9  11
BRANCH   1  20
HETATM   20  N2  UNL     1      15.407  11.545  11.228  1.00  0.00    -0.235 N 
ATOM     21  H2  UNL     1      15.809  12.426  10.909  1.00  0.00     0.208 HD
BRANCH  20  22
HETATM   22  N1  UNL     1      16.168  10.681  11.825  1.00  0.00    -0.330 N 
ATOM     23  H12 UNL     1      16.761  11.007  12.588  1.00  0.00     0.178 HD
ATOM     24  H11 UNL     1      16.181   9.700  11.546  1.00  0.00     0.178 HD
ENDBRANCH  20  22
ENDBRANCH   1  20
TORSDOF 4
ENDMDL
MODEL 5
REMARK VINA RESULT: -7.802041530      4.711      7.206
REMARK  4 active torsions:
REMARK  status: ('A' for Active; 'I' for Inactive)
REMARK    1  A    between atoms: N1_1  and  N2_4 
REMARK    2  A    between atoms: N2_4  and  N3_6 
REMARK       I    between atoms: N3_6  and  C1_8 
REMARK       I    between atoms: C1_8  and  N5_12 
REMARK       I    between atoms: N5_12  and  C2_14 
REMARK    3  A    between atoms: C2_14  and  C3_16 
REMARK    4  A    between atoms: C5_18  and  C6_19 
ROOT
HETATM    1  N3  UNL     1      11.873  11.566  12.369  1.00  0.00    -0.118 N 
ATOM      2  H3  UNL     1      11.213  10.801  12.510  1.00  0.00     0.207 HD
HETATM    3  C1  UNL     1      13.072  11.619  13.159  1.00  0.00     0.694 C 
HETATM    4  N4  UNL     1      12.930  12.178  14.329  1.00  0.00    -0.233 N 
ATOM      5  H41 UNL     1      13.782  12.216  14.888  1.00  0.00     0.174 HD
ATOM      6  H42 UNL     1      12.020  12.552  14.597  1.00  0.00     0.174 HD
HETATM    7  N5  UNL     1      14.320  11.108  12.790  1.00  0.00    -0.153 N 
ATOM      8  H5  UNL     1      15.097  11.152  13.448  1.00  0.00     0.187 HD
HETATM    9  C2  UNL     1      14.527  10.504  11.461  1.00  0.00     0.281 C 
HETATM   10  O1  UNL     1      13.562  10.436  10.680  1.00  0.00    -0.266 OA
ENDROOT
BRANCH   9  11
HETATM   11  C3  UNL     1      15.855  10.009  11.079  1.00  0.00     0.075 C 
HETATM   12  C4  UNL     1      16.652  10.469   9.973  1.00  0.00     0.079 C 
HETATM   13  C5  UNL     1      17.344   9.207   9.425  1.00  0.00     0.110 C 
HETATM   14  C7  UNL     1      17.171   8.195  10.481  1.00  0.00     0.135 C 
HETATM   15  N6  UNL     1      15.900   8.522  11.126  1.00  0.00    -0.388 N 
ATOM     16  H6  UNL     1      15.209   7.882  11.516  1.00  0.00     0.159 HD
BRANCH  13  17
HETATM   17  C6  UNL     1      16.878   8.847   8.081  1.00  0.00     0.178 C 
HETATM   18  O2  UNL     1      15.898   8.088   7.886  1.00  0.00    -0.648 OA
HETATM   19  O3  UNL     1      17.490   9.325   6.927  1.00  0.00    -0.648 OA
ENDBRANCH  13  17
ENDBRANCH   9  11
BRANCH   1  20
HETATM   20  N2  UNL     1      11.608  12.507  11.448  1.00  0.00    -0.235 N 
ATOM     21  H2  UNL     1      10.640  12.781  11.280  1.00  0.00     0.208 HD
BRANCH  20  22
HETATM   22  N1  UNL     1      12.554  13.075  10.767  1.00  0.00    -0.330 N 
ATOM     23  H12 UNL     1      13.489  12.672  10.812  1.00  0.00     0.178 HD
ATOM     24  H11 UNL     1      12.377  13.903  10.199  1.00  0.00     0.178 HD
ENDBRANCH  20  22
ENDBRANCH   1  20
TORSDOF 4
ENDMDL
