MODEL 1
REMARK VINA RESULT: -6.450184750      0.000      0.000
REMARK  5 active torsions:
REMARK  status: ('A' for Active; 'I' for Inactive)
REMARK    1  A    between atoms: C2_2  and  C5_5 
REMARK    2  A    between atoms: C6_6  and  N1_7 
REMARK    3  A    between atoms: C7_11  and  N2_12 
REMARK    4  A    between atoms: C8_16  and  N3_17 
REMARK       I    between atoms: N3_17  and  C9_19 
REMARK       I    between atoms: C9_19  and  N5_23 
REMARK    5  A    between atoms: N5_23  and  N6_25 
ROOT
HETATM    1  C5  UNL     1      16.110   9.653  11.744  1.00  0.00     0.051 C 
HETATM    2  C6  UNL     1      16.303   8.454  12.644  1.00  0.00     0.222 C 
HETATM    3  C7  UNL     1      14.829   8.624  13.041  1.00  0.00     0.237 C 
HETATM    4  C8  UNL     1      14.833   9.986  12.382  1.00  0.00     0.138 C 
ENDROOT
BRANCH   4   5
HETATM    5  N3  UNL     1      13.683  10.320  11.616  1.00  0.00    -0.218 N 
HETATM    6  C9  UNL     1      13.164  11.635  11.469  1.00  0.00     0.687 C 
HETATM    7  N4  UNL     1      13.901  12.662  11.258  1.00  0.00    -0.234 N 
HETATM    8  N5  UNL     1      11.760  11.815  11.561  1.00  0.00    -0.119 N 
ATOM      9  H42 UNL     1      14.911  12.532  11.192  1.00  0.00     0.174 HD
ATOM     10  H41 UNL     1      13.529  13.606  11.152  1.00  0.00     0.174 HD
ATOM     11  H5  UNL     1      11.285  12.200  10.744  1.00  0.00     0.207 HD
ATOM     12  H3  UNL     1      13.195   9.561  11.139  1.00  0.00     0.178 HD
BRANCH   8  13
HETATM   13  N6  UNL     1      10.988  11.518  12.652  1.00  0.00    -0.235 N 
HETATM   14  N7  UNL     1      11.441  11.625  13.824  1.00  0.00    -0.330 N 
ATOM     15  H72 UNL     1      12.404  11.942  13.944  1.00  0.00     0.178 HD
ATOM     16  H71 UNL     1      10.866  11.404  14.637  1.00  0.00     0.178 HD
ATOM     17  H6  UNL     1      10.028  11.202  12.514  1.00  0.00     0.208 HD
ENDBRANCH   8  13
ENDBRANCH   4   5
BRANCH   1  18
HETATM   18  C2  UNL     1      16.285   9.445  10.299  1.00  0.00    -0.044 C 
HETATM   19  C1  UNL     1      17.702   8.865  10.116  1.00  0.00     0.015 C 
HETATM   20  C3  UNL     1      15.338   8.573   9.590  1.00  0.00     0.015 C 
HETATM   21  C4  UNL     1      16.303  10.806   9.631  1.00  0.00     0.015 C 
ENDBRANCH   1  18
BRANCH   3  22
HETATM   22  N2  UNL     1      14.722   8.646  14.494  1.00  0.00    -0.071 N 
ATOM     23  H23 UNL     1      14.560   7.718  14.884  1.00  0.00     0.274 HD
ATOM     24  H22 UNL     1      15.616   8.838  14.945  1.00  0.00     0.274 HD
ATOM     25  H21 UNL     1      14.000   9.312  14.767  1.00  0.00     0.274 HD
ENDBRANCH   3  22
BRANCH   2  26
HETATM   26  N1  UNL     1      16.574   7.204  11.996  1.00  0.00    -0.072 N 
ATOM     27  H13 UNL     1      15.847   7.011  11.308  1.00  0.00     0.274 HD
ATOM     28  H12 UNL     1      17.386   7.303  11.387  1.00  0.00     0.274 HD
ATOM     29  H11 UNL     1      16.695   6.394  12.603  1.00  0.00     0.274 HD
ENDBRANCH   2  26
TORSDOF 5
ENDMDL
MODEL 2
REMARK VINA RESULT: -6.211167592      1.426      1.728
REMARK  5 active torsions:
REMARK  status: ('A' for Active; 'I' for Inactive)
REMARK    1  A    between atoms: C2_2  and  C5_5 
REMARK    2  A    between atoms: C6_6  and  N1_7 
REMARK    3  A    between atoms: C7_11  and  N2_12 
REMARK    4  A    between atoms: C8_16  and  N3_17 
REMARK       I    between atoms: N3_17  and  C9_19 
REMARK       I    between atoms: C9_19  and  N5_23 
REMARK    5  A    between atoms: N5_23  and  N6_25 
ROOT
HETATM    1  C5  UNL     1      16.482   8.438  12.832  1.00  0.00     0.051 C 
HETATM    2  C6  UNL     1      16.163   7.413  13.896  1.00  0.00     0.222 C 
HETATM    3  C7  UNL     1      14.712   7.912  13.819  1.00  0.00     0.237 C 
HETATM    4  C8  UNL     1      15.190   9.105  13.020  1.00  0.00     0.138 C 
ENDROOT
BRANCH   4   5
HETATM    5  N3  UNL     1      14.382   9.488  11.915  1.00  0.00    -0.218 N 
HETATM    6  C9  UNL     1      14.300  10.808  11.393  1.00  0.00     0.687 C 
HETATM    7  N4  UNL     1      15.323  11.559  11.216  1.00  0.00    -0.234 N 
HETATM    8  N5  UNL     1      13.019  11.315  11.052  1.00  0.00    -0.119 N 
ATOM      9  H42 UNL     1      16.244  11.194  11.461  1.00  0.00     0.174 HD
ATOM     10  H41 UNL     1      15.265  12.506  10.842  1.00  0.00     0.174 HD
ATOM     11  H5  UNL     1      12.867  11.583  10.080  1.00  0.00     0.207 HD
ATOM     12  H3  UNL     1      13.821   8.765  11.464  1.00  0.00     0.178 HD
BRANCH   8  13
HETATM   13  N6  UNL     1      11.971  11.477  11.918  1.00  0.00    -0.235 N 
HETATM   14  N7  UNL     1      11.162  12.437  11.796  1.00  0.00    -0.330 N 
ATOM     15  H72 UNL     1      11.307  13.098  11.032  1.00  0.00     0.178 HD
ATOM     16  H71 UNL     1      10.380  12.557  12.441  1.00  0.00     0.178 HD
ATOM     17  H6  UNL     1      11.841  10.807  12.676  1.00  0.00     0.208 HD
ENDBRANCH   8  13
ENDBRANCH   4   5
BRANCH   1  18
HETATM   18  C2  UNL     1      16.976   7.938  11.541  1.00  0.00    -0.044 C 
HETATM   19  C1  UNL     1      18.162   7.008  11.866  1.00  0.00     0.015 C 
HETATM   20  C3  UNL     1      16.049   7.209  10.664  1.00  0.00     0.015 C 
HETATM   21  C4  UNL     1      17.563   9.110  10.780  1.00  0.00     0.015 C 
ENDBRANCH   1  18
BRANCH   3  22
HETATM   22  N2  UNL     1      14.239   8.223  15.161  1.00  0.00    -0.071 N 
ATOM     23  H23 UNL     1      14.151   7.390  15.743  1.00  0.00     0.274 HD
ATOM     24  H22 UNL     1      14.942   8.712  15.716  1.00  0.00     0.274 HD
ATOM     25  H21 UNL     1      13.365   8.744  15.097  1.00  0.00     0.274 HD
ENDBRANCH   3  22
BRANCH   2  26
HETATM   26  N1  UNL     1      16.308   6.037  13.523  1.00  0.00    -0.072 N 
ATOM     27  H13 UNL     1      17.267   5.735  13.693  1.00  0.00     0.274 HD
ATOM     28  H12 UNL     1      15.806   5.447  14.186  1.00  0.00     0.274 HD
ATOM     29  H11 UNL     1      16.036   5.793  12.571  1.00  0.00     0.274 HD
ENDBRANCH   2  26
TORSDOF 5
ENDMDL
MODEL 3
REMARK VINA RESULT: -6.168343304      3.485      5.465
REMARK  5 active torsions:
REMARK  status: ('A' for Active; 'I' for Inactive)
REMARK    1  A    between atoms: C2_2  and  C5_5 
REMARK    2  A    between atoms: C6_6  and  N1_7 
REMARK    3  A    between atoms: C7_11  and  N2_12 
REMARK    4  A    between atoms: C8_16  and  N3_17 
REMARK       I    between atoms: N3_17  and  C9_19 
REMARK       I    between atoms: C9_19  and  N5_23 
REMARK    5  A    between atoms: N5_23  and  N6_25 
ROOT
HETATM    1  C5  UNL     1      12.381  10.634  15.920  1.00  0.00     0.051 C 
HETATM    2  C6  UNL     1      13.177   9.437  16.388  1.00  0.00     0.222 C 
HETATM    3  C7  UNL     1      13.907   9.503  15.038  1.00  0.00     0.237 C 
HETATM    4  C8  UNL     1      12.849  10.466  14.541  1.00  0.00     0.138 C 
ENDROOT
BRANCH   4   5
HETATM    5  N3  UNL     1      13.311  11.568  13.773  1.00  0.00    -0.218 N 
HETATM    6  C9  UNL     1      12.721  12.010  12.557  1.00  0.00     0.687 C 
HETATM    7  N4  UNL     1      11.455  12.110  12.387  1.00  0.00    -0.234 N 
HETATM    8  N5  UNL     1      13.580  12.356  11.482  1.00  0.00    -0.119 N 
ATOM      9  H42 UNL     1      10.837  11.862  13.160  1.00  0.00     0.174 HD
ATOM     10  H41 UNL     1      11.030  12.427  11.515  1.00  0.00     0.174 HD
ATOM     11  H5  UNL     1      13.531  13.314  11.136  1.00  0.00     0.207 HD
ATOM     12  H3  UNL     1      14.125  12.079  14.117  1.00  0.00     0.178 HD
BRANCH   8  13
HETATM   13  N6  UNL     1      14.468  11.513  10.869  1.00  0.00    -0.235 N 
HETATM   14  N7  UNL     1      15.669  11.440  11.247  1.00  0.00    -0.330 N 
ATOM     15  H72 UNL     1      15.968  12.027  12.025  1.00  0.00     0.178 HD
ATOM     16  H71 UNL     1      16.331  10.812  10.790  1.00  0.00     0.178 HD
ATOM     17  H6  UNL     1      14.152  10.933  10.092  1.00  0.00     0.208 HD
ENDBRANCH   8  13
ENDBRANCH   4   5
BRANCH   1  18
HETATM   18  C2  UNL     1      12.514  11.876  16.695  1.00  0.00    -0.044 C 
HETATM   19  C1  UNL     1      11.649  11.690  17.958  1.00  0.00     0.015 C 
HETATM   20  C3  UNL     1      13.855  12.306  17.117  1.00  0.00     0.015 C 
HETATM   21  C4  UNL     1      11.860  12.991  15.903  1.00  0.00     0.015 C 
ENDBRANCH   1  18
BRANCH   3  22
HETATM   22  N2  UNL     1      13.880   8.188  14.412  1.00  0.00    -0.071 N 
ATOM     23  H23 UNL     1      14.198   7.453  15.044  1.00  0.00     0.274 HD
ATOM     24  H22 UNL     1      12.929   7.848  14.265  1.00  0.00     0.274 HD
ATOM     25  H21 UNL     1      14.420   8.216  13.548  1.00  0.00     0.274 HD
ENDBRANCH   3  22
BRANCH   2  26
HETATM   26  N1  UNL     1      14.045   9.645  17.510  1.00  0.00    -0.072 N 
ATOM     27  H13 UNL     1      14.874   9.058  17.416  1.00  0.00     0.274 HD
ATOM     28  H12 UNL     1      14.465  10.573  17.451  1.00  0.00     0.274 HD
ATOM     29  H11 UNL     1      13.634   9.512  18.434  1.00  0.00     0.274 HD
ENDBRANCH   2  26
TORSDOF 5
ENDMDL
MODEL 4
REMARK VINA RESULT: -6.021953397      2.005      3.077
REMARK  5 active torsions:
REMARK  status: ('A' for Active; 'I' for Inactive)
REMARK    1  A    between atoms: C2_2  and  C5_5 
REMARK    2  A    between atoms: C6_6  and  N1_7 
REMARK    3  A    between atoms: C7_11  and  N2_12 
REMARK    4  A    between atoms: C8_16  and  N3_17 
REMARK       I    between atoms: N3_17  and  C9_19 
REMARK       I    between atoms: C9_19  and  N5_23 
REMARK    5  A    between atoms: N5_23  and  N6_25 
ROOT
HETATM    1  C5  UNL     1      15.848   7.745  13.885  1.00  0.00     0.051 C 
HETATM    2  C6  UNL     1      14.899   7.343  14.991  1.00  0.00     0.222 C 
HETATM    3  C7  UNL     1      13.924   8.381  14.414  1.00  0.00     0.237 C 
HETATM    4  C8  UNL     1      15.051   8.936  13.570  1.00  0.00     0.138 C 
ENDROOT
BRANCH   4   5
HETATM    5  N3  UNL     1      14.725   9.280  12.231  1.00  0.00    -0.218 N 
HETATM    6  C9  UNL     1      15.196  10.441  11.558  1.00  0.00     0.687 C 
HETATM    7  N4  UNL     1      16.409  10.847  11.623  1.00  0.00    -0.234 N 
HETATM    8  N5  UNL     1      14.273  11.182  10.775  1.00  0.00    -0.119 N 
ATOM      9  H42 UNL     1      17.073  10.314  12.186  1.00  0.00     0.174 HD
ATOM     10  H41 UNL     1      16.748  11.680  11.140  1.00  0.00     0.174 HD
ATOM     11  H5  UNL     1      14.475  11.275   9.779  1.00  0.00     0.207 HD
ATOM     12  H3  UNL     1      14.109   8.651  11.715  1.00  0.00     0.178 HD
BRANCH   8  13
HETATM   13  N6  UNL     1      13.136  11.784  11.242  1.00  0.00    -0.235 N 
HETATM   14  N7  UNL     1      13.005  13.038  11.229  1.00  0.00    -0.330 N 
ATOM     15  H72 UNL     1      13.772  13.601  10.860  1.00  0.00     0.178 HD
ATOM     16  H71 UNL     1      12.157  13.486  11.577  1.00  0.00     0.178 HD
ATOM     17  H6  UNL     1      12.379  11.206  11.608  1.00  0.00     0.208 HD
ENDBRANCH   8  13
ENDBRANCH   4   5
BRANCH   1  18
HETATM   18  C2  UNL     1      16.217   6.714  12.905  1.00  0.00    -0.044 C 
HETATM   19  C1  UNL     1      17.118   5.711  13.655  1.00  0.00     0.015 C 
HETATM   20  C3  UNL     1      15.148   5.957  12.237  1.00  0.00     0.015 C 
HETATM   21  C4  UNL     1      17.099   7.361  11.856  1.00  0.00     0.015 C 
ENDBRANCH   1  18
BRANCH   3  22
HETATM   22  N2  UNL     1      13.470   9.259  15.484  1.00  0.00    -0.071 N 
ATOM     23  H23 UNL     1      14.225   9.516  16.120  1.00  0.00     0.274 HD
ATOM     24  H22 UNL     1      13.241  10.194  15.146  1.00  0.00     0.274 HD
ATOM     25  H21 UNL     1      12.687   8.821  15.969  1.00  0.00     0.274 HD
ENDBRANCH   3  22
BRANCH   2  26
HETATM   26  N1  UNL     1      14.392   6.003  14.942  1.00  0.00    -0.072 N 
ATOM     27  H13 UNL     1      13.897   5.856  14.063  1.00  0.00     0.274 HD
ATOM     28  H12 UNL     1      15.166   5.347  14.833  1.00  0.00     0.274 HD
ATOM     29  H11 UNL     1      13.801   5.712  15.721  1.00  0.00     0.274 HD
ENDBRANCH   2  26
TORSDOF 5
ENDMDL
MODEL 5
REMARK VINA RESULT: -6.020777113      1.965      2.445
REMARK  5 active torsions:
REMARK  status: ('A' for Active; 'I' for Inactive)
REMARK    1  A    between atoms: C2_2  and  C5_5 
REMARK    2  A    between atoms: C6_6  and  N1_7 
REMARK    3  A    between atoms: C7_11  and  N2_12 
REMARK    4  A    between atoms: C8_16  and  N3_17 
REMARK       I    between atoms: N3_17  and  C9_19 
REMARK       I    between atoms: C9_19  and  N5_23 
REMARK    5  A    between atoms: N5_23  and  N6_25 
ROOT
HETATM    1  C5  UNL     1      16.970   7.583  10.203  1.00  0.00     0.051 C 
HETATM    2  C6  UNL     1      16.665   6.392  11.083  1.00  0.00     0.222 C 
HETATM    3  C7  UNL     1      15.570   7.258  11.725  1.00  0.00     0.237 C 
HETATM    4  C8  UNL     1      16.164   8.472  11.045  1.00  0.00     0.138 C 
ENDROOT
BRANCH   4   5
HETATM    5  N3  UNL     1      15.241   9.395  10.483  1.00  0.00    -0.218 N 
HETATM    6  C9  UNL     1      15.256  10.797  10.718  1.00  0.00     0.687 C 
HETATM    7  N4  UNL     1      16.329  11.498  10.718  1.00  0.00    -0.234 N 
HETATM    8  N5  UNL     1      14.019  11.448  10.963  1.00  0.00    -0.119 N 
ATOM      9  H42 UNL     1      17.217  11.030  10.541  1.00  0.00     0.174 HD
ATOM     10  H41 UNL     1      16.340  12.504  10.886  1.00  0.00     0.174 HD
ATOM     11  H5  UNL     1      13.742  12.183  10.312  1.00  0.00     0.207 HD
ATOM     12  H3  UNL     1      14.516   9.025   9.868  1.00  0.00     0.178 HD
BRANCH   8  13
HETATM   13  N6  UNL     1      13.168  11.176  11.999  1.00  0.00    -0.235 N 
HETATM   14  N7  UNL     1      11.964  11.552  11.975  1.00  0.00    -0.330 N 
ATOM     15  H72 UNL     1      11.635  12.070  11.160  1.00  0.00     0.178 HD
ATOM     16  H71 UNL     1      11.329  11.349  12.748  1.00  0.00     0.178 HD
ATOM     17  H6  UNL     1      13.513  10.657  12.807  1.00  0.00     0.208 HD
ENDBRANCH   8  13
ENDBRANCH   4   5
BRANCH   1  18
HETATM   18  C2  UNL     1      16.780   7.416   8.755  1.00  0.00    -0.044 C 
HETATM   19  C1  UNL     1      17.871   6.431   8.288  1.00  0.00     0.015 C 
HETATM   20  C3  UNL     1      15.483   6.930   8.263  1.00  0.00     0.015 C 
HETATM   21  C4  UNL     1      17.101   8.739   8.087  1.00  0.00     0.015 C 
ENDBRANCH   1  18
BRANCH   3  22
HETATM   22  N2  UNL     1      15.724   7.230  13.174  1.00  0.00    -0.071 N 
ATOM     23  H23 UNL     1      16.305   6.451  13.485  1.00  0.00     0.274 HD
ATOM     24  H22 UNL     1      16.309   7.992  13.515  1.00  0.00     0.274 HD
ATOM     25  H21 UNL     1      14.802   7.224  13.609  1.00  0.00     0.274 HD
ENDBRANCH   3  22
BRANCH   2  26
HETATM   26  N1  UNL     1      16.150   5.227  10.426  1.00  0.00    -0.072 N 
ATOM     27  H13 UNL     1      15.131   5.246  10.441  1.00  0.00     0.274 HD
ATOM     28  H12 UNL     1      16.323   5.294   9.422  1.00  0.00     0.274 HD
ATOM     29  H11 UNL     1      16.481   4.326  10.772  1.00  0.00     0.274 HD
ENDBRANCH   2  26
TORSDOF 5
ENDMDL
