MODEL 1
REMARK VINA RESULT: -7.463606308      0.000      0.000
REMARK  6 active torsions:
REMARK  status: ('A' for Active; 'I' for Inactive)
REMARK    1  A    between atoms: N1_1  and  C1_4 
REMARK    2  A    between atoms: N3_10  and  C4_11 
REMARK    3  A    between atoms: C4_11  and  C5_12 
REMARK    4  A    between atoms: C5_12  and  N4_13 
REMARK    5  A    between atoms: N4_13  and  C6_15 
REMARK    6  A    between atoms: C7_20  and  N7_21 
ROOT
HETATM    1  N4  UNL     1      12.277  11.384  15.234  1.00  0.00    -0.223 N 
ATOM      2  H4  UNL     1      12.775  10.514  15.420  1.00  0.00     0.177 HD
ENDROOT
BRANCH   1   3
HETATM    3  C5  UNL     1      11.793  12.171  16.344  1.00  0.00     0.158 C 
BRANCH   3   4
HETATM    4  C4  UNL     1      12.733  12.097  17.529  1.00  0.00     0.155 C 
BRANCH   4   5
HETATM    5  N3  UNL     1      12.459  10.989  18.387  1.00  0.00    -0.286 N 
HETATM    6  C1  UNL     1      11.774  10.971  19.649  1.00  0.00     0.099 C 
HETATM    7  C2  UNL     1      11.539   9.569  19.988  1.00  0.00     0.200 C 
HETATM    8  N2  UNL     1      12.426   8.815  19.147  1.00  0.00    -0.336 N 
HETATM    9  C3  UNL     1      12.856   9.644  18.092  1.00  0.00     0.324 C 
ATOM     10  H2  UNL     1      12.698   7.842  19.289  1.00  0.00     0.164 HD
HETATM   11  O1  UNL     1      13.485   9.230  17.072  1.00  0.00    -0.247 OA
BRANCH   6  12
HETATM   12  N1  UNL     1      11.454  12.019  20.310  1.00  0.00    -0.387 N 
ATOM     13  H12 UNL     1      11.186  12.017  21.294  1.00  0.00     0.157 HD
ATOM     14  H11 UNL     1      11.411  12.987  19.991  1.00  0.00     0.157 HD
ENDBRANCH   6  12
ENDBRANCH   4   5
ENDBRANCH   3   4
ENDBRANCH   1   3
BRANCH   1  15
HETATM   15  C6  UNL     1      12.091  11.765  13.994  1.00  0.00     0.707 A 
HETATM   16  N5  UNL     1      10.995  11.608  13.230  1.00  0.00    -0.117 N 
HETATM   17  N6  UNL     1      11.187  12.124  12.028  1.00  0.00    -0.118 N 
ATOM     18  H5  UNL     1      10.134  11.155  13.536  1.00  0.00     0.206 HD
HETATM   19  C7  UNL     1      12.436  12.624  12.018  1.00  0.00     0.705 A 
ATOM     20  H6  UNL     1      10.519  12.140  11.258  1.00  0.00     0.206 HD
HETATM   21  N8  UNL     1      12.989  12.403  13.224  1.00  0.00    -0.020 N 
ATOM     22  H8  UNL     1      13.931  12.674  13.507  1.00  0.00     0.203 HD
BRANCH  19  23
HETATM   23  N7  UNL     1      13.027  13.225  11.017  1.00  0.00    -0.233 N 
ATOM     24  H72 UNL     1      12.980  14.225  10.821  1.00  0.00     0.174 HD
ATOM     25  H71 UNL     1      13.609  12.786  10.303  1.00  0.00     0.174 HD
ENDBRANCH  19  23
ENDBRANCH   1  15
TORSDOF 6
ENDMDL
MODEL 2
REMARK VINA RESULT: -7.246786371      1.558      1.823
REMARK  6 active torsions:
REMARK  status: ('A' for Active; 'I' for Inactive)
REMARK    1  A    between atoms: N1_1  and  C1_4 
REMARK    2  A    between atoms: N3_10  and  C4_11 
REMARK    3  A    between atoms: C4_11  and  C5_12 
REMARK    4  A    between atoms: C5_12  and  N4_13 
REMARK    5  A    between atoms: N4_13  and  C6_15 
REMARK    6  A    between atoms: C7_20  and  N7_21 
ROOT
HETATM    1  N4  UNL     1      11.810  12.163  14.245  1.00  0.00    -0.223 N 
ATOM      2  H4  UNL     1      11.084  11.463  14.391  1.00  0.00     0.177 HD
ENDROOT
BRANCH   1   3
HETATM    3  C5  UNL     1      12.126  13.084  15.311  1.00  0.00     0.158 C 
BRANCH   3   4
HETATM    4  C4  UNL     1      13.387  12.675  16.043  1.00  0.00     0.155 C 
BRANCH   4   5
HETATM    5  N3  UNL     1      13.170  11.612  16.972  1.00  0.00    -0.286 N 
HETATM    6  C1  UNL     1      12.906  11.685  18.382  1.00  0.00     0.099 C 
HETATM    7  C2  UNL     1      12.512  10.345  18.812  1.00  0.00     0.200 C 
HETATM    8  N2  UNL     1      12.937   9.462  17.762  1.00  0.00    -0.336 N 
HETATM    9  C3  UNL     1      13.186  10.227  16.606  1.00  0.00     0.324 C 
ATOM     10  H2  UNL     1      13.042   8.450  17.841  1.00  0.00     0.164 HD
HETATM   11  O1  UNL     1      13.386   9.734  15.455  1.00  0.00    -0.247 OA
BRANCH   6  12
HETATM   12  N1  UNL     1      13.012  12.751  19.081  1.00  0.00    -0.387 N 
ATOM     13  H12 UNL     1      13.896  13.127  19.423  1.00  0.00     0.157 HD
ATOM     14  H11 UNL     1      12.276  13.378  19.404  1.00  0.00     0.157 HD
ENDBRANCH   6  12
ENDBRANCH   4   5
ENDBRANCH   3   4
ENDBRANCH   1   3
BRANCH   1  15
HETATM   15  C6  UNL     1      12.436  12.207  13.094  1.00  0.00     0.707 A 
HETATM   16  N5  UNL     1      12.476  13.216  12.206  1.00  0.00    -0.117 N 
HETATM   17  N6  UNL     1      13.213  12.886  11.159  1.00  0.00    -0.118 N 
ATOM     18  H5  UNL     1      12.004  14.113  12.324  1.00  0.00     0.206 HD
HETATM   19  C7  UNL     1      13.657  11.636  11.379  1.00  0.00     0.705 A 
ATOM     20  H6  UNL     1      13.406  13.467  10.343  1.00  0.00     0.206 HD
HETATM   21  N8  UNL     1      13.180  11.221  12.566  1.00  0.00    -0.020 N 
ATOM     22  H8  UNL     1      13.353  10.310  12.993  1.00  0.00     0.203 HD
BRANCH  19  23
HETATM   23  N7  UNL     1      14.422  10.930  10.585  1.00  0.00    -0.233 N 
ATOM     24  H72 UNL     1      14.322   9.931  10.409  1.00  0.00     0.174 HD
ATOM     25  H71 UNL     1      15.213  11.273  10.041  1.00  0.00     0.174 HD
ENDBRANCH  19  23
ENDBRANCH   1  15
TORSDOF 6
ENDMDL
MODEL 3
REMARK VINA RESULT: -7.217457989      5.291      7.976
REMARK  6 active torsions:
REMARK  status: ('A' for Active; 'I' for Inactive)
REMARK    1  A    between atoms: N1_1  and  C1_4 
REMARK    2  A    between atoms: N3_10  and  C4_11 
REMARK    3  A    between atoms: C4_11  and  C5_12 
REMARK    4  A    between atoms: C5_12  and  N4_13 
REMARK    5  A    between atoms: N4_13  and  C6_15 
REMARK    6  A    between atoms: C7_20  and  N7_21 
ROOT
HETATM    1  N4  UNL     1      14.987  10.183  12.704  1.00  0.00    -0.223 N 
ATOM      2  H4  UNL     1      15.547  10.479  13.503  1.00  0.00     0.177 HD
ENDROOT
BRANCH   1   3
HETATM    3  C5  UNL     1      15.162   8.852  12.174  1.00  0.00     0.158 C 
BRANCH   3   4
HETATM    4  C4  UNL     1      16.583   8.623  11.704  1.00  0.00     0.155 C 
BRANCH   4   5
HETATM    5  N3  UNL     1      16.758   8.891  10.313  1.00  0.00    -0.286 N 
HETATM    6  C1  UNL     1      16.694   7.982   9.202  1.00  0.00     0.099 C 
HETATM    7  C2  UNL     1      16.689   8.794   7.986  1.00  0.00     0.200 C 
HETATM    8  N2  UNL     1      17.149  10.093   8.388  1.00  0.00    -0.336 N 
HETATM    9  C3  UNL     1      17.041  10.194   9.788  1.00  0.00     0.324 C 
ATOM     10  H2  UNL     1      17.496  10.822   7.763  1.00  0.00     0.164 HD
HETATM   11  O1  UNL     1      17.177  11.275  10.437  1.00  0.00    -0.247 OA
BRANCH   6  12
HETATM   12  N1  UNL     1      16.652   6.709   9.315  1.00  0.00    -0.387 N 
ATOM     13  H12 UNL     1      15.801   6.176   9.490  1.00  0.00     0.157 HD
ATOM     14  H11 UNL     1      17.418   6.037   9.253  1.00  0.00     0.157 HD
ENDBRANCH   6  12
ENDBRANCH   4   5
ENDBRANCH   3   4
ENDBRANCH   1   3
BRANCH   1  15
HETATM   15  C6  UNL     1      14.125  11.020  12.181  1.00  0.00     0.707 A 
HETATM   16  N5  UNL     1      14.314  11.891  11.174  1.00  0.00    -0.117 N 
HETATM   17  N6  UNL     1      13.205  12.568  10.927  1.00  0.00    -0.118 N 
ATOM     18  H5  UNL     1      15.192  12.013  10.669  1.00  0.00     0.206 HD
HETATM   19  C7  UNL     1      12.280  12.121  11.796  1.00  0.00     0.705 A 
ATOM     20  H6  UNL     1      13.076  13.288  10.217  1.00  0.00     0.206 HD
HETATM   21  N8  UNL     1      12.845  11.173  12.564  1.00  0.00    -0.020 N 
ATOM     22  H8  UNL     1      12.381  10.656  13.312  1.00  0.00     0.203 HD
BRANCH  19  23
HETATM   23  N7  UNL     1      11.040  12.528  11.892  1.00  0.00    -0.233 N 
ATOM     24  H72 UNL     1      10.513  12.987  11.149  1.00  0.00     0.174 HD
ATOM     25  H71 UNL     1      10.435  12.446  12.709  1.00  0.00     0.174 HD
ENDBRANCH  19  23
ENDBRANCH   1  15
TORSDOF 6
ENDMDL
MODEL 4
REMARK VINA RESULT: -7.127082611      5.352      8.003
REMARK  6 active torsions:
REMARK  status: ('A' for Active; 'I' for Inactive)
REMARK    1  A    between atoms: N1_1  and  C1_4 
REMARK    2  A    between atoms: N3_10  and  C4_11 
REMARK    3  A    between atoms: C4_11  and  C5_12 
REMARK    4  A    between atoms: C5_12  and  N4_13 
REMARK    5  A    between atoms: N4_13  and  C6_15 
REMARK    6  A    between atoms: C7_20  and  N7_21 
ROOT
HETATM    1  N4  UNL     1      14.971  10.130  12.648  1.00  0.00    -0.223 N 
ATOM      2  H4  UNL     1      15.470  10.362  13.506  1.00  0.00     0.177 HD
ENDROOT
BRANCH   1   3
HETATM    3  C5  UNL     1      15.215   8.856  12.013  1.00  0.00     0.158 C 
BRANCH   3   4
HETATM    4  C4  UNL     1      16.613   8.780  11.438  1.00  0.00     0.155 C 
BRANCH   4   5
HETATM    5  N3  UNL     1      16.630   8.827  10.011  1.00  0.00    -0.286 N 
HETATM    6  C1  UNL     1      16.976   9.920   9.146  1.00  0.00     0.099 C 
HETATM    7  C2  UNL     1      17.076   9.379   7.792  1.00  0.00     0.200 C 
HETATM    8  N2  UNL     1      16.407   8.109   7.834  1.00  0.00    -0.336 N 
HETATM    9  C3  UNL     1      16.280   7.714   9.180  1.00  0.00     0.324 C 
ATOM     10  H2  UNL     1      16.079   7.582   7.024  1.00  0.00     0.164 HD
HETATM   11  O1  UNL     1      15.914   6.557   9.551  1.00  0.00    -0.247 OA
BRANCH   6  12
HETATM   12  N1  UNL     1      17.151  11.124   9.542  1.00  0.00    -0.387 N 
ATOM     13  H12 UNL     1      16.475  11.876   9.411  1.00  0.00     0.157 HD
ATOM     14  H11 UNL     1      17.952  11.525  10.030  1.00  0.00     0.157 HD
ENDBRANCH   6  12
ENDBRANCH   4   5
ENDBRANCH   3   4
ENDBRANCH   1   3
BRANCH   1  15
HETATM   15  C6  UNL     1      14.122  10.993  12.146  1.00  0.00     0.707 A 
HETATM   16  N5  UNL     1      14.320  11.872  11.147  1.00  0.00    -0.117 N 
HETATM   17  N6  UNL     1      13.224  12.577  10.923  1.00  0.00    -0.118 N 
ATOM     18  H5  UNL     1      15.194  11.980  10.633  1.00  0.00     0.206 HD
HETATM   19  C7  UNL     1      12.300  12.142  11.798  1.00  0.00     0.705 A 
ATOM     20  H6  UNL     1      13.104  13.309  10.223  1.00  0.00     0.206 HD
HETATM   21  N8  UNL     1      12.852  11.171  12.547  1.00  0.00    -0.020 N 
ATOM     22  H8  UNL     1      12.384  10.656  13.294  1.00  0.00     0.203 HD
BRANCH  19  23
HETATM   23  N7  UNL     1      11.071  12.577  11.914  1.00  0.00    -0.233 N 
ATOM     24  H72 UNL     1      10.259  12.175  11.446  1.00  0.00     0.174 HD
ATOM     25  H71 UNL     1      10.757  13.366  12.479  1.00  0.00     0.174 HD
ENDBRANCH  19  23
ENDBRANCH   1  15
TORSDOF 6
ENDMDL
MODEL 5
REMARK VINA RESULT: -7.109536099      5.269      7.970
REMARK  6 active torsions:
REMARK  status: ('A' for Active; 'I' for Inactive)
REMARK    1  A    between atoms: N1_1  and  C1_4 
REMARK    2  A    between atoms: N3_10  and  C4_11 
REMARK    3  A    between atoms: C4_11  and  C5_12 
REMARK    4  A    between atoms: C5_12  and  N4_13 
REMARK    5  A    between atoms: N4_13  and  C6_15 
REMARK    6  A    between atoms: C7_20  and  N7_21 
ROOT
HETATM    1  N4  UNL     1      14.880  11.390  10.903  1.00  0.00    -0.223 N 
ATOM      2  H4  UNL     1      15.190  11.691   9.979  1.00  0.00     0.177 HD
ENDROOT
BRANCH   1   3
HETATM    3  C5  UNL     1      15.711  10.490  11.667  1.00  0.00     0.158 C 
BRANCH   3   4
HETATM    4  C4  UNL     1      16.917  10.037  10.872  1.00  0.00     0.155 C 
BRANCH   4   5
HETATM    5  N3  UNL     1      16.590   9.080   9.864  1.00  0.00    -0.286 N 
HETATM    6  C1  UNL     1      16.090   7.742  10.017  1.00  0.00     0.099 C 
HETATM    7  C2  UNL     1      15.683   7.284   8.689  1.00  0.00     0.200 C 
HETATM    8  N2  UNL     1      16.315   8.181   7.762  1.00  0.00    -0.336 N 
HETATM    9  C3  UNL     1      16.723   9.333   8.461  1.00  0.00     0.324 C 
ATOM     10  H2  UNL     1      16.445   8.011   6.764  1.00  0.00     0.164 HD
HETATM   11  O1  UNL     1      17.133  10.396   7.903  1.00  0.00    -0.247 OA
BRANCH   6  12
HETATM   12  N1  UNL     1      16.034   7.116  11.131  1.00  0.00    -0.387 N 
ATOM     13  H12 UNL     1      16.528   6.246  11.326  1.00  0.00     0.157 HD
ATOM     14  H11 UNL     1      15.515   7.360  11.975  1.00  0.00     0.157 HD
ENDBRANCH   6  12
ENDBRANCH   4   5
ENDBRANCH   3   4
ENDBRANCH   1   3
BRANCH   1  15
HETATM   15  C6  UNL     1      13.737  11.829  11.370  1.00  0.00     0.707 A 
HETATM   16  N5  UNL     1      13.199  13.055  11.237  1.00  0.00    -0.117 N 
HETATM   17  N6  UNL     1      12.029  13.118  11.849  1.00  0.00    -0.118 N 
ATOM     18  H5  UNL     1      13.633  13.829  10.734  1.00  0.00     0.206 HD
HETATM   19  C7  UNL     1      11.808  11.905  12.387  1.00  0.00     0.705 A 
ATOM     20  H6  UNL     1      11.413  13.929  11.902  1.00  0.00     0.206 HD
HETATM   21  N8  UNL     1      12.857  11.116  12.093  1.00  0.00    -0.020 N 
ATOM     22  H8  UNL     1      12.966  10.141  12.371  1.00  0.00     0.203 HD
BRANCH  19  23
HETATM   23  N7  UNL     1      10.761  11.539  13.081  1.00  0.00    -0.233 N 
ATOM     24  H72 UNL     1       9.941  12.119  13.258  1.00  0.00     0.174 HD
ATOM     25  H71 UNL     1      10.618  10.637  13.534  1.00  0.00     0.174 HD
ENDBRANCH  19  23
ENDBRANCH   1  15
TORSDOF 6
ENDMDL
