MODEL 1
REMARK VINA RESULT: -5.353871962      0.000      0.000
REMARK  3 active torsions:
REMARK  status: ('A' for Active; 'I' for Inactive)
REMARK    1  A    between atoms: C8_8  and  C10_10 
REMARK    2  A    between atoms: C20_21  and  C21_22 
REMARK    3  A    between atoms: C21_22  and  C22_23 
ROOT
HETATM    1  C1  UNL     1       1.428  18.030  -4.917  1.00  0.00     0.015 C 
HETATM    2  C2  UNL     1       0.158  17.843  -5.130  1.00  0.00    -0.079 C 
HETATM    3  C3  UNL     1      -0.489  16.701  -4.473  1.00  0.00     0.039 C 
HETATM    4  C4  UNL     1      -1.874  16.879  -3.971  1.00  0.00    -0.002 C 
HETATM    5  C5  UNL     1      -1.964  17.313  -2.553  1.00  0.00    -0.005 C 
HETATM    6  C6  UNL     1      -3.166  16.698  -1.850  1.00  0.00     0.006 C 
HETATM    7  C7  UNL     1      -3.975  17.820  -1.277  1.00  0.00     0.011 C 
HETATM    8  C8  UNL     1      -3.074  19.008  -1.327  1.00  0.00    -0.031 C 
HETATM    9  C9  UNL     1      -3.771  20.318  -1.465  1.00  0.00     0.016 C 
HETATM   10  C11 UNL     1      -2.266  18.760  -2.578  1.00  0.00    -0.001 C 
HETATM   11  C12 UNL     1      -3.066  19.007  -3.845  1.00  0.00     0.011 C 
HETATM   12  C13 UNL     1      -2.681  17.900  -4.722  1.00  0.00    -0.004 C 
HETATM   13  C14 UNL     1      -2.004  18.143  -6.001  1.00  0.00     0.004 C 
HETATM   14  C15 UNL     1      -2.782  18.640  -7.160  1.00  0.00     0.007 C 
HETATM   15  C16 UNL     1      -1.692  18.760  -8.197  1.00  0.00     0.011 C 
HETATM   16  C17 UNL     1      -0.358  18.567  -7.479  1.00  0.00    -0.028 A 
HETATM   17  C18 UNL     1       0.604  17.677  -8.066  1.00  0.00     0.011 A 
HETATM   18  C19 UNL     1       0.803  19.192  -8.144  1.00  0.00     0.011 A 
HETATM   19  C20 UNL     1      -0.632  18.722  -6.005  1.00  0.00    -0.006 C 
ENDROOT
BRANCH   8  20
HETATM   20  C10 UNL     1      -2.110  19.010  -0.163  1.00  0.00     0.095 C 
HETATM   21  S1  UNL     1      -1.432  20.630   0.185  1.00  0.00    -0.097 SA
ENDBRANCH   8  20
BRANCH  19  22
HETATM   22  C21 UNL     1      -0.366  20.101  -5.619  1.00  0.00     0.015 C 
BRANCH  22  23
HETATM   23  C22 UNL     1       0.193  20.406  -4.265  1.00  0.00    -0.004 C 
HETATM   24  C23 UNL     1       0.687  21.864  -4.363  1.00  0.00     0.005 C 
ENDBRANCH  22  23
ENDBRANCH  19  22
TORSDOF 3
ENDMDL
MODEL 2
REMARK VINA RESULT: -5.184636320      1.469      2.369
REMARK  3 active torsions:
REMARK  status: ('A' for Active; 'I' for Inactive)
REMARK    1  A    between atoms: C8_8  and  C10_10 
REMARK    2  A    between atoms: C20_21  and  C21_22 
REMARK    3  A    between atoms: C21_22  and  C22_23 
ROOT
HETATM    1  C1  UNL     1      -0.338  16.430  -6.066  1.00  0.00     0.015 C 
HETATM    2  C2  UNL     1      -0.731  17.651  -5.842  1.00  0.00    -0.079 C 
HETATM    3  C3  UNL     1      -2.174  17.911  -5.789  1.00  0.00     0.039 C 
HETATM    4  C4  UNL     1      -2.669  18.896  -4.796  1.00  0.00    -0.002 C 
HETATM    5  C5  UNL     1      -3.071  18.307  -3.493  1.00  0.00    -0.005 C 
HETATM    6  C6  UNL     1      -4.263  19.035  -2.889  1.00  0.00     0.006 C 
HETATM    7  C7  UNL     1      -3.869  19.480  -1.515  1.00  0.00     0.011 C 
HETATM    8  C8  UNL     1      -2.630  18.710  -1.201  1.00  0.00    -0.031 C 
HETATM    9  C9  UNL     1      -1.688  19.391  -0.270  1.00  0.00     0.016 C 
HETATM   10  C11 UNL     1      -1.966  18.587  -2.551  1.00  0.00    -0.001 C 
HETATM   11  C12 UNL     1      -1.335  19.890  -3.009  1.00  0.00     0.011 C 
HETATM   12  C13 UNL     1      -1.677  19.962  -4.431  1.00  0.00    -0.004 C 
HETATM   13  C14 UNL     1      -0.635  19.968  -5.464  1.00  0.00     0.004 C 
HETATM   14  C15 UNL     1       0.151  21.201  -5.707  1.00  0.00     0.007 C 
HETATM   15  C16 UNL     1       1.082  20.728  -6.797  1.00  0.00     0.011 C 
HETATM   16  C17 UNL     1       0.923  19.213  -6.905  1.00  0.00    -0.028 A 
HETATM   17  C18 UNL     1       0.767  18.641  -8.213  1.00  0.00     0.011 A 
HETATM   18  C19 UNL     1       2.092  18.503  -7.461  1.00  0.00     0.011 A 
HETATM   19  C20 UNL     1       0.215  18.761  -5.653  1.00  0.00    -0.006 C 
ENDROOT
BRANCH   8  20
HETATM   20  C10 UNL     1      -2.962  17.311  -0.735  1.00  0.00     0.095 C 
HETATM   21  S1  UNL     1      -1.717  16.618   0.350  1.00  0.00    -0.097 SA
ENDBRANCH   8  20
BRANCH  19  22
HETATM   22  C21 UNL     1       1.210  18.345  -4.675  1.00  0.00     0.015 C 
BRANCH  22  23
HETATM   23  C22 UNL     1       2.508  19.083  -4.565  1.00  0.00    -0.004 C 
HETATM   24  C23 UNL     1       2.351  19.967  -3.310  1.00  0.00     0.005 C 
ENDBRANCH  22  23
ENDBRANCH  19  22
TORSDOF 3
ENDMDL
MODEL 3
REMARK VINA RESULT: -5.129892932      1.847      5.744
REMARK  3 active torsions:
REMARK  status: ('A' for Active; 'I' for Inactive)
REMARK    1  A    between atoms: C8_8  and  C10_10 
REMARK    2  A    between atoms: C20_21  and  C21_22 
REMARK    3  A    between atoms: C21_22  and  C22_23 
ROOT
HETATM    1  C1  UNL     1      -4.773  20.409  -3.640  1.00  0.00     0.015 C 
HETATM    2  C2  UNL     1      -4.020  19.346  -3.659  1.00  0.00    -0.079 C 
HETATM    3  C3  UNL     1      -3.876  18.629  -4.932  1.00  0.00     0.039 C 
HETATM    4  C4  UNL     1      -2.550  18.050  -5.259  1.00  0.00    -0.002 C 
HETATM    5  C5  UNL     1      -1.667  18.943  -6.052  1.00  0.00    -0.005 C 
HETATM    6  C6  UNL     1      -0.814  18.160  -7.040  1.00  0.00     0.006 C 
HETATM    7  C7  UNL     1       0.617  18.514  -6.778  1.00  0.00     0.011 C 
HETATM    8  C8  UNL     1       0.561  19.735  -5.923  1.00  0.00    -0.031 C 
HETATM    9  C9  UNL     1       1.715  19.904  -4.996  1.00  0.00     0.016 C 
HETATM   10  C11 UNL     1      -0.685  19.509  -5.102  1.00  0.00    -0.001 C 
HETATM   11  C12 UNL     1      -0.486  18.462  -4.020  1.00  0.00     0.011 C 
HETATM   12  C13 UNL     1      -1.722  17.678  -4.062  1.00  0.00    -0.004 C 
HETATM   13  C14 UNL     1      -2.622  17.616  -2.905  1.00  0.00     0.004 C 
HETATM   14  C15 UNL     1      -2.262  16.773  -1.740  1.00  0.00     0.007 C 
HETATM   15  C16 UNL     1      -3.434  17.044  -0.827  1.00  0.00     0.011 C 
HETATM   16  C17 UNL     1      -4.226  18.200  -1.435  1.00  0.00    -0.028 A 
HETATM   17  C18 UNL     1      -5.652  18.067  -1.528  1.00  0.00     0.011 A 
HETATM   18  C19 UNL     1      -5.028  18.980  -0.471  1.00  0.00     0.011 A 
HETATM   19  C20 UNL     1      -3.331  18.847  -2.461  1.00  0.00    -0.006 C 
ENDROOT
BRANCH   8  20
HETATM   20  C10 UNL     1       0.330  20.974  -6.757  1.00  0.00     0.095 C 
HETATM   21  S1  UNL     1       0.530  22.493  -5.830  1.00  0.00    -0.097 SA
ENDBRANCH   8  20
BRANCH  19  22
HETATM   22  C21 UNL     1      -2.636  19.966  -1.840  1.00  0.00     0.015 C 
BRANCH  22  23
HETATM   23  C22 UNL     1      -1.402  19.726  -1.028  1.00  0.00    -0.004 C 
HETATM   24  C23 UNL     1      -1.621  20.534   0.268  1.00  0.00     0.005 C 
ENDBRANCH  22  23
ENDBRANCH  19  22
TORSDOF 3
ENDMDL
MODEL 4
REMARK VINA RESULT: -4.682368205      1.776      3.684
REMARK  3 active torsions:
REMARK  status: ('A' for Active; 'I' for Inactive)
REMARK    1  A    between atoms: C8_8  and  C10_10 
REMARK    2  A    between atoms: C20_21  and  C21_22 
REMARK    3  A    between atoms: C21_22  and  C22_23 
ROOT
HETATM    1  C1  UNL     1      -0.367  22.882  -5.101  1.00  0.00     0.015 C 
HETATM    2  C2  UNL     1       0.093  21.811  -4.522  1.00  0.00    -0.079 C 
HETATM    3  C3  UNL     1       0.262  21.836  -3.064  1.00  0.00     0.039 C 
HETATM    4  C4  UNL     1      -0.052  20.601  -2.304  1.00  0.00    -0.002 C 
HETATM    5  C5  UNL     1      -1.447  20.526  -1.801  1.00  0.00    -0.005 C 
HETATM    6  C6  UNL     1      -1.522  19.833  -0.448  1.00  0.00     0.006 C 
HETATM    7  C7  UNL     1      -2.490  18.698  -0.577  1.00  0.00     0.011 C 
HETATM    8  C8  UNL     1      -3.224  18.960  -1.849  1.00  0.00    -0.031 C 
HETATM    9  C9  UNL     1      -3.722  17.743  -2.548  1.00  0.00     0.016 C 
HETATM   10  C11 UNL     1      -2.170  19.612  -2.711  1.00  0.00    -0.001 C 
HETATM   11  C12 UNL     1      -1.142  18.618  -3.223  1.00  0.00     0.011 C 
HETATM   12  C13 UNL     1       0.130  19.329  -3.083  1.00  0.00    -0.004 C 
HETATM   13  C14 UNL     1       0.959  19.643  -4.253  1.00  0.00     0.004 C 
HETATM   14  C15 UNL     1       1.759  18.572  -4.893  1.00  0.00     0.007 C 
HETATM   15  C16 UNL     1       2.395  19.340  -6.027  1.00  0.00     0.011 C 
HETATM   16  C17 UNL     1       1.715  20.707  -6.089  1.00  0.00    -0.028 A 
HETATM   17  C18 UNL     1       2.547  21.872  -6.200  1.00  0.00     0.011 A 
HETATM   18  C19 UNL     1       1.759  21.364  -7.410  1.00  0.00     0.011 A 
HETATM   19  C20 UNL     1       0.451  20.599  -5.275  1.00  0.00    -0.006 C 
ENDROOT
BRANCH   8  20
HETATM   20  C10 UNL     1      -4.325  19.975  -1.643  1.00  0.00     0.095 C 
HETATM   21  S1  UNL     1      -5.720  19.729  -2.739  1.00  0.00    -0.097 SA
ENDBRANCH   8  20
BRANCH  19  22
HETATM   22  C21 UNL     1      -0.655  20.276  -6.164  1.00  0.00     0.015 C 
BRANCH  22  23
HETATM   23  C22 UNL     1      -0.814  18.884  -6.688  1.00  0.00    -0.004 C 
HETATM   24  C23 UNL     1      -2.340  18.659  -6.750  1.00  0.00     0.005 C 
ENDBRANCH  22  23
ENDBRANCH  19  22
TORSDOF 3
ENDMDL
MODEL 5
REMARK VINA RESULT: -4.513367150      2.163      5.912
REMARK  3 active torsions:
REMARK  status: ('A' for Active; 'I' for Inactive)
REMARK    1  A    between atoms: C8_8  and  C10_10 
REMARK    2  A    between atoms: C20_21  and  C21_22 
REMARK    3  A    between atoms: C21_22  and  C22_23 
ROOT
HETATM    1  C1  UNL     1      -0.943  18.076  -0.003  1.00  0.00     0.015 C 
HETATM    2  C2  UNL     1      -1.574  18.897  -0.792  1.00  0.00    -0.079 C 
HETATM    3  C3  UNL     1      -1.132  20.296  -0.825  1.00  0.00     0.039 C 
HETATM    4  C4  UNL     1      -1.148  21.002  -2.131  1.00  0.00    -0.002 C 
HETATM    5  C5  UNL     1       0.131  20.933  -2.883  1.00  0.00    -0.005 C 
HETATM    6  C6  UNL     1       0.401  22.217  -3.655  1.00  0.00     0.006 C 
HETATM    7  C7  UNL     1       0.608  21.846  -5.089  1.00  0.00     0.011 C 
HETATM    8  C8  UNL     1       0.820  20.369  -5.078  1.00  0.00    -0.031 C 
HETATM    9  C9  UNL     1       0.393  19.664  -6.318  1.00  0.00     0.016 C 
HETATM   10  C11 UNL     1      -0.061  19.916  -3.939  1.00  0.00    -0.001 C 
HETATM   11  C12 UNL     1      -1.536  19.948  -4.299  1.00  0.00     0.011 C 
HETATM   12  C13 UNL     1      -2.176  20.491  -3.100  1.00  0.00    -0.004 C 
HETATM   13  C14 UNL     1      -3.151  19.705  -2.335  1.00  0.00     0.004 C 
HETATM   14  C15 UNL     1      -4.529  19.538  -2.856  1.00  0.00     0.007 C 
HETATM   15  C16 UNL     1      -5.129  18.664  -1.781  1.00  0.00     0.011 C 
HETATM   16  C17 UNL     1      -3.986  18.202  -0.880  1.00  0.00    -0.028 A 
HETATM   17  C18 UNL     1      -4.164  18.298   0.541  1.00  0.00     0.011 A 
HETATM   18  C19 UNL     1      -4.235  16.939  -0.157  1.00  0.00     0.011 A 
HETATM   19  C20 UNL     1      -2.706  18.472  -1.630  1.00  0.00    -0.006 C 
ENDROOT
BRANCH   8  20
HETATM   20  C10 UNL     1       2.245  20.027  -4.705  1.00  0.00     0.095 C 
HETATM   21  S1  UNL     1       2.620  18.285  -4.887  1.00  0.00    -0.097 SA
ENDBRANCH   8  20
BRANCH  19  22
HETATM   22  C21 UNL     1      -2.313  17.264  -2.341  1.00  0.00     0.015 C 
BRANCH  22  23
HETATM   23  C22 UNL     1      -2.326  17.238  -3.837  1.00  0.00    -0.004 C 
HETATM   24  C23 UNL     1      -1.365  16.091  -4.217  1.00  0.00     0.005 C 
ENDBRANCH  22  23
ENDBRANCH  19  22
TORSDOF 3
ENDMDL
