MODEL 1
REMARK VINA RESULT: -5.745900099      0.000      0.000
REMARK  2 active torsions:
REMARK  status: ('A' for Active; 'I' for Inactive)
REMARK       I    between atoms: C1_2  and  N1_3 
REMARK    1  A    between atoms: C1_2  and  C14_17 
REMARK    2  A    between atoms: N1_3  and  C2_5 
ROOT
HETATM    1  O1  UNL     1      -1.178  20.439  -2.736  1.00  0.00    -0.273 OA
HETATM    2  C1  UNL     1      -1.072  19.729  -3.792  1.00  0.00     0.226 C 
HETATM    3  N1  UNL     1      -2.217  19.030  -4.251  1.00  0.00    -0.356 N 
ATOM      4  H1  UNL     1      -2.142  18.459  -5.094  1.00  0.00     0.162 HD
ENDROOT
BRANCH   3   5
HETATM    5  C2  UNL     1      -3.488  19.099  -3.562  1.00  0.00     0.084 C 
HETATM    6  C3  UNL     1      -4.646  18.894  -4.535  1.00  0.00     0.025 C 
HETATM    7  C4  UNL     1      -5.633  20.036  -4.485  1.00  0.00     0.002 C 
HETATM    8  C5  UNL     1      -7.036  19.655  -4.822  1.00  0.00     0.000 C 
HETATM    9  C6  UNL     1      -8.036  20.299  -3.861  1.00  0.00     0.000 C 
HETATM   10  C7  UNL     1      -8.573  19.299  -2.863  1.00  0.00     0.000 C 
HETATM   11  C8  UNL     1      -8.292  19.696  -1.439  1.00  0.00     0.000 C 
HETATM   12  C9  UNL     1      -7.423  18.693  -0.710  1.00  0.00     0.000 C 
HETATM   13  C10 UNL     1      -6.091  19.265  -0.321  1.00  0.00     0.000 C 
HETATM   14  C11 UNL     1      -4.965  18.263  -0.441  1.00  0.00     0.000 C 
HETATM   15  C12 UNL     1      -4.802  17.769  -1.861  1.00  0.00     0.002 C 
HETATM   16  C13 UNL     1      -3.474  18.094  -2.447  1.00  0.00     0.025 C 
ENDBRANCH   3   5
BRANCH   2  17
HETATM   17  C14 UNL     1       0.212  19.651  -4.500  1.00  0.00     0.042 C 
HETATM   18  C15 UNL     1       0.374  18.283  -5.111  1.00  0.00     0.024 C 
HETATM   19  C16 UNL     1       1.702  18.183  -5.825  1.00  0.00    -0.013 C 
HETATM   20  C17 UNL     1       2.868  18.539  -4.955  1.00  0.00     0.009 C 
HETATM   21  C21 UNL     1       1.639  19.163  -6.989  1.00  0.00     0.009 C 
HETATM   22  C18 UNL     1       2.656  19.929  -4.392  1.00  0.00    -0.013 C 
HETATM   23  C19 UNL     1       2.586  20.929  -5.517  1.00  0.00     0.009 C 
HETATM   24  C23 UNL     1       1.387  19.935  -3.596  1.00  0.00     0.024 C 
HETATM   25  C20 UNL     1       1.444  20.551  -6.450  1.00  0.00    -0.013 C 
HETATM   26  C22 UNL     1       0.173  20.639  -5.665  1.00  0.00     0.024 C 
ENDBRANCH   2  17
TORSDOF 2
ENDMDL
MODEL 2
REMARK VINA RESULT: -5.665927822      0.117      1.436
REMARK  2 active torsions:
REMARK  status: ('A' for Active; 'I' for Inactive)
REMARK       I    between atoms: C1_2  and  N1_3 
REMARK    1  A    between atoms: C1_2  and  C14_17 
REMARK    2  A    between atoms: N1_3  and  C2_5 
ROOT
HETATM    1  O1  UNL     1      -1.158  20.406  -2.716  1.00  0.00    -0.273 OA
HETATM    2  C1  UNL     1      -1.066  19.741  -3.803  1.00  0.00     0.226 C 
HETATM    3  N1  UNL     1      -2.222  19.077  -4.285  1.00  0.00    -0.356 N 
ATOM      4  H1  UNL     1      -2.159  18.542  -5.152  1.00  0.00     0.162 HD
ENDROOT
BRANCH   3   5
HETATM    5  C2  UNL     1      -3.489  19.133  -3.586  1.00  0.00     0.084 C 
HETATM    6  C3  UNL     1      -4.652  18.915  -4.550  1.00  0.00     0.025 C 
HETATM    7  C4  UNL     1      -5.651  20.046  -4.493  1.00  0.00     0.002 C 
HETATM    8  C5  UNL     1      -7.052  19.650  -4.819  1.00  0.00     0.000 C 
HETATM    9  C6  UNL     1      -8.052  20.284  -3.851  1.00  0.00     0.000 C 
HETATM   10  C7  UNL     1      -8.570  19.279  -2.848  1.00  0.00     0.000 C 
HETATM   11  C8  UNL     1      -8.283  19.680  -1.427  1.00  0.00     0.000 C 
HETATM   12  C9  UNL     1      -7.398  18.686  -0.704  1.00  0.00     0.000 C 
HETATM   13  C10 UNL     1      -6.069  19.272  -0.325  1.00  0.00     0.000 C 
HETATM   14  C11 UNL     1      -4.933  18.282  -0.453  1.00  0.00     0.000 C 
HETATM   15  C12 UNL     1      -4.776  17.789  -1.874  1.00  0.00     0.002 C 
HETATM   16  C13 UNL     1      -3.456  18.128  -2.471  1.00  0.00     0.025 C 
ENDBRANCH   3   5
BRANCH   2  17
HETATM   17  C14 UNL     1       0.213  19.677  -4.520  1.00  0.00     0.042 C 
HETATM   18  C15 UNL     1       1.353  19.791  -3.541  1.00  0.00     0.024 C 
HETATM   19  C16 UNL     1       2.675  19.747  -4.270  1.00  0.00    -0.013 C 
HETATM   20  C17 UNL     1       2.782  20.769  -5.360  1.00  0.00     0.009 C 
HETATM   21  C21 UNL     1       2.781  18.359  -4.885  1.00  0.00     0.009 C 
HETATM   22  C18 UNL     1       1.625  20.588  -6.320  1.00  0.00    -0.013 C 
HETATM   23  C19 UNL     1       1.695  19.220  -6.949  1.00  0.00     0.009 C 
HETATM   24  C23 UNL     1       0.343  20.759  -5.564  1.00  0.00     0.024 C 
HETATM   25  C20 UNL     1       1.650  18.164  -5.853  1.00  0.00    -0.013 C 
HETATM   26  C22 UNL     1       0.332  18.293  -5.157  1.00  0.00     0.024 C 
ENDBRANCH   2  17
TORSDOF 2
ENDMDL
MODEL 3
REMARK VINA RESULT: -5.506055140      0.080      1.486
REMARK  2 active torsions:
REMARK  status: ('A' for Active; 'I' for Inactive)
REMARK       I    between atoms: C1_2  and  N1_3 
REMARK    1  A    between atoms: C1_2  and  C14_17 
REMARK    2  A    between atoms: N1_3  and  C2_5 
ROOT
HETATM    1  O1  UNL     1      -1.190  20.380  -2.754  1.00  0.00    -0.273 OA
HETATM    2  C1  UNL     1      -1.101  19.688  -3.824  1.00  0.00     0.226 C 
HETATM    3  N1  UNL     1      -2.259  19.015  -4.288  1.00  0.00    -0.356 N 
ATOM      4  H1  UNL     1      -2.198  18.459  -5.142  1.00  0.00     0.162 HD
ENDROOT
BRANCH   3   5
HETATM    5  C2  UNL     1      -3.525  19.091  -3.589  1.00  0.00     0.084 C 
HETATM    6  C3  UNL     1      -4.690  18.879  -4.552  1.00  0.00     0.025 C 
HETATM    7  C4  UNL     1      -5.676  20.022  -4.503  1.00  0.00     0.002 C 
HETATM    8  C5  UNL     1      -7.082  19.640  -4.826  1.00  0.00     0.000 C 
HETATM    9  C6  UNL     1      -8.074  20.292  -3.863  1.00  0.00     0.000 C 
HETATM   10  C7  UNL     1      -8.603  19.301  -2.852  1.00  0.00     0.000 C 
HETATM   11  C8  UNL     1      -8.312  19.710  -1.434  1.00  0.00     0.000 C 
HETATM   12  C9  UNL     1      -7.438  18.711  -0.704  1.00  0.00     0.000 C 
HETATM   13  C10 UNL     1      -6.102  19.285  -0.329  1.00  0.00     0.000 C 
HETATM   14  C11 UNL     1      -4.978  18.281  -0.450  1.00  0.00     0.000 C 
HETATM   15  C12 UNL     1      -4.827  17.775  -1.867  1.00  0.00     0.002 C 
HETATM   16  C13 UNL     1      -3.503  18.095  -2.467  1.00  0.00     0.025 C 
ENDBRANCH   3   5
BRANCH   2  17
HETATM   17  C14 UNL     1       0.177  19.603  -4.541  1.00  0.00     0.042 C 
HETATM   18  C15 UNL     1       0.225  20.653  -5.622  1.00  0.00     0.024 C 
HETATM   19  C16 UNL     1       1.528  20.562  -6.381  1.00  0.00    -0.013 C 
HETATM   20  C17 UNL     1       1.797  19.196  -6.930  1.00  0.00     0.009 C 
HETATM   21  C21 UNL     1       2.628  20.921  -5.392  1.00  0.00     0.009 C 
HETATM   22  C18 UNL     1       1.758  18.193  -5.795  1.00  0.00    -0.013 C 
HETATM   23  C19 UNL     1       2.834  18.517  -4.792  1.00  0.00     0.009 C 
HETATM   24  C23 UNL     1       0.404  18.244  -5.157  1.00  0.00     0.024 C 
HETATM   25  C20 UNL     1       2.616  19.929  -4.265  1.00  0.00    -0.013 C 
HETATM   26  C22 UNL     1       1.297  19.947  -3.560  1.00  0.00     0.024 C 
ENDBRANCH   2  17
TORSDOF 2
ENDMDL
MODEL 4
REMARK VINA RESULT: -4.738782382      1.036      1.518
REMARK  2 active torsions:
REMARK  status: ('A' for Active; 'I' for Inactive)
REMARK       I    between atoms: C1_2  and  N1_3 
REMARK    1  A    between atoms: C1_2  and  C14_17 
REMARK    2  A    between atoms: N1_3  and  C2_5 
ROOT
HETATM    1  O1  UNL     1      -2.541  18.379  -5.309  1.00  0.00    -0.273 OA
HETATM    2  C1  UNL     1      -1.700  18.995  -4.570  1.00  0.00     0.226 C 
HETATM    3  N1  UNL     1      -2.168  19.587  -3.370  1.00  0.00    -0.356 N 
ATOM      4  H1  UNL     1      -1.504  20.082  -2.773  1.00  0.00     0.162 HD
ENDROOT
BRANCH   3   5
HETATM    5  C2  UNL     1      -3.556  19.513  -2.965  1.00  0.00     0.084 C 
HETATM    6  C3  UNL     1      -4.465  19.314  -4.175  1.00  0.00     0.025 C 
HETATM    7  C4  UNL     1      -5.533  20.379  -4.260  1.00  0.00     0.002 C 
HETATM    8  C5  UNL     1      -6.798  19.935  -4.914  1.00  0.00     0.000 C 
HETATM    9  C6  UNL     1      -8.026  20.427  -4.148  1.00  0.00     0.000 C 
HETATM   10  C7  UNL     1      -8.673  19.313  -3.357  1.00  0.00     0.000 C 
HETATM   11  C8  UNL     1      -8.729  19.606  -1.883  1.00  0.00     0.000 C 
HETATM   12  C9  UNL     1      -7.950  18.605  -1.055  1.00  0.00     0.000 C 
HETATM   13  C10 UNL     1      -6.781  19.230  -0.352  1.00  0.00     0.000 C 
HETATM   14  C11 UNL     1      -5.575  18.320  -0.297  1.00  0.00     0.000 C 
HETATM   15  C12 UNL     1      -5.080  17.959  -1.679  1.00  0.00     0.002 C 
HETATM   16  C13 UNL     1      -3.691  18.421  -1.945  1.00  0.00     0.025 C 
ENDBRANCH   3   5
BRANCH   2  17
HETATM   17  C14 UNL     1      -0.290  19.077  -4.970  1.00  0.00     0.042 C 
HETATM   18  C15 UNL     1      -0.193  19.528  -6.405  1.00  0.00     0.024 C 
HETATM   19  C16 UNL     1       1.254  19.596  -6.835  1.00  0.00    -0.013 C 
HETATM   20  C17 UNL     1       1.997  18.317  -6.609  1.00  0.00     0.009 C 
HETATM   21  C21 UNL     1       1.899  20.694  -6.000  1.00  0.00     0.009 C 
HETATM   22  C18 UNL     1       1.882  17.930  -5.149  1.00  0.00    -0.013 C 
HETATM   23  C19 UNL     1       2.508  18.997  -4.289  1.00  0.00     0.009 C 
HETATM   24  C23 UNL     1       0.431  17.761  -4.812  1.00  0.00     0.024 C 
HETATM   25  C20 UNL     1       1.807  20.323  -4.548  1.00  0.00    -0.013 C 
HETATM   26  C22 UNL     1       0.379  20.166  -4.132  1.00  0.00     0.024 C 
ENDBRANCH   2  17
TORSDOF 2
ENDMDL
MODEL 5
REMARK VINA RESULT: -4.223667156      1.597      3.007
REMARK  2 active torsions:
REMARK  status: ('A' for Active; 'I' for Inactive)
REMARK       I    between atoms: C1_2  and  N1_3 
REMARK    1  A    between atoms: C1_2  and  C14_17 
REMARK    2  A    between atoms: N1_3  and  C2_5 
ROOT
HETATM    1  O1  UNL     1      -3.453  18.501  -6.426  1.00  0.00    -0.273 OA
HETATM    2  C1  UNL     1      -2.560  18.592  -5.517  1.00  0.00     0.226 C 
HETATM    3  N1  UNL     1      -2.979  18.840  -4.185  1.00  0.00    -0.356 N 
ATOM      4  H1  UNL     1      -2.273  18.916  -3.452  1.00  0.00     0.162 HD
ENDROOT
BRANCH   3   5
HETATM    5  C2  UNL     1      -4.375  18.990  -3.833  1.00  0.00     0.084 C 
HETATM    6  C3  UNL     1      -4.531  19.307  -2.348  1.00  0.00     0.025 C 
HETATM    7  C4  UNL     1      -5.441  18.322  -1.653  1.00  0.00     0.002 C 
HETATM    8  C5  UNL     1      -6.178  18.882  -0.483  1.00  0.00     0.000 C 
HETATM    9  C6  UNL     1      -7.641  18.439  -0.480  1.00  0.00     0.000 C 
HETATM   10  C7  UNL     1      -8.563  19.556  -0.913  1.00  0.00     0.000 C 
HETATM   11  C8  UNL     1      -9.375  19.197  -2.128  1.00  0.00     0.000 C 
HETATM   12  C9  UNL     1      -9.094  20.103  -3.309  1.00  0.00     0.000 C 
HETATM   13  C10 UNL     1      -8.471  19.368  -4.459  1.00  0.00     0.000 C 
HETATM   14  C11 UNL     1      -7.432  20.191  -5.188  1.00  0.00     0.000 C 
HETATM   15  C12 UNL     1      -6.288  20.581  -4.280  1.00  0.00     0.002 C 
HETATM   16  C13 UNL     1      -4.975  20.039  -4.722  1.00  0.00     0.025 C 
ENDBRANCH   3   5
BRANCH   2  17
HETATM   17  C14 UNL     1      -1.141  18.443  -5.862  1.00  0.00     0.042 C 
HETATM   18  C15 UNL     1      -0.775  16.981  -5.890  1.00  0.00     0.024 C 
HETATM   19  C16 UNL     1       0.689  16.814  -6.223  1.00  0.00    -0.013 C 
HETATM   20  C17 UNL     1       1.592  17.590  -5.316  1.00  0.00     0.009 C 
HETATM   21  C21 UNL     1       0.866  17.324  -7.647  1.00  0.00     0.009 C 
HETATM   22  C18 UNL     1       1.190  19.050  -5.349  1.00  0.00    -0.013 C 
HETATM   23  C19 UNL     1       1.350  19.590  -6.746  1.00  0.00     0.009 C 
HETATM   24  C23 UNL     1      -0.234  19.164  -4.895  1.00  0.00     0.024 C 
HETATM   25  C20 UNL     1       0.485  18.775  -7.699  1.00  0.00    -0.013 C 
HETATM   26  C22 UNL     1      -0.940  18.962  -7.284  1.00  0.00     0.024 C 
ENDBRANCH   2  17
TORSDOF 2
ENDMDL
