MODEL 1
REMARK VINA RESULT: -7.933945355      0.000      0.000
REMARK  6 active torsions:
REMARK  status: ('A' for Active; 'I' for Inactive)
REMARK    1  A    between atoms: C3_3  and  C4_4 
REMARK    2  A    between atoms: C6_6  and  O1_7 
REMARK    3  A    between atoms: C12_14  and  C13_15 
REMARK    4  A    between atoms: C13_15  and  C15_17 
REMARK    5  A    between atoms: C15_17  and  C16_18 
REMARK    6  A    between atoms: C17_19  and  C18_20 
ROOT
HETATM    1  C1  UNL     1      -3.480  16.306  -9.088  1.00  0.00     0.112 C 
HETATM    2  C2  UNL     1      -2.638  16.739  -7.966  1.00  0.00    -0.110 C 
HETATM    3  C3  UNL     1      -1.946  17.096  -7.062  1.00  0.00    -0.096 C 
ENDROOT
BRANCH   3   4
HETATM    4  C4  UNL     1      -1.111  17.532  -5.977  1.00  0.00     0.030 C 
HETATM    5  C5  UNL     1      -1.537  16.964  -4.640  1.00  0.00     0.054 C 
HETATM    6  C6  UNL     1      -0.891  15.613  -4.613  1.00  0.00     0.120 C 
HETATM    7  C7  UNL     1       0.351  15.702  -5.437  1.00  0.00     0.038 C 
HETATM    8  C8  UNL     1       0.332  17.072  -6.120  1.00  0.00     0.013 C 
HETATM    9  C9  UNL     1       1.014  18.115  -5.374  1.00  0.00    -0.000 C 
HETATM   10  C10 UNL     1       2.420  18.430  -5.607  1.00  0.00     0.006 C 
HETATM   11  C22 UNL     1       0.377  19.381  -5.995  1.00  0.00    -0.035 C 
HETATM   12  C11 UNL     1       2.483  19.876  -5.147  1.00  0.00     0.006 C 
HETATM   13  C12 UNL     1       1.020  20.383  -5.117  1.00  0.00    -0.002 C 
HETATM   14  C23 UNL     1       0.851  19.593  -7.400  1.00  0.00     0.016 C 
HETATM   15  C24 UNL     1      -1.042  19.060  -5.846  1.00  0.00     0.033 C 
BRANCH   6  16
HETATM   16  O1  UNL     1      -1.808  14.708  -5.183  1.00  0.00    -0.396 OA
ATOM     17  H1  UNL     1      -1.585  14.629  -6.103  1.00  0.00     0.210 HD
ENDBRANCH   6  16
BRANCH  13  18
HETATM   18  C13 UNL     1       0.964  21.798  -5.613  1.00  0.00    -0.011 C 
HETATM   19  C14 UNL     1       2.333  22.287  -6.057  1.00  0.00     0.010 C 
BRANCH  18  20
HETATM   20  C15 UNL     1       0.469  22.686  -4.496  1.00  0.00     0.031 C 
BRANCH  20  21
HETATM   21  C16 UNL     1       0.129  21.887  -3.279  1.00  0.00    -0.029 C 
HETATM   22  C17 UNL     1      -1.138  21.667  -2.951  1.00  0.00    -0.022 C 
BRANCH  22  23
HETATM   23  C18 UNL     1      -1.505  20.886  -1.763  1.00  0.00    -0.034 C 
HETATM   24  C19 UNL     1      -0.528  19.737  -1.595  1.00  0.00     0.018 C 
HETATM   25  C20 UNL     1      -1.471  21.687  -0.481  1.00  0.00     0.018 C 
HETATM   26  C21 UNL     1      -2.871  20.295  -1.973  1.00  0.00     0.018 C 
ENDBRANCH  22  23
ENDBRANCH  20  21
ENDBRANCH  18  20
ENDBRANCH  13  18
ENDBRANCH   3   4
TORSDOF 6
ENDMDL
MODEL 2
REMARK VINA RESULT: -7.498325399      1.160      1.880
REMARK  6 active torsions:
REMARK  status: ('A' for Active; 'I' for Inactive)
REMARK    1  A    between atoms: C3_3  and  C4_4 
REMARK    2  A    between atoms: C6_6  and  O1_7 
REMARK    3  A    between atoms: C12_14  and  C13_15 
REMARK    4  A    between atoms: C13_15  and  C15_17 
REMARK    5  A    between atoms: C15_17  and  C16_18 
REMARK    6  A    between atoms: C17_19  and  C18_20 
ROOT
HETATM    1  C1  UNL     1      -3.257  16.526  -8.968  1.00  0.00     0.112 C 
HETATM    2  C2  UNL     1      -2.475  16.767  -7.748  1.00  0.00    -0.110 C 
HETATM    3  C3  UNL     1      -1.839  16.974  -6.760  1.00  0.00    -0.096 C 
ENDROOT
BRANCH   3   4
HETATM    4  C4  UNL     1      -1.077  17.231  -5.569  1.00  0.00     0.030 C 
HETATM    5  C5  UNL     1      -1.307  16.197  -4.487  1.00  0.00     0.054 C 
HETATM    6  C6  UNL     1      -0.375  15.087  -4.862  1.00  0.00     0.120 C 
HETATM    7  C7  UNL     1       0.779  15.703  -5.581  1.00  0.00     0.038 C 
HETATM    8  C8  UNL     1       0.425  17.176  -5.805  1.00  0.00     0.013 C 
HETATM    9  C9  UNL     1       0.887  18.063  -4.753  1.00  0.00    -0.000 C 
HETATM   10  C10 UNL     1       2.176  18.744  -4.835  1.00  0.00     0.006 C 
HETATM   11  C22 UNL     1      -0.042  19.281  -4.969  1.00  0.00    -0.035 C 
HETATM   12  C11 UNL     1       1.934  19.952  -3.947  1.00  0.00     0.006 C 
HETATM   13  C12 UNL     1       0.398  20.081  -3.805  1.00  0.00    -0.002 C 
HETATM   14  C23 UNL     1       0.311  20.017  -6.224  1.00  0.00     0.016 C 
HETATM   15  C24 UNL     1      -1.346  18.618  -4.969  1.00  0.00     0.033 C 
BRANCH   6  16
HETATM   16  O1  UNL     1      -1.090  14.219  -5.712  1.00  0.00    -0.396 OA
ATOM     17  H1  UNL     1      -1.917  14.643  -5.910  1.00  0.00     0.210 HD
ENDBRANCH   6  16
BRANCH  13  18
HETATM   18  C13 UNL     1       0.005  21.528  -3.839  1.00  0.00    -0.011 C 
HETATM   19  C14 UNL     1       1.223  22.437  -3.815  1.00  0.00     0.010 C 
BRANCH  18  20
HETATM   20  C15 UNL     1      -0.849  21.830  -2.630  1.00  0.00     0.031 C 
BRANCH  20  21
HETATM   21  C16 UNL     1      -1.234  20.576  -1.912  1.00  0.00    -0.029 C 
HETATM   22  C17 UNL     1      -2.492  20.154  -1.923  1.00  0.00    -0.022 C 
BRANCH  22  23
HETATM   23  C18 UNL     1      -2.902  18.927  -1.229  1.00  0.00    -0.034 C 
HETATM   24  C19 UNL     1      -4.378  19.013  -0.885  1.00  0.00     0.018 C 
HETATM   25  C20 UNL     1      -2.712  17.675  -2.054  1.00  0.00     0.018 C 
HETATM   26  C21 UNL     1      -2.140  18.821   0.063  1.00  0.00     0.018 C 
ENDBRANCH  22  23
ENDBRANCH  20  21
ENDBRANCH  18  20
ENDBRANCH  13  18
ENDBRANCH   3   4
TORSDOF 6
ENDMDL
MODEL 3
REMARK VINA RESULT: -6.798773392      2.208      4.611
REMARK  6 active torsions:
REMARK  status: ('A' for Active; 'I' for Inactive)
REMARK    1  A    between atoms: C3_3  and  C4_4 
REMARK    2  A    between atoms: C6_6  and  O1_7 
REMARK    3  A    between atoms: C12_14  and  C13_15 
REMARK    4  A    between atoms: C13_15  and  C15_17 
REMARK    5  A    between atoms: C15_17  and  C16_18 
REMARK    6  A    between atoms: C17_19  and  C18_20 
ROOT
HETATM    1  C1  UNL     1      -6.714  20.137  -2.926  1.00  0.00     0.112 C 
HETATM    2  C2  UNL     1      -5.332  19.638  -2.954  1.00  0.00    -0.110 C 
HETATM    3  C3  UNL     1      -4.215  19.222  -2.979  1.00  0.00    -0.096 C 
ENDROOT
BRANCH   3   4
HETATM    4  C4  UNL     1      -2.870  18.717  -3.014  1.00  0.00     0.030 C 
HETATM    5  C5  UNL     1      -2.060  19.108  -1.796  1.00  0.00     0.054 C 
HETATM    6  C6  UNL     1      -2.437  18.076  -0.780  1.00  0.00     0.120 C 
HETATM    7  C7  UNL     1      -2.789  16.831  -1.526  1.00  0.00     0.038 C 
HETATM    8  C8  UNL     1      -2.810  17.196  -3.012  1.00  0.00     0.013 C 
HETATM    9  C9  UNL     1      -1.544  16.985  -3.692  1.00  0.00    -0.000 C 
HETATM   10  C10 UNL     1      -1.245  15.735  -4.384  1.00  0.00     0.006 C 
HETATM   11  C22 UNL     1      -1.717  17.906  -4.923  1.00  0.00    -0.035 C 
HETATM   12  C11 UNL     1      -0.220  16.195  -5.405  1.00  0.00     0.006 C 
HETATM   13  C12 UNL     1      -0.364  17.734  -5.496  1.00  0.00    -0.002 C 
HETATM   14  C23 UNL     1      -2.723  17.347  -5.881  1.00  0.00     0.016 C 
HETATM   15  C24 UNL     1      -2.095  19.155  -4.264  1.00  0.00     0.033 C 
BRANCH   6  16
HETATM   16  O1  UNL     1      -3.554  18.575  -0.081  1.00  0.00    -0.396 OA
ATOM     17  H1  UNL     1      -3.314  19.433   0.249  1.00  0.00     0.210 HD
ENDBRANCH   6  16
BRANCH  13  18
HETATM   18  C13 UNL     1      -0.213  18.173  -6.923  1.00  0.00    -0.011 C 
HETATM   19  C14 UNL     1      -0.088  16.985  -7.862  1.00  0.00     0.010 C 
BRANCH  18  20
HETATM   20  C15 UNL     1       1.032  19.020  -7.043  1.00  0.00     0.031 C 
BRANCH  20  21
HETATM   21  C16 UNL     1       1.346  19.707  -5.753  1.00  0.00    -0.029 C 
HETATM   22  C17 UNL     1       0.704  20.817  -5.409  1.00  0.00    -0.022 C 
BRANCH  22  23
HETATM   23  C18 UNL     1       0.988  21.516  -4.149  1.00  0.00    -0.034 C 
HETATM   24  C19 UNL     1       1.379  22.951  -4.448  1.00  0.00     0.018 C 
HETATM   25  C20 UNL     1      -0.194  21.565  -3.208  1.00  0.00     0.018 C 
HETATM   26  C21 UNL     1       2.161  20.855  -3.480  1.00  0.00     0.018 C 
ENDBRANCH  22  23
ENDBRANCH  20  21
ENDBRANCH  18  20
ENDBRANCH  13  18
ENDBRANCH   3   4
TORSDOF 6
ENDMDL
MODEL 4
REMARK VINA RESULT: -5.977915548      3.088      5.452
REMARK  6 active torsions:
REMARK  status: ('A' for Active; 'I' for Inactive)
REMARK    1  A    between atoms: C3_3  and  C4_4 
REMARK    2  A    between atoms: C6_6  and  O1_7 
REMARK    3  A    between atoms: C12_14  and  C13_15 
REMARK    4  A    between atoms: C13_15  and  C15_17 
REMARK    5  A    between atoms: C15_17  and  C16_18 
REMARK    6  A    between atoms: C17_19  and  C18_20 
ROOT
HETATM    1  C1  UNL     1      -2.960  16.976  -8.400  1.00  0.00     0.112 C 
HETATM    2  C2  UNL     1      -2.308  17.332  -7.132  1.00  0.00    -0.110 C 
HETATM    3  C3  UNL     1      -1.769  17.617  -6.107  1.00  0.00    -0.096 C 
ENDROOT
BRANCH   3   4
HETATM    4  C4  UNL     1      -1.113  17.963  -4.876  1.00  0.00     0.030 C 
HETATM    5  C5  UNL     1       0.326  17.496  -4.823  1.00  0.00     0.054 C 
HETATM    6  C6  UNL     1       1.071  18.578  -5.541  1.00  0.00     0.120 C 
HETATM    7  C7  UNL     1       0.307  19.846  -5.342  1.00  0.00     0.038 C 
HETATM    8  C8  UNL     1      -1.012  19.466  -4.663  1.00  0.00     0.013 C 
HETATM    9  C9  UNL     1      -0.968  19.521  -3.212  1.00  0.00    -0.000 C 
HETATM   10  C10 UNL     1      -1.363  20.720  -2.478  1.00  0.00     0.006 C 
HETATM   11  C22 UNL     1      -2.165  18.611  -2.849  1.00  0.00    -0.035 C 
HETATM   12  C11 UNL     1      -1.766  20.131  -1.138  1.00  0.00     0.006 C 
HETATM   13  C12 UNL     1      -1.987  18.618  -1.381  1.00  0.00    -0.002 C 
HETATM   14  C23 UNL     1      -3.468  19.270  -3.183  1.00  0.00     0.016 C 
HETATM   15  C24 UNL     1      -1.837  17.422  -3.635  1.00  0.00     0.033 C 
BRANCH   6  16
HETATM   16  O1  UNL     1       1.104  18.220  -6.903  1.00  0.00    -0.396 OA
ATOM     17  H1  UNL     1       1.566  18.913  -7.361  1.00  0.00     0.210 HD
ENDBRANCH   6  16
BRANCH  13  18
HETATM   18  C13 UNL     1      -3.172  18.146  -0.591  1.00  0.00    -0.011 C 
HETATM   19  C14 UNL     1      -2.824  16.945   0.273  1.00  0.00     0.010 C 
BRANCH  18  20
HETATM   20  C15 UNL     1      -4.271  17.753  -1.549  1.00  0.00     0.031 C 
BRANCH  20  21
HETATM   21  C16 UNL     1      -5.609  18.202  -1.054  1.00  0.00    -0.029 C 
HETATM   22  C17 UNL     1      -6.597  18.439  -1.907  1.00  0.00    -0.022 C 
BRANCH  22  23
HETATM   23  C18 UNL     1      -7.922  18.880  -1.454  1.00  0.00    -0.034 C 
HETATM   24  C19 UNL     1      -8.438  19.960  -2.386  1.00  0.00     0.018 C 
HETATM   25  C20 UNL     1      -8.954  17.775  -1.440  1.00  0.00     0.018 C 
HETATM   26  C21 UNL     1      -7.790  19.487  -0.084  1.00  0.00     0.018 C 
ENDBRANCH  22  23
ENDBRANCH  20  21
ENDBRANCH  18  20
ENDBRANCH  13  18
ENDBRANCH   3   4
TORSDOF 6
ENDMDL
MODEL 5
REMARK VINA RESULT: -5.697425067      3.156      5.626
REMARK  6 active torsions:
REMARK  status: ('A' for Active; 'I' for Inactive)
REMARK    1  A    between atoms: C3_3  and  C4_4 
REMARK    2  A    between atoms: C6_6  and  O1_7 
REMARK    3  A    between atoms: C12_14  and  C13_15 
REMARK    4  A    between atoms: C13_15  and  C15_17 
REMARK    5  A    between atoms: C15_17  and  C16_18 
REMARK    6  A    between atoms: C17_19  and  C18_20 
ROOT
HETATM    1  C1  UNL     1       2.289  22.198  -6.517  1.00  0.00     0.112 C 
HETATM    2  C2  UNL     1       1.269  21.155  -6.349  1.00  0.00    -0.110 C 
HETATM    3  C3  UNL     1       0.448  20.300  -6.215  1.00  0.00    -0.096 C 
ENDROOT
BRANCH   3   4
HETATM    4  C4  UNL     1      -0.535  19.265  -6.051  1.00  0.00     0.030 C 
HETATM    5  C5  UNL     1      -1.127  18.800  -7.365  1.00  0.00     0.054 C 
HETATM    6  C6  UNL     1      -0.132  17.796  -7.859  1.00  0.00     0.120 C 
HETATM    7  C7  UNL     1       0.519  17.192  -6.659  1.00  0.00     0.038 C 
HETATM    8  C8  UNL     1       0.041  17.993  -5.445  1.00  0.00     0.013 C 
HETATM    9  C9  UNL     1      -1.144  17.449  -4.806  1.00  0.00    -0.000 C 
HETATM   10  C10 UNL     1      -1.052  16.516  -3.688  1.00  0.00     0.006 C 
HETATM   11  C22 UNL     1      -1.659  18.692  -4.041  1.00  0.00    -0.035 C 
HETATM   12  C11 UNL     1      -2.382  16.747  -2.993  1.00  0.00     0.006 C 
HETATM   13  C12 UNL     1      -2.912  18.103  -3.519  1.00  0.00    -0.002 C 
HETATM   14  C23 UNL     1      -0.765  19.027  -2.887  1.00  0.00     0.016 C 
HETATM   15  C24 UNL     1      -1.690  19.672  -5.125  1.00  0.00     0.033 C 
BRANCH   6  16
HETATM   16  O1  UNL     1       0.807  18.499  -8.640  1.00  0.00    -0.396 OA
ATOM     17  H1  UNL     1       1.114  19.229  -8.115  1.00  0.00     0.210 HD
ENDBRANCH   6  16
BRANCH  13  18
HETATM   18  C13 UNL     1      -3.558  18.864  -2.399  1.00  0.00    -0.011 C 
HETATM   19  C14 UNL     1      -4.107  17.929  -1.334  1.00  0.00     0.010 C 
BRANCH  18  20
HETATM   20  C15 UNL     1      -4.696  19.684  -2.960  1.00  0.00     0.031 C 
BRANCH  20  21
HETATM   21  C16 UNL     1      -5.917  19.573  -2.104  1.00  0.00    -0.029 C 
HETATM   22  C17 UNL     1      -7.080  19.218  -2.634  1.00  0.00    -0.022 C 
BRANCH  22  23
HETATM   23  C18 UNL     1      -8.297  19.099  -1.821  1.00  0.00    -0.034 C 
HETATM   24  C19 UNL     1      -9.327  20.100  -2.310  1.00  0.00     0.018 C 
HETATM   25  C20 UNL     1      -8.939  17.732  -1.892  1.00  0.00     0.018 C 
HETATM   26  C21 UNL     1      -7.966  19.446  -0.397  1.00  0.00     0.018 C 
ENDBRANCH  22  23
ENDBRANCH  20  21
ENDBRANCH  18  20
ENDBRANCH  13  18
ENDBRANCH   3   4
TORSDOF 6
ENDMDL
