MODEL 1
REMARK VINA RESULT: -6.762067243      0.000      0.000
REMARK  5 active torsions:
REMARK  status: ('A' for Active; 'I' for Inactive)
REMARK    1  A    between atoms: C2_2  and  C8_15 
REMARK    2  A    between atoms: N1_3  and  N2_5 
REMARK    3  A    between atoms: N2_5  and  C3_7 
REMARK    4  A    between atoms: C3_7  and  N3_9 
REMARK    5  A    between atoms: N3_9  and  C4_11 
ROOT
HETATM    1  N2  UNL     1      16.304   5.374   1.953  1.00  0.00    -0.276 N 
ATOM      2  H2  UNL     1      17.316   5.278   2.019  1.00  0.00     0.189 HD
ENDROOT
BRANCH   1   3
HETATM    3  N1  UNL     1      15.557   4.458   1.221  1.00  0.00    -0.302 N 
HETATM    4  C2  UNL     1      15.999   3.312   0.841  1.00  0.00     0.034 C 
HETATM    5  C1  UNL     1      17.351   2.836   1.139  1.00  0.00     0.070 C 
ATOM      6  H1  UNL     1      14.601   4.710   0.969  1.00  0.00     0.186 HD
BRANCH   4   7
HETATM    7  C8  UNL     1      15.089   2.457   0.073  1.00  0.00     0.012 A 
HETATM    8  C9  UNL     1      13.828   2.794  -0.394  1.00  0.00     0.040 A 
HETATM    9  C10 UNL     1      13.336   1.691  -1.061  1.00  0.00     0.142 A 
HETATM   10  O1  UNL     1      14.234   0.752  -1.003  1.00  0.00    -0.334 OA
HETATM   11  C11 UNL     1      15.291   1.150  -0.344  1.00  0.00     0.154 A 
ENDBRANCH   4   7
ENDBRANCH   1   3
BRANCH   1  12
HETATM   12  C3  UNL     1      15.649   6.431   2.601  1.00  0.00     0.187 C 
HETATM   13  S1  UNL     1      14.463   6.094   3.651  1.00  0.00    -0.040 SA
BRANCH  12  14
HETATM   14  N3  UNL     1      15.993   7.781   2.365  1.00  0.00    -0.358 N 
ATOM     15  H3  UNL     1      16.749   8.179   2.922  1.00  0.00     0.162 HD
BRANCH  14  16
HETATM   16  C4  UNL     1      15.362   8.630   1.407  1.00  0.00     0.021 C 
HETATM   17  C5  UNL     1      16.359   9.661   0.871  1.00  0.00     0.037 C 
HETATM   18  C6  UNL     1      14.234   9.400   2.058  1.00  0.00     0.037 C 
HETATM   19  C7  UNL     1      14.783   7.890   0.230  1.00  0.00     0.037 C 
ENDBRANCH  14  16
ENDBRANCH  12  14
ENDBRANCH   1  12
TORSDOF 5
ENDMDL
MODEL 2
REMARK VINA RESULT: -6.760528298      0.028      1.059
REMARK  5 active torsions:
REMARK  status: ('A' for Active; 'I' for Inactive)
REMARK    1  A    between atoms: C2_2  and  C8_15 
REMARK    2  A    between atoms: N1_3  and  N2_5 
REMARK    3  A    between atoms: N2_5  and  C3_7 
REMARK    4  A    between atoms: C3_7  and  N3_9 
REMARK    5  A    between atoms: N3_9  and  C4_11 
ROOT
HETATM    1  N2  UNL     1      16.316   5.373   1.947  1.00  0.00    -0.276 N 
ATOM      2  H2  UNL     1      17.327   5.268   2.022  1.00  0.00     0.189 HD
ENDROOT
BRANCH   1   3
HETATM    3  N1  UNL     1      15.566   4.457   1.218  1.00  0.00    -0.302 N 
HETATM    4  C2  UNL     1      16.008   3.311   0.834  1.00  0.00     0.034 C 
HETATM    5  C1  UNL     1      17.362   2.838   1.123  1.00  0.00     0.070 C 
ATOM      6  H1  UNL     1      14.608   4.708   0.972  1.00  0.00     0.186 HD
BRANCH   4   7
HETATM    7  C8  UNL     1      15.094   2.456   0.071  1.00  0.00     0.012 A 
HETATM    8  C9  UNL     1      13.833   2.794  -0.395  1.00  0.00     0.040 A 
HETATM    9  C10 UNL     1      13.337   1.691  -1.057  1.00  0.00     0.142 A 
HETATM   10  O1  UNL     1      14.233   0.750  -0.997  1.00  0.00    -0.334 OA
HETATM   11  C11 UNL     1      15.292   1.147  -0.342  1.00  0.00     0.154 A 
ENDBRANCH   4   7
ENDBRANCH   1   3
BRANCH   1  12
HETATM   12  C3  UNL     1      15.667   6.443   2.577  1.00  0.00     0.187 C 
HETATM   13  S1  UNL     1      14.473   6.129   3.627  1.00  0.00    -0.040 SA
BRANCH  12  14
HETATM   14  N3  UNL     1      16.022   7.788   2.326  1.00  0.00    -0.358 N 
ATOM     15  H3  UNL     1      16.825   8.165   2.830  1.00  0.00     0.162 HD
BRANCH  14  16
HETATM   16  C4  UNL     1      15.343   8.657   1.421  1.00  0.00     0.021 C 
HETATM   17  C5  UNL     1      14.783   7.863   0.239  1.00  0.00     0.037 C 
HETATM   18  C6  UNL     1      16.309   9.675   0.855  1.00  0.00     0.037 C 
HETATM   19  C7  UNL     1      14.205   9.417   2.051  1.00  0.00     0.037 C 
ENDBRANCH  14  16
ENDBRANCH  12  14
ENDBRANCH   1  12
TORSDOF 5
ENDMDL
MODEL 3
REMARK VINA RESULT: -6.752696407      0.047      1.057
REMARK  5 active torsions:
REMARK  status: ('A' for Active; 'I' for Inactive)
REMARK    1  A    between atoms: C2_2  and  C8_15 
REMARK    2  A    between atoms: N1_3  and  N2_5 
REMARK    3  A    between atoms: N2_5  and  C3_7 
REMARK    4  A    between atoms: C3_7  and  N3_9 
REMARK    5  A    between atoms: N3_9  and  C4_11 
ROOT
HETATM    1  N2  UNL     1      16.328   5.388   1.923  1.00  0.00    -0.276 N 
ATOM      2  H2  UNL     1      17.340   5.288   1.987  1.00  0.00     0.189 HD
ENDROOT
BRANCH   1   3
HETATM    3  N1  UNL     1      15.574   4.470   1.201  1.00  0.00    -0.302 N 
HETATM    4  C2  UNL     1      16.013   3.322   0.821  1.00  0.00     0.034 C 
HETATM    5  C1  UNL     1      17.368   2.848   1.108  1.00  0.00     0.070 C 
ATOM      6  H1  UNL     1      14.616   4.721   0.958  1.00  0.00     0.186 HD
BRANCH   4   7
HETATM    7  C8  UNL     1      15.095   2.465   0.065  1.00  0.00     0.012 A 
HETATM    8  C9  UNL     1      13.832   2.802  -0.397  1.00  0.00     0.040 A 
HETATM    9  C10 UNL     1      13.332   1.696  -1.052  1.00  0.00     0.142 A 
HETATM   10  O1  UNL     1      14.228   0.755  -0.993  1.00  0.00    -0.334 OA
HETATM   11  C11 UNL     1      15.291   1.154  -0.344  1.00  0.00     0.154 A 
ENDBRANCH   4   7
ENDBRANCH   1   3
BRANCH   1  12
HETATM   12  C3  UNL     1      15.681   6.455   2.563  1.00  0.00     0.187 C 
HETATM   13  S1  UNL     1      14.489   6.134   3.613  1.00  0.00    -0.040 SA
BRANCH  12  14
HETATM   14  N3  UNL     1      16.037   7.801   2.320  1.00  0.00    -0.358 N 
ATOM     15  H3  UNL     1      16.824   8.182   2.845  1.00  0.00     0.162 HD
BRANCH  14  16
HETATM   16  C4  UNL     1      15.379   8.667   1.397  1.00  0.00     0.021 C 
HETATM   17  C5  UNL     1      14.224   9.399   2.084  1.00  0.00     0.037 C 
HETATM   18  C6  UNL     1      14.782   7.861   0.263  1.00  0.00     0.037 C 
HETATM   19  C7  UNL     1      16.287   9.702   0.786  1.00  0.00     0.037 C 
ENDBRANCH  14  16
ENDBRANCH  12  14
ENDBRANCH   1  12
TORSDOF 5
ENDMDL
MODEL 4
REMARK VINA RESULT: -6.660203239      2.673      3.660
REMARK  5 active torsions:
REMARK  status: ('A' for Active; 'I' for Inactive)
REMARK    1  A    between atoms: C2_2  and  C8_15 
REMARK    2  A    between atoms: N1_3  and  N2_5 
REMARK    3  A    between atoms: N2_5  and  C3_7 
REMARK    4  A    between atoms: C3_7  and  N3_9 
REMARK    5  A    between atoms: N3_9  and  C4_11 
ROOT
HETATM    1  N2  UNL     1      11.112   5.440   0.187  1.00  0.00    -0.276 N 
ATOM      2  H2  UNL     1      10.236   5.360  -0.330  1.00  0.00     0.189 HD
ENDROOT
BRANCH   1   3
HETATM    3  N1  UNL     1      12.057   4.423   0.129  1.00  0.00    -0.302 N 
HETATM    4  C2  UNL     1      12.151   3.585  -0.842  1.00  0.00     0.034 C 
HETATM    5  C1  UNL     1      11.266   3.606  -2.007  1.00  0.00     0.070 C 
ATOM      6  H1  UNL     1      12.716   4.335   0.903  1.00  0.00     0.186 HD
BRANCH   4   7
HETATM    7  C8  UNL     1      13.203   2.567  -0.756  1.00  0.00     0.012 A 
HETATM    8  C9  UNL     1      14.468   2.722  -0.209  1.00  0.00     0.040 A 
HETATM    9  C10 UNL     1      15.117   1.512  -0.342  1.00  0.00     0.142 A 
HETATM   10  O1  UNL     1      14.304   0.682  -0.927  1.00  0.00    -0.334 OA
HETATM   11  C11 UNL     1      13.158   1.252  -1.195  1.00  0.00     0.154 A 
ENDBRANCH   4   7
ENDBRANCH   1   3
BRANCH   1  12
HETATM   12  C3  UNL     1      11.374   6.578   0.963  1.00  0.00     0.187 C 
HETATM   13  S1  UNL     1      10.539   7.935   0.673  1.00  0.00    -0.040 SA
BRANCH  12  14
HETATM   14  N3  UNL     1      12.345   6.577   1.989  1.00  0.00    -0.358 N 
ATOM     15  H3  UNL     1      12.044   6.290   2.922  1.00  0.00     0.162 HD
BRANCH  14  16
HETATM   16  C4  UNL     1      13.712   6.945   1.822  1.00  0.00     0.021 C 
HETATM   17  C5  UNL     1      14.630   5.848   2.367  1.00  0.00     0.037 C 
HETATM   18  C6  UNL     1      14.011   8.204   2.607  1.00  0.00     0.037 C 
HETATM   19  C7  UNL     1      14.099   7.204   0.389  1.00  0.00     0.037 C 
ENDBRANCH  14  16
ENDBRANCH  12  14
ENDBRANCH   1  12
TORSDOF 5
ENDMDL
MODEL 5
REMARK VINA RESULT: -6.594465416      2.697      3.740
REMARK  5 active torsions:
REMARK  status: ('A' for Active; 'I' for Inactive)
REMARK    1  A    between atoms: C2_2  and  C8_15 
REMARK    2  A    between atoms: N1_3  and  N2_5 
REMARK    3  A    between atoms: N2_5  and  C3_7 
REMARK    4  A    between atoms: C3_7  and  N3_9 
REMARK    5  A    between atoms: N3_9  and  C4_11 
ROOT
HETATM    1  N2  UNL     1      11.053   5.452   0.186  1.00  0.00    -0.276 N 
ATOM      2  H2  UNL     1      10.165   5.354  -0.305  1.00  0.00     0.189 HD
ENDROOT
BRANCH   1   3
HETATM    3  N1  UNL     1      12.002   4.439   0.131  1.00  0.00    -0.302 N 
HETATM    4  C2  UNL     1      12.117   3.615  -0.851  1.00  0.00     0.034 C 
HETATM    5  C1  UNL     1      11.253   3.651  -2.031  1.00  0.00     0.070 C 
ATOM      6  H1  UNL     1      12.647   4.342   0.915  1.00  0.00     0.186 HD
BRANCH   4   7
HETATM    7  C8  UNL     1      13.170   2.599  -0.760  1.00  0.00     0.012 A 
HETATM    8  C9  UNL     1      14.429   2.754  -0.202  1.00  0.00     0.040 A 
HETATM    9  C10 UNL     1      15.082   1.547  -0.334  1.00  0.00     0.142 A 
HETATM   10  O1  UNL     1      14.276   0.717  -0.930  1.00  0.00    -0.334 OA
HETATM   11  C11 UNL     1      13.131   1.286  -1.205  1.00  0.00     0.154 A 
ENDBRANCH   4   7
ENDBRANCH   1   3
BRANCH   1  12
HETATM   12  C3  UNL     1      11.328   6.612   0.924  1.00  0.00     0.187 C 
HETATM   13  S1  UNL     1      10.530   7.976   0.569  1.00  0.00    -0.040 SA
BRANCH  12  14
HETATM   14  N3  UNL     1      12.281   6.627   1.967  1.00  0.00    -0.358 N 
ATOM     15  H3  UNL     1      11.994   6.256   2.873  1.00  0.00     0.162 HD
BRANCH  14  16
HETATM   16  C4  UNL     1      13.614   7.121   1.850  1.00  0.00     0.021 C 
HETATM   17  C5  UNL     1      14.036   7.171   0.380  1.00  0.00     0.037 C 
HETATM   18  C6  UNL     1      14.577   6.191   2.557  1.00  0.00     0.037 C 
HETATM   19  C7  UNL     1      13.804   8.496   2.434  1.00  0.00     0.037 C 
ENDBRANCH  14  16
ENDBRANCH  12  14
ENDBRANCH   1  12
TORSDOF 5
ENDMDL
