MODEL 1
REMARK VINA RESULT: -7.506044305      0.000      0.000
REMARK  4 active torsions:
REMARK  status: ('A' for Active; 'I' for Inactive)
REMARK    1  A    between atoms: C5_6  and  C6_7 
REMARK       I    between atoms: C6_7  and  N1_9 
REMARK    2  A    between atoms: N1_9  and  N2_11 
REMARK       I    between atoms: N2_11  and  C7_13 
REMARK    3  A    between atoms: C7_13  and  O4_15 
REMARK    4  A    between atoms: O4_15  and  C8_16 
ROOT
HETATM    1  C6  UNL     1      13.904   5.550   0.150  1.00  0.00     0.273 C 
HETATM    2  O2  UNL     1      14.419   6.384  -0.687  1.00  0.00    -0.266 OA
HETATM    3  N1  UNL     1      13.262   6.099   1.268  1.00  0.00    -0.261 N 
ATOM      4  H1  UNL     1      12.836   5.495   1.972  1.00  0.00     0.190 HD
ENDROOT
BRANCH   1   5
HETATM    5  C5  UNL     1      14.037   4.154  -0.140  1.00  0.00     0.071 A 
HETATM    6  C3  UNL     1      13.031   3.406  -0.802  1.00  0.00     0.065 A 
HETATM    7  O1  UNL     1      13.470   2.178  -0.894  1.00  0.00    -0.319 OA
HETATM    8  C4  UNL     1      11.732   3.931  -1.292  1.00  0.00     0.078 C 
HETATM    9  C2  UNL     1      14.634   2.042  -0.373  1.00  0.00     0.056 A 
HETATM   10  C1  UNL     1      15.392   0.784  -0.321  1.00  0.00     0.077 C 
HETATM   11  C11 UNL     1      15.053   3.278   0.129  1.00  0.00    -0.014 A 
HETATM   12  C12 UNL     1      16.339   3.543   0.815  1.00  0.00     0.052 C 
ENDBRANCH   1   5
BRANCH   3  13
HETATM   13  N2  UNL     1      13.214   7.529   1.407  1.00  0.00    -0.242 N 
HETATM   14  C7  UNL     1      14.050   8.180   2.354  1.00  0.00     0.379 C 
HETATM   15  O3  UNL     1      14.841   7.521   3.083  1.00  0.00    -0.237 OA
ATOM     16  H2  UNL     1      12.581   8.077   0.824  1.00  0.00     0.192 HD
BRANCH  14  17
HETATM   17  O4  UNL     1      14.028   9.538   2.509  1.00  0.00    -0.298 OA
BRANCH  17  18
HETATM   18  C8  UNL     1      15.019  10.418   2.023  1.00  0.00     0.125 C 
HETATM   19  C9  UNL     1      15.810   9.857   0.878  1.00  0.00     0.040 C 
HETATM   20  C10 UNL     1      15.936  10.939   3.074  1.00  0.00     0.040 C 
ENDBRANCH  17  18
ENDBRANCH  14  17
ENDBRANCH   3  13
TORSDOF 4
ENDMDL
MODEL 2
REMARK VINA RESULT: -7.255091229      1.857      2.600
REMARK  4 active torsions:
REMARK  status: ('A' for Active; 'I' for Inactive)
REMARK    1  A    between atoms: C5_6  and  C6_7 
REMARK       I    between atoms: C6_7  and  N1_9 
REMARK    2  A    between atoms: N1_9  and  N2_11 
REMARK       I    between atoms: N2_11  and  C7_13 
REMARK    3  A    between atoms: C7_13  and  O4_15 
REMARK    4  A    between atoms: O4_15  and  C8_16 
ROOT
HETATM    1  C6  UNL     1      15.339   6.452   1.804  1.00  0.00     0.273 C 
HETATM    2  O2  UNL     1      15.202   6.412   3.085  1.00  0.00    -0.266 OA
HETATM    3  N1  UNL     1      15.779   7.664   1.258  1.00  0.00    -0.261 N 
ATOM      4  H1  UNL     1      15.905   7.765   0.250  1.00  0.00     0.190 HD
ENDROOT
BRANCH   1   5
HETATM    5  C5  UNL     1      15.031   5.262   1.068  1.00  0.00     0.071 A 
HETATM    6  C3  UNL     1      13.817   5.091   0.355  1.00  0.00     0.065 A 
HETATM    7  O1  UNL     1      13.859   3.901  -0.184  1.00  0.00    -0.319 OA
HETATM    8  C4  UNL     1      12.718   6.084   0.251  1.00  0.00     0.078 C 
HETATM    9  C2  UNL     1      14.949   3.285   0.092  1.00  0.00     0.056 A 
HETATM   10  C1  UNL     1      15.292   1.932  -0.368  1.00  0.00     0.077 C 
HETATM   11  C11 UNL     1      15.744   4.108   0.896  1.00  0.00    -0.014 A 
HETATM   12  C12 UNL     1      17.079   3.760   1.438  1.00  0.00     0.052 C 
ENDBRANCH   1   5
BRANCH   3  13
HETATM   13  N2  UNL     1      16.049   8.765   2.142  1.00  0.00    -0.242 N 
HETATM   14  C7  UNL     1      16.391  10.038   1.609  1.00  0.00     0.379 C 
HETATM   15  O3  UNL     1      16.463  10.223   0.364  1.00  0.00    -0.237 OA
ATOM     16  H2  UNL     1      15.995   8.633   3.152  1.00  0.00     0.192 HD
BRANCH  14  17
HETATM   17  O4  UNL     1      16.654  11.103   2.424  1.00  0.00    -0.298 OA
BRANCH  17  18
HETATM   18  C8  UNL     1      15.934  11.412   3.600  1.00  0.00     0.125 C 
HETATM   19  C9  UNL     1      14.482  11.698   3.355  1.00  0.00     0.040 C 
HETATM   20  C10 UNL     1      16.542  12.499   4.415  1.00  0.00     0.040 C 
ENDBRANCH  17  18
ENDBRANCH  14  17
ENDBRANCH   3  13
TORSDOF 4
ENDMDL
MODEL 3
REMARK VINA RESULT: -7.200574506      2.276      2.556
REMARK  4 active torsions:
REMARK  status: ('A' for Active; 'I' for Inactive)
REMARK    1  A    between atoms: C5_6  and  C6_7 
REMARK       I    between atoms: C6_7  and  N1_9 
REMARK    2  A    between atoms: N1_9  and  N2_11 
REMARK       I    between atoms: N2_11  and  C7_13 
REMARK    3  A    between atoms: C7_13  and  O4_15 
REMARK    4  A    between atoms: O4_15  and  C8_16 
ROOT
HETATM    1  C6  UNL     1      13.442   5.517  -0.351  1.00  0.00     0.273 C 
HETATM    2  O2  UNL     1      14.369   6.326  -0.738  1.00  0.00    -0.266 OA
HETATM    3  N1  UNL     1      12.258   6.098   0.122  1.00  0.00    -0.261 N 
ATOM      4  H1  UNL     1      11.487   5.515   0.447  1.00  0.00     0.190 HD
ENDROOT
BRANCH   1   5
HETATM    5  C5  UNL     1      13.712   4.113  -0.439  1.00  0.00     0.071 A 
HETATM    6  C3  UNL     1      12.824   3.196  -1.055  1.00  0.00     0.065 A 
HETATM    7  O1  UNL     1      13.368   2.012  -0.951  1.00  0.00    -0.319 OA
HETATM    8  C4  UNL     1      11.526   3.532  -1.695  1.00  0.00     0.078 C 
HETATM    9  C2  UNL     1      14.497   2.053  -0.344  1.00  0.00     0.056 A 
HETATM   10  C1  UNL     1      15.349   0.887  -0.072  1.00  0.00     0.077 C 
HETATM   11  C11 UNL     1      14.773   3.377   0.011  1.00  0.00    -0.014 A 
HETATM   12  C12 UNL     1      15.977   3.845   0.736  1.00  0.00     0.052 C 
ENDBRANCH   1   5
BRANCH   3  13
HETATM   13  N2  UNL     1      12.150   7.532   0.140  1.00  0.00    -0.242 N 
HETATM   14  C7  UNL     1      11.004   8.150   0.710  1.00  0.00     0.379 C 
HETATM   15  O3  UNL     1      10.073   7.461   1.205  1.00  0.00    -0.237 OA
ATOM     16  H2  UNL     1      12.895   8.105  -0.256  1.00  0.00     0.192 HD
BRANCH  14  17
HETATM   17  O4  UNL     1      10.872   9.510   0.742  1.00  0.00    -0.298 OA
BRANCH  17  18
HETATM   18  C8  UNL     1      10.989  10.302   1.906  1.00  0.00     0.125 C 
HETATM   19  C9  UNL     1      10.917  11.776   1.638  1.00  0.00     0.040 C 
HETATM   20  C10 UNL     1      12.186   9.989   2.735  1.00  0.00     0.040 C 
ENDBRANCH  17  18
ENDBRANCH  14  17
ENDBRANCH   3  13
TORSDOF 4
ENDMDL
MODEL 4
REMARK VINA RESULT: -7.199427280      2.366      3.232
REMARK  4 active torsions:
REMARK  status: ('A' for Active; 'I' for Inactive)
REMARK    1  A    between atoms: C5_6  and  C6_7 
REMARK       I    between atoms: C6_7  and  N1_9 
REMARK    2  A    between atoms: N1_9  and  N2_11 
REMARK       I    between atoms: N2_11  and  C7_13 
REMARK    3  A    between atoms: C7_13  and  O4_15 
REMARK    4  A    between atoms: O4_15  and  C8_16 
ROOT
HETATM    1  C6  UNL     1      13.990   5.748   0.395  1.00  0.00     0.273 C 
HETATM    2  O2  UNL     1      14.240   6.608  -0.533  1.00  0.00    -0.266 OA
HETATM    3  N1  UNL     1      13.163   6.176   1.442  1.00  0.00    -0.261 N 
ATOM      4  H1  UNL     1      12.929   5.547   2.210  1.00  0.00     0.190 HD
ENDROOT
BRANCH   1   5
HETATM    5  C5  UNL     1      14.578   4.448   0.267  1.00  0.00     0.071 A 
HETATM    6  C3  UNL     1      15.862   4.130   0.777  1.00  0.00     0.065 A 
HETATM    7  O1  UNL     1      16.089   2.878   0.480  1.00  0.00    -0.319 OA
HETATM    8  C4  UNL     1      16.765   5.055   1.508  1.00  0.00     0.078 C 
HETATM    9  C2  UNL     1      15.110   2.349  -0.158  1.00  0.00     0.056 A 
HETATM   10  C1  UNL     1      15.065   0.958  -0.630  1.00  0.00     0.077 C 
HETATM   11  C11 UNL     1      14.107   3.309  -0.326  1.00  0.00    -0.014 A 
HETATM   12  C12 UNL     1      12.815   3.099  -1.021  1.00  0.00     0.052 C 
ENDBRANCH   1   5
BRANCH   3  13
HETATM   13  N2  UNL     1      12.651   7.520   1.415  1.00  0.00    -0.242 N 
HETATM   14  C7  UNL     1      11.285   7.753   1.100  1.00  0.00     0.379 C 
HETATM   15  O3  UNL     1      10.505   6.796   0.842  1.00  0.00    -0.237 OA
ATOM     16  H2  UNL     1      13.268   8.305   1.621  1.00  0.00     0.192 HD
BRANCH  14  17
HETATM   17  O4  UNL     1      10.768   9.018   1.066  1.00  0.00    -0.298 OA
BRANCH  17  18
HETATM   18  C8  UNL     1      11.524  10.188   0.832  1.00  0.00     0.125 C 
HETATM   19  C9  UNL     1      11.837  10.959   2.081  1.00  0.00     0.040 C 
HETATM   20  C10 UNL     1      10.940  11.092  -0.196  1.00  0.00     0.040 C 
ENDBRANCH  17  18
ENDBRANCH  14  17
ENDBRANCH   3  13
TORSDOF 4
ENDMDL
MODEL 5
REMARK VINA RESULT: -7.196224621      1.509      2.477
REMARK  4 active torsions:
REMARK  status: ('A' for Active; 'I' for Inactive)
REMARK    1  A    between atoms: C5_6  and  C6_7 
REMARK       I    between atoms: C6_7  and  N1_9 
REMARK    2  A    between atoms: N1_9  and  N2_11 
REMARK       I    between atoms: N2_11  and  C7_13 
REMARK    3  A    between atoms: C7_13  and  O4_15 
REMARK    4  A    between atoms: O4_15  and  C8_16 
ROOT
HETATM    1  C6  UNL     1      14.298   5.893   0.364  1.00  0.00     0.273 C 
HETATM    2  O2  UNL     1      14.517   6.665  -0.646  1.00  0.00    -0.266 OA
HETATM    3  N1  UNL     1      13.710   6.484   1.490  1.00  0.00    -0.261 N 
ATOM      4  H1  UNL     1      13.513   5.931   2.324  1.00  0.00     0.190 HD
ENDROOT
BRANCH   1   5
HETATM    5  C5  UNL     1      14.677   4.518   0.239  1.00  0.00     0.071 A 
HETATM    6  C3  UNL     1      15.903   4.008   0.735  1.00  0.00     0.065 A 
HETATM    7  O1  UNL     1      15.929   2.734   0.445  1.00  0.00    -0.319 OA
HETATM    8  C4  UNL     1      16.948   4.787   1.447  1.00  0.00     0.078 C 
HETATM    9  C2  UNL     1      14.872   2.359  -0.176  1.00  0.00     0.056 A 
HETATM   10  C1  UNL     1      14.607   0.989  -0.637  1.00  0.00     0.077 C 
HETATM   11  C11 UNL     1      14.028   3.462  -0.339  1.00  0.00    -0.014 A 
HETATM   12  C12 UNL     1      12.709   3.449  -1.016  1.00  0.00     0.052 C 
ENDBRANCH   1   5
BRANCH   3  13
HETATM   13  N2  UNL     1      13.388   7.885   1.448  1.00  0.00    -0.242 N 
HETATM   14  C7  UNL     1      14.217   8.825   2.117  1.00  0.00     0.379 C 
HETATM   15  O3  UNL     1      15.239   8.452   2.753  1.00  0.00    -0.237 OA
ATOM     16  H2  UNL     1      12.564   8.204   0.937  1.00  0.00     0.192 HD
BRANCH  14  17
HETATM   17  O4  UNL     1      13.937  10.163   2.096  1.00  0.00    -0.298 OA
BRANCH  17  18
HETATM   18  C8  UNL     1      12.904  10.780   2.836  1.00  0.00     0.125 C 
HETATM   19  C9  UNL     1      11.681  11.081   2.020  1.00  0.00     0.040 C 
HETATM   20  C10 UNL     1      13.334  11.992   3.584  1.00  0.00     0.040 C 
ENDBRANCH  17  18
ENDBRANCH  14  17
ENDBRANCH   3  13
TORSDOF 4
ENDMDL
