MODEL 1
REMARK VINA RESULT: -6.862211059      0.000      0.000
REMARK  5 active torsions:
REMARK  status: ('A' for Active; 'I' for Inactive)
REMARK    1  A    between atoms: C5_6  and  C6_7 
REMARK    2  A    between atoms: N1_8  and  N2_10 
REMARK    3  A    between atoms: N2_10  and  C7_12 
REMARK    4  A    between atoms: C7_12  and  N3_14 
REMARK    5  A    between atoms: N3_14  and  C8_16 
ROOT
HETATM    1  N2  UNL     1      16.506   5.662   2.398  1.00  0.00    -0.277 N 
ATOM      2  H2  UNL     1      17.508   5.840   2.471  1.00  0.00     0.189 HD
ENDROOT
BRANCH   1   3
HETATM    3  N1  UNL     1      16.093   4.417   1.944  1.00  0.00    -0.307 N 
HETATM    4  C6  UNL     1      15.814   4.251   0.716  1.00  0.00     0.144 C 
ATOM      5  H1  UNL     1      16.014   3.637   2.596  1.00  0.00     0.186 HD
BRANCH   4   6
HETATM    6  C5  UNL     1      15.374   2.938   0.221  1.00  0.00     0.097 A 
HETATM    7  C2  UNL     1      14.149   2.646  -0.327  1.00  0.00    -0.025 A 
HETATM    8  C1  UNL     1      13.041   3.605  -0.524  1.00  0.00     0.051 C 
HETATM    9  C3  UNL     1      14.145   1.305  -0.659  1.00  0.00     0.034 A 
HETATM   10  C4  UNL     1      15.393   0.840  -0.287  1.00  0.00     0.143 A 
HETATM   11  O1  UNL     1      16.071   1.845   0.225  1.00  0.00    -0.321 OA
ENDBRANCH   4   6
ENDBRANCH   1   3
BRANCH   1  12
HETATM   12  C7  UNL     1      15.617   6.699   2.765  1.00  0.00     0.187 C 
HETATM   13  S1  UNL     1      14.299   6.281   3.619  1.00  0.00    -0.040 SA
BRANCH  12  14
HETATM   14  N3  UNL     1      15.906   8.029   2.381  1.00  0.00    -0.358 N 
ATOM     15  H3  UNL     1      16.616   8.543   2.902  1.00  0.00     0.162 HD
BRANCH  14  16
HETATM   16  C8  UNL     1      15.240   8.693   1.281  1.00  0.00     0.021 C 
HETATM   17  C9  UNL     1      14.039   9.437   1.811  1.00  0.00     0.037 C 
HETATM   18  C10 UNL     1      14.849   7.659   0.250  1.00  0.00     0.037 C 
HETATM   19  C11 UNL     1      16.175   9.731   0.688  1.00  0.00     0.037 C 
ENDBRANCH  14  16
ENDBRANCH  12  14
ENDBRANCH   1  12
TORSDOF 5
ENDMDL
MODEL 2
REMARK VINA RESULT: -6.848010524      0.046      1.065
REMARK  5 active torsions:
REMARK  status: ('A' for Active; 'I' for Inactive)
REMARK    1  A    between atoms: C5_6  and  C6_7 
REMARK    2  A    between atoms: N1_8  and  N2_10 
REMARK    3  A    between atoms: N2_10  and  C7_12 
REMARK    4  A    between atoms: C7_12  and  N3_14 
REMARK    5  A    between atoms: N3_14  and  C8_16 
ROOT
HETATM    1  N2  UNL     1      16.535   5.662   2.401  1.00  0.00    -0.277 N 
ATOM      2  H2  UNL     1      17.534   5.851   2.477  1.00  0.00     0.189 HD
ENDROOT
BRANCH   1   3
HETATM    3  N1  UNL     1      16.137   4.413   1.942  1.00  0.00    -0.307 N 
HETATM    4  C6  UNL     1      15.811   4.261   0.723  1.00  0.00     0.144 C 
ATOM      5  H1  UNL     1      16.107   3.620   2.582  1.00  0.00     0.186 HD
BRANCH   4   6
HETATM    6  C5  UNL     1      15.387   2.944   0.224  1.00  0.00     0.097 A 
HETATM    7  C2  UNL     1      14.174   2.645  -0.347  1.00  0.00    -0.025 A 
HETATM    8  C1  UNL     1      13.065   3.598  -0.566  1.00  0.00     0.051 C 
HETATM    9  C3  UNL     1      14.183   1.303  -0.676  1.00  0.00     0.034 A 
HETATM   10  C4  UNL     1      15.426   0.845  -0.280  1.00  0.00     0.143 A 
HETATM   11  O1  UNL     1      16.089   1.855   0.242  1.00  0.00    -0.321 OA
ENDBRANCH   4   6
ENDBRANCH   1   3
BRANCH   1  12
HETATM   12  C7  UNL     1      15.633   6.686   2.771  1.00  0.00     0.187 C 
HETATM   13  S1  UNL     1      14.315   6.248   3.616  1.00  0.00    -0.040 SA
BRANCH  12  14
HETATM   14  N3  UNL     1      15.909   8.021   2.396  1.00  0.00    -0.358 N 
ATOM     15  H3  UNL     1      16.630   8.531   2.906  1.00  0.00     0.162 HD
BRANCH  14  16
HETATM   16  C8  UNL     1      15.215   8.697   1.321  1.00  0.00     0.021 C 
HETATM   17  C9  UNL     1      16.144   9.708   0.694  1.00  0.00     0.037 C 
HETATM   18  C10 UNL     1      13.970   9.351   1.878  1.00  0.00     0.037 C 
HETATM   19  C11 UNL     1      14.868   7.688   0.242  1.00  0.00     0.037 C 
ENDBRANCH  14  16
ENDBRANCH  12  14
ENDBRANCH   1  12
TORSDOF 5
ENDMDL
MODEL 3
REMARK VINA RESULT: -6.713370250      3.041      3.598
REMARK  5 active torsions:
REMARK  status: ('A' for Active; 'I' for Inactive)
REMARK    1  A    between atoms: C5_6  and  C6_7 
REMARK    2  A    between atoms: N1_8  and  N2_10 
REMARK    3  A    between atoms: N2_10  and  C7_12 
REMARK    4  A    between atoms: C7_12  and  N3_14 
REMARK    5  A    between atoms: N3_14  and  C8_16 
ROOT
HETATM    1  N2  UNL     1      10.860   5.856  -0.168  1.00  0.00    -0.277 N 
ATOM      2  H2  UNL     1      10.151   5.939  -0.897  1.00  0.00     0.189 HD
ENDROOT
BRANCH   1   3
HETATM    3  N1  UNL     1      11.551   4.657  -0.060  1.00  0.00    -0.307 N 
HETATM    4  C6  UNL     1      12.489   4.391  -0.876  1.00  0.00     0.144 C 
ATOM      5  H1  UNL     1      11.307   3.991   0.673  1.00  0.00     0.186 HD
BRANCH   4   6
HETATM    6  C5  UNL     1      13.230   3.124  -0.773  1.00  0.00     0.097 A 
HETATM    7  C2  UNL     1      14.474   2.955  -0.220  1.00  0.00    -0.025 A 
HETATM    8  C1  UNL     1      15.304   4.021   0.381  1.00  0.00     0.051 C 
HETATM    9  C3  UNL     1      14.804   1.617  -0.325  1.00  0.00     0.034 A 
HETATM   10  C4  UNL     1      13.720   1.029  -0.951  1.00  0.00     0.143 A 
HETATM   11  O1  UNL     1      12.826   1.965  -1.190  1.00  0.00    -0.321 OA
ENDBRANCH   4   6
ENDBRANCH   1   3
BRANCH   1  12
HETATM   12  C7  UNL     1      11.081   6.969   0.675  1.00  0.00     0.187 C 
HETATM   13  S1  UNL     1      10.359   8.367   0.266  1.00  0.00    -0.040 SA
BRANCH  12  14
HETATM   14  N3  UNL     1      11.907   6.823   1.814  1.00  0.00    -0.358 N 
ATOM     15  H3  UNL     1      11.562   6.268   2.596  1.00  0.00     0.162 HD
BRANCH  14  16
HETATM   16  C8  UNL     1      13.218   7.426   1.918  1.00  0.00     0.021 C 
HETATM   17  C9  UNL     1      13.073   8.828   2.457  1.00  0.00     0.037 C 
HETATM   18  C10 UNL     1      13.872   7.415   0.555  1.00  0.00     0.037 C 
HETATM   19  C11 UNL     1      14.043   6.649   2.928  1.00  0.00     0.037 C 
ENDBRANCH  14  16
ENDBRANCH  12  14
ENDBRANCH   1  12
TORSDOF 5
ENDMDL
MODEL 4
REMARK VINA RESULT: -6.703372187      3.052      3.659
REMARK  5 active torsions:
REMARK  status: ('A' for Active; 'I' for Inactive)
REMARK    1  A    between atoms: C5_6  and  C6_7 
REMARK    2  A    between atoms: N1_8  and  N2_10 
REMARK    3  A    between atoms: N2_10  and  C7_12 
REMARK    4  A    between atoms: C7_12  and  N3_14 
REMARK    5  A    between atoms: N3_14  and  C8_16 
ROOT
HETATM    1  N2  UNL     1      10.855   5.858  -0.174  1.00  0.00    -0.277 N 
ATOM      2  H2  UNL     1      10.157   5.957  -0.912  1.00  0.00     0.189 HD
ENDROOT
BRANCH   1   3
HETATM    3  N1  UNL     1      11.535   4.652  -0.074  1.00  0.00    -0.307 N 
HETATM    4  C6  UNL     1      12.485   4.391  -0.877  1.00  0.00     0.144 C 
ATOM      5  H1  UNL     1      11.273   3.976   0.643  1.00  0.00     0.186 HD
BRANCH   4   6
HETATM    6  C5  UNL     1      13.214   3.117  -0.783  1.00  0.00     0.097 A 
HETATM    7  C2  UNL     1      14.459   2.933  -0.234  1.00  0.00    -0.025 A 
HETATM    8  C1  UNL     1      15.302   3.989   0.367  1.00  0.00     0.051 C 
HETATM    9  C3  UNL     1      14.775   1.593  -0.346  1.00  0.00     0.034 A 
HETATM   10  C4  UNL     1      13.683   1.018  -0.970  1.00  0.00     0.143 A 
HETATM   11  O1  UNL     1      12.797   1.964  -1.202  1.00  0.00    -0.321 OA
ENDBRANCH   4   6
ENDBRANCH   1   3
BRANCH   1  12
HETATM   12  C7  UNL     1      11.074   6.957   0.687  1.00  0.00     0.187 C 
HETATM   13  S1  UNL     1      10.367   8.366   0.290  1.00  0.00    -0.040 SA
BRANCH  12  14
HETATM   14  N3  UNL     1      11.885   6.789   1.834  1.00  0.00    -0.358 N 
ATOM     15  H3  UNL     1      11.511   6.259   2.620  1.00  0.00     0.162 HD
BRANCH  14  16
HETATM   16  C8  UNL     1      13.221   7.334   1.941  1.00  0.00     0.021 C 
HETATM   17  C9  UNL     1      13.845   7.380   0.568  1.00  0.00     0.037 C 
HETATM   18  C10 UNL     1      14.024   6.478   2.894  1.00  0.00     0.037 C 
HETATM   19  C11 UNL     1      13.134   8.768   2.433  1.00  0.00     0.037 C 
ENDBRANCH  14  16
ENDBRANCH  12  14
ENDBRANCH   1  12
TORSDOF 5
ENDMDL
MODEL 5
REMARK VINA RESULT: -6.697891535      3.046      3.668
REMARK  5 active torsions:
REMARK  status: ('A' for Active; 'I' for Inactive)
REMARK    1  A    between atoms: C5_6  and  C6_7 
REMARK    2  A    between atoms: N1_8  and  N2_10 
REMARK    3  A    between atoms: N2_10  and  C7_12 
REMARK    4  A    between atoms: C7_12  and  N3_14 
REMARK    5  A    between atoms: N3_14  and  C8_16 
ROOT
HETATM    1  N2  UNL     1      10.868   5.911  -0.180  1.00  0.00    -0.277 N 
ATOM      2  H2  UNL     1      10.186   6.019  -0.931  1.00  0.00     0.189 HD
ENDROOT
BRANCH   1   3
HETATM    3  N1  UNL     1      11.539   4.701  -0.072  1.00  0.00    -0.307 N 
HETATM    4  C6  UNL     1      12.466   4.416  -0.893  1.00  0.00     0.144 C 
ATOM      5  H1  UNL     1      11.289   4.042   0.664  1.00  0.00     0.186 HD
BRANCH   4   6
HETATM    6  C5  UNL     1      13.185   3.136  -0.792  1.00  0.00     0.097 A 
HETATM    7  C2  UNL     1      14.428   2.945  -0.240  1.00  0.00    -0.025 A 
HETATM    8  C1  UNL     1      15.277   3.997   0.358  1.00  0.00     0.051 C 
HETATM    9  C3  UNL     1      14.734   1.602  -0.346  1.00  0.00     0.034 A 
HETATM   10  C4  UNL     1      13.639   1.033  -0.970  1.00  0.00     0.143 A 
HETATM   11  O1  UNL     1      12.761   1.984  -1.208  1.00  0.00    -0.321 OA
ENDBRANCH   4   6
ENDBRANCH   1   3
BRANCH   1  12
HETATM   12  C7  UNL     1      11.076   7.004   0.693  1.00  0.00     0.187 C 
HETATM   13  S1  UNL     1      10.329   8.401   0.327  1.00  0.00    -0.040 SA
BRANCH  12  14
HETATM   14  N3  UNL     1      11.909   6.840   1.824  1.00  0.00    -0.358 N 
ATOM     15  H3  UNL     1      11.573   6.266   2.596  1.00  0.00     0.162 HD
BRANCH  14  16
HETATM   16  C8  UNL     1      13.216   7.451   1.934  1.00  0.00     0.021 C 
HETATM   17  C9  UNL     1      14.069   6.623   2.864  1.00  0.00     0.037 C 
HETATM   18  C10 UNL     1      13.054   8.868   2.435  1.00  0.00     0.037 C 
HETATM   19  C11 UNL     1      13.893   7.424   0.575  1.00  0.00     0.037 C 
ENDBRANCH  14  16
ENDBRANCH  12  14
ENDBRANCH   1  12
TORSDOF 5
ENDMDL
