MODEL 1
REMARK VINA RESULT: -8.741405586      0.000      0.000
REMARK  6 active torsions:
REMARK  status: ('A' for Active; 'I' for Inactive)
REMARK    1  A    between atoms: C5_6  and  O2_7 
REMARK    2  A    between atoms: C12_15  and  S1_16 
REMARK    3  A    between atoms: S1_16  and  S2_17 
REMARK    4  A    between atoms: S2_17  and  C13_18 
REMARK    5  A    between atoms: N1_21  and  O3_22 
REMARK    6  A    between atoms: C20_28  and  O4_29 
ROOT
HETATM    1  C1  UNL     1     -18.576 -21.103   1.488  1.00  0.00     0.027 C 
HETATM    2  C2  UNL     1     -19.599 -21.233   0.707  1.00  0.00     0.008 A 
HETATM    3  C3  UNL     1     -20.679 -22.161   1.133  1.00  0.00     0.141 A 
HETATM    4  C4  UNL     1     -21.748 -22.382   0.384  1.00  0.00     0.226 A 
HETATM    5  O1  UNL     1     -21.810 -21.705  -0.821  1.00  0.00    -0.261 OA
HETATM    6  C5  UNL     1     -20.837 -20.840  -1.253  1.00  0.00     0.197 A 
HETATM    7  C6  UNL     1     -19.706 -20.547  -0.557  1.00  0.00     0.040 A 
HETATM    8  C7  UNL     1     -18.726 -19.642  -1.083  1.00  0.00    -0.034 C 
HETATM    9  C8  UNL     1     -17.397 -20.235  -1.513  1.00  0.00     0.048 C 
HETATM   10  C9  UNL     1     -16.649 -18.896  -1.838  1.00  0.00    -0.028 C 
HETATM   11  C10 UNL     1     -17.309 -18.351  -3.058  1.00  0.00     0.016 C 
HETATM   12  C11 UNL     1     -15.222 -19.301  -2.102  1.00  0.00     0.016 C 
HETATM   13  C12 UNL     1     -16.883 -18.212  -0.554  1.00  0.00     0.099 C 
HETATM   14  C20 UNL     1     -18.414 -18.359  -0.419  1.00  0.00     0.163 C 
HETATM   15  O5  UNL     1     -22.562 -23.287   1.052  1.00  0.00    -0.290 OA
HETATM   16  C21 UNL     1     -21.974 -23.662   2.268  1.00  0.00     0.171 A 
HETATM   17  C22 UNL     1     -22.814 -23.302   3.474  1.00  0.00     0.079 C 
HETATM   18  C23 UNL     1     -21.613 -25.122   2.325  1.00  0.00     0.079 C 
HETATM   19  O6  UNL     1     -20.792 -22.913   2.280  1.00  0.00    -0.309 OA
ENDROOT
BRANCH  14  20
HETATM   20  O4  UNL     1     -18.905 -18.103   0.814  1.00  0.00    -0.390 OA
ATOM     21  H4  UNL     1     -18.524 -17.410   1.340  1.00  0.00     0.210 HD
ENDBRANCH  14  20
BRANCH   6  22
HETATM   22  O2  UNL     1     -21.004 -20.206  -2.493  1.00  0.00    -0.340 OA
ATOM     23  H2  UNL     1     -20.265 -19.744  -2.871  1.00  0.00     0.220 HD
ENDBRANCH   6  22
BRANCH  13  24
HETATM   24  S1  UNL     1     -16.197 -16.709  -0.093  1.00  0.00    -0.088 SA
BRANCH  24  25
HETATM   25  S2  UNL     1     -15.088 -16.913   1.680  1.00  0.00    -0.088 SA
BRANCH  25  26
HETATM   26  C13 UNL     1     -16.293 -17.657   2.803  1.00  0.00     0.085 C 
HETATM   27  C14 UNL     1     -16.108 -19.143   2.745  1.00  0.00     0.008 C 
HETATM   28  C15 UNL     1     -15.992 -19.919   3.789  1.00  0.00     0.115 C 
HETATM   29  N1  UNL     1     -16.031 -19.424   5.119  1.00  0.00    -0.263 N 
HETATM   30  C16 UNL     1     -16.400 -18.041   5.296  1.00  0.00     0.053 C 
HETATM   31  C17 UNL     1     -15.739 -17.551   6.585  1.00  0.00     0.041 C 
HETATM   32  C18 UNL     1     -17.890 -17.861   5.480  1.00  0.00     0.041 C 
HETATM   33  C19 UNL     1     -15.865 -17.177   4.191  1.00  0.00     0.052 C 
BRANCH  29  34
HETATM   34  O3  UNL     1     -15.721 -20.262   6.122  1.00  0.00    -0.287 OA
ATOM     35  H3  UNL     1     -15.375 -19.895   6.927  1.00  0.00     0.244 HD
ENDBRANCH  29  34
ENDBRANCH  25  26
ENDBRANCH  24  25
ENDBRANCH  13  24
TORSDOF 6
ENDMDL
MODEL 2
REMARK VINA RESULT: -8.432772855      2.952      4.471
REMARK  6 active torsions:
REMARK  status: ('A' for Active; 'I' for Inactive)
REMARK    1  A    between atoms: C5_6  and  O2_7 
REMARK    2  A    between atoms: C12_15  and  S1_16 
REMARK    3  A    between atoms: S1_16  and  S2_17 
REMARK    4  A    between atoms: S2_17  and  C13_18 
REMARK    5  A    between atoms: N1_21  and  O3_22 
REMARK    6  A    between atoms: C20_28  and  O4_29 
ROOT
HETATM    1  C1  UNL     1     -17.782 -24.489   0.841  1.00  0.00     0.027 C 
HETATM    2  C2  UNL     1     -18.837 -25.029   1.358  1.00  0.00     0.008 A 
HETATM    3  C3  UNL     1     -18.776 -26.475   1.697  1.00  0.00     0.141 A 
HETATM    4  C4  UNL     1     -19.817 -27.120   2.199  1.00  0.00     0.226 A 
HETATM    5  O1  UNL     1     -20.969 -26.380   2.394  1.00  0.00    -0.261 OA
HETATM    6  C5  UNL     1     -21.069 -25.044   2.096  1.00  0.00     0.197 A 
HETATM    7  C6  UNL     1     -20.058 -24.296   1.579  1.00  0.00     0.040 A 
HETATM    8  C7  UNL     1     -20.245 -22.906   1.278  1.00  0.00    -0.034 C 
HETATM    9  C8  UNL     1     -20.268 -22.511  -0.186  1.00  0.00     0.048 C 
HETATM   10  C9  UNL     1     -20.323 -20.955   0.001  1.00  0.00    -0.028 C 
HETATM   11  C10 UNL     1     -21.672 -20.664   0.563  1.00  0.00     0.016 C 
HETATM   12  C11 UNL     1     -20.154 -20.389  -1.383  1.00  0.00     0.016 C 
HETATM   13  C12 UNL     1     -19.154 -20.814   0.888  1.00  0.00     0.099 C 
HETATM   14  C20 UNL     1     -19.490 -21.849   1.983  1.00  0.00     0.163 C 
HETATM   15  O5  UNL     1     -19.446 -28.443   2.405  1.00  0.00    -0.290 OA
HETATM   16  C21 UNL     1     -18.117 -28.640   2.003  1.00  0.00     0.171 A 
HETATM   17  C22 UNL     1     -17.213 -29.091   3.129  1.00  0.00     0.079 C 
HETATM   18  C23 UNL     1     -17.987 -29.591   0.844  1.00  0.00     0.079 C 
HETATM   19  O6  UNL     1     -17.733 -27.364   1.575  1.00  0.00    -0.309 OA
ENDROOT
BRANCH  14  20
HETATM   20  O4  UNL     1     -18.456 -22.183   2.788  1.00  0.00    -0.390 OA
ATOM     21  H4  UNL     1     -18.063 -21.526   3.350  1.00  0.00     0.210 HD
ENDBRANCH  14  20
BRANCH   6  22
HETATM   22  O2  UNL     1     -22.288 -24.392   2.334  1.00  0.00    -0.340 OA
ATOM     23  H2  UNL     1     -22.838 -24.701   3.044  1.00  0.00     0.220 HD
ENDBRANCH   6  22
BRANCH  13  24
HETATM   24  S1  UNL     1     -18.474 -19.324   1.400  1.00  0.00    -0.088 SA
BRANCH  24  25
HETATM   25  S2  UNL     1     -16.714 -19.651   2.499  1.00  0.00    -0.088 SA
BRANCH  25  26
HETATM   26  C13 UNL     1     -17.230 -19.242   4.183  1.00  0.00     0.085 C 
HETATM   27  C14 UNL     1     -16.706 -20.314   5.090  1.00  0.00     0.008 C 
HETATM   28  C15 UNL     1     -16.048 -20.095   6.195  1.00  0.00     0.115 C 
HETATM   29  N1  UNL     1     -15.752 -18.787   6.664  1.00  0.00    -0.263 N 
HETATM   30  C16 UNL     1     -16.376 -17.684   5.977  1.00  0.00     0.053 C 
HETATM   31  C17 UNL     1     -15.461 -16.469   6.133  1.00  0.00     0.041 C 
HETATM   32  C18 UNL     1     -17.707 -17.303   6.585  1.00  0.00     0.041 C 
HETATM   33  C19 UNL     1     -16.490 -17.942   4.502  1.00  0.00     0.052 C 
BRANCH  29  34
HETATM   34  O3  UNL     1     -14.916 -18.658   7.708  1.00  0.00    -0.287 OA
ATOM     35  H3  UNL     1     -14.053 -19.051   7.646  1.00  0.00     0.244 HD
ENDBRANCH  29  34
ENDBRANCH  25  26
ENDBRANCH  24  25
ENDBRANCH  13  24
TORSDOF 6
ENDMDL
MODEL 3
REMARK VINA RESULT: -8.358712560      3.037      5.226
REMARK  6 active torsions:
REMARK  status: ('A' for Active; 'I' for Inactive)
REMARK    1  A    between atoms: C5_6  and  O2_7 
REMARK    2  A    between atoms: C12_15  and  S1_16 
REMARK    3  A    between atoms: S1_16  and  S2_17 
REMARK    4  A    between atoms: S2_17  and  C13_18 
REMARK    5  A    between atoms: N1_21  and  O3_22 
REMARK    6  A    between atoms: C20_28  and  O4_29 
ROOT
HETATM    1  C1  UNL     1     -18.572 -24.793   0.523  1.00  0.00     0.027 C 
HETATM    2  C2  UNL     1     -19.486 -25.335   1.259  1.00  0.00     0.008 A 
HETATM    3  C3  UNL     1     -19.296 -26.754   1.662  1.00  0.00     0.141 A 
HETATM    4  C4  UNL     1     -20.194 -27.401   2.387  1.00  0.00     0.226 A 
HETATM    5  O1  UNL     1     -21.324 -26.691   2.753  1.00  0.00    -0.261 OA
HETATM    6  C5  UNL     1     -21.540 -25.382   2.403  1.00  0.00     0.197 A 
HETATM    7  C6  UNL     1     -20.679 -24.633   1.664  1.00  0.00     0.040 A 
HETATM    8  C7  UNL     1     -20.982 -23.273   1.325  1.00  0.00    -0.034 C 
HETATM    9  C8  UNL     1     -21.295 -22.975  -0.129  1.00  0.00     0.048 C 
HETATM   10  C9  UNL     1     -21.387 -21.413  -0.023  1.00  0.00    -0.028 C 
HETATM   11  C10 UNL     1     -22.621 -21.134   0.765  1.00  0.00     0.016 C 
HETATM   12  C11 UNL     1     -21.505 -20.932  -1.445  1.00  0.00     0.016 C 
HETATM   13  C12 UNL     1     -20.082 -21.173   0.619  1.00  0.00     0.099 C 
HETATM   14  C20 UNL     1     -20.160 -22.146   1.814  1.00  0.00     0.163 C 
HETATM   15  O5  UNL     1     -19.730 -28.694   2.595  1.00  0.00    -0.290 OA
HETATM   16  C21 UNL     1     -18.491 -28.870   1.962  1.00  0.00     0.171 A 
HETATM   17  C22 UNL     1     -17.374 -29.214   2.921  1.00  0.00     0.079 C 
HETATM   18  C23 UNL     1     -18.534 -29.888   0.854  1.00  0.00     0.079 C 
HETATM   19  O6  UNL     1     -18.254 -27.611   1.398  1.00  0.00    -0.309 OA
ENDROOT
BRANCH  14  20
HETATM   20  O4  UNL     1     -18.980 -22.392   2.428  1.00  0.00    -0.390 OA
ATOM     21  H4  UNL     1     -18.575 -21.717   2.960  1.00  0.00     0.210 HD
ENDBRANCH  14  20
BRANCH   6  22
HETATM   22  O2  UNL     1     -22.722 -24.759   2.829  1.00  0.00    -0.340 OA
ATOM     23  H2  UNL     1     -22.746 -23.810   2.874  1.00  0.00     0.220 HD
ENDBRANCH   6  22
BRANCH  13  24
HETATM   24  S1  UNL     1     -19.390 -19.631   0.908  1.00  0.00    -0.088 SA
BRANCH  24  25
HETATM   25  S2  UNL     1     -18.078 -19.103  -0.646  1.00  0.00    -0.088 SA
BRANCH  25  26
HETATM   26  C13 UNL     1     -16.460 -19.264   0.146  1.00  0.00     0.085 C 
HETATM   27  C14 UNL     1     -16.447 -18.355   1.337  1.00  0.00     0.008 C 
HETATM   28  C15 UNL     1     -16.074 -18.709   2.537  1.00  0.00     0.115 C 
HETATM   29  N1  UNL     1     -15.631 -20.022   2.846  1.00  0.00    -0.263 N 
HETATM   30  C16 UNL     1     -15.417 -20.921   1.739  1.00  0.00     0.053 C 
HETATM   31  C17 UNL     1     -15.634 -22.344   2.256  1.00  0.00     0.041 C 
HETATM   32  C18 UNL     1     -14.000 -20.864   1.215  1.00  0.00     0.041 C 
HETATM   33  C19 UNL     1     -16.425 -20.709   0.647  1.00  0.00     0.052 C 
BRANCH  29  34
HETATM   34  O3  UNL     1     -15.443 -20.346   4.136  1.00  0.00    -0.287 OA
ATOM     35  H3  UNL     1     -16.068 -20.027   4.777  1.00  0.00     0.244 HD
ENDBRANCH  29  34
ENDBRANCH  25  26
ENDBRANCH  24  25
ENDBRANCH  13  24
TORSDOF 6
ENDMDL
MODEL 4
REMARK VINA RESULT: -8.328629956      3.425      5.823
REMARK  6 active torsions:
REMARK  status: ('A' for Active; 'I' for Inactive)
REMARK    1  A    between atoms: C5_6  and  O2_7 
REMARK    2  A    between atoms: C12_15  and  S1_16 
REMARK    3  A    between atoms: S1_16  and  S2_17 
REMARK    4  A    between atoms: S2_17  and  C13_18 
REMARK    5  A    between atoms: N1_21  and  O3_22 
REMARK    6  A    between atoms: C20_28  and  O4_29 
ROOT
HETATM    1  C1  UNL     1     -18.535 -24.994   0.484  1.00  0.00     0.027 C 
HETATM    2  C2  UNL     1     -19.478 -25.484   1.221  1.00  0.00     0.008 A 
HETATM    3  C3  UNL     1     -19.392 -26.923   1.585  1.00  0.00     0.141 A 
HETATM    4  C4  UNL     1     -20.326 -27.519   2.307  1.00  0.00     0.226 A 
HETATM    5  O1  UNL     1     -21.392 -26.735   2.710  1.00  0.00    -0.261 OA
HETATM    6  C5  UNL     1     -21.512 -25.404   2.398  1.00  0.00     0.197 A 
HETATM    7  C6  UNL     1     -20.606 -24.704   1.663  1.00  0.00     0.040 A 
HETATM    8  C7  UNL     1     -20.810 -23.316   1.364  1.00  0.00    -0.034 C 
HETATM    9  C8  UNL     1     -21.119 -22.956  -0.077  1.00  0.00     0.048 C 
HETATM   10  C9  UNL     1     -21.090 -21.396   0.070  1.00  0.00    -0.028 C 
HETATM   11  C10 UNL     1     -22.287 -21.043   0.885  1.00  0.00     0.016 C 
HETATM   12  C11 UNL     1     -21.191 -20.869  -1.337  1.00  0.00     0.016 C 
HETATM   13  C12 UNL     1     -19.761 -21.274   0.696  1.00  0.00     0.099 C 
HETATM   14  C20 UNL     1     -19.896 -22.269   1.867  1.00  0.00     0.163 C 
HETATM   15  O5  UNL     1     -19.959 -28.849   2.475  1.00  0.00    -0.290 OA
HETATM   16  C21 UNL     1     -18.748 -29.102   1.817  1.00  0.00     0.171 A 
HETATM   17  C22 UNL     1     -17.646 -29.557   2.749  1.00  0.00     0.079 C 
HETATM   18  C23 UNL     1     -18.885 -30.085   0.685  1.00  0.00     0.079 C 
HETATM   19  O6  UNL     1     -18.422 -27.851   1.281  1.00  0.00    -0.309 OA
ENDROOT
BRANCH  14  20
HETATM   20  O4  UNL     1     -18.730 -22.620   2.455  1.00  0.00    -0.390 OA
ATOM     21  H4  UNL     1     -18.687 -22.720   3.398  1.00  0.00     0.210 HD
ENDBRANCH  14  20
BRANCH   6  22
HETATM   22  O2  UNL     1     -22.636 -24.704   2.859  1.00  0.00    -0.340 OA
ATOM     23  H2  UNL     1     -22.997 -24.014   2.314  1.00  0.00     0.220 HD
ENDBRANCH   6  22
BRANCH  13  24
HETATM   24  S1  UNL     1     -18.947 -19.797   1.013  1.00  0.00    -0.088 SA
BRANCH  24  25
HETATM   25  S2  UNL     1     -16.946 -19.902   0.383  1.00  0.00    -0.088 SA
BRANCH  25  26
HETATM   26  C13 UNL     1     -16.831 -18.511  -0.766  1.00  0.00     0.085 C 
HETATM   27  C14 UNL     1     -18.218 -18.204  -1.244  1.00  0.00     0.008 C 
HETATM   28  C15 UNL     1     -18.752 -17.013  -1.257  1.00  0.00     0.115 C 
HETATM   29  N1  UNL     1     -18.058 -15.857  -0.809  1.00  0.00    -0.263 N 
HETATM   30  C16 UNL     1     -16.654 -16.005  -0.514  1.00  0.00     0.053 C 
HETATM   31  C17 UNL     1     -16.294 -14.958   0.541  1.00  0.00     0.041 C 
HETATM   32  C18 UNL     1     -15.779 -15.727  -1.715  1.00  0.00     0.041 C 
HETATM   33  C19 UNL     1     -16.353 -17.343   0.098  1.00  0.00     0.052 C 
BRANCH  29  34
HETATM   34  O3  UNL     1     -18.744 -14.709  -0.686  1.00  0.00    -0.287 OA
ATOM     35  H3  UNL     1     -18.266 -13.889  -0.743  1.00  0.00     0.244 HD
ENDBRANCH  29  34
ENDBRANCH  25  26
ENDBRANCH  24  25
ENDBRANCH  13  24
TORSDOF 6
ENDMDL
MODEL 5
REMARK VINA RESULT: -8.319691696      3.680      6.197
REMARK  6 active torsions:
REMARK  status: ('A' for Active; 'I' for Inactive)
REMARK    1  A    between atoms: C5_6  and  O2_7 
REMARK    2  A    between atoms: C12_15  and  S1_16 
REMARK    3  A    between atoms: S1_16  and  S2_17 
REMARK    4  A    between atoms: S2_17  and  C13_18 
REMARK    5  A    between atoms: N1_21  and  O3_22 
REMARK    6  A    between atoms: C20_28  and  O4_29 
ROOT
HETATM    1  C1  UNL     1     -18.603 -24.942   0.506  1.00  0.00     0.027 C 
HETATM    2  C2  UNL     1     -19.552 -25.422   1.241  1.00  0.00     0.008 A 
HETATM    3  C3  UNL     1     -19.479 -26.860   1.611  1.00  0.00     0.141 A 
HETATM    4  C4  UNL     1     -20.421 -27.446   2.332  1.00  0.00     0.226 A 
HETATM    5  O1  UNL     1     -21.482 -26.652   2.728  1.00  0.00    -0.261 OA
HETATM    6  C5  UNL     1     -21.590 -25.321   2.410  1.00  0.00     0.197 A 
HETATM    7  C6  UNL     1     -20.676 -24.631   1.676  1.00  0.00     0.040 A 
HETATM    8  C7  UNL     1     -20.867 -23.242   1.372  1.00  0.00    -0.034 C 
HETATM    9  C8  UNL     1     -21.169 -22.885  -0.072  1.00  0.00     0.048 C 
HETATM   10  C9  UNL     1     -21.127 -21.325   0.070  1.00  0.00    -0.028 C 
HETATM   11  C10 UNL     1     -22.325 -20.960   0.879  1.00  0.00     0.016 C 
HETATM   12  C11 UNL     1     -21.219 -20.802  -1.339  1.00  0.00     0.016 C 
HETATM   13  C12 UNL     1     -19.800 -21.211   0.700  1.00  0.00     0.099 C 
HETATM   14  C20 UNL     1     -19.947 -22.201   1.875  1.00  0.00     0.163 C 
HETATM   15  O5  UNL     1     -20.066 -28.778   2.506  1.00  0.00    -0.290 OA
HETATM   16  C21 UNL     1     -18.853 -29.043   1.853  1.00  0.00     0.171 A 
HETATM   17  C22 UNL     1     -17.759 -29.503   2.791  1.00  0.00     0.079 C 
HETATM   18  C23 UNL     1     -18.994 -30.029   0.724  1.00  0.00     0.079 C 
HETATM   19  O6  UNL     1     -18.516 -27.797   1.314  1.00  0.00    -0.309 OA
ENDROOT
BRANCH  14  20
HETATM   20  O4  UNL     1     -18.786 -22.559   2.468  1.00  0.00    -0.390 OA
ATOM     21  H4  UNL     1     -18.614 -22.299   3.365  1.00  0.00     0.210 HD
ENDBRANCH  14  20
BRANCH   6  22
HETATM   22  O2  UNL     1     -22.711 -24.610   2.865  1.00  0.00    -0.340 OA
ATOM     23  H2  UNL     1     -22.572 -23.816   3.366  1.00  0.00     0.220 HD
ENDBRANCH   6  22
BRANCH  13  24
HETATM   24  S1  UNL     1     -18.976 -19.739   1.015  1.00  0.00    -0.088 SA
BRANCH  24  25
HETATM   25  S2  UNL     1     -16.959 -19.881   0.443  1.00  0.00    -0.088 SA
BRANCH  25  26
HETATM   26  C13 UNL     1     -16.906 -18.845  -1.037  1.00  0.00     0.085 C 
HETATM   27  C14 UNL     1     -17.427 -19.662  -2.180  1.00  0.00     0.008 C 
HETATM   28  C15 UNL     1     -18.342 -19.263  -3.022  1.00  0.00     0.115 C 
HETATM   29  N1  UNL     1     -18.952 -17.983  -2.940  1.00  0.00    -0.263 N 
HETATM   30  C16 UNL     1     -18.389 -17.044  -2.002  1.00  0.00     0.053 C 
HETATM   31  C17 UNL     1     -19.510 -16.096  -1.573  1.00  0.00     0.041 C 
HETATM   32  C18 UNL     1     -17.311 -16.185  -2.623  1.00  0.00     0.041 C 
HETATM   33  C19 UNL     1     -17.909 -17.725  -0.754  1.00  0.00     0.052 C 
BRANCH  29  34
HETATM   34  O3  UNL     1     -20.008 -17.729  -3.730  1.00  0.00    -0.287 OA
ATOM     35  H3  UNL     1     -20.036 -16.900  -4.194  1.00  0.00     0.244 HD
ENDBRANCH  29  34
ENDBRANCH  25  26
ENDBRANCH  24  25
ENDBRANCH  13  24
TORSDOF 6
ENDMDL
