MODEL 1
REMARK VINA RESULT: -9.839793244      0.000      0.000
REMARK  6 active torsions:
REMARK  status: ('A' for Active; 'I' for Inactive)
REMARK    1  A    between atoms: O1_2  and  N1_3 
REMARK    2  A    between atoms: C5_8  and  C6_9 
REMARK    3  A    between atoms: C6_9  and  C7_10 
REMARK    4  A    between atoms: C7_10  and  C9_12 
REMARK    5  A    between atoms: C16_21  and  O3_22 
REMARK    6  A    between atoms: C18_25  and  O4_26 
ROOT
HETATM    1  C9  UNL     1     -19.344 -22.517   0.810  1.00  0.00     0.004 C 
HETATM    2  C10 UNL     1     -18.227 -22.075   1.652  1.00  0.00     0.046 C 
HETATM    3  C11 UNL     1     -18.101 -20.544   1.674  1.00  0.00    -0.026 A 
HETATM    4  C12 UNL     1     -18.573 -19.844   0.608  1.00  0.00    -0.001 A 
HETATM    5  S1  UNL     1     -18.271 -18.222   1.007  1.00  0.00    -0.068 SA
HETATM    6  C13 UNL     1     -17.543 -18.456   2.531  1.00  0.00     0.132 A 
HETATM    7  O2  UNL     1     -17.049 -17.598   3.427  1.00  0.00    -0.301 OA
HETATM    8  C14 UNL     1     -16.527 -17.980   4.547  1.00  0.00     0.096 A 
HETATM    9  C15 UNL     1     -16.016 -17.102   5.475  1.00  0.00     0.075 A 
HETATM   10  C16 UNL     1     -15.468 -17.514   6.654  1.00  0.00     0.071 A 
HETATM   11  C17 UNL     1     -15.410 -18.840   6.951  1.00  0.00     0.074 A 
HETATM   12  C18 UNL     1     -15.923 -19.772   6.026  1.00  0.00     0.085 A 
HETATM   13  C19 UNL     1     -16.482 -19.329   4.822  1.00  0.00     0.082 A 
HETATM   14  C20 UNL     1     -16.985 -20.226   3.913  1.00  0.00     0.201 A 
HETATM   15  O5  UNL     1     -16.932 -21.425   4.181  1.00  0.00    -0.286 OA
HETATM   16  C21 UNL     1     -17.557 -19.812   2.689  1.00  0.00     0.063 A 
HETATM   17  C22 UNL     1     -19.180 -20.583  -0.533  1.00  0.00     0.062 C 
HETATM   18  C23 UNL     1     -20.096 -19.776  -1.351  1.00  0.00     0.243 C 
HETATM   19  N2  UNL     1     -21.191 -20.660  -1.701  1.00  0.00    -0.074 N 
ATOM     20  H21 UNL     1     -21.333 -20.737  -2.709  1.00  0.00     0.277 HD
ATOM     21  H22 UNL     1     -22.105 -20.273  -1.467  1.00  0.00     0.277 HD
HETATM   22  C24 UNL     1     -20.941 -21.944  -1.065  1.00  0.00     0.242 C 
HETATM   23  C25 UNL     1     -20.208 -21.513   0.184  1.00  0.00    -0.006 C 
HETATM   24  C26 UNL     1     -21.141 -20.728   1.008  1.00  0.00     0.018 C 
ENDROOT
BRANCH   1  25
HETATM   25  C7  UNL     1     -20.124 -23.720   1.297  1.00  0.00    -0.013 C 
HETATM   26  C8  UNL     1     -20.880 -23.534   2.551  1.00  0.00     0.010 C 
BRANCH  25  27
HETATM   27  C6  UNL     1     -19.213 -24.922   1.352  1.00  0.00     0.015 C 
BRANCH  27  28
HETATM   28  C5  UNL     1     -19.768 -26.250   1.079  1.00  0.00     0.034 C 
HETATM   29  C2  UNL     1     -20.464 -27.069   2.057  1.00  0.00     0.014 C 
HETATM   30  N1  UNL     1     -21.642 -27.358   2.482  1.00  0.00    -0.275 N 
HETATM   31  C3  UNL     1     -19.112 -27.600   2.487  1.00  0.00     0.056 C 
ATOM     32  H1  UNL     1     -22.459 -26.899   2.076  1.00  0.00     0.193 HD
HETATM   33  C4  UNL     1     -18.637 -27.291   1.081  1.00  0.00     0.016 C 
BRANCH  30  34
HETATM   34  O1  UNL     1     -21.797 -28.278   3.475  1.00  0.00    -0.285 OA
HETATM   35  C1  UNL     1     -23.107 -28.780   3.747  1.00  0.00     0.237 C 
ENDBRANCH  30  34
ENDBRANCH  27  28
ENDBRANCH  25  27
ENDBRANCH   1  25
BRANCH  12  36
HETATM   36  O4  UNL     1     -15.823 -21.058   6.406  1.00  0.00    -0.360 OA
ATOM     37  H4  UNL     1     -16.652 -21.491   6.570  1.00  0.00     0.217 HD
ENDBRANCH  12  36
BRANCH  10  38
HETATM   38  O3  UNL     1     -14.951 -16.593   7.586  1.00  0.00    -0.361 OA
ATOM     39  H3  UNL     1     -15.436 -16.353   8.367  1.00  0.00     0.217 HD
ENDBRANCH  10  38
TORSDOF 6
ENDMDL
MODEL 2
REMARK VINA RESULT: -9.493809585      1.262      1.519
REMARK  6 active torsions:
REMARK  status: ('A' for Active; 'I' for Inactive)
REMARK    1  A    between atoms: O1_2  and  N1_3 
REMARK    2  A    between atoms: C5_8  and  C6_9 
REMARK    3  A    between atoms: C6_9  and  C7_10 
REMARK    4  A    between atoms: C7_10  and  C9_12 
REMARK    5  A    between atoms: C16_21  and  O3_22 
REMARK    6  A    between atoms: C18_25  and  O4_26 
ROOT
HETATM    1  C9  UNL     1     -19.287 -22.575   0.837  1.00  0.00     0.004 C 
HETATM    2  C10 UNL     1     -18.177 -22.110   1.676  1.00  0.00     0.046 C 
HETATM    3  C11 UNL     1     -18.085 -20.577   1.702  1.00  0.00    -0.026 A 
HETATM    4  C12 UNL     1     -18.578 -19.884   0.641  1.00  0.00    -0.001 A 
HETATM    5  S1  UNL     1     -18.312 -18.257   1.044  1.00  0.00    -0.068 SA
HETATM    6  C13 UNL     1     -17.573 -18.480   2.564  1.00  0.00     0.132 A 
HETATM    7  O2  UNL     1     -17.095 -17.613   3.460  1.00  0.00    -0.301 OA
HETATM    8  C14 UNL     1     -16.559 -17.986   4.578  1.00  0.00     0.096 A 
HETATM    9  C15 UNL     1     -16.066 -17.099   5.507  1.00  0.00     0.075 A 
HETATM   10  C16 UNL     1     -15.503 -17.502   6.682  1.00  0.00     0.071 A 
HETATM   11  C17 UNL     1     -15.414 -18.828   6.975  1.00  0.00     0.074 A 
HETATM   12  C18 UNL     1     -15.909 -19.768   6.048  1.00  0.00     0.085 A 
HETATM   13  C19 UNL     1     -16.482 -19.335   4.848  1.00  0.00     0.082 A 
HETATM   14  C20 UNL     1     -16.968 -20.240   3.938  1.00  0.00     0.201 A 
HETATM   15  O5  UNL     1     -16.887 -21.438   4.202  1.00  0.00    -0.286 OA
HETATM   16  C21 UNL     1     -17.555 -19.836   2.717  1.00  0.00     0.063 A 
HETATM   17  C22 UNL     1     -19.173 -20.633  -0.501  1.00  0.00     0.062 C 
HETATM   18  C23 UNL     1     -20.109 -19.845  -1.312  1.00  0.00     0.243 C 
HETATM   19  N2  UNL     1     -21.186 -20.753  -1.661  1.00  0.00    -0.074 N 
ATOM     20  H21 UNL     1     -21.330 -20.830  -2.668  1.00  0.00     0.277 HD
ATOM     21  H22 UNL     1     -22.108 -20.387  -1.422  1.00  0.00     0.277 HD
HETATM   22  C24 UNL     1     -20.904 -22.033  -1.030  1.00  0.00     0.242 C 
HETATM   23  C25 UNL     1     -20.176 -21.589   0.217  1.00  0.00    -0.006 C 
HETATM   24  C26 UNL     1     -21.124 -20.828   1.047  1.00  0.00     0.018 C 
ENDROOT
BRANCH   1  25
HETATM   25  C7  UNL     1     -20.036 -23.797   1.323  1.00  0.00    -0.013 C 
HETATM   26  C8  UNL     1     -20.936 -23.586   2.474  1.00  0.00     0.010 C 
BRANCH  25  27
HETATM   27  C6  UNL     1     -19.063 -24.926   1.558  1.00  0.00     0.015 C 
BRANCH  27  28
HETATM   28  C5  UNL     1     -19.477 -26.299   1.258  1.00  0.00     0.034 C 
HETATM   29  C2  UNL     1     -18.789 -27.488   1.732  1.00  0.00     0.014 C 
HETATM   30  N1  UNL     1     -18.809 -28.360   2.676  1.00  0.00    -0.275 N 
HETATM   31  C3  UNL     1     -17.886 -27.378   0.521  1.00  0.00     0.056 C 
ATOM     32  H1  UNL     1     -19.495 -28.285   3.428  1.00  0.00     0.193 HD
HETATM   33  C4  UNL     1     -19.035 -26.669  -0.167  1.00  0.00     0.016 C 
BRANCH  30  34
HETATM   34  O1  UNL     1     -17.910 -29.385   2.670  1.00  0.00    -0.285 OA
HETATM   35  C1  UNL     1     -16.695 -29.237   3.406  1.00  0.00     0.237 C 
ENDBRANCH  30  34
ENDBRANCH  27  28
ENDBRANCH  25  27
ENDBRANCH   1  25
BRANCH  12  36
HETATM   36  O4  UNL     1     -15.778 -21.054   6.423  1.00  0.00    -0.360 OA
ATOM     37  H4  UNL     1     -16.330 -21.665   5.951  1.00  0.00     0.217 HD
ENDBRANCH  12  36
BRANCH  10  38
HETATM   38  O3  UNL     1     -15.004 -16.573   7.615  1.00  0.00    -0.361 OA
ATOM     39  H3  UNL     1     -15.568 -15.922   8.016  1.00  0.00     0.217 HD
ENDBRANCH  10  38
TORSDOF 6
ENDMDL
MODEL 3
REMARK VINA RESULT: -9.460900917      9.952     13.703
REMARK  6 active torsions:
REMARK  status: ('A' for Active; 'I' for Inactive)
REMARK    1  A    between atoms: O1_2  and  N1_3 
REMARK    2  A    between atoms: C5_8  and  C6_9 
REMARK    3  A    between atoms: C6_9  and  C7_10 
REMARK    4  A    between atoms: C7_10  and  C9_12 
REMARK    5  A    between atoms: C16_21  and  O3_22 
REMARK    6  A    between atoms: C18_25  and  O4_26 
ROOT
HETATM    1  C9  UNL     1     -29.328 -30.156   8.637  1.00  0.00     0.004 C 
HETATM    2  C10 UNL     1     -29.665 -28.745   8.416  1.00  0.00     0.046 C 
HETATM    3  C11 UNL     1     -29.188 -27.857   9.576  1.00  0.00    -0.026 A 
HETATM    4  C12 UNL     1     -29.048 -28.423  10.805  1.00  0.00    -0.001 A 
HETATM    5  S1  UNL     1     -28.502 -27.153  11.789  1.00  0.00    -0.068 SA
HETATM    6  C13 UNL     1     -28.458 -25.913  10.620  1.00  0.00     0.132 A 
HETATM    7  O2  UNL     1     -28.116 -24.624  10.697  1.00  0.00    -0.301 OA
HETATM    8  C14 UNL     1     -28.152 -23.829   9.676  1.00  0.00     0.096 A 
HETATM    9  C15 UNL     1     -27.800 -22.501   9.747  1.00  0.00     0.075 A 
HETATM   10  C16 UNL     1     -27.841 -21.671   8.666  1.00  0.00     0.071 A 
HETATM   11  C17 UNL     1     -28.240 -22.148   7.456  1.00  0.00     0.074 A 
HETATM   12  C18 UNL     1     -28.608 -23.504   7.343  1.00  0.00     0.085 A 
HETATM   13  C19 UNL     1     -28.560 -24.339   8.463  1.00  0.00     0.082 A 
HETATM   14  C20 UNL     1     -28.915 -25.661   8.366  1.00  0.00     0.201 A 
HETATM   15  O5  UNL     1     -29.277 -26.092   7.273  1.00  0.00    -0.286 OA
HETATM   16  C21 UNL     1     -28.877 -26.533   9.478  1.00  0.00     0.063 A 
HETATM   17  C22 UNL     1     -29.371 -29.866  10.979  1.00  0.00     0.062 C 
HETATM   18  C23 UNL     1     -28.720 -30.489  12.139  1.00  0.00     0.243 C 
HETATM   19  N2  UNL     1     -28.334 -31.819  11.705  1.00  0.00    -0.074 N 
ATOM     20  H21 UNL     1     -28.721 -32.557  12.294  1.00  0.00     0.277 HD
ATOM     21  H22 UNL     1     -27.348 -32.020  11.869  1.00  0.00     0.277 HD
HETATM   22  C24 UNL     1     -28.713 -31.953  10.307  1.00  0.00     0.242 C 
HETATM   23  C25 UNL     1     -28.556 -30.529   9.825  1.00  0.00    -0.006 C 
HETATM   24  C26 UNL     1     -27.130 -30.175   9.918  1.00  0.00     0.018 C 
ENDROOT
BRANCH   1  25
HETATM   25  C7  UNL     1     -28.921 -30.953   7.416  1.00  0.00    -0.013 C 
HETATM   26  C8  UNL     1     -28.815 -32.413   7.605  1.00  0.00     0.010 C 
BRANCH  25  27
HETATM   27  C6  UNL     1     -27.667 -30.360   6.821  1.00  0.00     0.015 C 
BRANCH  27  28
HETATM   28  C5  UNL     1     -27.555 -30.242   5.365  1.00  0.00     0.034 C 
HETATM   29  C2  UNL     1     -26.427 -29.645   4.672  1.00  0.00     0.014 C 
HETATM   30  N1  UNL     1     -25.316 -29.945   4.099  1.00  0.00    -0.275 N 
HETATM   31  C3  UNL     1     -27.108 -28.302   4.840  1.00  0.00     0.056 C 
ATOM     32  H1  UNL     1     -24.998 -30.915   4.075  1.00  0.00     0.193 HD
HETATM   33  C4  UNL     1     -28.417 -29.066   4.878  1.00  0.00     0.016 C 
BRANCH  30  34
HETATM   34  O1  UNL     1     -24.563 -28.964   3.524  1.00  0.00    -0.285 OA
HETATM   35  C1  UNL     1     -23.215 -28.787   3.963  1.00  0.00     0.237 C 
ENDBRANCH  30  34
ENDBRANCH  27  28
ENDBRANCH  25  27
ENDBRANCH   1  25
BRANCH  12  36
HETATM   36  O4  UNL     1     -28.988 -23.884   6.109  1.00  0.00    -0.360 OA
ATOM     37  H4  UNL     1     -29.270 -24.788   6.041  1.00  0.00     0.217 HD
ENDBRANCH  12  36
BRANCH  10  38
HETATM   38  O3  UNL     1     -27.476 -20.314   8.767  1.00  0.00    -0.361 OA
ATOM     39  H3  UNL     1     -26.650 -19.996   8.422  1.00  0.00     0.217 HD
ENDBRANCH  10  38
TORSDOF 6
ENDMDL
MODEL 4
REMARK VINA RESULT: -9.366907106      2.629      7.885
REMARK  6 active torsions:
REMARK  status: ('A' for Active; 'I' for Inactive)
REMARK    1  A    between atoms: O1_2  and  N1_3 
REMARK    2  A    between atoms: C5_8  and  C6_9 
REMARK    3  A    between atoms: C6_9  and  C7_10 
REMARK    4  A    between atoms: C7_10  and  C9_12 
REMARK    5  A    between atoms: C16_21  and  O3_22 
REMARK    6  A    between atoms: C18_25  and  O4_26 
ROOT
HETATM    1  C9  UNL     1     -17.571 -20.952   1.157  1.00  0.00     0.004 C 
HETATM    2  C10 UNL     1     -17.681 -22.201   1.919  1.00  0.00     0.046 C 
HETATM    3  C11 UNL     1     -18.948 -22.986   1.546  1.00  0.00    -0.026 A 
HETATM    4  C12 UNL     1     -20.013 -22.295   1.059  1.00  0.00    -0.001 A 
HETATM    5  S1  UNL     1     -21.182 -23.488   0.758  1.00  0.00    -0.068 SA
HETATM    6  C13 UNL     1     -20.297 -24.857   1.258  1.00  0.00     0.132 A 
HETATM    7  O2  UNL     1     -20.607 -26.155   1.297  1.00  0.00    -0.301 OA
HETATM    8  C14 UNL     1     -19.781 -27.058   1.719  1.00  0.00     0.096 A 
HETATM    9  C15 UNL     1     -20.092 -28.398   1.761  1.00  0.00     0.075 A 
HETATM   10  C16 UNL     1     -19.216 -29.342   2.208  1.00  0.00     0.071 A 
HETATM   11  C17 UNL     1     -17.977 -28.975   2.634  1.00  0.00     0.074 A 
HETATM   12  C18 UNL     1     -17.621 -27.611   2.607  1.00  0.00     0.085 A 
HETATM   13  C19 UNL     1     -18.534 -26.657   2.145  1.00  0.00     0.082 A 
HETATM   14  C20 UNL     1     -18.199 -25.327   2.113  1.00  0.00     0.201 A 
HETATM   15  O5  UNL     1     -17.081 -24.994   2.499  1.00  0.00    -0.286 OA
HETATM   16  C21 UNL     1     -19.098 -24.338   1.651  1.00  0.00     0.063 A 
HETATM   17  C22 UNL     1     -19.915 -20.816   0.918  1.00  0.00     0.062 C 
HETATM   18  C23 UNL     1     -20.852 -20.243  -0.057  1.00  0.00     0.243 C 
HETATM   19  N2  UNL     1     -20.116 -19.195  -0.739  1.00  0.00    -0.074 N 
ATOM     20  H21 UNL     1     -20.574 -18.285  -0.679  1.00  0.00     0.277 HD
ATOM     21  H22 UNL     1     -20.140 -19.290  -1.755  1.00  0.00     0.277 HD
HETATM   22  C24 UNL     1     -18.764 -19.186  -0.203  1.00  0.00     0.242 C 
HETATM   23  C25 UNL     1     -18.576 -20.646   0.136  1.00  0.00    -0.006 C 
HETATM   24  C26 UNL     1     -18.602 -21.409  -1.122  1.00  0.00     0.018 C 
ENDROOT
BRANCH   1  25
HETATM   25  C7  UNL     1     -16.177 -20.540   0.732  1.00  0.00    -0.013 C 
HETATM   26  C8  UNL     1     -15.074 -21.377   1.243  1.00  0.00     0.010 C 
BRANCH  25  27
HETATM   27  C6  UNL     1     -15.971 -19.076   1.031  1.00  0.00     0.015 C 
BRANCH  27  28
HETATM   28  C5  UNL     1     -15.493 -18.679   2.358  1.00  0.00     0.034 C 
HETATM   29  C2  UNL     1     -16.024 -19.190   3.611  1.00  0.00     0.014 C 
HETATM   30  N1  UNL     1     -15.823 -20.093   4.503  1.00  0.00    -0.275 N 
HETATM   31  C3  UNL     1     -17.075 -18.101   3.542  1.00  0.00     0.056 C 
ATOM     32  H1  UNL     1     -15.058 -20.760   4.393  1.00  0.00     0.193 HD
HETATM   33  C4  UNL     1     -16.075 -17.306   2.725  1.00  0.00     0.016 C 
BRANCH  30  34
HETATM   34  O1  UNL     1     -16.635 -20.158   5.596  1.00  0.00    -0.285 OA
HETATM   35  C1  UNL     1     -16.171 -19.606   6.829  1.00  0.00     0.237 C 
ENDBRANCH  30  34
ENDBRANCH  27  28
ENDBRANCH  25  27
ENDBRANCH   1  25
BRANCH  12  36
HETATM   36  O4  UNL     1     -16.378 -27.343   3.047  1.00  0.00    -0.360 OA
ATOM     37  H4  UNL     1     -16.067 -27.919   3.735  1.00  0.00     0.217 HD
ENDBRANCH  12  36
BRANCH  10  38
HETATM   38  O3  UNL     1     -19.560 -30.708   2.241  1.00  0.00    -0.361 OA
ATOM     39  H3  UNL     1     -19.300 -31.301   1.547  1.00  0.00     0.217 HD
ENDBRANCH  10  38
TORSDOF 6
ENDMDL
MODEL 5
REMARK VINA RESULT: -9.230255727     10.554     17.270
REMARK  6 active torsions:
REMARK  status: ('A' for Active; 'I' for Inactive)
REMARK    1  A    between atoms: O1_2  and  N1_3 
REMARK    2  A    between atoms: C5_8  and  C6_9 
REMARK    3  A    between atoms: C6_9  and  C7_10 
REMARK    4  A    between atoms: C7_10  and  C9_12 
REMARK    5  A    between atoms: C16_21  and  O3_22 
REMARK    6  A    between atoms: C18_25  and  O4_26 
ROOT
HETATM    1  C9  UNL     1     -28.239 -30.327   8.626  1.00  0.00     0.004 C 
HETATM    2  C10 UNL     1     -28.194 -31.371   9.656  1.00  0.00     0.046 C 
HETATM    3  C11 UNL     1     -28.948 -30.950  10.927  1.00  0.00    -0.026 A 
HETATM    4  C12 UNL     1     -29.069 -29.623  11.194  1.00  0.00    -0.001 A 
HETATM    5  S1  UNL     1     -29.957 -29.568  12.639  1.00  0.00    -0.068 SA
HETATM    6  C13 UNL     1     -30.165 -31.242  12.886  1.00  0.00     0.132 A 
HETATM    7  O2  UNL     1     -30.781 -31.933  13.848  1.00  0.00    -0.301 OA
HETATM    8  C14 UNL     1     -30.828 -33.226  13.858  1.00  0.00     0.096 A 
HETATM    9  C15 UNL     1     -31.461 -33.946  14.846  1.00  0.00     0.075 A 
HETATM   10  C16 UNL     1     -31.507 -35.309  14.848  1.00  0.00     0.071 A 
HETATM   11  C17 UNL     1     -30.912 -36.012  13.846  1.00  0.00     0.074 A 
HETATM   12  C18 UNL     1     -30.253 -35.310  12.816  1.00  0.00     0.085 A 
HETATM   13  C19 UNL     1     -30.218 -33.912  12.831  1.00  0.00     0.082 A 
HETATM   14  C20 UNL     1     -29.580 -33.218  11.834  1.00  0.00     0.201 A 
HETATM   15  O5  UNL     1     -29.041 -33.852  10.929  1.00  0.00    -0.286 OA
HETATM   16  C21 UNL     1     -29.526 -31.805  11.819  1.00  0.00     0.063 A 
HETATM   17  C22 UNL     1     -28.461 -28.636  10.259  1.00  0.00     0.062 C 
HETATM   18  C23 UNL     1     -29.060 -27.297  10.327  1.00  0.00     0.243 C 
HETATM   19  N2  UNL     1     -29.113 -26.821   8.958  1.00  0.00    -0.074 N 
ATOM     20  H21 UNL     1     -28.629 -25.932   8.827  1.00  0.00     0.277 HD
ATOM     21  H22 UNL     1     -30.044 -26.508   8.682  1.00  0.00     0.277 HD
HETATM   22  C24 UNL     1     -28.595 -27.879   8.103  1.00  0.00     0.242 C 
HETATM   23  C25 UNL     1     -29.012 -29.108   8.877  1.00  0.00    -0.006 C 
HETATM   24  C26 UNL     1     -30.483 -29.158   8.888  1.00  0.00     0.018 C 
ENDROOT
BRANCH   1  25
HETATM   25  C7  UNL     1     -28.359 -30.797   7.192  1.00  0.00    -0.013 C 
HETATM   26  C8  UNL     1     -28.984 -32.119   6.996  1.00  0.00     0.010 C 
BRANCH  25  27
HETATM   27  C6  UNL     1     -27.014 -30.694   6.514  1.00  0.00     0.015 C 
BRANCH  27  28
HETATM   28  C5  UNL     1     -26.960 -30.433   5.073  1.00  0.00     0.034 C 
HETATM   29  C2  UNL     1     -25.890 -29.710   4.407  1.00  0.00     0.014 C 
HETATM   30  N1  UNL     1     -24.785 -29.892   3.776  1.00  0.00    -0.275 N 
HETATM   31  C3  UNL     1     -26.636 -28.430   4.724  1.00  0.00     0.056 C 
ATOM     32  H1  UNL     1     -24.417 -30.835   3.649  1.00  0.00     0.193 HD
HETATM   33  C4  UNL     1     -27.900 -29.267   4.727  1.00  0.00     0.016 C 
BRANCH  30  34
HETATM   34  O1  UNL     1     -24.107 -28.820   3.275  1.00  0.00    -0.285 OA
HETATM   35  C1  UNL     1     -22.710 -28.705   3.546  1.00  0.00     0.237 C 
ENDBRANCH  30  34
ENDBRANCH  27  28
ENDBRANCH  25  27
ENDBRANCH   1  25
BRANCH  12  36
HETATM   36  O4  UNL     1     -29.696 -36.088  11.870  1.00  0.00    -0.360 OA
ATOM     37  H4  UNL     1     -28.746 -36.101  11.874  1.00  0.00     0.217 HD
ENDBRANCH  12  36
BRANCH  10  38
HETATM   38  O3  UNL     1     -32.161 -36.021  15.872  1.00  0.00    -0.361 OA
ATOM     39  H3  UNL     1     -32.207 -35.683  16.759  1.00  0.00     0.217 HD
ENDBRANCH  10  38
TORSDOF 6
ENDMDL
