MODEL 1
REMARK VINA RESULT: -9.159808245      0.000      0.000
REMARK  6 active torsions:
REMARK  status: ('A' for Active; 'I' for Inactive)
REMARK    1  A    between atoms: C10_16  and  S1_17 
REMARK    2  A    between atoms: S1_17  and  C11_18 
REMARK    3  A    between atoms: C13_20  and  O3_21 
REMARK    4  A    between atoms: C13_20  and  C14_23 
REMARK    5  A    between atoms: C14_23  and  C15_24 
REMARK    6  A    between atoms: C15_24  and  O4_25 
ROOT
HETATM    1  C1  UNL     1     -16.689 -28.299   2.820  1.00  0.00     0.015 C 
HETATM    2  C2  UNL     1     -16.646 -28.180   1.310  1.00  0.00    -0.037 C 
HETATM    3  C3  UNL     1     -15.209 -28.293   0.887  1.00  0.00     0.015 C 
HETATM    4  C4  UNL     1     -17.429 -29.269   0.652  1.00  0.00     0.095 C 
HETATM    5  C5  UNL     1     -18.876 -28.982   0.738  1.00  0.00     0.184 C 
HETATM    6  O1  UNL     1     -19.662 -29.891   0.333  1.00  0.00    -0.290 OA
HETATM    7  C6  UNL     1     -19.371 -27.712   1.265  1.00  0.00     0.131 A 
HETATM    8  O2  UNL     1     -20.612 -27.626   1.667  1.00  0.00    -0.288 OA
HETATM    9  C7  UNL     1     -21.129 -26.514   2.154  1.00  0.00     0.164 A 
HETATM   10  N1  UNL     1     -22.381 -26.486   2.542  1.00  0.00    -0.378 N 
ATOM     11  H11 UNL     1     -22.781 -25.627   2.918  1.00  0.00     0.158 HD
ATOM     12  H12 UNL     1     -22.961 -27.321   2.470  1.00  0.00     0.158 HD
HETATM   13  C8  UNL     1     -20.344 -25.383   2.252  1.00  0.00     0.112 A 
HETATM   14  C9  UNL     1     -20.942 -24.192   2.785  1.00  0.00     0.105 C 
HETATM   15  N2  UNL     1     -21.403 -23.225   3.217  1.00  0.00    -0.191 NA
HETATM   16  C10 UNL     1     -19.009 -25.398   1.842  1.00  0.00     0.035 A 
HETATM   17  C24 UNL     1     -18.537 -26.593   1.345  1.00  0.00    -0.001 A 
HETATM   18  C25 UNL     1     -17.146 -26.798   0.875  1.00  0.00     0.052 C 
ENDROOT
BRANCH  16  19
HETATM   19  S1  UNL     1     -17.982 -23.989   1.969  1.00  0.00    -0.121 SA
BRANCH  19  20
HETATM   20  C11 UNL     1     -18.663 -22.440   1.453  1.00  0.00     0.074 C 
HETATM   21  C12 UNL     1     -19.431 -22.430   0.166  1.00  0.00     0.055 C 
HETATM   22  C13 UNL     1     -20.110 -21.130   0.002  1.00  0.00     0.061 C 
HETATM   23  C16 UNL     1     -19.605 -19.959   0.747  1.00  0.00     0.045 C 
HETATM   24  C17 UNL     1     -18.335 -20.046   1.498  1.00  0.00     0.016 C 
HETATM   25  C18 UNL     1     -17.424 -18.925   1.089  1.00  0.00    -0.034 C 
HETATM   26  C22 UNL     1     -17.644 -21.344   1.311  1.00  0.00     0.022 C 
HETATM   27  C19 UNL     1     -18.234 -17.650   0.884  1.00  0.00     0.016 C 
HETATM   28  C20 UNL     1     -16.360 -18.582   2.088  1.00  0.00     0.016 C 
HETATM   29  C21 UNL     1     -16.841 -19.290  -0.276  1.00  0.00     0.083 C 
HETATM   30  S2  UNL     1     -17.098 -21.110  -0.424  1.00  0.00    -0.157 SA
HETATM   31  C23 UNL     1     -16.454 -21.610   2.126  1.00  0.00     0.028 C 
BRANCH  22  32
HETATM   32  O3  UNL     1     -20.085 -20.869  -1.402  1.00  0.00    -0.390 OA
ATOM     33  H3  UNL     1     -20.861 -21.294  -1.747  1.00  0.00     0.210 HD
ENDBRANCH  22  32
BRANCH  22  34
HETATM   34  C14 UNL     1     -21.589 -21.318   0.275  1.00  0.00     0.064 C 
BRANCH  34  35
HETATM   35  C15 UNL     1     -22.494 -20.634  -0.691  1.00  0.00     0.167 C 
BRANCH  35  36
HETATM   36  O4  UNL     1     -23.360 -19.759  -0.031  1.00  0.00    -0.401 OA
ATOM     37  H4  UNL     1     -24.170 -19.653  -0.515  1.00  0.00     0.209 HD
ENDBRANCH  35  36
ENDBRANCH  34  35
ENDBRANCH  22  34
ENDBRANCH  19  20
ENDBRANCH  16  19
TORSDOF 6
ENDMDL
MODEL 2
REMARK VINA RESULT: -8.641559828      1.568      1.760
REMARK  6 active torsions:
REMARK  status: ('A' for Active; 'I' for Inactive)
REMARK    1  A    between atoms: C10_16  and  S1_17 
REMARK    2  A    between atoms: S1_17  and  C11_18 
REMARK    3  A    between atoms: C13_20  and  O3_21 
REMARK    4  A    between atoms: C13_20  and  C14_23 
REMARK    5  A    between atoms: C14_23  and  C15_24 
REMARK    6  A    between atoms: C15_24  and  O4_25 
ROOT
HETATM    1  C1  UNL     1     -17.087 -27.611   3.213  1.00  0.00     0.015 C 
HETATM    2  C2  UNL     1     -17.351 -28.214   1.847  1.00  0.00    -0.037 C 
HETATM    3  C3  UNL     1     -16.056 -28.787   1.346  1.00  0.00     0.015 C 
HETATM    4  C4  UNL     1     -18.366 -29.307   1.917  1.00  0.00     0.095 C 
HETATM    5  C5  UNL     1     -19.723 -28.738   2.044  1.00  0.00     0.184 C 
HETATM    6  O1  UNL     1     -20.670 -29.558   2.245  1.00  0.00    -0.290 OA
HETATM    7  C6  UNL     1     -19.959 -27.298   1.943  1.00  0.00     0.131 A 
HETATM    8  O2  UNL     1     -21.071 -26.797   2.413  1.00  0.00    -0.288 OA
HETATM    9  C7  UNL     1     -21.352 -25.510   2.357  1.00  0.00     0.164 A 
HETATM   10  N1  UNL     1     -22.484 -25.062   2.844  1.00  0.00    -0.378 N 
ATOM     11  H11 UNL     1     -22.702 -24.067   2.801  1.00  0.00     0.158 HD
ATOM     12  H12 UNL     1     -23.152 -25.705   3.268  1.00  0.00     0.158 HD
HETATM   13  C8  UNL     1     -20.448 -24.638   1.783  1.00  0.00     0.112 A 
HETATM   14  C9  UNL     1     -20.790 -23.245   1.739  1.00  0.00     0.105 C 
HETATM   15  N2  UNL     1     -21.044 -22.119   1.699  1.00  0.00    -0.191 NA
HETATM   16  C10 UNL     1     -19.239 -25.100   1.259  1.00  0.00     0.035 A 
HETATM   17  C24 UNL     1     -19.012 -26.456   1.352  1.00  0.00    -0.001 A 
HETATM   18  C25 UNL     1     -17.782 -27.121   0.862  1.00  0.00     0.052 C 
ENDROOT
BRANCH  16  19
HETATM   19  S1  UNL     1     -18.064 -24.023   0.542  1.00  0.00    -0.121 SA
BRANCH  19  20
HETATM   20  C11 UNL     1     -18.307 -22.286   0.777  1.00  0.00     0.074 C 
HETATM   21  C12 UNL     1     -18.307 -21.427  -0.450  1.00  0.00     0.055 C 
HETATM   22  C13 UNL     1     -18.741 -20.060  -0.101  1.00  0.00     0.061 C 
HETATM   23  C16 UNL     1     -18.629 -19.610   1.301  1.00  0.00     0.045 C 
HETATM   24  C17 UNL     1     -17.928 -20.446   2.298  1.00  0.00     0.016 C 
HETATM   25  C18 UNL     1     -16.881 -19.631   3.001  1.00  0.00    -0.034 C 
HETATM   26  C22 UNL     1     -17.305 -21.651   1.701  1.00  0.00     0.022 C 
HETATM   27  C19 UNL     1     -17.407 -18.223   3.254  1.00  0.00     0.016 C 
HETATM   28  C20 UNL     1     -16.462 -20.162   4.338  1.00  0.00     0.016 C 
HETATM   29  C21 UNL     1     -15.701 -19.485   2.040  1.00  0.00     0.083 C 
HETATM   30  S2  UNL     1     -15.937 -20.828   0.799  1.00  0.00    -0.157 SA
HETATM   31  C23 UNL     1     -16.715 -22.639   2.611  1.00  0.00     0.028 C 
BRANCH  22  32
HETATM   32  O3  UNL     1     -17.988 -19.199  -0.956  1.00  0.00    -0.390 OA
ATOM     33  H3  UNL     1     -18.619 -18.579  -1.302  1.00  0.00     0.210 HD
ENDBRANCH  22  32
BRANCH  22  34
HETATM   34  C14 UNL     1     -20.158 -19.859  -0.598  1.00  0.00     0.064 C 
BRANCH  34  35
HETATM   35  C15 UNL     1     -20.280 -18.989  -1.801  1.00  0.00     0.167 C 
BRANCH  35  36
HETATM   36  O4  UNL     1     -20.508 -17.660  -1.436  1.00  0.00    -0.401 OA
ATOM     37  H4  UNL     1     -21.265 -17.589  -0.867  1.00  0.00     0.209 HD
ENDBRANCH  35  36
ENDBRANCH  34  35
ENDBRANCH  22  34
ENDBRANCH  19  20
ENDBRANCH  16  19
TORSDOF 6
ENDMDL
MODEL 3
REMARK VINA RESULT: -8.486870830     11.287     14.728
REMARK  6 active torsions:
REMARK  status: ('A' for Active; 'I' for Inactive)
REMARK    1  A    between atoms: C10_16  and  S1_17 
REMARK    2  A    between atoms: S1_17  and  C11_18 
REMARK    3  A    between atoms: C13_20  and  O3_21 
REMARK    4  A    between atoms: C13_20  and  C14_23 
REMARK    5  A    between atoms: C14_23  and  C15_24 
REMARK    6  A    between atoms: C15_24  and  O4_25 
ROOT
HETATM    1  C1  UNL     1     -25.283 -25.888  11.980  1.00  0.00     0.015 C 
HETATM    2  C2  UNL     1     -26.246 -24.957  12.691  1.00  0.00    -0.037 C 
HETATM    3  C3  UNL     1     -26.405 -25.458  14.098  1.00  0.00     0.015 C 
HETATM    4  C4  UNL     1     -25.725 -23.558  12.734  1.00  0.00     0.095 C 
HETATM    5  C5  UNL     1     -25.901 -22.907  11.420  1.00  0.00     0.184 C 
HETATM    6  O1  UNL     1     -25.382 -21.758  11.279  1.00  0.00    -0.290 OA
HETATM    7  C6  UNL     1     -26.638 -23.558  10.338  1.00  0.00     0.131 A 
HETATM    8  O2  UNL     1     -26.470 -23.145   9.109  1.00  0.00    -0.288 OA
HETATM    9  C7  UNL     1     -27.099 -23.683   8.083  1.00  0.00     0.164 A 
HETATM   10  N1  UNL     1     -26.892 -23.227   6.871  1.00  0.00    -0.378 N 
ATOM     11  H11 UNL     1     -27.379 -23.644   6.078  1.00  0.00     0.158 HD
ATOM     12  H12 UNL     1     -26.245 -22.455   6.716  1.00  0.00     0.158 HD
HETATM   13  C8  UNL     1     -27.976 -24.729   8.294  1.00  0.00     0.112 A 
HETATM   14  C9  UNL     1     -28.643 -25.289   7.152  1.00  0.00     0.105 C 
HETATM   15  N2  UNL     1     -29.186 -25.756   6.247  1.00  0.00    -0.191 NA
HETATM   16  C10 UNL     1     -28.207 -25.225   9.579  1.00  0.00     0.035 A 
HETATM   17  C24 UNL     1     -27.515 -24.615  10.601  1.00  0.00    -0.001 A 
HETATM   18  C25 UNL     1     -27.625 -25.014  12.024  1.00  0.00     0.052 C 
ENDROOT
BRANCH  16  19
HETATM   19  S1  UNL     1     -29.296 -26.559   9.878  1.00  0.00    -0.121 SA
BRANCH  19  20
HETATM   20  C11 UNL     1     -28.748 -28.175   9.409  1.00  0.00     0.074 C 
HETATM   21  C12 UNL     1     -29.290 -28.731   8.128  1.00  0.00     0.055 C 
HETATM   22  C13 UNL     1     -28.568 -29.970   7.778  1.00  0.00     0.061 C 
HETATM   23  C16 UNL     1     -27.862 -30.711   8.842  1.00  0.00     0.045 C 
HETATM   24  C17 UNL     1     -28.027 -30.319  10.258  1.00  0.00     0.016 C 
HETATM   25  C18 UNL     1     -28.430 -31.515  11.073  1.00  0.00    -0.034 C 
HETATM   26  C22 UNL     1     -29.019 -29.233  10.442  1.00  0.00     0.022 C 
HETATM   27  C19 UNL     1     -27.676 -32.748  10.588  1.00  0.00     0.016 C 
HETATM   28  C20 UNL     1     -28.139 -31.403  12.539  1.00  0.00     0.016 C 
HETATM   29  C21 UNL     1     -29.910 -31.775  10.794  1.00  0.00     0.083 C 
HETATM   30  S2  UNL     1     -30.539 -30.194  10.086  1.00  0.00    -0.157 SA
HETATM   31  C23 UNL     1     -29.156 -28.651  11.781  1.00  0.00     0.028 C 
BRANCH  22  32
HETATM   32  O3  UNL     1     -29.544 -30.808   7.159  1.00  0.00    -0.390 OA
ATOM     33  H3  UNL     1     -29.051 -31.532   6.791  1.00  0.00     0.210 HD
ENDBRANCH  22  32
BRANCH  22  34
HETATM   34  C14 UNL     1     -27.618 -29.672   6.636  1.00  0.00     0.064 C 
BRANCH  34  35
HETATM   35  C15 UNL     1     -28.247 -29.016   5.456  1.00  0.00     0.167 C 
BRANCH  35  36
HETATM   36  O4  UNL     1     -27.476 -27.937   5.015  1.00  0.00    -0.401 OA
ATOM     37  H4  UNL     1     -27.723 -27.137   5.464  1.00  0.00     0.209 HD
ENDBRANCH  35  36
ENDBRANCH  34  35
ENDBRANCH  22  34
ENDBRANCH  19  20
ENDBRANCH  16  19
TORSDOF 6
ENDMDL
MODEL 4
REMARK VINA RESULT: -8.381242106      3.382      5.625
REMARK  6 active torsions:
REMARK  status: ('A' for Active; 'I' for Inactive)
REMARK    1  A    between atoms: C10_16  and  S1_17 
REMARK    2  A    between atoms: S1_17  and  C11_18 
REMARK    3  A    between atoms: C13_20  and  O3_21 
REMARK    4  A    between atoms: C13_20  and  C14_23 
REMARK    5  A    between atoms: C14_23  and  C15_24 
REMARK    6  A    between atoms: C15_24  and  O4_25 
ROOT
HETATM    1  C1  UNL     1     -17.127 -20.673   2.700  1.00  0.00     0.015 C 
HETATM    2  C2  UNL     1     -16.561 -21.505   1.566  1.00  0.00    -0.037 C 
HETATM    3  C3  UNL     1     -15.209 -20.946   1.224  1.00  0.00     0.015 C 
HETATM    4  C4  UNL     1     -16.404 -22.937   1.962  1.00  0.00     0.095 C 
HETATM    5  C5  UNL     1     -17.715 -23.617   1.947  1.00  0.00     0.184 C 
HETATM    6  O1  UNL     1     -17.745 -24.806   2.390  1.00  0.00    -0.290 OA
HETATM    7  C6  UNL     1     -18.915 -22.950   1.446  1.00  0.00     0.131 A 
HETATM    8  O2  UNL     1     -20.091 -23.417   1.775  1.00  0.00    -0.288 OA
HETATM    9  C7  UNL     1     -21.217 -22.868   1.362  1.00  0.00     0.164 A 
HETATM   10  N1  UNL     1     -22.369 -23.379   1.723  1.00  0.00    -0.378 N 
ATOM     11  H11 UNL     1     -23.240 -22.955   1.404  1.00  0.00     0.158 HD
ATOM     12  H12 UNL     1     -22.401 -24.202   2.324  1.00  0.00     0.158 HD
HETATM   13  C8  UNL     1     -21.174 -21.754   0.548  1.00  0.00     0.112 A 
HETATM   14  C9  UNL     1     -22.420 -21.185   0.117  1.00  0.00     0.105 C 
HETATM   15  N2  UNL     1     -23.411 -20.710  -0.235  1.00  0.00    -0.191 NA
HETATM   16  C10 UNL     1     -19.954 -21.199   0.155  1.00  0.00     0.035 A 
HETATM   17  C24 UNL     1     -18.820 -21.824   0.624  1.00  0.00    -0.001 A 
HETATM   18  C25 UNL     1     -17.443 -21.369   0.320  1.00  0.00     0.052 C 
ENDROOT
BRANCH  16  19
HETATM   19  S1  UNL     1     -19.864 -19.778  -0.861  1.00  0.00    -0.121 SA
BRANCH  19  20
HETATM   20  C11 UNL     1     -18.419 -18.767  -0.713  1.00  0.00     0.074 C 
HETATM   21  C12 UNL     1     -18.505 -17.591   0.212  1.00  0.00     0.055 C 
HETATM   22  C13 UNL     1     -17.164 -16.997   0.387  1.00  0.00     0.061 C 
HETATM   23  C16 UNL     1     -16.129 -17.255  -0.634  1.00  0.00     0.045 C 
HETATM   24  C17 UNL     1     -16.481 -17.940  -1.895  1.00  0.00     0.016 C 
HETATM   25  C18 UNL     1     -16.013 -17.124  -3.066  1.00  0.00    -0.034 C 
HETATM   26  C22 UNL     1     -17.934 -18.205  -2.020  1.00  0.00     0.022 C 
HETATM   27  C19 UNL     1     -14.655 -16.506  -2.755  1.00  0.00     0.016 C 
HETATM   28  C20 UNL     1     -15.835 -17.895  -4.339  1.00  0.00     0.016 C 
HETATM   29  C21 UNL     1     -16.991 -15.960  -3.225  1.00  0.00     0.083 C 
HETATM   30  S2  UNL     1     -18.497 -16.483  -2.300  1.00  0.00    -0.157 SA
HETATM   31  C23 UNL     1     -18.386 -19.018  -3.153  1.00  0.00     0.028 C 
BRANCH  22  32
HETATM   32  O3  UNL     1     -17.392 -15.593   0.515  1.00  0.00    -0.390 OA
ATOM     33  H3  UNL     1     -17.948 -15.364  -0.220  1.00  0.00     0.210 HD
ENDBRANCH  22  32
BRANCH  22  34
HETATM   34  C14 UNL     1     -16.643 -17.372   1.759  1.00  0.00     0.064 C 
BRANCH  34  35
HETATM   35  C15 UNL     1     -15.223 -17.001   2.010  1.00  0.00     0.167 C 
BRANCH  35  36
HETATM   36  O4  UNL     1     -15.139 -15.828   2.764  1.00  0.00    -0.401 OA
ATOM     37  H4  UNL     1     -15.446 -15.971   3.651  1.00  0.00     0.209 HD
ENDBRANCH  35  36
ENDBRANCH  34  35
ENDBRANCH  22  34
ENDBRANCH  19  20
ENDBRANCH  16  19
TORSDOF 6
ENDMDL
MODEL 5
REMARK VINA RESULT: -8.371015626     11.989     13.567
REMARK  6 active torsions:
REMARK  status: ('A' for Active; 'I' for Inactive)
REMARK    1  A    between atoms: C10_16  and  S1_17 
REMARK    2  A    between atoms: S1_17  and  C11_18 
REMARK    3  A    between atoms: C13_20  and  O3_21 
REMARK    4  A    between atoms: C13_20  and  C14_23 
REMARK    5  A    between atoms: C14_23  and  C15_24 
REMARK    6  A    between atoms: C15_24  and  O4_25 
ROOT
HETATM    1  C1  UNL     1     -30.803 -27.602   9.125  1.00  0.00     0.015 C 
HETATM    2  C2  UNL     1     -29.362 -28.069   9.077  1.00  0.00    -0.037 C 
HETATM    3  C3  UNL     1     -29.233 -29.240  10.009  1.00  0.00     0.015 C 
HETATM    4  C4  UNL     1     -28.972 -28.504   7.702  1.00  0.00     0.095 C 
HETATM    5  C5  UNL     1     -28.729 -27.326   6.844  1.00  0.00     0.184 C 
HETATM    6  O1  UNL     1     -28.517 -27.552   5.614  1.00  0.00    -0.290 OA
HETATM    7  C6  UNL     1     -28.733 -25.970   7.390  1.00  0.00     0.131 A 
HETATM    8  O2  UNL     1     -28.882 -24.954   6.581  1.00  0.00    -0.288 OA
HETATM    9  C7  UNL     1     -28.896 -23.704   7.001  1.00  0.00     0.164 A 
HETATM   10  N1  UNL     1     -29.048 -22.724   6.143  1.00  0.00    -0.378 N 
ATOM     11  H11 UNL     1     -29.059 -21.758   6.468  1.00  0.00     0.158 HD
ATOM     12  H12 UNL     1     -29.156 -22.922   5.149  1.00  0.00     0.158 HD
HETATM   13  C8  UNL     1     -28.749 -23.436   8.347  1.00  0.00     0.112 A 
HETATM   14  C9  UNL     1     -28.769 -22.062   8.766  1.00  0.00     0.105 C 
HETATM   15  N2  UNL     1     -28.787 -20.965   9.124  1.00  0.00    -0.191 NA
HETATM   16  C10 UNL     1     -28.586 -24.469   9.272  1.00  0.00     0.035 A 
HETATM   17  C24 UNL     1     -28.581 -25.749   8.762  1.00  0.00    -0.001 A 
HETATM   18  C25 UNL     1     -28.431 -26.966   9.594  1.00  0.00     0.052 C 
ENDROOT
BRANCH  16  19
HETATM   19  S1  UNL     1     -28.416 -24.165  10.985  1.00  0.00    -0.121 SA
BRANCH  19  20
HETATM   20  C11 UNL     1     -26.815 -24.411  11.697  1.00  0.00     0.074 C 
HETATM   21  C12 UNL     1     -26.662 -25.560  12.647  1.00  0.00     0.055 C 
HETATM   22  C13 UNL     1     -25.234 -25.754  12.967  1.00  0.00     0.061 C 
HETATM   23  C16 UNL     1     -24.297 -24.630  12.771  1.00  0.00     0.045 C 
HETATM   24  C17 UNL     1     -24.808 -23.284  12.436  1.00  0.00     0.016 C 
HETATM   25  C18 UNL     1     -24.252 -22.274  13.397  1.00  0.00    -0.034 C 
HETATM   26  C22 UNL     1     -26.289 -23.214  12.440  1.00  0.00     0.022 C 
HETATM   27  C19 UNL     1     -22.797 -22.606  13.709  1.00  0.00     0.016 C 
HETATM   28  C20 UNL     1     -24.256 -20.861  12.898  1.00  0.00     0.016 C 
HETATM   29  C21 UNL     1     -25.021 -22.427  14.710  1.00  0.00     0.083 C 
HETATM   30  S2  UNL     1     -26.559 -23.333  14.250  1.00  0.00    -0.157 SA
HETATM   31  C23 UNL     1     -26.916 -21.975  11.971  1.00  0.00     0.028 C 
BRANCH  22  32
HETATM   32  O3  UNL     1     -25.212 -26.183  14.330  1.00  0.00    -0.390 OA
ATOM     33  H3  UNL     1     -24.557 -25.639  14.750  1.00  0.00     0.210 HD
ENDBRANCH  22  32
BRANCH  22  34
HETATM   34  C14 UNL     1     -24.735 -26.980  12.229  1.00  0.00     0.064 C 
BRANCH  34  35
HETATM   35  C15 UNL     1     -25.785 -27.733  11.489  1.00  0.00     0.167 C 
BRANCH  35  36
HETATM   36  O4  UNL     1     -25.327 -29.004  11.128  1.00  0.00    -0.401 OA
ATOM     37  H4  UNL     1     -25.555 -29.204  10.228  1.00  0.00     0.209 HD
ENDBRANCH  35  36
ENDBRANCH  34  35
ENDBRANCH  22  34
ENDBRANCH  19  20
ENDBRANCH  16  19
TORSDOF 6
ENDMDL
