MODEL 1
REMARK VINA RESULT: -7.402255597      0.000      0.000
REMARK  7 active torsions:
REMARK  status: ('A' for Active; 'I' for Inactive)
REMARK    1  A    between atoms: C2_2  and  O1_3 
REMARK    2  A    between atoms: O1_3  and  C3_4 
REMARK    3  A    between atoms: C3_4  and  C4_6 
REMARK    4  A    between atoms: C9_11  and  O3_12 
REMARK    5  A    between atoms: C10_14  and  O4_15 
REMARK    6  A    between atoms: C20_26  and  O5_27 
REMARK    7  A    between atoms: C22_32  and  C23_33 
ROOT
HETATM    1  C4  UNL     1     -28.318 -23.043   8.350  1.00  0.00     0.073 A 
HETATM    2  C5  UNL     1     -27.522 -23.782   9.226  1.00  0.00     0.028 A 
HETATM    3  C6  UNL     1     -27.321 -23.466  10.547  1.00  0.00    -0.045 A 
HETATM    4  C7  UNL     1     -27.941 -22.345  11.044  1.00  0.00    -0.020 A 
HETATM    5  C8  UNL     1     -28.727 -21.597  10.219  1.00  0.00     0.047 A 
HETATM    6  C9  UNL     1     -28.928 -21.927   8.872  1.00  0.00     0.082 A 
HETATM    7  C10 UNL     1     -27.770 -21.911  12.460  1.00  0.00     0.155 C 
HETATM    8  C11 UNL     1     -27.159 -20.553  12.617  1.00  0.00     0.015 C 
HETATM    9  C12 UNL     1     -28.174 -19.442  12.646  1.00  0.00     0.012 C 
HETATM   10  C13 UNL     1     -26.104 -20.197  11.631  1.00  0.00     0.007 C 
HETATM   11  C14 UNL     1     -24.736 -20.710  11.934  1.00  0.00     0.000 C 
HETATM   12  C15 UNL     1     -24.492 -21.003  13.396  1.00  0.00     0.000 C 
HETATM   13  C16 UNL     1     -23.039 -21.369  13.576  1.00  0.00     0.000 C 
HETATM   14  C17 UNL     1     -22.701 -22.741  13.083  1.00  0.00     0.000 C 
HETATM   15  C18 UNL     1     -23.235 -23.849  13.963  1.00  0.00     0.003 C 
HETATM   16  C19 UNL     1     -23.291 -25.137  13.167  1.00  0.00     0.042 C 
HETATM   17  C20 UNL     1     -24.400 -26.027  13.683  1.00  0.00     0.217 C 
HETATM   18  C21 UNL     1     -25.106 -26.734  12.592  1.00  0.00     0.288 C 
HETATM   19  O6  UNL     1     -24.444 -27.515  11.865  1.00  0.00    -0.262 OA
HETATM   20  O7  UNL     1     -26.427 -26.547  12.384  1.00  0.00    -0.309 OA
HETATM   21  C22 UNL     1     -27.151 -25.349  12.199  1.00  0.00     0.171 C 
HETATM   22  C27 UNL     1     -26.460 -24.338  11.365  1.00  0.00     0.076 C 
ENDROOT
BRANCH   1  23
HETATM   23  C3  UNL     1     -28.449 -23.487   6.972  1.00  0.00     0.296 C 
HETATM   24  O2  UNL     1     -28.883 -22.813   6.018  1.00  0.00    -0.259 OA
BRANCH  23  25
HETATM   25  O1  UNL     1     -28.059 -24.795   6.656  1.00  0.00    -0.318 OA
BRANCH  25  26
HETATM   26  C2  UNL     1     -28.968 -25.872   6.773  1.00  0.00     0.174 C 
HETATM   27  C1  UNL     1     -28.391 -27.137   6.200  1.00  0.00     0.034 C 
ENDBRANCH  25  26
ENDBRANCH  23  25
ENDBRANCH   1  23
BRANCH   6  28
HETATM   28  O3  UNL     1     -29.736 -21.125   8.097  1.00  0.00    -0.360 OA
ATOM     29  H3  UNL     1     -30.365 -20.531   8.490  1.00  0.00     0.217 HD
ENDBRANCH   6  28
BRANCH   7  30
HETATM   30  O4  UNL     1     -29.074 -21.813  12.999  1.00  0.00    -0.391 OA
ATOM     31  H4  UNL     1     -29.180 -22.565  13.570  1.00  0.00     0.210 HD
ENDBRANCH   7  30
BRANCH  21  32
HETATM   32  C23 UNL     1     -28.435 -25.736  11.575  1.00  0.00    -0.004 A 
HETATM   33  C24 UNL     1     -28.640 -26.611  10.527  1.00  0.00     0.036 A 
HETATM   34  C25 UNL     1     -29.993 -26.675  10.275  1.00  0.00     0.142 A 
HETATM   35  O8  UNL     1     -30.596 -25.887  11.114  1.00  0.00    -0.334 OA
HETATM   36  C26 UNL     1     -29.702 -25.306  11.909  1.00  0.00     0.151 A 
ENDBRANCH  21  32
BRANCH  17  37
HETATM   37  O5  UNL     1     -25.271 -25.298  14.489  1.00  0.00    -0.386 OA
ATOM     38  H5  UNL     1     -26.168 -25.575  14.341  1.00  0.00     0.210 HD
ENDBRANCH  17  37
TORSDOF 7
ENDMDL
MODEL 2
REMARK VINA RESULT: -7.294233973      0.923      1.257
REMARK  7 active torsions:
REMARK  status: ('A' for Active; 'I' for Inactive)
REMARK    1  A    between atoms: C2_2  and  O1_3 
REMARK    2  A    between atoms: O1_3  and  C3_4 
REMARK    3  A    between atoms: C3_4  and  C4_6 
REMARK    4  A    between atoms: C9_11  and  O3_12 
REMARK    5  A    between atoms: C10_14  and  O4_15 
REMARK    6  A    between atoms: C20_26  and  O5_27 
REMARK    7  A    between atoms: C22_32  and  C23_33 
ROOT
HETATM    1  C4  UNL     1     -28.053 -23.032   8.240  1.00  0.00     0.073 A 
HETATM    2  C5  UNL     1     -27.296 -23.761   9.159  1.00  0.00     0.028 A 
HETATM    3  C6  UNL     1     -27.187 -23.451  10.492  1.00  0.00    -0.045 A 
HETATM    4  C7  UNL     1     -27.864 -22.350  10.957  1.00  0.00    -0.020 A 
HETATM    5  C8  UNL     1     -28.615 -21.613  10.090  1.00  0.00     0.047 A 
HETATM    6  C9  UNL     1     -28.722 -21.936   8.730  1.00  0.00     0.082 A 
HETATM    7  C10 UNL     1     -27.794 -21.924  12.384  1.00  0.00     0.155 C 
HETATM    8  C11 UNL     1     -27.228 -20.553  12.590  1.00  0.00     0.015 C 
HETATM    9  C12 UNL     1     -28.269 -19.468  12.562  1.00  0.00     0.012 C 
HETATM   10  C13 UNL     1     -26.121 -20.164  11.676  1.00  0.00     0.007 C 
HETATM   11  C14 UNL     1     -24.763 -20.647  12.061  1.00  0.00     0.000 C 
HETATM   12  C15 UNL     1     -24.605 -20.947  13.533  1.00  0.00     0.000 C 
HETATM   13  C16 UNL     1     -23.158 -21.280  13.802  1.00  0.00     0.000 C 
HETATM   14  C17 UNL     1     -22.756 -22.639  13.322  1.00  0.00     0.000 C 
HETATM   15  C18 UNL     1     -23.317 -23.767  14.158  1.00  0.00     0.003 C 
HETATM   16  C19 UNL     1     -23.292 -25.049  13.351  1.00  0.00     0.042 C 
HETATM   17  C20 UNL     1     -24.409 -25.970  13.789  1.00  0.00     0.217 C 
HETATM   18  C21 UNL     1     -25.027 -26.683  12.650  1.00  0.00     0.288 C 
HETATM   19  O6  UNL     1     -24.302 -27.442  11.960  1.00  0.00    -0.262 OA
HETATM   20  O7  UNL     1     -26.337 -26.526  12.360  1.00  0.00    -0.309 OA
HETATM   21  C22 UNL     1     -27.077 -25.345  12.138  1.00  0.00     0.171 C 
HETATM   22  C27 UNL     1     -26.359 -24.309  11.357  1.00  0.00     0.076 C 
ENDROOT
BRANCH   1  23
HETATM   23  C3  UNL     1     -28.086 -23.467   6.853  1.00  0.00     0.296 C 
HETATM   24  O2  UNL     1     -29.106 -23.711   6.180  1.00  0.00    -0.259 OA
BRANCH  23  25
HETATM   25  O1  UNL     1     -26.868 -23.640   6.182  1.00  0.00    -0.318 OA
BRANCH  25  26
HETATM   26  C2  UNL     1     -26.239 -22.553   5.530  1.00  0.00     0.174 C 
HETATM   27  C1  UNL     1     -25.104 -23.023   4.662  1.00  0.00     0.034 C 
ENDBRANCH  25  26
ENDBRANCH  23  25
ENDBRANCH   1  23
BRANCH   6  28
HETATM   28  O3  UNL     1     -29.499 -21.147   7.911  1.00  0.00    -0.360 OA
ATOM     29  H3  UNL     1     -30.226 -20.642   8.257  1.00  0.00     0.217 HD
ENDBRANCH   6  28
BRANCH   7  30
HETATM   30  O4  UNL     1     -29.132 -21.862  12.841  1.00  0.00    -0.391 OA
ATOM     31  H4  UNL     1     -29.168 -22.399  13.624  1.00  0.00     0.210 HD
ENDBRANCH   7  30
BRANCH  21  32
HETATM   32  C23 UNL     1     -28.309 -25.757  11.431  1.00  0.00    -0.004 A 
HETATM   33  C24 UNL     1     -28.424 -26.613  10.355  1.00  0.00     0.036 A 
HETATM   34  C25 UNL     1     -29.757 -26.713  10.021  1.00  0.00     0.142 A 
HETATM   35  O8  UNL     1     -30.433 -25.963  10.840  1.00  0.00    -0.334 OA
HETATM   36  C26 UNL     1     -29.606 -25.373  11.699  1.00  0.00     0.151 A 
ENDBRANCH  21  32
BRANCH  17  37
HETATM   37  O5  UNL     1     -25.347 -25.269  14.543  1.00  0.00    -0.386 OA
ATOM     38  H5  UNL     1     -26.100 -25.818  14.727  1.00  0.00     0.210 HD
ENDBRANCH  17  37
TORSDOF 7
ENDMDL
MODEL 3
REMARK VINA RESULT: -7.264401961      1.684      7.225
REMARK  7 active torsions:
REMARK  status: ('A' for Active; 'I' for Inactive)
REMARK    1  A    between atoms: C2_2  and  O1_3 
REMARK    2  A    between atoms: O1_3  and  C3_4 
REMARK    3  A    between atoms: C3_4  and  C4_6 
REMARK    4  A    between atoms: C9_11  and  O3_12 
REMARK    5  A    between atoms: C10_14  and  O4_15 
REMARK    6  A    between atoms: C20_26  and  O5_27 
REMARK    7  A    between atoms: C22_32  and  C23_33 
ROOT
HETATM    1  C4  UNL     1     -25.515 -25.109  13.264  1.00  0.00     0.073 A 
HETATM    2  C5  UNL     1     -25.880 -24.923  11.929  1.00  0.00     0.028 A 
HETATM    3  C6  UNL     1     -27.144 -25.133  11.435  1.00  0.00    -0.045 A 
HETATM    4  C7  UNL     1     -28.117 -25.557  12.307  1.00  0.00    -0.020 A 
HETATM    5  C8  UNL     1     -27.799 -25.750  13.618  1.00  0.00     0.047 A 
HETATM    6  C9  UNL     1     -26.507 -25.532  14.117  1.00  0.00     0.082 A 
HETATM    7  C10 UNL     1     -29.513 -25.828  11.860  1.00  0.00     0.155 C 
HETATM    8  C11 UNL     1     -29.963 -27.241  12.072  1.00  0.00     0.015 C 
HETATM    9  C12 UNL     1     -30.599 -27.469  13.416  1.00  0.00     0.012 C 
HETATM   10  C13 UNL     1     -28.931 -28.290  11.857  1.00  0.00     0.007 C 
HETATM   11  C14 UNL     1     -28.713 -28.703  10.440  1.00  0.00     0.000 C 
HETATM   12  C15 UNL     1     -29.892 -28.450   9.530  1.00  0.00     0.000 C 
HETATM   13  C16 UNL     1     -29.591 -29.045   8.177  1.00  0.00     0.000 C 
HETATM   14  C17 UNL     1     -28.605 -28.250   7.380  1.00  0.00     0.000 C 
HETATM   15  C18 UNL     1     -29.167 -26.954   6.840  1.00  0.00     0.003 C 
HETATM   16  C19 UNL     1     -28.026 -26.017   6.501  1.00  0.00     0.042 C 
HETATM   17  C20 UNL     1     -28.464 -24.577   6.651  1.00  0.00     0.217 C 
HETATM   18  C21 UNL     1     -27.401 -23.723   7.226  1.00  0.00     0.288 C 
HETATM   19  O6  UNL     1     -26.320 -23.616   6.594  1.00  0.00    -0.262 OA
HETATM   20  O7  UNL     1     -27.586 -23.075   8.395  1.00  0.00    -0.309 OA
HETATM   21  C22 UNL     1     -27.987 -23.577   9.652  1.00  0.00     0.171 C 
HETATM   22  C27 UNL     1     -27.397 -24.891  10.003  1.00  0.00     0.076 C 
ENDROOT
BRANCH   1  23
HETATM   23  C3  UNL     1     -24.141 -24.850  13.660  1.00  0.00     0.296 C 
HETATM   24  O2  UNL     1     -23.742 -24.589  14.811  1.00  0.00    -0.259 OA
BRANCH  23  25
HETATM   25  O1  UNL     1     -23.147 -24.889  12.674  1.00  0.00    -0.318 OA
BRANCH  25  26
HETATM   26  C2  UNL     1     -22.270 -23.795  12.484  1.00  0.00     0.174 C 
HETATM   27  C1  UNL     1     -23.003 -22.595  11.951  1.00  0.00     0.034 C 
ENDBRANCH  25  26
ENDBRANCH  23  25
ENDBRANCH   1  23
BRANCH   6  28
HETATM   28  O3  UNL     1     -26.257 -25.747  15.453  1.00  0.00    -0.360 OA
ATOM     29  H3  UNL     1     -26.161 -26.626  15.803  1.00  0.00     0.217 HD
ENDBRANCH   6  28
BRANCH   7  30
HETATM   30  O4  UNL     1     -30.348 -25.031  12.678  1.00  0.00    -0.391 OA
ATOM     31  H4  UNL     1     -30.607 -25.583  13.407  1.00  0.00     0.210 HD
ENDBRANCH   7  30
BRANCH  21  32
HETATM   32  C23 UNL     1     -27.593 -22.557  10.648  1.00  0.00    -0.004 A 
HETATM   33  C24 UNL     1     -26.410 -21.849  10.716  1.00  0.00     0.036 A 
HETATM   34  C25 UNL     1     -26.472 -21.004  11.802  1.00  0.00     0.142 A 
HETATM   35  O8  UNL     1     -27.625 -21.175  12.379  1.00  0.00    -0.334 OA
HETATM   36  C26 UNL     1     -28.326 -22.094  11.721  1.00  0.00     0.151 A 
ENDBRANCH  21  32
BRANCH  17  37
HETATM   37  O5  UNL     1     -29.649 -24.505   7.381  1.00  0.00    -0.386 OA
ATOM     38  H5  UNL     1     -29.500 -24.066   8.210  1.00  0.00     0.210 HD
ENDBRANCH  17  37
TORSDOF 7
ENDMDL
MODEL 4
REMARK VINA RESULT: -7.236100052      2.707      7.231
REMARK  7 active torsions:
REMARK  status: ('A' for Active; 'I' for Inactive)
REMARK    1  A    between atoms: C2_2  and  O1_3 
REMARK    2  A    between atoms: O1_3  and  C3_4 
REMARK    3  A    between atoms: C3_4  and  C4_6 
REMARK    4  A    between atoms: C9_11  and  O3_12 
REMARK    5  A    between atoms: C10_14  and  O4_15 
REMARK    6  A    between atoms: C20_26  and  O5_27 
REMARK    7  A    between atoms: C22_32  and  C23_33 
ROOT
HETATM    1  C4  UNL     1     -23.095 -21.239  12.435  1.00  0.00     0.073 A 
HETATM    2  C5  UNL     1     -24.132 -21.398  11.514  1.00  0.00     0.028 A 
HETATM    3  C6  UNL     1     -25.321 -22.027  11.786  1.00  0.00    -0.045 A 
HETATM    4  C7  UNL     1     -25.508 -22.540  13.047  1.00  0.00    -0.020 A 
HETATM    5  C8  UNL     1     -24.518 -22.404  13.974  1.00  0.00     0.047 A 
HETATM    6  C9  UNL     1     -23.307 -21.759  13.690  1.00  0.00     0.082 A 
HETATM    7  C10 UNL     1     -26.758 -23.254  13.431  1.00  0.00     0.155 C 
HETATM    8  C11 UNL     1     -26.550 -24.675  13.853  1.00  0.00     0.015 C 
HETATM    9  C12 UNL     1     -26.289 -24.827  15.327  1.00  0.00     0.012 C 
HETATM   10  C13 UNL     1     -25.500 -25.425  13.112  1.00  0.00     0.007 C 
HETATM   11  C14 UNL     1     -25.922 -26.007  11.805  1.00  0.00     0.000 C 
HETATM   12  C15 UNL     1     -27.408 -26.249  11.682  1.00  0.00     0.000 C 
HETATM   13  C16 UNL     1     -27.672 -26.968  10.383  1.00  0.00     0.000 C 
HETATM   14  C17 UNL     1     -27.557 -26.089   9.177  1.00  0.00     0.000 C 
HETATM   15  C18 UNL     1     -28.700 -25.110   9.030  1.00  0.00     0.003 C 
HETATM   16  C19 UNL     1     -28.272 -23.973   8.125  1.00  0.00     0.042 C 
HETATM   17  C20 UNL     1     -29.010 -22.704   8.489  1.00  0.00     0.217 C 
HETATM   18  C21 UNL     1     -28.147 -21.506   8.392  1.00  0.00     0.288 C 
HETATM   19  O6  UNL     1     -27.648 -21.222   7.275  1.00  0.00    -0.262 OA
HETATM   20  O7  UNL     1     -27.902 -20.736   9.474  1.00  0.00    -0.309 OA
HETATM   21  C22 UNL     1     -27.412 -21.099  10.747  1.00  0.00     0.171 C 
HETATM   22  C27 UNL     1     -26.337 -22.120  10.722  1.00  0.00     0.076 C 
ENDROOT
BRANCH   1  23
HETATM   23  C3  UNL     1     -21.884 -20.551  12.021  1.00  0.00     0.296 C 
HETATM   24  O2  UNL     1     -20.729 -20.778  12.431  1.00  0.00    -0.259 OA
BRANCH  23  25
HETATM   25  O1  UNL     1     -21.993 -19.528  11.070  1.00  0.00    -0.318 OA
BRANCH  25  26
HETATM   26  C2  UNL     1     -22.083 -18.174  11.468  1.00  0.00     0.174 C 
HETATM   27  C1  UNL     1     -22.653 -17.319  10.369  1.00  0.00     0.034 C 
ENDBRANCH  25  26
ENDBRANCH  23  25
ENDBRANCH   1  23
BRANCH   6  28
HETATM   28  O3  UNL     1     -22.352 -21.659  14.677  1.00  0.00    -0.360 OA
ATOM     29  H3  UNL     1     -22.034 -20.814  14.973  1.00  0.00     0.217 HD
ENDBRANCH   6  28
BRANCH   7  30
HETATM   30  O4  UNL     1     -27.259 -22.582  14.571  1.00  0.00    -0.391 OA
ATOM     31  H4  UNL     1     -26.609 -21.926  14.796  1.00  0.00     0.210 HD
ENDBRANCH   7  30
BRANCH  21  32
HETATM   32  C23 UNL     1     -26.917 -19.851  11.369  1.00  0.00    -0.004 A 
HETATM   33  C24 UNL     1     -26.223 -18.820  10.768  1.00  0.00     0.036 A 
HETATM   34  C25 UNL     1     -25.966 -17.858  11.720  1.00  0.00     0.142 A 
HETATM   35  O8  UNL     1     -26.469 -18.264  12.848  1.00  0.00    -0.334 OA
HETATM   36  C26 UNL     1     -27.046 -19.451  12.682  1.00  0.00     0.151 A 
ENDBRANCH  21  32
BRANCH  17  37
HETATM   37  O5  UNL     1     -29.599 -22.829   9.745  1.00  0.00    -0.386 OA
ATOM     38  H5  UNL     1     -30.215 -23.552   9.750  1.00  0.00     0.210 HD
ENDBRANCH  17  37
TORSDOF 7
ENDMDL
MODEL 5
REMARK VINA RESULT: -7.209268623      1.866      7.308
REMARK  7 active torsions:
REMARK  status: ('A' for Active; 'I' for Inactive)
REMARK    1  A    between atoms: C2_2  and  O1_3 
REMARK    2  A    between atoms: O1_3  and  C3_4 
REMARK    3  A    between atoms: C3_4  and  C4_6 
REMARK    4  A    between atoms: C9_11  and  O3_12 
REMARK    5  A    between atoms: C10_14  and  O4_15 
REMARK    6  A    between atoms: C20_26  and  O5_27 
REMARK    7  A    between atoms: C22_32  and  C23_33 
ROOT
HETATM    1  C4  UNL     1     -24.358 -23.329  12.693  1.00  0.00     0.073 A 
HETATM    2  C5  UNL     1     -25.043 -22.962  11.534  1.00  0.00     0.028 A 
HETATM    3  C6  UNL     1     -26.370 -23.226  11.301  1.00  0.00    -0.045 A 
HETATM    4  C7  UNL     1     -27.075 -23.898  12.270  1.00  0.00    -0.020 A 
HETATM    5  C8  UNL     1     -26.440 -24.274  13.416  1.00  0.00     0.047 A 
HETATM    6  C9  UNL     1     -25.085 -24.000  13.648  1.00  0.00     0.082 A 
HETATM    7  C10 UNL     1     -28.515 -24.245  12.101  1.00  0.00     0.155 C 
HETATM    8  C11 UNL     1     -28.802 -25.714  12.133  1.00  0.00     0.015 C 
HETATM    9  C12 UNL     1     -29.081 -26.237  13.516  1.00  0.00     0.012 C 
HETATM   10  C13 UNL     1     -27.780 -26.589  11.499  1.00  0.00     0.007 C 
HETATM   11  C14 UNL     1     -27.878 -26.729  10.017  1.00  0.00     0.000 C 
HETATM   12  C15 UNL     1     -29.255 -26.460   9.457  1.00  0.00     0.000 C 
HETATM   13  C16 UNL     1     -29.245 -26.779   7.982  1.00  0.00     0.000 C 
HETATM   14  C17 UNL     1     -28.535 -25.756   7.153  1.00  0.00     0.000 C 
HETATM   15  C18 UNL     1     -29.299 -24.458   7.009  1.00  0.00     0.003 C 
HETATM   16  C19 UNL     1     -28.340 -23.355   6.611  1.00  0.00     0.042 C 
HETATM   17  C20 UNL     1     -28.829 -22.020   7.126  1.00  0.00     0.217 C 
HETATM   18  C21 UNL     1     -27.722 -21.162   7.602  1.00  0.00     0.288 C 
HETATM   19  O6  UNL     1     -26.833 -20.829   6.779  1.00  0.00    -0.262 OA
HETATM   20  O7  UNL     1     -27.667 -20.746   8.885  1.00  0.00    -0.309 OA
HETATM   21  C22 UNL     1     -27.721 -21.495  10.080  1.00  0.00     0.171 C 
HETATM   22  C27 UNL     1     -26.974 -22.775  10.035  1.00  0.00     0.076 C 
ENDROOT
BRANCH   1  23
HETATM   23  C3  UNL     1     -22.950 -22.988  12.817  1.00  0.00     0.296 C 
HETATM   24  O2  UNL     1     -22.017 -23.448  12.130  1.00  0.00    -0.259 OA
BRANCH  23  25
HETATM   25  O1  UNL     1     -22.575 -22.058  13.794  1.00  0.00    -0.318 OA
BRANCH  25  26
HETATM   26  C2  UNL     1     -23.052 -20.727  13.751  1.00  0.00     0.174 C 
HETATM   27  C1  UNL     1     -22.558 -20.012  12.523  1.00  0.00     0.034 C 
ENDBRANCH  25  26
ENDBRANCH  23  25
ENDBRANCH   1  23
BRANCH   6  28
HETATM   28  O3  UNL     1     -24.509 -24.409  14.830  1.00  0.00    -0.360 OA
ATOM     29  H3  UNL     1     -23.717 -24.002  15.160  1.00  0.00     0.217 HD
ENDBRANCH   6  28
BRANCH   7  30
HETATM   30  O4  UNL     1     -29.184 -23.696  13.221  1.00  0.00    -0.391 OA
ATOM     31  H4  UNL     1     -30.107 -23.683  12.995  1.00  0.00     0.210 HD
ENDBRANCH   7  30
BRANCH  21  32
HETATM   32  C23 UNL     1     -27.172 -20.621  11.140  1.00  0.00    -0.004 A 
HETATM   33  C24 UNL     1     -27.616 -20.481  12.439  1.00  0.00     0.036 A 
HETATM   34  C25 UNL     1     -26.811 -19.562  13.076  1.00  0.00     0.142 A 
HETATM   35  O8  UNL     1     -25.918 -19.152  12.224  1.00  0.00    -0.334 OA
HETATM   36  C26 UNL     1     -26.098 -19.760  11.055  1.00  0.00     0.151 A 
ENDBRANCH  21  32
BRANCH  17  37
HETATM   37  O5  UNL     1     -29.808 -22.206   8.100  1.00  0.00    -0.386 OA
ATOM     38  H5  UNL     1     -29.962 -21.395   8.572  1.00  0.00     0.210 HD
ENDBRANCH  17  37
TORSDOF 7
ENDMDL
