MODEL 1
REMARK VINA RESULT: -7.844070722      0.000      0.000
REMARK  6 active torsions:
REMARK  status: ('A' for Active; 'I' for Inactive)
REMARK    1  A    between atoms: C2_2  and  C3_3 
REMARK    2  A    between atoms: C11_12  and  O2_13 
REMARK    3  A    between atoms: C13_16  and  C14_17 
REMARK    4  A    between atoms: C14_17  and  O3_18 
REMARK    5  A    between atoms: C14_17  and  C15_20 
REMARK    6  A    between atoms: C14_17  and  C18_23 
ROOT
HETATM    1  C3  UNL     1      -2.373  -3.603  20.680  1.00  0.00     0.092 C 
HETATM    2  C4  UNL     1      -1.174  -3.219  19.808  1.00  0.00     0.048 C 
HETATM    3  C5  UNL     1      -0.106  -4.279  19.829  1.00  0.00     0.018 C 
HETATM    4  C6  UNL     1       0.627  -4.450  18.522  1.00  0.00     0.010 C 
HETATM    5  C7  UNL     1       0.185  -5.900  18.491  1.00  0.00     0.033 C 
HETATM    6  C8  UNL     1      -0.700  -5.659  19.668  1.00  0.00     0.126 C 
HETATM    7  O1  UNL     1      -2.032  -5.476  19.297  1.00  0.00    -0.372 OA
HETATM    8  C9  UNL     1      -2.780  -5.013  20.419  1.00  0.00     0.193 C 
HETATM    9  C10 UNL     1      -2.541  -5.949  21.544  1.00  0.00     0.016 A 
HETATM   10  C11 UNL     1      -2.919  -7.274  21.413  1.00  0.00     0.075 A 
HETATM   11  C12 UNL     1      -2.682  -8.147  22.447  1.00  0.00     0.047 A 
HETATM   12  C13 UNL     1      -2.067  -7.772  23.654  1.00  0.00    -0.020 A 
HETATM   13  C24 UNL     1      -1.722  -6.429  23.701  1.00  0.00     0.020 A 
HETATM   14  C25 UNL     1      -1.944  -5.527  22.686  1.00  0.00    -0.017 A 
HETATM   15  C26 UNL     1      -1.544  -4.101  22.810  1.00  0.00     0.152 C 
HETATM   16  C27 UNL     1      -1.922  -3.673  24.241  1.00  0.00     0.045 C 
HETATM   17  O4  UNL     1      -2.216  -3.246  21.988  1.00  0.00    -0.368 OA
ENDROOT
BRANCH  12  18
HETATM   18  C14 UNL     1      -1.827  -8.759  24.690  1.00  0.00     0.091 C 
BRANCH  18  19
HETATM   19  O3  UNL     1      -1.887  -8.036  25.927  1.00  0.00    -0.384 OA
ATOM     20  H3  UNL     1      -1.040  -7.613  26.014  1.00  0.00     0.211 HD
ENDBRANCH  18  19
BRANCH  18  21
HETATM   21  C15 UNL     1      -2.968  -9.720  24.908  1.00  0.00     0.017 C 
HETATM   22  C16 UNL     1      -2.302 -11.106  24.972  1.00  0.00     0.013 C 
HETATM   23  C17 UNL     1      -3.800  -9.590  26.089  1.00  0.00     0.013 C 
ENDBRANCH  18  21
BRANCH  18  24
HETATM   24  C18 UNL     1      -0.483  -9.382  24.775  1.00  0.00     0.025 C 
HETATM   25  C19 UNL     1       0.473  -8.731  23.757  1.00  0.00     0.008 C 
HETATM   26  C20 UNL     1       1.647  -9.706  23.611  1.00  0.00     0.000 C 
HETATM   27  C21 UNL     1       2.388  -9.779  24.942  1.00  0.00     0.000 C 
HETATM   28  C22 UNL     1       1.419 -10.335  25.961  1.00  0.00     0.000 C 
HETATM   29  C23 UNL     1       0.257  -9.331  26.058  1.00  0.00     0.008 C 
ENDBRANCH  18  24
ENDBRANCH  12  18
BRANCH  10  30
HETATM   30  O2  UNL     1      -3.530  -7.717  20.256  1.00  0.00    -0.360 OA
ATOM     31  H2  UNL     1      -4.077  -8.493  20.268  1.00  0.00     0.217 HD
ENDBRANCH  10  30
BRANCH   1  32
HETATM   32  C2  UNL     1      -3.502  -2.705  20.138  1.00  0.00     0.036 C 
HETATM   33  C1  UNL     1      -4.771  -2.895  20.933  1.00  0.00     0.008 C 
ENDBRANCH   1  32
TORSDOF 6
ENDMDL
MODEL 2
REMARK VINA RESULT: -7.569058605      1.368      6.851
REMARK  6 active torsions:
REMARK  status: ('A' for Active; 'I' for Inactive)
REMARK    1  A    between atoms: C2_2  and  C3_3 
REMARK    2  A    between atoms: C11_12  and  O2_13 
REMARK    3  A    between atoms: C13_16  and  C14_17 
REMARK    4  A    between atoms: C14_17  and  O3_18 
REMARK    5  A    between atoms: C14_17  and  C15_20 
REMARK    6  A    between atoms: C14_17  and  C18_23 
ROOT
HETATM    1  C3  UNL     1      -3.548  -9.377  25.073  1.00  0.00     0.092 C 
HETATM    2  C4  UNL     1      -2.480 -10.424  25.403  1.00  0.00     0.048 C 
HETATM    3  C5  UNL     1      -1.125 -10.024  24.884  1.00  0.00     0.018 C 
HETATM    4  C6  UNL     1       0.027 -10.437  25.765  1.00  0.00     0.010 C 
HETATM    5  C7  UNL     1       0.427  -8.979  25.884  1.00  0.00     0.033 C 
HETATM    6  C8  UNL     1      -0.828  -8.574  25.187  1.00  0.00     0.126 C 
HETATM    7  O1  UNL     1      -1.812  -8.146  26.078  1.00  0.00    -0.372 OA
HETATM    8  C9  UNL     1      -3.052  -8.007  25.389  1.00  0.00     0.193 C 
HETATM    9  C10 UNL     1      -2.823  -7.139  24.209  1.00  0.00     0.016 A 
HETATM   10  C11 UNL     1      -2.398  -5.836  24.399  1.00  0.00     0.075 A 
HETATM   11  C12 UNL     1      -2.168  -5.036  23.307  1.00  0.00     0.047 A 
HETATM   12  C13 UNL     1      -2.339  -5.467  21.980  1.00  0.00    -0.020 A 
HETATM   13  C24 UNL     1      -2.768  -6.783  21.880  1.00  0.00     0.020 A 
HETATM   14  C25 UNL     1      -3.008  -7.612  22.951  1.00  0.00    -0.017 A 
HETATM   15  C26 UNL     1      -3.465  -9.014  22.764  1.00  0.00     0.152 C 
HETATM   16  C27 UNL     1      -4.518  -8.975  21.640  1.00  0.00     0.045 C 
HETATM   17  O4  UNL     1      -4.104  -9.555  23.839  1.00  0.00    -0.368 OA
ENDROOT
BRANCH  12  18
HETATM   18  C14 UNL     1      -2.050  -4.569  20.877  1.00  0.00     0.091 C 
BRANCH  18  19
HETATM   19  O3  UNL     1      -3.079  -4.813  19.907  1.00  0.00    -0.384 OA
ATOM     20  H3  UNL     1      -2.653  -4.730  19.062  1.00  0.00     0.211 HD
ENDBRANCH  18  19
BRANCH  18  21
HETATM   21  C15 UNL     1      -2.325  -3.117  21.170  1.00  0.00     0.017 C 
HETATM   22  C16 UNL     1      -1.607  -2.351  20.043  1.00  0.00     0.013 C 
HETATM   23  C17 UNL     1      -3.693  -2.638  21.208  1.00  0.00     0.013 C 
ENDBRANCH  18  21
BRANCH  18  24
HETATM   24  C18 UNL     1      -0.824  -4.808  20.076  1.00  0.00     0.025 C 
HETATM   25  C19 UNL     1       0.358  -5.157  20.999  1.00  0.00     0.008 C 
HETATM   26  C20 UNL     1       1.619  -4.944  20.152  1.00  0.00     0.000 C 
HETATM   27  C21 UNL     1       1.620  -5.959  19.015  1.00  0.00     0.000 C 
HETATM   28  C22 UNL     1       0.407  -5.672  18.159  1.00  0.00     0.000 C 
HETATM   29  C23 UNL     1      -0.826  -5.884  19.056  1.00  0.00     0.008 C 
ENDBRANCH  18  24
ENDBRANCH  12  18
BRANCH  10  30
HETATM   30  O2  UNL     1      -2.207  -5.342  25.675  1.00  0.00    -0.360 OA
ATOM     31  H2  UNL     1      -1.897  -4.453  25.805  1.00  0.00     0.217 HD
ENDBRANCH  10  30
BRANCH   1  32
HETATM   32  C2  UNL     1      -4.668  -9.690  26.082  1.00  0.00     0.036 C 
HETATM   33  C1  UNL     1      -5.566 -10.790  25.569  1.00  0.00     0.008 C 
ENDBRANCH   1  32
TORSDOF 6
ENDMDL
MODEL 3
REMARK VINA RESULT: -7.560950147      1.321      6.905
REMARK  6 active torsions:
REMARK  status: ('A' for Active; 'I' for Inactive)
REMARK    1  A    between atoms: C2_2  and  C3_3 
REMARK    2  A    between atoms: C11_12  and  O2_13 
REMARK    3  A    between atoms: C13_16  and  C14_17 
REMARK    4  A    between atoms: C14_17  and  O3_18 
REMARK    5  A    between atoms: C14_17  and  C15_20 
REMARK    6  A    between atoms: C14_17  and  C18_23 
ROOT
HETATM    1  C3  UNL     1      -2.539  -8.878  24.857  1.00  0.00     0.092 C 
HETATM    2  C4  UNL     1      -1.389  -9.885  24.960  1.00  0.00     0.048 C 
HETATM    3  C5  UNL     1      -0.191  -9.449  24.160  1.00  0.00     0.018 C 
HETATM    4  C6  UNL     1       1.136  -9.810  24.778  1.00  0.00     0.010 C 
HETATM    5  C7  UNL     1       1.501  -8.339  24.797  1.00  0.00     0.033 C 
HETATM    6  C8  UNL     1       0.113  -7.985  24.381  1.00  0.00     0.126 C 
HETATM    7  O1  UNL     1      -0.673  -7.577  25.459  1.00  0.00    -0.372 OA
HETATM    8  C9  UNL     1      -2.035  -7.488  25.050  1.00  0.00     0.193 C 
HETATM    9  C10 UNL     1      -2.094  -6.631  23.841  1.00  0.00     0.016 A 
HETATM   10  C11 UNL     1      -1.684  -5.312  23.926  1.00  0.00     0.075 A 
HETATM   11  C12 UNL     1      -1.720  -4.522  22.804  1.00  0.00     0.047 A 
HETATM   12  C13 UNL     1      -2.155  -4.977  21.548  1.00  0.00    -0.020 A 
HETATM   13  C24 UNL     1      -2.549  -6.308  21.552  1.00  0.00     0.020 A 
HETATM   14  C25 UNL     1      -2.526  -7.128  22.656  1.00  0.00    -0.017 A 
HETATM   15  C26 UNL     1      -2.963  -8.547  22.581  1.00  0.00     0.152 C 
HETATM   16  C27 UNL     1      -4.232  -8.559  21.708  1.00  0.00     0.045 C 
HETATM   17  O4  UNL     1      -3.339  -9.092  23.772  1.00  0.00    -0.368 OA
ENDROOT
BRANCH  12  18
HETATM   18  C14 UNL     1      -2.140  -4.087  20.402  1.00  0.00     0.091 C 
BRANCH  18  19
HETATM   19  O3  UNL     1      -3.193  -4.550  19.545  1.00  0.00    -0.384 OA
ATOM     20  H3  UNL     1      -3.473  -5.380  19.914  1.00  0.00     0.211 HD
ENDBRANCH  18  19
BRANCH  18  21
HETATM   21  C15 UNL     1      -2.645  -2.697  20.688  1.00  0.00     0.017 C 
HETATM   22  C16 UNL     1      -1.622  -1.765  20.013  1.00  0.00     0.013 C 
HETATM   23  C17 UNL     1      -3.959  -2.299  20.220  1.00  0.00     0.013 C 
ENDBRANCH  18  21
BRANCH  18  24
HETATM   24  C18 UNL     1      -0.972  -4.135  19.487  1.00  0.00     0.025 C 
HETATM   25  C19 UNL     1       0.185  -4.917  20.137  1.00  0.00     0.008 C 
HETATM   26  C20 UNL     1       1.439  -4.534  19.342  1.00  0.00     0.000 C 
HETATM   27  C21 UNL     1       1.290  -5.053  17.917  1.00  0.00     0.000 C 
HETATM   28  C22 UNL     1       0.097  -4.350  17.308  1.00  0.00     0.000 C 
HETATM   29  C23 UNL     1      -1.127  -4.753  18.149  1.00  0.00     0.008 C 
ENDBRANCH  18  24
ENDBRANCH  12  18
BRANCH  10  30
HETATM   30  O2  UNL     1      -1.243  -4.793  25.128  1.00  0.00    -0.360 OA
ATOM     31  H2  UNL     1      -1.323  -3.864  25.309  1.00  0.00     0.217 HD
ENDBRANCH  10  30
BRANCH   1  32
HETATM   32  C2  UNL     1      -3.407  -9.213  26.085  1.00  0.00     0.036 C 
HETATM   33  C1  UNL     1      -4.541 -10.135  25.709  1.00  0.00     0.008 C 
ENDBRANCH   1  32
TORSDOF 6
ENDMDL
MODEL 4
REMARK VINA RESULT: -7.329677359      1.592      7.265
REMARK  6 active torsions:
REMARK  status: ('A' for Active; 'I' for Inactive)
REMARK    1  A    between atoms: C2_2  and  C3_3 
REMARK    2  A    between atoms: C11_12  and  O2_13 
REMARK    3  A    between atoms: C13_16  and  C14_17 
REMARK    4  A    between atoms: C14_17  and  O3_18 
REMARK    5  A    between atoms: C14_17  and  C15_20 
REMARK    6  A    between atoms: C14_17  and  C18_23 
ROOT
HETATM    1  C3  UNL     1      -3.105  -8.795  25.014  1.00  0.00     0.092 C 
HETATM    2  C4  UNL     1      -2.320 -10.030  25.467  1.00  0.00     0.048 C 
HETATM    3  C5  UNL     1      -0.945 -10.073  24.856  1.00  0.00     0.018 C 
HETATM    4  C6  UNL     1       0.119 -10.648  25.757  1.00  0.00     0.010 C 
HETATM    5  C7  UNL     1       0.884  -9.344  25.645  1.00  0.00     0.033 C 
HETATM    6  C8  UNL     1      -0.270  -8.724  24.931  1.00  0.00     0.126 C 
HETATM    7  O1  UNL     1      -1.051  -7.936  25.775  1.00  0.00    -0.372 OA
HETATM    8  C9  UNL     1      -2.257  -7.573  25.108  1.00  0.00     0.193 C 
HETATM    9  C10 UNL     1      -1.893  -6.965  23.805  1.00  0.00     0.016 A 
HETATM   10  C11 UNL     1      -1.138  -5.805  23.787  1.00  0.00     0.075 A 
HETATM   11  C12 UNL     1      -0.784  -5.251  22.582  1.00  0.00     0.047 A 
HETATM   12  C13 UNL     1      -1.147  -5.799  21.339  1.00  0.00    -0.020 A 
HETATM   13  C24 UNL     1      -1.902  -6.958  21.449  1.00  0.00     0.020 A 
HETATM   14  C25 UNL     1      -2.274  -7.541  22.638  1.00  0.00    -0.017 A 
HETATM   15  C26 UNL     1      -3.085  -8.786  22.675  1.00  0.00     0.152 C 
HETATM   16  C27 UNL     1      -4.165  -8.627  21.588  1.00  0.00     0.045 C 
HETATM   17  O4  UNL     1      -3.768  -8.988  23.837  1.00  0.00    -0.368 OA
ENDROOT
BRANCH  12  18
HETATM   18  C14 UNL     1      -0.712  -5.168  20.107  1.00  0.00     0.091 C 
BRANCH  18  19
HETATM   19  O3  UNL     1       0.476  -4.441  20.449  1.00  0.00    -0.384 OA
ATOM     20  H3  UNL     1       0.492  -3.693  19.863  1.00  0.00     0.211 HD
ENDBRANCH  18  19
BRANCH  18  21
HETATM   21  C15 UNL     1      -0.136  -6.120  19.091  1.00  0.00     0.017 C 
HETATM   22  C16 UNL     1      -0.008  -5.285  17.804  1.00  0.00     0.013 C 
HETATM   23  C17 UNL     1       1.156  -6.733  19.333  1.00  0.00     0.013 C 
ENDBRANCH  18  21
BRANCH  18  24
HETATM   24  C18 UNL     1      -1.558  -4.096  19.526  1.00  0.00     0.025 C 
HETATM   25  C19 UNL     1      -3.048  -4.396  19.779  1.00  0.00     0.008 C 
HETATM   26  C20 UNL     1      -3.819  -3.513  18.791  1.00  0.00     0.000 C 
HETATM   27  C21 UNL     1      -3.585  -2.051  19.157  1.00  0.00     0.000 C 
HETATM   28  C22 UNL     1      -2.105  -1.783  18.994  1.00  0.00     0.000 C 
HETATM   29  C23 UNL     1      -1.379  -2.701  19.993  1.00  0.00     0.008 C 
ENDBRANCH  18  24
ENDBRANCH  12  18
BRANCH  10  30
HETATM   30  O2  UNL     1      -0.744  -5.208  24.969  1.00  0.00    -0.360 OA
ATOM     31  H2  UNL     1      -1.047  -5.546  25.803  1.00  0.00     0.217 HD
ENDBRANCH  10  30
BRANCH   1  32
HETATM   32  C2  UNL     1      -4.200  -8.663  26.089  1.00  0.00     0.036 C 
HETATM   33  C1  UNL     1      -5.106  -9.870  26.089  1.00  0.00     0.008 C 
ENDBRANCH   1  32
TORSDOF 6
ENDMDL
MODEL 5
REMARK VINA RESULT: -7.321671789      2.153      7.032
REMARK  6 active torsions:
REMARK  status: ('A' for Active; 'I' for Inactive)
REMARK    1  A    between atoms: C2_2  and  C3_3 
REMARK    2  A    between atoms: C11_12  and  O2_13 
REMARK    3  A    between atoms: C13_16  and  C14_17 
REMARK    4  A    between atoms: C14_17  and  O3_18 
REMARK    5  A    between atoms: C14_17  and  C15_20 
REMARK    6  A    between atoms: C14_17  and  C18_23 
ROOT
HETATM    1  C3  UNL     1      -1.975  -9.114  24.504  1.00  0.00     0.092 C 
HETATM    2  C4  UNL     1      -0.551  -9.516  24.108  1.00  0.00     0.048 C 
HETATM    3  C5  UNL     1       0.115  -8.459  23.269  1.00  0.00     0.018 C 
HETATM    4  C6  UNL     1       1.596  -8.312  23.512  1.00  0.00     0.010 C 
HETATM    5  C7  UNL     1       1.366  -6.861  23.888  1.00  0.00     0.033 C 
HETATM    6  C8  UNL     1      -0.109  -7.080  23.844  1.00  0.00     0.126 C 
HETATM    7  O1  UNL     1      -0.654  -7.265  25.114  1.00  0.00    -0.372 OA
HETATM    8  C9  UNL     1      -2.003  -7.707  24.996  1.00  0.00     0.193 C 
HETATM    9  C10 UNL     1      -2.719  -6.753  24.114  1.00  0.00     0.016 A 
HETATM   10  C11 UNL     1      -2.834  -5.430  24.501  1.00  0.00     0.075 A 
HETATM   11  C12 UNL     1      -3.481  -4.541  23.679  1.00  0.00     0.047 A 
HETATM   12  C13 UNL     1      -4.046  -4.898  22.442  1.00  0.00    -0.020 A 
HETATM   13  C24 UNL     1      -3.887  -6.242  22.133  1.00  0.00     0.020 A 
HETATM   14  C25 UNL     1      -3.245  -7.159  22.932  1.00  0.00    -0.017 A 
HETATM   15  C26 UNL     1      -3.114  -8.584  22.531  1.00  0.00     0.152 C 
HETATM   16  C27 UNL     1      -4.474  -8.987  21.930  1.00  0.00     0.045 C 
HETATM   17  O4  UNL     1      -2.904  -9.450  23.562  1.00  0.00    -0.368 OA
ENDROOT
BRANCH  12  18
HETATM   18  C14 UNL     1      -4.691  -3.895  21.616  1.00  0.00     0.091 C 
BRANCH  18  19
HETATM   19  O3  UNL     1      -5.689  -4.602  20.867  1.00  0.00    -0.384 OA
ATOM     20  H3  UNL     1      -5.898  -4.039  20.130  1.00  0.00     0.211 HD
ENDBRANCH  18  19
BRANCH  18  21
HETATM   21  C15 UNL     1      -5.579  -2.943  22.375  1.00  0.00     0.017 C 
HETATM   22  C16 UNL     1      -6.254  -2.089  21.286  1.00  0.00     0.013 C 
HETATM   23  C17 UNL     1      -6.634  -3.466  23.223  1.00  0.00     0.013 C 
ENDBRANCH  18  21
BRANCH  18  24
HETATM   24  C18 UNL     1      -3.903  -3.258  20.532  1.00  0.00     0.025 C 
HETATM   25  C19 UNL     1      -2.518  -2.834  21.057  1.00  0.00     0.008 C 
HETATM   26  C20 UNL     1      -1.982  -1.824  20.035  1.00  0.00     0.000 C 
HETATM   27  C21 UNL     1      -1.759  -2.543  18.710  1.00  0.00     0.000 C 
HETATM   28  C22 UNL     1      -3.109  -3.038  18.239  1.00  0.00     0.000 C 
HETATM   29  C23 UNL     1      -3.608  -4.032  19.303  1.00  0.00     0.008 C 
ENDBRANCH  18  24
ENDBRANCH  12  18
BRANCH  10  30
HETATM   30  O2  UNL     1      -2.304  -5.004  25.704  1.00  0.00    -0.360 OA
ATOM     31  H2  UNL     1      -2.753  -5.190  26.520  1.00  0.00     0.217 HD
ENDBRANCH  10  30
BRANCH   1  32
HETATM   32  C2  UNL     1      -2.268 -10.017  25.717  1.00  0.00     0.036 C 
HETATM   33  C1  UNL     1      -2.465 -11.451  25.288  1.00  0.00     0.008 C 
ENDBRANCH   1  32
TORSDOF 6
ENDMDL
