MODEL 1
REMARK VINA RESULT: -8.649155086      0.000      0.000
REMARK  7 active torsions:
REMARK  status: ('A' for Active; 'I' for Inactive)
REMARK    1  A    between atoms: C2_2  and  C4_4 
REMARK    2  A    between atoms: C4_4  and  C5_5 
REMARK    3  A    between atoms: C5_5  and  C6_6 
REMARK    4  A    between atoms: C13_13  and  O1_14 
REMARK    5  A    between atoms: C19_21  and  O2_22 
REMARK    6  A    between atoms: O2_22  and  C20_23 
REMARK    7  A    between atoms: N1_25  and  O3_27 
ROOT
HETATM    1  C6  UNL     1       0.253  -4.184  17.571  1.00  0.00     0.014 C 
HETATM    2  C7  UNL     1      -1.141  -3.733  17.514  1.00  0.00     0.009 C 
HETATM    3  C8  UNL     1      -1.540  -3.182  18.924  1.00  0.00     0.007 C 
HETATM    4  C9  UNL     1      -1.411  -4.365  19.807  1.00  0.00     0.005 C 
HETATM    5  C10 UNL     1       0.057  -4.335  20.205  1.00  0.00     0.019 C 
HETATM    6  C11 UNL     1       0.455  -5.417  21.123  1.00  0.00     0.012 C 
HETATM    7  C12 UNL     1      -0.491  -5.400  22.341  1.00  0.00     0.040 C 
HETATM    8  C13 UNL     1      -1.899  -5.590  21.824  1.00  0.00     0.073 C 
HETATM    9  C14 UNL     1      -2.866  -6.206  22.730  1.00  0.00    -0.010 C 
HETATM   10  C15 UNL     1      -3.684  -7.361  22.116  1.00  0.00     0.018 C 
HETATM   11  C16 UNL     1      -1.997  -6.994  23.755  1.00  0.00     0.018 C 
HETATM   12  C17 UNL     1      -3.776  -5.427  23.567  1.00  0.00     0.022 C 
HETATM   13  C18 UNL     1      -3.101  -4.907  24.857  1.00  0.00     0.013 C 
HETATM   14  C19 UNL     1      -4.584  -4.335  23.013  1.00  0.00     0.135 C 
HETATM   15  C22 UNL     1      -4.766  -4.214  21.573  1.00  0.00     0.034 C 
HETATM   16  C23 UNL     1      -3.730  -4.600  20.607  1.00  0.00     0.015 C 
HETATM   17  C24 UNL     1      -2.304  -4.375  21.044  1.00  0.00    -0.008 C 
HETATM   18  C25 UNL     1      -2.125  -3.050  21.679  1.00  0.00     0.019 C 
HETATM   19  C26 UNL     1       0.830  -4.270  18.958  1.00  0.00    -0.081 C 
HETATM   20  C27 UNL     1       2.148  -4.285  19.041  1.00  0.00     0.015 C 
ENDROOT
BRANCH  14  21
HETATM   21  O2  UNL     1      -5.901  -4.434  23.594  1.00  0.00    -0.332 OA
BRANCH  21  22
HETATM   22  C20 UNL     1      -6.608  -3.396  24.110  1.00  0.00     0.133 C 
HETATM   23  C21 UNL     1      -7.817  -2.866  23.433  1.00  0.00     0.099 C 
HETATM   24  N1  UNL     1      -6.165  -2.902  25.228  1.00  0.00    -0.251 N 
ATOM     25  H1  UNL     1      -5.329  -3.313  25.643  1.00  0.00     0.196 HD
BRANCH  24  26
HETATM   26  O3  UNL     1      -6.762  -1.863  25.870  1.00  0.00    -0.288 OA
ATOM     27  H3  UNL     1      -6.800  -1.790  26.816  1.00  0.00     0.244 HD
ENDBRANCH  24  26
ENDBRANCH  21  22
ENDBRANCH  14  21
BRANCH   8  28
HETATM   28  O1  UNL     1      -1.699  -6.594  20.821  1.00  0.00    -0.388 OA
ATOM     29  H1  UNL     1      -2.576  -6.684  20.468  1.00  0.00     0.210 HD
ENDBRANCH   8  28
BRANCH   1  30
HETATM   30  C5  UNL     1       0.690  -5.384  16.837  1.00  0.00     0.013 C 
BRANCH  30  31
HETATM   31  C4  UNL     1       0.356  -6.727  17.383  1.00  0.00     0.033 C 
BRANCH  31  32
HETATM   32  C2  UNL     1       1.489  -7.635  17.450  1.00  0.00    -0.093 C 
HETATM   33  C1  UNL     1       1.953  -8.269  16.392  1.00  0.00     0.014 C 
HETATM   34  C3  UNL     1       2.173  -7.797  18.781  1.00  0.00     0.042 C 
ENDBRANCH  31  32
ENDBRANCH  30  31
ENDBRANCH   1  30
TORSDOF 7
ENDMDL
MODEL 2
REMARK VINA RESULT: -7.748942816      1.425      2.138
REMARK  7 active torsions:
REMARK  status: ('A' for Active; 'I' for Inactive)
REMARK    1  A    between atoms: C2_2  and  C4_4 
REMARK    2  A    between atoms: C4_4  and  C5_5 
REMARK    3  A    between atoms: C5_5  and  C6_6 
REMARK    4  A    between atoms: C13_13  and  O1_14 
REMARK    5  A    between atoms: C19_21  and  O2_22 
REMARK    6  A    between atoms: O2_22  and  C20_23 
REMARK    7  A    between atoms: N1_25  and  O3_27 
ROOT
HETATM    1  C6  UNL     1       1.131  -6.574  17.156  1.00  0.00     0.014 C 
HETATM    2  C7  UNL     1       0.064  -5.634  16.799  1.00  0.00     0.009 C 
HETATM    3  C8  UNL     1      -0.090  -4.598  17.963  1.00  0.00     0.007 C 
HETATM    4  C9  UNL     1      -0.495  -5.433  19.119  1.00  0.00     0.005 C 
HETATM    5  C10 UNL     1       0.837  -5.889  19.694  1.00  0.00     0.019 C 
HETATM    6  C11 UNL     1       0.718  -6.734  20.895  1.00  0.00     0.012 C 
HETATM    7  C12 UNL     1      -0.155  -5.996  21.931  1.00  0.00     0.040 C 
HETATM    8  C13 UNL     1      -1.499  -5.738  21.288  1.00  0.00     0.073 C 
HETATM    9  C14 UNL     1      -2.654  -5.630  22.177  1.00  0.00    -0.010 C 
HETATM   10  C15 UNL     1      -3.874  -6.477  21.759  1.00  0.00     0.018 C 
HETATM   11  C16 UNL     1      -2.224  -6.380  23.473  1.00  0.00     0.018 C 
HETATM   12  C17 UNL     1      -3.162  -4.349  22.664  1.00  0.00     0.022 C 
HETATM   13  C18 UNL     1      -2.356  -3.808  23.867  1.00  0.00     0.013 C 
HETATM   14  C19 UNL     1      -3.416  -3.227  21.754  1.00  0.00     0.135 C 
HETATM   15  C22 UNL     1      -3.501  -3.451  20.318  1.00  0.00     0.034 C 
HETATM   16  C23 UNL     1      -2.709  -4.477  19.627  1.00  0.00     0.015 C 
HETATM   17  C24 UNL     1      -1.332  -4.734  20.186  1.00  0.00    -0.008 C 
HETATM   18  C25 UNL     1      -0.618  -3.475  20.496  1.00  0.00     0.019 C 
HETATM   19  C26 UNL     1       1.589  -6.494  18.587  1.00  0.00    -0.081 C 
HETATM   20  C27 UNL     1       2.773  -7.016  18.850  1.00  0.00     0.015 C 
ENDROOT
BRANCH  14  21
HETATM   21  O2  UNL     1      -4.662  -2.618  22.156  1.00  0.00    -0.332 OA
BRANCH  21  22
HETATM   22  C20 UNL     1      -5.753  -3.291  22.604  1.00  0.00     0.133 C 
HETATM   23  C21 UNL     1      -6.584  -4.117  21.694  1.00  0.00     0.099 C 
HETATM   24  N1  UNL     1      -6.021  -3.168  23.870  1.00  0.00    -0.251 N 
ATOM     25  H1  UNL     1      -5.409  -2.586  24.441  1.00  0.00     0.196 HD
BRANCH  24  26
HETATM   26  O3  UNL     1      -7.078  -3.779  24.468  1.00  0.00    -0.288 OA
ATOM     27  H3  UNL     1      -7.980  -3.522  24.317  1.00  0.00     0.244 HD
ENDBRANCH  24  26
ENDBRANCH  21  22
ENDBRANCH  14  21
BRANCH   8  28
HETATM   28  O1  UNL     1      -1.726  -6.974  20.600  1.00  0.00    -0.388 OA
ATOM     29  H1  UNL     1      -2.415  -7.359  21.129  1.00  0.00     0.210 HD
ENDBRANCH   8  28
BRANCH   1  30
HETATM   30  C5  UNL     1       1.030  -8.002  16.806  1.00  0.00     0.013 C 
BRANCH  30  31
HETATM   31  C4  UNL     1       1.847  -8.530  15.681  1.00  0.00     0.033 C 
BRANCH  31  32
HETATM   32  C2  UNL     1       2.252  -9.916  15.846  1.00  0.00    -0.093 C 
HETATM   33  C1  UNL     1       2.545 -10.434  17.022  1.00  0.00     0.014 C 
HETATM   34  C3  UNL     1       2.277 -10.786  14.617  1.00  0.00     0.042 C 
ENDBRANCH  31  32
ENDBRANCH  30  31
ENDBRANCH   1  30
TORSDOF 7
ENDMDL
MODEL 3
REMARK VINA RESULT: -7.745551393     11.919     13.755
REMARK  7 active torsions:
REMARK  status: ('A' for Active; 'I' for Inactive)
REMARK    1  A    between atoms: C2_2  and  C4_4 
REMARK    2  A    between atoms: C4_4  and  C5_5 
REMARK    3  A    between atoms: C5_5  and  C6_6 
REMARK    4  A    between atoms: C13_13  and  O1_14 
REMARK    5  A    between atoms: C19_21  and  O2_22 
REMARK    6  A    between atoms: O2_22  and  C20_23 
REMARK    7  A    between atoms: N1_25  and  O3_27 
ROOT
HETATM    1  C6  UNL     1       4.926 -14.906  14.948  1.00  0.00     0.014 C 
HETATM    2  C7  UNL     1       5.301 -13.604  15.508  1.00  0.00     0.009 C 
HETATM    3  C8  UNL     1       6.600 -13.790  16.363  1.00  0.00     0.007 C 
HETATM    4  C9  UNL     1       6.176 -14.717  17.438  1.00  0.00     0.005 C 
HETATM    5  C10 UNL     1       6.387 -16.087  16.811  1.00  0.00     0.019 C 
HETATM    6  C11 UNL     1       6.057 -17.215  17.699  1.00  0.00     0.012 C 
HETATM    7  C12 UNL     1       6.832 -17.042  19.022  1.00  0.00     0.040 C 
HETATM    8  C13 UNL     1       6.420 -15.715  19.618  1.00  0.00     0.073 C 
HETATM    9  C14 UNL     1       6.502 -15.581  21.071  1.00  0.00    -0.010 C 
HETATM   10  C15 UNL     1       5.239 -15.003  21.741  1.00  0.00     0.018 C 
HETATM   11  C16 UNL     1       6.455 -17.045  21.604  1.00  0.00     0.018 C 
HETATM   12  C17 UNL     1       7.659 -14.999  21.749  1.00  0.00     0.022 C 
HETATM   13  C18 UNL     1       8.823 -16.003  21.910  1.00  0.00     0.013 C 
HETATM   14  C19 UNL     1       8.229 -13.715  21.328  1.00  0.00     0.135 C 
HETATM   15  C22 UNL     1       7.471 -12.823  20.461  1.00  0.00     0.034 C 
HETATM   16  C23 UNL     1       6.547 -13.315  19.430  1.00  0.00     0.015 C 
HETATM   17  C24 UNL     1       6.940 -14.604  18.755  1.00  0.00    -0.008 C 
HETATM   18  C25 UNL     1       8.375 -14.622  18.389  1.00  0.00     0.019 C 
HETATM   19  C26 UNL     1       5.666 -16.079  15.531  1.00  0.00    -0.081 C 
HETATM   20  C27 UNL     1       5.658 -17.188  14.814  1.00  0.00     0.015 C 
ENDROOT
BRANCH  14  21
HETATM   21  O2  UNL     1       8.544 -12.969  22.522  1.00  0.00    -0.332 OA
BRANCH  21  22
HETATM   22  C20 UNL     1       8.064 -11.734  22.823  1.00  0.00     0.133 C 
HETATM   23  C21 UNL     1       6.752 -11.552  23.492  1.00  0.00     0.099 C 
HETATM   24  N1  UNL     1       8.820 -10.730  22.493  1.00  0.00    -0.251 N 
ATOM     25  H1  UNL     1       9.712 -10.924  22.036  1.00  0.00     0.196 HD
BRANCH  24  26
HETATM   26  O3  UNL     1       8.480  -9.435  22.727  1.00  0.00    -0.288 OA
ATOM     27  H3  UNL     1       8.839  -8.926  23.445  1.00  0.00     0.244 HD
ENDBRANCH  24  26
ENDBRANCH  21  22
ENDBRANCH  14  21
BRANCH   8  28
HETATM   28  O1  UNL     1       5.009 -15.718  19.366  1.00  0.00    -0.388 OA
ATOM     29  H1  UNL     1       4.753 -14.876  19.723  1.00  0.00     0.210 HD
ENDBRANCH   8  28
BRANCH   1  30
HETATM   30  C5  UNL     1       3.511 -15.297  14.825  1.00  0.00     0.013 C 
BRANCH  30  31
HETATM   31  C4  UNL     1       2.653 -14.603  13.827  1.00  0.00     0.033 C 
BRANCH  31  32
HETATM   32  C2  UNL     1       3.262 -14.477  12.513  1.00  0.00    -0.093 C 
HETATM   33  C1  UNL     1       3.336 -15.485  11.667  1.00  0.00     0.014 C 
HETATM   34  C3  UNL     1       3.771 -13.119  12.108  1.00  0.00     0.042 C 
ENDBRANCH  31  32
ENDBRANCH  30  31
ENDBRANCH   1  30
TORSDOF 7
ENDMDL
MODEL 4
REMARK VINA RESULT: -7.736270634     11.681     13.617
REMARK  7 active torsions:
REMARK  status: ('A' for Active; 'I' for Inactive)
REMARK    1  A    between atoms: C2_2  and  C4_4 
REMARK    2  A    between atoms: C4_4  and  C5_5 
REMARK    3  A    between atoms: C5_5  and  C6_6 
REMARK    4  A    between atoms: C13_13  and  O1_14 
REMARK    5  A    between atoms: C19_21  and  O2_22 
REMARK    6  A    between atoms: O2_22  and  C20_23 
REMARK    7  A    between atoms: N1_25  and  O3_27 
ROOT
HETATM    1  C6  UNL     1       3.932 -14.175  14.482  1.00  0.00     0.014 C 
HETATM    2  C7  UNL     1       3.825 -13.097  15.471  1.00  0.00     0.009 C 
HETATM    3  C8  UNL     1       5.224 -12.911  16.150  1.00  0.00     0.007 C 
HETATM    4  C9  UNL     1       5.460 -14.211  16.820  1.00  0.00     0.005 C 
HETATM    5  C10 UNL     1       6.099 -15.050  15.723  1.00  0.00     0.019 C 
HETATM    6  C11 UNL     1       6.463 -16.414  16.142  1.00  0.00     0.012 C 
HETATM    7  C12 UNL     1       7.343 -16.321  17.407  1.00  0.00     0.040 C 
HETATM    8  C13 UNL     1       6.537 -15.603  18.466  1.00  0.00     0.073 C 
HETATM    9  C14 UNL     1       6.847 -15.907  19.861  1.00  0.00    -0.010 C 
HETATM   10  C15 UNL     1       5.622 -16.228  20.742  1.00  0.00     0.018 C 
HETATM   11  C16 UNL     1       7.532 -17.306  19.816  1.00  0.00     0.018 C 
HETATM   12  C17 UNL     1       7.759 -15.096  20.666  1.00  0.00     0.022 C 
HETATM   13  C18 UNL     1       9.245 -15.432  20.402  1.00  0.00     0.013 C 
HETATM   14  C19 UNL     1       7.634 -13.636  20.729  1.00  0.00     0.135 C 
HETATM   15  C22 UNL     1       6.412 -12.982  20.281  1.00  0.00     0.034 C 
HETATM   16  C23 UNL     1       5.596 -13.499  19.175  1.00  0.00     0.015 C 
HETATM   17  C24 UNL     1       6.352 -14.172  18.057  1.00  0.00    -0.008 C 
HETATM   18  C25 UNL     1       7.553 -13.402  17.661  1.00  0.00     0.019 C 
HETATM   19  C26 UNL     1       5.200 -14.981  14.563  1.00  0.00    -0.081 C 
HETATM   20  C27 UNL     1       5.517 -15.678  13.488  1.00  0.00     0.015 C 
ENDROOT
BRANCH  14  21
HETATM   21  O2  UNL     1       7.838 -13.244  22.104  1.00  0.00    -0.332 OA
BRANCH  21  22
HETATM   22  C20 UNL     1       7.733 -11.976  22.580  1.00  0.00     0.133 C 
HETATM   23  C21 UNL     1       6.619 -11.571  23.472  1.00  0.00     0.099 C 
HETATM   24  N1  UNL     1       8.663 -11.147  22.210  1.00  0.00    -0.251 N 
ATOM     25  H1  UNL     1       9.402 -11.490  21.597  1.00  0.00     0.196 HD
BRANCH  24  26
HETATM   26  O3  UNL     1       8.698  -9.847  22.602  1.00  0.00    -0.288 OA
ATOM     27  H3  UNL     1       8.878  -9.129  22.006  1.00  0.00     0.244 HD
ENDBRANCH  24  26
ENDBRANCH  21  22
ENDBRANCH  14  21
BRANCH   8  28
HETATM   28  O1  UNL     1       5.242 -16.186  18.280  1.00  0.00    -0.388 OA
ATOM     29  H1  UNL     1       4.933 -15.717  17.514  1.00  0.00     0.210 HD
ENDBRANCH   8  28
BRANCH   1  30
HETATM   30  C5  UNL     1       2.822 -15.122  14.273  1.00  0.00     0.013 C 
BRANCH  30  31
HETATM   31  C4  UNL     1       2.599 -15.685  12.915  1.00  0.00     0.033 C 
BRANCH  31  32
HETATM   32  C2  UNL     1       2.238 -14.691  11.916  1.00  0.00    -0.093 C 
HETATM   33  C1  UNL     1       2.981 -14.450  10.856  1.00  0.00     0.014 C 
HETATM   34  C3  UNL     1       0.933 -13.963  12.099  1.00  0.00     0.042 C 
ENDBRANCH  31  32
ENDBRANCH  30  31
ENDBRANCH   1  30
TORSDOF 7
ENDMDL
MODEL 5
REMARK VINA RESULT: -7.716287022      2.979      4.259
REMARK  7 active torsions:
REMARK  status: ('A' for Active; 'I' for Inactive)
REMARK    1  A    between atoms: C2_2  and  C4_4 
REMARK    2  A    between atoms: C4_4  and  C5_5 
REMARK    3  A    between atoms: C5_5  and  C6_6 
REMARK    4  A    between atoms: C13_13  and  O1_14 
REMARK    5  A    between atoms: C19_21  and  O2_22 
REMARK    6  A    between atoms: O2_22  and  C20_23 
REMARK    7  A    between atoms: N1_25  and  O3_27 
ROOT
HETATM    1  C6  UNL     1      -2.600  -2.885  18.550  1.00  0.00     0.014 C 
HETATM    2  C7  UNL     1      -3.364  -4.116  18.322  1.00  0.00     0.009 C 
HETATM    3  C8  UNL     1      -3.955  -4.591  19.692  1.00  0.00     0.007 C 
HETATM    4  C9  UNL     1      -2.751  -4.869  20.510  1.00  0.00     0.005 C 
HETATM    5  C10 UNL     1      -2.428  -3.511  21.115  1.00  0.00     0.019 C 
HETATM    6  C11 UNL     1      -1.260  -3.513  22.012  1.00  0.00     0.012 C 
HETATM    7  C12 UNL     1      -1.463  -4.606  23.082  1.00  0.00     0.040 C 
HETATM    8  C13 UNL     1      -1.619  -5.924  22.358  1.00  0.00     0.073 C 
HETATM    9  C14 UNL     1      -1.221  -7.132  23.077  1.00  0.00    -0.010 C 
HETATM   10  C15 UNL     1      -0.304  -8.085  22.283  1.00  0.00     0.018 C 
HETATM   11  C16 UNL     1      -0.226  -6.631  24.166  1.00  0.00     0.018 C 
HETATM   12  C17 UNL     1      -2.168  -7.960  23.822  1.00  0.00     0.022 C 
HETATM   13  C18 UNL     1      -2.482  -7.391  25.224  1.00  0.00     0.013 C 
HETATM   14  C19 UNL     1      -3.431  -8.406  23.225  1.00  0.00     0.135 C 
HETATM   15  C22 UNL     1      -3.630  -8.334  21.784  1.00  0.00     0.034 C 
HETATM   16  C23 UNL     1      -3.039  -7.276  20.954  1.00  0.00     0.015 C 
HETATM   17  C24 UNL     1      -2.916  -5.920  21.604  1.00  0.00    -0.008 C 
HETATM   18  C25 UNL     1      -4.146  -5.546  22.338  1.00  0.00     0.019 C 
HETATM   19  C26 UNL     1      -2.345  -2.561  19.998  1.00  0.00    -0.081 C 
HETATM   20  C27 UNL     1      -2.022  -1.310  20.267  1.00  0.00     0.015 C 
ENDROOT
BRANCH  14  21
HETATM   21  O2  UNL     1      -3.626  -9.785  23.605  1.00  0.00    -0.332 OA
BRANCH  21  22
HETATM   22  C20 UNL     1      -4.827 -10.363  23.866  1.00  0.00     0.133 C 
HETATM   23  C21 UNL     1      -5.279 -10.623  25.255  1.00  0.00     0.099 C 
HETATM   24  N1  UNL     1      -5.551 -10.669  22.831  1.00  0.00    -0.251 N 
ATOM     25  H1  UNL     1      -5.183 -10.461  21.902  1.00  0.00     0.196 HD
BRANCH  24  26
HETATM   26  O3  UNL     1      -6.775 -11.251  22.926  1.00  0.00    -0.288 OA
ATOM     27  H3  UNL     1      -7.538 -10.938  22.453  1.00  0.00     0.244 HD
ENDBRANCH  24  26
ENDBRANCH  21  22
ENDBRANCH  14  21
BRANCH   8  28
HETATM   28  O1  UNL     1      -0.623  -5.804  21.335  1.00  0.00    -0.388 OA
ATOM     29  H1  UNL     1       0.072  -6.348  21.686  1.00  0.00     0.210 HD
ENDBRANCH   8  28
BRANCH   1  30
HETATM   30  C5  UNL     1      -1.351  -2.623  17.815  1.00  0.00     0.013 C 
BRANCH  30  31
HETATM   31  C4  UNL     1      -0.664  -3.751  17.132  1.00  0.00     0.033 C 
BRANCH  31  32
HETATM   32  C2  UNL     1       0.090  -4.612  18.029  1.00  0.00    -0.093 C 
HETATM   33  C1  UNL     1       0.048  -5.927  17.951  1.00  0.00     0.014 C 
HETATM   34  C3  UNL     1       0.987  -3.949  19.040  1.00  0.00     0.042 C 
ENDBRANCH  31  32
ENDBRANCH  30  31
ENDBRANCH   1  30
TORSDOF 7
ENDMDL
