MODEL 1
REMARK VINA RESULT: -8.342550335      0.000      0.000
REMARK  6 active torsions:
REMARK  status: ('A' for Active; 'I' for Inactive)
REMARK    1  A    between atoms: C2_2  and  C24_28 
REMARK    2  A    between atoms: C3_3  and  C4_4 
REMARK    3  A    between atoms: C4_4  and  C5_5 
REMARK    4  A    between atoms: C17_17  and  C18_18 
REMARK    5  A    between atoms: C22_24  and  O1_25 
REMARK    6  A    between atoms: C24_28  and  O2_29 
ROOT
HETATM    1  C5  UNL     1       1.261  -5.875  19.989  1.00  0.00    -0.003 C 
HETATM    2  C6  UNL     1       1.294  -7.095  20.894  1.00  0.00     0.009 C 
HETATM    3  C7  UNL     1       0.442  -6.765  22.096  1.00  0.00     0.028 C 
HETATM    4  C8  UNL     1      -0.847  -6.146  21.713  1.00  0.00    -0.023 C 
HETATM    5  C9  UNL     1      -1.163  -5.658  20.536  1.00  0.00    -0.072 C 
HETATM    6  C10 UNL     1      -0.116  -5.725  19.448  1.00  0.00     0.019 C 
HETATM    7  C11 UNL     1      -0.294  -4.518  18.577  1.00  0.00     0.010 C 
HETATM    8  C12 UNL     1      -0.854  -3.370  19.391  1.00  0.00     0.010 C 
HETATM    9  C13 UNL     1      -2.303  -3.614  19.755  1.00  0.00    -0.034 C 
HETATM   10  C14 UNL     1      -3.145  -3.309  18.506  1.00  0.00     0.016 C 
HETATM   11  C15 UNL     1      -2.700  -2.631  20.796  1.00  0.00     0.010 C 
HETATM   12  C16 UNL     1      -4.039  -2.986  21.443  1.00  0.00     0.009 C 
HETATM   13  C17 UNL     1      -3.701  -4.319  22.197  1.00  0.00     0.030 C 
HETATM   14  C22 UNL     1      -3.600  -5.300  21.082  1.00  0.00     0.132 C 
HETATM   15  C23 UNL     1      -2.444  -5.050  20.153  1.00  0.00     0.052 C 
ENDROOT
BRANCH   1  16
HETATM   16  C4  UNL     1       2.169  -6.242  18.809  1.00  0.00     0.032 C 
BRANCH  16  17
HETATM   17  C3  UNL     1       2.002  -7.688  18.510  1.00  0.00    -0.022 C 
HETATM   18  C2  UNL     1       1.964  -8.179  17.289  1.00  0.00    -0.064 C 
HETATM   19  C1  UNL     1       2.092  -7.264  16.127  1.00  0.00     0.045 C 
BRANCH  18  20
HETATM   20  C24 UNL     1       1.794  -9.636  17.052  1.00  0.00     0.197 C 
BRANCH  20  21
HETATM   21  O2  UNL     1       2.959 -10.351  17.374  1.00  0.00    -0.397 OA
ATOM     22  H2  UNL     1       3.259 -10.154  18.254  1.00  0.00     0.209 HD
ENDBRANCH  20  21
ENDBRANCH  18  20
ENDBRANCH  16  17
ENDBRANCH   1  16
BRANCH  14  23
HETATM   23  O1  UNL     1      -3.697  -6.625  21.358  1.00  0.00    -0.394 OA
ATOM     24  H1  UNL     1      -3.997  -7.218  20.678  1.00  0.00     0.210 HD
ENDBRANCH  14  23
BRANCH  13  25
HETATM   25  C18 UNL     1      -4.774  -4.611  23.171  1.00  0.00     0.066 C 
HETATM   26  C19 UNL     1      -5.680  -3.471  23.393  1.00  0.00     0.032 C 
HETATM   27  C20 UNL     1      -6.707  -3.866  24.445  1.00  0.00     0.055 C 
HETATM   28  C21 UNL     1      -7.489  -2.612  24.770  1.00  0.00     0.022 C 
HETATM   29  S1  UNL     1      -5.706  -4.265  25.942  1.00  0.00    -0.093 SA
HETATM   30  S2  UNL     1      -3.982  -4.941  24.810  1.00  0.00    -0.092 SA
ENDBRANCH  13  25
TORSDOF 6
ENDMDL
MODEL 2
REMARK VINA RESULT: -8.164760974      2.131      3.230
REMARK  6 active torsions:
REMARK  status: ('A' for Active; 'I' for Inactive)
REMARK    1  A    between atoms: C2_2  and  C24_28 
REMARK    2  A    between atoms: C3_3  and  C4_4 
REMARK    3  A    between atoms: C4_4  and  C5_5 
REMARK    4  A    between atoms: C17_17  and  C18_18 
REMARK    5  A    between atoms: C22_24  and  O1_25 
REMARK    6  A    between atoms: C24_28  and  O2_29 
ROOT
HETATM    1  C5  UNL     1      -0.274  -5.188  17.900  1.00  0.00    -0.003 C 
HETATM    2  C6  UNL     1      -0.386  -3.827  17.234  1.00  0.00     0.009 C 
HETATM    3  C7  UNL     1      -1.787  -3.330  17.499  1.00  0.00     0.028 C 
HETATM    4  C8  UNL     1      -2.186  -3.512  18.913  1.00  0.00    -0.023 C 
HETATM    5  C9  UNL     1      -1.575  -4.251  19.811  1.00  0.00    -0.072 C 
HETATM    6  C10 UNL     1      -0.338  -5.001  19.374  1.00  0.00     0.019 C 
HETATM    7  C11 UNL     1      -0.291  -6.283  20.147  1.00  0.00     0.010 C 
HETATM    8  C12 UNL     1      -1.697  -6.735  20.486  1.00  0.00     0.010 C 
HETATM    9  C13 UNL     1      -2.317  -5.844  21.542  1.00  0.00    -0.034 C 
HETATM   10  C14 UNL     1      -1.720  -6.258  22.895  1.00  0.00     0.016 C 
HETATM   11  C15 UNL     1      -3.773  -6.133  21.604  1.00  0.00     0.010 C 
HETATM   12  C16 UNL     1      -4.534  -5.083  22.416  1.00  0.00     0.009 C 
HETATM   13  C17 UNL     1      -4.373  -3.798  21.530  1.00  0.00     0.030 C 
HETATM   14  C22 UNL     1      -2.950  -3.429  21.760  1.00  0.00     0.132 C 
HETATM   15  C23 UNL     1      -1.966  -4.427  21.216  1.00  0.00     0.052 C 
ENDROOT
BRANCH   1  16
HETATM   16  C4  UNL     1       1.145  -5.666  17.568  1.00  0.00     0.032 C 
BRANCH  16  17
HETATM   17  C3  UNL     1       1.054  -6.874  16.710  1.00  0.00    -0.022 C 
HETATM   18  C2  UNL     1       1.596  -8.033  17.023  1.00  0.00    -0.064 C 
HETATM   19  C1  UNL     1       2.345  -8.169  18.296  1.00  0.00     0.045 C 
BRANCH  18  20
HETATM   20  C24 UNL     1       1.471  -9.207  16.122  1.00  0.00     0.197 C 
BRANCH  20  21
HETATM   21  O2  UNL     1       1.854 -10.395  16.765  1.00  0.00    -0.397 OA
ATOM     22  H2  UNL     1       2.735 -10.655  16.522  1.00  0.00     0.209 HD
ENDBRANCH  20  21
ENDBRANCH  18  20
ENDBRANCH  16  17
ENDBRANCH   1  16
BRANCH  14  23
HETATM   23  O1  UNL     1      -2.540  -2.167  21.472  1.00  0.00    -0.394 OA
ATOM     24  H1  UNL     1      -2.897  -1.728  20.708  1.00  0.00     0.210 HD
ENDBRANCH  14  23
BRANCH  13  25
HETATM   25  C18 UNL     1      -5.346  -2.778  21.974  1.00  0.00     0.066 C 
HETATM   26  C19 UNL     1      -6.487  -3.349  22.711  1.00  0.00     0.032 C 
HETATM   27  C20 UNL     1      -7.445  -2.222  23.072  1.00  0.00     0.055 C 
HETATM   28  C21 UNL     1      -8.677  -2.878  23.656  1.00  0.00     0.022 C 
HETATM   29  S1  UNL     1      -7.949  -1.506  21.449  1.00  0.00    -0.093 SA
HETATM   30  S2  UNL     1      -6.075  -1.991  20.467  1.00  0.00    -0.092 SA
ENDBRANCH  13  25
TORSDOF 6
ENDMDL
MODEL 3
REMARK VINA RESULT: -7.971757925      1.772      2.253
REMARK  6 active torsions:
REMARK  status: ('A' for Active; 'I' for Inactive)
REMARK    1  A    between atoms: C2_2  and  C24_28 
REMARK    2  A    between atoms: C3_3  and  C4_4 
REMARK    3  A    between atoms: C4_4  and  C5_5 
REMARK    4  A    between atoms: C17_17  and  C18_18 
REMARK    5  A    between atoms: C22_24  and  O1_25 
REMARK    6  A    between atoms: C24_28  and  O2_29 
ROOT
HETATM    1  C5  UNL     1       1.620  -6.534  18.124  1.00  0.00    -0.003 C 
HETATM    2  C6  UNL     1       1.812  -7.612  19.177  1.00  0.00     0.009 C 
HETATM    3  C7  UNL     1       1.506  -6.973  20.511  1.00  0.00     0.028 C 
HETATM    4  C8  UNL     1       0.264  -6.169  20.473  1.00  0.00    -0.023 C 
HETATM    5  C9  UNL     1      -0.387  -5.782  19.400  1.00  0.00    -0.072 C 
HETATM    6  C10 UNL     1       0.175  -6.189  18.057  1.00  0.00     0.019 C 
HETATM    7  C11 UNL     1      -0.139  -5.092  17.086  1.00  0.00     0.010 C 
HETATM    8  C12 UNL     1      -0.204  -3.763  17.810  1.00  0.00     0.010 C 
HETATM    9  C13 UNL     1      -1.442  -3.673  18.676  1.00  0.00    -0.034 C 
HETATM   10  C14 UNL     1      -2.628  -3.371  17.748  1.00  0.00     0.016 C 
HETATM   11  C15 UNL     1      -1.296  -2.507  19.586  1.00  0.00     0.010 C 
HETATM   12  C16 UNL     1      -2.345  -2.509  20.698  1.00  0.00     0.009 C 
HETATM   13  C17 UNL     1      -1.942  -3.776  21.532  1.00  0.00     0.030 C 
HETATM   14  C22 UNL     1      -2.387  -4.891  20.653  1.00  0.00     0.132 C 
HETATM   15  C23 UNL     1      -1.624  -4.991  19.361  1.00  0.00     0.052 C 
ENDROOT
BRANCH   1  16
HETATM   16  C4  UNL     1       1.981  -7.218  16.799  1.00  0.00     0.032 C 
BRANCH  16  17
HETATM   17  C3  UNL     1       2.587  -8.542  17.094  1.00  0.00    -0.022 C 
HETATM   18  C2  UNL     1       2.361  -9.622  16.377  1.00  0.00    -0.064 C 
HETATM   19  C1  UNL     1       1.457  -9.545  15.203  1.00  0.00     0.045 C 
BRANCH  18  20
HETATM   20  C24 UNL     1       2.998 -10.920  16.723  1.00  0.00     0.197 C 
BRANCH  20  21
HETATM   21  O2  UNL     1       2.861 -11.855  15.684  1.00  0.00    -0.397 OA
ATOM     22  H2  UNL     1       3.270 -11.550  14.883  1.00  0.00     0.209 HD
ENDBRANCH  20  21
ENDBRANCH  18  20
ENDBRANCH  16  17
ENDBRANCH   1  16
BRANCH  14  23
HETATM   23  O1  UNL     1      -2.558  -6.127  21.188  1.00  0.00    -0.394 OA
ATOM     24  H1  UNL     1      -1.991  -6.835  20.906  1.00  0.00     0.210 HD
ENDBRANCH  14  23
BRANCH  13  25
HETATM   25  C18 UNL     1      -2.619  -3.728  22.845  1.00  0.00     0.066 C 
HETATM   26  C19 UNL     1      -2.434  -4.956  23.637  1.00  0.00     0.032 C 
HETATM   27  C20 UNL     1      -3.212  -4.816  24.939  1.00  0.00     0.055 C 
HETATM   28  C21 UNL     1      -3.144  -6.163  25.625  1.00  0.00     0.022 C 
HETATM   29  S1  UNL     1      -4.963  -4.584  24.408  1.00  0.00    -0.093 SA
HETATM   30  S2  UNL     1      -4.440  -3.603  22.543  1.00  0.00    -0.092 SA
ENDBRANCH  13  25
TORSDOF 6
ENDMDL
MODEL 4
REMARK VINA RESULT: -7.783295893      1.743      3.074
REMARK  6 active torsions:
REMARK  status: ('A' for Active; 'I' for Inactive)
REMARK    1  A    between atoms: C2_2  and  C24_28 
REMARK    2  A    between atoms: C3_3  and  C4_4 
REMARK    3  A    between atoms: C4_4  and  C5_5 
REMARK    4  A    between atoms: C17_17  and  C18_18 
REMARK    5  A    between atoms: C22_24  and  O1_25 
REMARK    6  A    between atoms: C24_28  and  O2_29 
ROOT
HETATM    1  C5  UNL     1      -0.075  -5.351  18.719  1.00  0.00    -0.003 C 
HETATM    2  C6  UNL     1      -0.498  -4.057  18.045  1.00  0.00     0.009 C 
HETATM    3  C7  UNL     1      -1.921  -3.791  18.475  1.00  0.00     0.028 C 
HETATM    4  C8  UNL     1      -2.109  -3.979  19.931  1.00  0.00    -0.023 C 
HETATM    5  C9  UNL     1      -1.277  -4.568  20.759  1.00  0.00    -0.072 C 
HETATM    6  C10 UNL     1       0.009  -5.117  20.185  1.00  0.00     0.019 C 
HETATM    7  C11 UNL     1       0.367  -6.340  20.973  1.00  0.00     0.010 C 
HETATM    8  C12 UNL     1      -0.890  -7.006  21.494  1.00  0.00     0.010 C 
HETATM    9  C13 UNL     1      -1.521  -6.190  22.602  1.00  0.00    -0.034 C 
HETATM   10  C14 UNL     1      -0.703  -6.442  23.877  1.00  0.00     0.016 C 
HETATM   11  C15 UNL     1      -2.888  -6.715  22.853  1.00  0.00     0.010 C 
HETATM   12  C16 UNL     1      -3.714  -5.775  23.732  1.00  0.00     0.009 C 
HETATM   13  C17 UNL     1      -3.883  -4.518  22.808  1.00  0.00     0.030 C 
HETATM   14  C22 UNL     1      -2.527  -3.907  22.849  1.00  0.00     0.132 C 
HETATM   15  C23 UNL     1      -1.460  -4.748  22.205  1.00  0.00     0.052 C 
ENDROOT
BRANCH   1  16
HETATM   16  C4  UNL     1       1.355  -5.599  18.222  1.00  0.00     0.032 C 
BRANCH  16  17
HETATM   17  C3  UNL     1       1.326  -6.679  17.203  1.00  0.00    -0.022 C 
HETATM   18  C2  UNL     1       1.790  -7.892  17.415  1.00  0.00    -0.064 C 
HETATM   19  C1  UNL     1       2.381  -8.230  18.733  1.00  0.00     0.045 C 
BRANCH  18  20
HETATM   20  C24 UNL     1       1.734  -8.932  16.354  1.00  0.00     0.197 C 
BRANCH  20  21
HETATM   21  O2  UNL     1       1.865 -10.223  16.889  1.00  0.00    -0.397 OA
ATOM     22  H2  UNL     1       1.512 -10.274  17.770  1.00  0.00     0.209 HD
ENDBRANCH  20  21
ENDBRANCH  18  20
ENDBRANCH  16  17
ENDBRANCH   1  16
BRANCH  14  23
HETATM   23  O1  UNL     1      -2.377  -2.608  22.486  1.00  0.00    -0.394 OA
ATOM     24  H1  UNL     1      -1.595  -2.347  22.014  1.00  0.00     0.210 HD
ENDBRANCH  14  23
BRANCH  13  25
HETATM   25  C18 UNL     1      -4.956  -3.659  23.350  1.00  0.00     0.066 C 
HETATM   26  C19 UNL     1      -5.654  -4.260  24.499  1.00  0.00     0.032 C 
HETATM   27  C20 UNL     1      -6.765  -3.316  24.940  1.00  0.00     0.055 C 
HETATM   28  C21 UNL     1      -7.564  -4.057  25.990  1.00  0.00     0.022 C 
HETATM   29  S1  UNL     1      -7.856  -3.164  23.461  1.00  0.00    -0.093 SA
HETATM   30  S2  UNL     1      -6.244  -3.459  22.037  1.00  0.00    -0.092 SA
ENDBRANCH  13  25
TORSDOF 6
ENDMDL
MODEL 5
REMARK VINA RESULT: -7.546654375     12.215     15.130
REMARK  6 active torsions:
REMARK  status: ('A' for Active; 'I' for Inactive)
REMARK    1  A    between atoms: C2_2  and  C24_28 
REMARK    2  A    between atoms: C3_3  and  C4_4 
REMARK    3  A    between atoms: C4_4  and  C5_5 
REMARK    4  A    between atoms: C17_17  and  C18_18 
REMARK    5  A    between atoms: C22_24  and  O1_25 
REMARK    6  A    between atoms: C24_28  and  O2_29 
ROOT
HETATM    1  C5  UNL     1       4.771 -15.380  15.502  1.00  0.00    -0.003 C 
HETATM    2  C6  UNL     1       4.939 -13.870  15.526  1.00  0.00     0.009 C 
HETATM    3  C7  UNL     1       5.324 -13.500  16.939  1.00  0.00     0.028 C 
HETATM    4  C8  UNL     1       6.381 -14.384  17.479  1.00  0.00    -0.023 C 
HETATM    5  C9  UNL     1       6.781 -15.528  16.972  1.00  0.00    -0.072 C 
HETATM    6  C10 UNL     1       6.103 -16.007  15.709  1.00  0.00     0.019 C 
HETATM    7  C11 UNL     1       6.064 -17.505  15.760  1.00  0.00     0.010 C 
HETATM    8  C12 UNL     1       5.998 -17.972  17.199  1.00  0.00     0.010 C 
HETATM    9  C13 UNL     1       7.317 -17.747  17.907  1.00  0.00    -0.034 C 
HETATM   10  C14 UNL     1       8.274 -18.860  17.454  1.00  0.00     0.016 C 
HETATM   11  C15 UNL     1       7.104 -17.926  19.367  1.00  0.00     0.010 C 
HETATM   12  C16 UNL     1       8.293 -17.426  20.188  1.00  0.00     0.009 C 
HETATM   13  C17 UNL     1       8.256 -15.881  19.920  1.00  0.00     0.030 C 
HETATM   14  C22 UNL     1       8.755 -15.788  18.521  1.00  0.00     0.132 C 
HETATM   15  C23 UNL     1       7.835 -16.403  17.503  1.00  0.00     0.052 C 
ENDROOT
BRANCH   1  16
HETATM   16  C4  UNL     1       4.342 -15.700  14.065  1.00  0.00     0.032 C 
BRANCH  16  17
HETATM   17  C3  UNL     1       3.040 -15.037  13.796  1.00  0.00    -0.022 C 
HETATM   18  C2  UNL     1       2.555 -14.848  12.587  1.00  0.00    -0.064 C 
HETATM   19  C1  UNL     1       3.328 -15.311  11.408  1.00  0.00     0.045 C 
BRANCH  18  20
HETATM   20  C24 UNL     1       1.245 -14.177  12.381  1.00  0.00     0.197 C 
BRANCH  20  21
HETATM   21  O2  UNL     1       1.336 -12.792  12.589  1.00  0.00    -0.397 OA
ATOM     22  H2  UNL     1       0.698 -12.318  12.068  1.00  0.00     0.209 HD
ENDBRANCH  20  21
ENDBRANCH  18  20
ENDBRANCH  16  17
ENDBRANCH   1  16
BRANCH  14  23
HETATM   23  O1  UNL     1       9.225 -14.599  18.065  1.00  0.00    -0.394 OA
ATOM     24  H1  UNL     1      10.125 -14.542  17.766  1.00  0.00     0.210 HD
ENDBRANCH  14  23
BRANCH  13  25
HETATM   25  C18 UNL     1       9.105 -15.195  20.917  1.00  0.00     0.066 C 
HETATM   26  C19 UNL     1      10.161 -16.060  21.470  1.00  0.00     0.032 C 
HETATM   27  C20 UNL     1      10.936 -15.271  22.517  1.00  0.00     0.055 C 
HETATM   28  C21 UNL     1      11.877 -16.251  23.182  1.00  0.00     0.022 C 
HETATM   29  S1  UNL     1       9.673 -14.815  23.780  1.00  0.00    -0.093 SA
HETATM   30  S2  UNL     1       8.037 -14.735  22.355  1.00  0.00    -0.092 SA
ENDBRANCH  13  25
TORSDOF 6
ENDMDL
