MODEL 1
REMARK VINA RESULT: -8.190017547      0.000      0.000
REMARK  6 active torsions:
REMARK  status: ('A' for Active; 'I' for Inactive)
REMARK    1  A    between atoms: C3_3  and  O1_4 
REMARK    2  A    between atoms: N1_19  and  O2_21 
REMARK    3  A    between atoms: C21_27  and  C22_28 
REMARK    4  A    between atoms: C22_28  and  C24_30 
REMARK    5  A    between atoms: C24_30  and  C25_31 
REMARK    6  A    between atoms: C25_31  and  C26_32 
ROOT
HETATM    1  C1  UNL     1       1.841  -6.280  23.862  1.00  0.00     0.022 C 
HETATM    2  C2  UNL     1       0.708  -6.488  23.222  1.00  0.00    -0.035 C 
HETATM    3  C3  UNL     1      -0.530  -6.452  24.050  1.00  0.00     0.151 C 
HETATM    4  C4  UNL     1      -1.260  -5.254  23.481  1.00  0.00     0.043 C 
HETATM    5  C5  UNL     1      -1.695  -5.571  22.062  1.00  0.00     0.009 C 
HETATM    6  C6  UNL     1      -0.655  -6.101  21.158  1.00  0.00    -0.015 C 
HETATM    7  C7  UNL     1      -1.273  -6.998  20.103  1.00  0.00     0.020 C 
HETATM    8  C8  UNL     1      -0.173  -4.918  20.282  1.00  0.00     0.014 C 
HETATM    9  C9  UNL     1      -1.300  -4.499  19.414  1.00  0.00     0.007 C 
HETATM   10  C10 UNL     1      -2.539  -4.068  20.179  1.00  0.00     0.005 C 
HETATM   11  C11 UNL     1      -2.860  -2.730  19.639  1.00  0.00    -0.026 C 
HETATM   12  C12 UNL     1      -2.837  -2.977  18.099  1.00  0.00     0.019 C 
HETATM   13  C13 UNL     1      -1.812  -1.652  19.834  1.00  0.00     0.019 C 
HETATM   14  C14 UNL     1      -4.171  -2.134  19.852  1.00  0.00    -0.015 C 
HETATM   15  C15 UNL     1      -5.278  -2.157  20.569  1.00  0.00     0.024 C 
HETATM   16  C16 UNL     1      -5.615  -3.039  21.679  1.00  0.00     0.031 C 
HETATM   17  N1  UNL     1      -6.882  -3.225  21.777  1.00  0.00    -0.274 N 
ATOM     18  H1  UNL     1      -7.512  -2.772  21.115  1.00  0.00     0.193 HD
HETATM   19  C17 UNL     1      -4.766  -3.750  22.706  1.00  0.00     0.060 C 
HETATM   20  C18 UNL     1      -3.972  -4.752  22.014  1.00  0.00     0.016 C 
HETATM   21  C19 UNL     1      -2.535  -4.387  21.602  1.00  0.00    -0.034 C 
HETATM   22  C20 UNL     1      -2.151  -3.176  22.450  1.00  0.00     0.016 C 
HETATM   23  C21 UNL     1       0.559  -6.711  21.782  1.00  0.00    -0.059 C 
ENDROOT
BRANCH  23  24
HETATM   24  C22 UNL     1       0.942  -8.086  21.434  1.00  0.00     0.012 C 
HETATM   25  C23 UNL     1       1.303  -9.069  22.497  1.00  0.00     0.015 C 
BRANCH  24  26
HETATM   26  C24 UNL     1       2.075  -8.224  20.440  1.00  0.00     0.016 C 
BRANCH  26  27
HETATM   27  C25 UNL     1       2.246  -7.136  19.457  1.00  0.00     0.078 C 
BRANCH  27  28
HETATM   28  C26 UNL     1       1.889  -7.468  18.070  1.00  0.00     0.123 C 
HETATM   29  C27 UNL     1       1.151  -6.483  17.212  1.00  0.00     0.091 C 
HETATM   30  O3  UNL     1       2.163  -8.524  17.564  1.00  0.00    -0.298 OA
ENDBRANCH  27  28
ENDBRANCH  26  27
ENDBRANCH  24  26
ENDBRANCH  23  24
BRANCH   3  31
HETATM   31  O1  UNL     1      -1.296  -7.571  24.075  1.00  0.00    -0.391 OA
ATOM     32  H1  UNL     1      -1.352  -8.082  23.276  1.00  0.00     0.210 HD
ENDBRANCH   3  31
BRANCH  17  33
HETATM   33  O2  UNL     1      -7.386  -4.015  22.747  1.00  0.00    -0.290 OA
ATOM     34  H2  UNL     1      -7.719  -4.880  22.540  1.00  0.00     0.244 HD
ENDBRANCH  17  33
TORSDOF 6
ENDMDL
MODEL 2
REMARK VINA RESULT: -7.883445719      2.758      5.779
REMARK  6 active torsions:
REMARK  status: ('A' for Active; 'I' for Inactive)
REMARK    1  A    between atoms: C3_3  and  O1_4 
REMARK    2  A    between atoms: N1_19  and  O2_21 
REMARK    3  A    between atoms: C21_27  and  C22_28 
REMARK    4  A    between atoms: C22_28  and  C24_30 
REMARK    5  A    between atoms: C24_30  and  C25_31 
REMARK    6  A    between atoms: C25_31  and  C26_32 
ROOT
HETATM    1  C1  UNL     1       2.094  -4.179  19.556  1.00  0.00     0.022 C 
HETATM    2  C2  UNL     1       1.148  -5.071  19.767  1.00  0.00    -0.035 C 
HETATM    3  C3  UNL     1       1.599  -6.405  20.252  1.00  0.00     0.151 C 
HETATM    4  C4  UNL     1       0.974  -6.472  21.629  1.00  0.00     0.043 C 
HETATM    5  C5  UNL     1      -0.534  -6.551  21.481  1.00  0.00     0.009 C 
HETATM    6  C6  UNL     1      -1.163  -5.542  20.606  1.00  0.00    -0.015 C 
HETATM    7  C7  UNL     1      -2.433  -6.092  19.985  1.00  0.00     0.020 C 
HETATM    8  C8  UNL     1      -1.748  -4.445  21.530  1.00  0.00     0.014 C 
HETATM    9  C9  UNL     1      -2.848  -5.047  22.321  1.00  0.00     0.007 C 
HETATM   10  C10 UNL     1      -2.417  -6.227  23.176  1.00  0.00     0.005 C 
HETATM   11  C11 UNL     1      -2.888  -5.889  24.536  1.00  0.00    -0.026 C 
HETATM   12  C12 UNL     1      -4.378  -5.500  24.287  1.00  0.00     0.019 C 
HETATM   13  C13 UNL     1      -2.303  -4.640  25.164  1.00  0.00     0.019 C 
HETATM   14  C14 UNL     1      -2.987  -6.913  25.565  1.00  0.00    -0.015 C 
HETATM   15  C15 UNL     1      -2.611  -8.119  25.948  1.00  0.00     0.024 C 
HETATM   16  C16 UNL     1      -1.733  -9.052  25.255  1.00  0.00     0.031 C 
HETATM   17  N1  UNL     1      -2.010 -10.273  25.538  1.00  0.00    -0.274 N 
ATOM     18  H1  UNL     1      -2.771 -10.482  26.184  1.00  0.00     0.193 HD
HETATM   19  C17 UNL     1      -0.587  -8.845  24.292  1.00  0.00     0.060 C 
HETATM   20  C18 UNL     1      -1.130  -8.281  23.066  1.00  0.00     0.016 C 
HETATM   21  C19 UNL     1      -1.088  -6.753  22.885  1.00  0.00    -0.034 C 
HETATM   22  C20 UNL     1      -0.050  -6.241  23.882  1.00  0.00     0.016 C 
HETATM   23  C21 UNL     1      -0.292  -4.857  19.603  1.00  0.00    -0.059 C 
ENDROOT
BRANCH  23  24
HETATM   24  C22 UNL     1      -0.656  -4.890  18.180  1.00  0.00     0.012 C 
HETATM   25  C23 UNL     1       0.269  -5.479  17.169  1.00  0.00     0.015 C 
BRANCH  24  26
HETATM   26  C24 UNL     1      -1.035  -3.559  17.565  1.00  0.00     0.016 C 
BRANCH  26  27
HETATM   27  C25 UNL     1      -2.437  -3.122  17.713  1.00  0.00     0.078 C 
BRANCH  27  28
HETATM   28  C26 UNL     1      -2.747  -2.383  18.944  1.00  0.00     0.123 C 
HETATM   29  C27 UNL     1      -4.089  -2.520  19.602  1.00  0.00     0.091 C 
HETATM   30  O3  UNL     1      -1.960  -1.646  19.476  1.00  0.00    -0.298 OA
ENDBRANCH  27  28
ENDBRANCH  26  27
ENDBRANCH  24  26
ENDBRANCH  23  24
BRANCH   3  31
HETATM   31  O1  UNL     1       1.298  -7.483  19.486  1.00  0.00    -0.391 OA
ATOM     32  H1  UNL     1       2.003  -8.087  19.285  1.00  0.00     0.210 HD
ENDBRANCH   3  31
BRANCH  17  33
HETATM   33  O2  UNL     1      -1.302 -11.282  24.990  1.00  0.00    -0.290 OA
ATOM     34  H2  UNL     1      -0.931 -11.964  25.537  1.00  0.00     0.244 HD
ENDBRANCH  17  33
TORSDOF 6
ENDMDL
MODEL 3
REMARK VINA RESULT: -7.731651786      2.685      7.559
REMARK  6 active torsions:
REMARK  status: ('A' for Active; 'I' for Inactive)
REMARK    1  A    between atoms: C3_3  and  O1_4 
REMARK    2  A    between atoms: N1_19  and  O2_21 
REMARK    3  A    between atoms: C21_27  and  C22_28 
REMARK    4  A    between atoms: C22_28  and  C24_30 
REMARK    5  A    between atoms: C24_30  and  C25_31 
REMARK    6  A    between atoms: C25_31  and  C26_32 
ROOT
HETATM    1  C1  UNL     1      -2.348  -0.887  20.028  1.00  0.00     0.022 C 
HETATM    2  C2  UNL     1      -2.417  -2.164  19.711  1.00  0.00    -0.035 C 
HETATM    3  C3  UNL     1      -1.813  -2.552  18.406  1.00  0.00     0.151 C 
HETATM    4  C4  UNL     1      -0.679  -3.458  18.835  1.00  0.00     0.043 C 
HETATM    5  C5  UNL     1      -1.261  -4.723  19.437  1.00  0.00     0.009 C 
HETATM    6  C6  UNL     1      -2.288  -4.543  20.482  1.00  0.00    -0.015 C 
HETATM    7  C7  UNL     1      -3.249  -5.716  20.492  1.00  0.00     0.020 C 
HETATM    8  C8  UNL     1      -1.581  -4.738  21.847  1.00  0.00     0.014 C 
HETATM    9  C9  UNL     1      -1.142  -6.152  21.939  1.00  0.00     0.007 C 
HETATM   10  C10 UNL     1      -0.192  -6.576  20.832  1.00  0.00     0.005 C 
HETATM   11  C11 UNL     1       0.969  -7.152  21.542  1.00  0.00    -0.026 C 
HETATM   12  C12 UNL     1       0.293  -8.152  22.531  1.00  0.00     0.019 C 
HETATM   13  C13 UNL     1       1.733  -6.219  22.460  1.00  0.00     0.019 C 
HETATM   14  C14 UNL     1       1.931  -7.990  20.841  1.00  0.00    -0.015 C 
HETATM   15  C15 UNL     1       2.414  -8.352  19.668  1.00  0.00     0.024 C 
HETATM   16  C16 UNL     1       2.013  -7.889  18.346  1.00  0.00     0.031 C 
HETATM   17  N1  UNL     1       2.211  -8.782  17.444  1.00  0.00    -0.274 N 
ATOM     18  H1  UNL     1       2.607  -9.684  17.704  1.00  0.00     0.193 HD
HETATM   19  C17 UNL     1       1.426  -6.585  17.861  1.00  0.00     0.060 C 
HETATM   20  C18 UNL     1       0.092  -6.457  18.425  1.00  0.00     0.016 C 
HETATM   21  C19 UNL     1      -0.078  -5.641  19.718  1.00  0.00    -0.034 C 
HETATM   22  C20 UNL     1       1.175  -4.775  19.836  1.00  0.00     0.016 C 
HETATM   23  C21 UNL     1      -2.996  -3.228  20.536  1.00  0.00    -0.059 C 
ENDROOT
BRANCH  23  24
HETATM   24  C22 UNL     1      -4.463  -3.189  20.467  1.00  0.00     0.012 C 
HETATM   25  C23 UNL     1      -5.157  -2.310  19.481  1.00  0.00     0.015 C 
BRANCH  24  26
HETATM   26  C24 UNL     1      -5.177  -2.879  21.766  1.00  0.00     0.016 C 
BRANCH  26  27
HETATM   27  C25 UNL     1      -5.860  -3.998  22.444  1.00  0.00     0.078 C 
BRANCH  27  28
HETATM   28  C26 UNL     1      -5.537  -4.173  23.867  1.00  0.00     0.123 C 
HETATM   29  C27 UNL     1      -4.295  -4.903  24.286  1.00  0.00     0.091 C 
HETATM   30  O3  UNL     1      -6.237  -3.750  24.749  1.00  0.00    -0.298 OA
ENDBRANCH  27  28
ENDBRANCH  26  27
ENDBRANCH  24  26
ENDBRANCH  23  24
BRANCH   3  31
HETATM   31  O1  UNL     1      -2.628  -3.129  17.488  1.00  0.00    -0.391 OA
ATOM     32  H1  UNL     1      -2.240  -3.390  16.661  1.00  0.00     0.210 HD
ENDBRANCH   3  31
BRANCH  17  33
HETATM   33  O2  UNL     1       1.899  -8.535  16.155  1.00  0.00    -0.290 OA
ATOM     34  H2  UNL     1       2.559  -8.610  15.476  1.00  0.00     0.244 HD
ENDBRANCH  17  33
TORSDOF 6
ENDMDL
MODEL 4
REMARK VINA RESULT: -7.668533555     10.285     13.928
REMARK  6 active torsions:
REMARK  status: ('A' for Active; 'I' for Inactive)
REMARK    1  A    between atoms: C3_3  and  O1_4 
REMARK    2  A    between atoms: N1_19  and  O2_21 
REMARK    3  A    between atoms: C21_27  and  C22_28 
REMARK    4  A    between atoms: C22_28  and  C24_30 
REMARK    5  A    between atoms: C24_30  and  C25_31 
REMARK    6  A    between atoms: C25_31  and  C26_32 
ROOT
HETATM    1  C1  UNL     1      10.211 -16.550  18.208  1.00  0.00     0.022 C 
HETATM    2  C2  UNL     1       8.921 -16.337  18.368  1.00  0.00    -0.035 C 
HETATM    3  C3  UNL     1       8.537 -15.002  18.905  1.00  0.00     0.151 C 
HETATM    4  C4  UNL     1       7.761 -14.405  17.750  1.00  0.00     0.043 C 
HETATM    5  C5  UNL     1       6.474 -15.186  17.566  1.00  0.00     0.009 C 
HETATM    6  C6  UNL     1       6.601 -16.654  17.482  1.00  0.00    -0.015 C 
HETATM    7  C7  UNL     1       5.344 -17.328  17.997  1.00  0.00     0.020 C 
HETATM    8  C8  UNL     1       6.532 -17.028  15.980  1.00  0.00     0.014 C 
HETATM    9  C9  UNL     1       5.172 -16.703  15.487  1.00  0.00     0.007 C 
HETATM   10  C10 UNL     1       4.792 -15.241  15.644  1.00  0.00     0.005 C 
HETATM   11  C11 UNL     1       4.359 -14.824  14.294  1.00  0.00    -0.026 C 
HETATM   12  C12 UNL     1       3.344 -15.944  13.908  1.00  0.00     0.019 C 
HETATM   13  C13 UNL     1       5.399 -14.904  13.195  1.00  0.00     0.019 C 
HETATM   14  C14 UNL     1       3.587 -13.605  14.102  1.00  0.00    -0.015 C 
HETATM   15  C15 UNL     1       3.221 -12.449  14.623  1.00  0.00     0.024 C 
HETATM   16  C16 UNL     1       3.587 -11.888  15.917  1.00  0.00     0.031 C 
HETATM   17  N1  UNL     1       2.679 -11.103  16.373  1.00  0.00    -0.274 N 
ATOM     18  H1  UNL     1       1.830 -10.943  15.832  1.00  0.00     0.193 HD
HETATM   19  C17 UNL     1       4.808 -12.057  16.790  1.00  0.00     0.060 C 
HETATM   20  C18 UNL     1       4.833 -13.432  17.262  1.00  0.00     0.016 C 
HETATM   21  C19 UNL     1       5.685 -14.454  16.488  1.00  0.00    -0.034 C 
HETATM   22  C20 UNL     1       6.669 -13.634  15.656  1.00  0.00     0.016 C 
HETATM   23  C21 UNL     1       7.845 -17.273  18.034  1.00  0.00    -0.059 C 
ENDROOT
BRANCH  23  24
HETATM   24  C22 UNL     1       7.742 -18.322  19.058  1.00  0.00     0.012 C 
HETATM   25  C23 UNL     1       8.322 -18.121  20.417  1.00  0.00     0.015 C 
BRANCH  24  26
HETATM   26  C24 UNL     1       8.265 -19.686  18.660  1.00  0.00     0.016 C 
BRANCH  26  27
HETATM   27  C25 UNL     1       7.859 -20.205  17.339  1.00  0.00     0.078 C 
BRANCH  27  28
HETATM   28  C26 UNL     1       6.479 -20.702  17.246  1.00  0.00     0.123 C 
HETATM   29  C27 UNL     1       5.712 -20.596  15.961  1.00  0.00     0.091 C 
HETATM   30  O3  UNL     1       5.907 -21.207  18.175  1.00  0.00    -0.298 OA
ENDBRANCH  27  28
ENDBRANCH  26  27
ENDBRANCH  24  26
ENDBRANCH  23  24
BRANCH   3  31
HETATM   31  O1  UNL     1       7.846 -14.974  20.072  1.00  0.00    -0.391 OA
ATOM     32  H1  UNL     1       8.136 -15.554  20.767  1.00  0.00     0.210 HD
ENDBRANCH   3  31
BRANCH  17  33
HETATM   33  O2  UNL     1       2.840 -10.487  17.563  1.00  0.00    -0.290 OA
ATOM     34  H2  UNL     1       2.099 -10.089  18.004  1.00  0.00     0.244 HD
ENDBRANCH  17  33
TORSDOF 6
ENDMDL
MODEL 5
REMARK VINA RESULT: -7.404181520     10.483     15.356
REMARK  6 active torsions:
REMARK  status: ('A' for Active; 'I' for Inactive)
REMARK    1  A    between atoms: C3_3  and  O1_4 
REMARK    2  A    between atoms: N1_19  and  O2_21 
REMARK    3  A    between atoms: C21_27  and  C22_28 
REMARK    4  A    between atoms: C22_28  and  C24_30 
REMARK    5  A    between atoms: C24_30  and  C25_31 
REMARK    6  A    between atoms: C25_31  and  C26_32 
ROOT
HETATM    1  C1  UNL     1       7.433 -15.022  23.751  1.00  0.00     0.022 C 
HETATM    2  C2  UNL     1       7.820 -14.740  22.523  1.00  0.00    -0.035 C 
HETATM    3  C3  UNL     1       9.216 -15.121  22.171  1.00  0.00     0.151 C 
HETATM    4  C4  UNL     1       9.001 -16.165  21.096  1.00  0.00     0.043 C 
HETATM    5  C5  UNL     1       8.411 -15.494  19.870  1.00  0.00     0.009 C 
HETATM    6  C6  UNL     1       7.230 -14.637  20.093  1.00  0.00    -0.015 C 
HETATM    7  C7  UNL     1       7.169 -13.533  19.054  1.00  0.00     0.020 C 
HETATM    8  C8  UNL     1       5.986 -15.472  19.697  1.00  0.00     0.014 C 
HETATM    9  C9  UNL     1       6.045 -15.721  18.237  1.00  0.00     0.007 C 
HETATM   10  C10 UNL     1       7.293 -16.462  17.788  1.00  0.00     0.005 C 
HETATM   11  C11 UNL     1       6.782 -17.611  17.012  1.00  0.00    -0.026 C 
HETATM   12  C12 UNL     1       5.780 -16.932  16.029  1.00  0.00     0.019 C 
HETATM   13  C13 UNL     1       5.915 -18.603  17.762  1.00  0.00     0.019 C 
HETATM   14  C14 UNL     1       7.657 -18.357  16.120  1.00  0.00    -0.015 C 
HETATM   15  C15 UNL     1       8.905 -18.638  15.796  1.00  0.00     0.024 C 
HETATM   16  C16 UNL     1      10.130 -18.145  16.414  1.00  0.00     0.031 C 
HETATM   17  N1  UNL     1      11.106 -18.108  15.580  1.00  0.00    -0.274 N 
ATOM     18  H1  UNL     1      10.960 -18.405  14.616  1.00  0.00     0.193 HD
HETATM   19  C17 UNL     1      10.447 -17.687  17.817  1.00  0.00     0.060 C 
HETATM   20  C18 UNL     1       9.704 -16.462  18.066  1.00  0.00     0.016 C 
HETATM   21  C19 UNL     1       8.349 -16.565  18.789  1.00  0.00    -0.034 C 
HETATM   22  C20 UNL     1       8.342 -17.930  19.475  1.00  0.00     0.016 C 
HETATM   23  C21 UNL     1       6.997 -14.127  21.478  1.00  0.00    -0.059 C 
ENDROOT
BRANCH  23  24
HETATM   24  C22 UNL     1       6.869 -12.681  21.709  1.00  0.00     0.012 C 
HETATM   25  C23 UNL     1       7.973 -11.910  22.349  1.00  0.00     0.015 C 
BRANCH  24  26
HETATM   26  C24 UNL     1       5.647 -12.244  22.489  1.00  0.00     0.016 C 
BRANCH  26  27
HETATM   27  C25 UNL     1       5.840 -11.199  23.514  1.00  0.00     0.078 C 
BRANCH  27  28
HETATM   28  C26 UNL     1       4.650 -10.853  24.303  1.00  0.00     0.123 C 
HETATM   29  C27 UNL     1       3.650 -11.905  24.683  1.00  0.00     0.091 C 
HETATM   30  O3  UNL     1       4.421  -9.732  24.675  1.00  0.00    -0.298 OA
ENDBRANCH  27  28
ENDBRANCH  26  27
ENDBRANCH  24  26
ENDBRANCH  23  24
BRANCH   3  31
HETATM   31  O1  UNL     1      10.054 -14.129  21.779  1.00  0.00    -0.391 OA
ATOM     32  H1  UNL     1      10.838 -13.987  22.298  1.00  0.00     0.210 HD
ENDBRANCH   3  31
BRANCH  17  33
HETATM   33  O2  UNL     1      12.323 -17.677  15.970  1.00  0.00    -0.290 OA
ATOM     34  H2  UNL     1      12.602 -16.788  15.785  1.00  0.00     0.244 HD
ENDBRANCH  17  33
TORSDOF 6
ENDMDL
