MODEL 1
REMARK VINA RESULT: -7.863388794      0.000      0.000
REMARK  18 active torsions:
REMARK  status: ('A' for Active; 'I' for Inactive)
REMARK    1  A    between atoms: N1_1  and  N2_4 
REMARK    2  A    between atoms: N2_4  and  N3_6 
REMARK    3  A    between atoms: N3_6  and  C1_8 
REMARK    4  A    between atoms: C2_10  and  O2_11 
REMARK    5  A    between atoms: O2_11  and  C3_12 
REMARK    6  A    between atoms: C4_14  and  C5_15 
REMARK    7  A    between atoms: C5_15  and  O4_16 
REMARK    8  A    between atoms: C6_18  and  O5_19 
REMARK    9  A    between atoms: C7_21  and  O6_22 
REMARK   10  A    between atoms: O6_22  and  C8_23 
REMARK   11  A    between atoms: C12_27  and  O7_28 
REMARK   12  A    between atoms: C13_30  and  O8_31 
REMARK   13  A    between atoms: C13_30  and  C14_33 
REMARK   14  A    between atoms: C14_33  and  O9_34 
REMARK   15  A    between atoms: C16_38  and  O11_39 
REMARK   16  A    between atoms: C17_42  and  C18_43 
REMARK   17  A    between atoms: C18_43  and  O13_44 
REMARK   18  A    between atoms: C19_46  and  O14_47 
ROOT
HETATM    1  C3  UNL     1      -5.424  11.754  58.644  1.00  0.00     0.297 C 
HETATM    2  O3  UNL     1      -4.981  12.703  59.523  1.00  0.00    -0.348 OA
HETATM    3  C4  UNL     1      -4.508  13.845  58.958  1.00  0.00     0.179 C 
HETATM    4  C6  UNL     1      -3.323  13.479  58.089  1.00  0.00     0.181 C 
HETATM    5  C7  UNL     1      -3.809  12.576  57.004  1.00  0.00     0.189 C 
HETATM    6  C16 UNL     1      -4.335  11.302  57.683  1.00  0.00     0.205 C 
ENDROOT
BRANCH   1   7
HETATM    7  O2  UNL     1      -6.096  10.719  59.248  1.00  0.00    -0.305 OA
BRANCH   7   8
HETATM    8  C2  UNL     1      -6.034   9.513  58.585  1.00  0.00     0.417 C 
HETATM    9  O1  UNL     1      -7.364   9.078  58.376  1.00  0.00    -0.310 OA
HETATM   10  C1  UNL     1      -7.632   7.972  59.208  1.00  0.00     0.274 C 
HETATM   11  C19 UNL     1      -6.807   6.773  58.753  1.00  0.00     0.199 C 
HETATM   12  C17 UNL     1      -5.367   7.273  58.684  1.00  0.00     0.183 C 
HETATM   13  O12 UNL     1      -5.351   8.530  59.203  1.00  0.00    -0.329 OA
BRANCH  10  14
HETATM   14  N3  UNL     1      -9.034   7.661  59.205  1.00  0.00    -0.291 N 
ATOM     15  H3  UNL     1      -9.641   8.083  58.502  1.00  0.00     0.184 HD
BRANCH  14  16
HETATM   16  N2  UNL     1      -9.579   6.793  60.146  1.00  0.00    -0.251 N 
ATOM     17  H2  UNL     1     -10.254   6.081  59.866  1.00  0.00     0.207 HD
BRANCH  16  18
HETATM   18  N1  UNL     1      -9.217   6.903  61.379  1.00  0.00    -0.331 N 
ATOM     19  H12 UNL     1      -8.390   7.451  61.614  1.00  0.00     0.178 HD
ATOM     20  H11 UNL     1      -9.770   6.436  62.099  1.00  0.00     0.178 HD
ENDBRANCH  16  18
ENDBRANCH  14  16
ENDBRANCH  10  14
BRANCH  11  21
HETATM   21  O14 UNL     1      -6.931   5.712  59.630  1.00  0.00    -0.388 OA
ATOM     22  H14 UNL     1      -6.219   5.092  59.530  1.00  0.00     0.210 HD
ENDBRANCH  11  21
BRANCH  12  23
HETATM   23  C18 UNL     1      -4.939   7.330  57.227  1.00  0.00     0.199 C 
BRANCH  23  24
HETATM   24  O13 UNL     1      -3.702   7.972  57.097  1.00  0.00    -0.398 OA
ATOM     25  H13 UNL     1      -3.608   8.349  56.230  1.00  0.00     0.209 HD
ENDBRANCH  23  24
ENDBRANCH  12  23
ENDBRANCH   7   8
ENDBRANCH   1   7
BRANCH   6  26
HETATM   26  O11 UNL     1      -3.350  10.618  58.346  1.00  0.00    -0.388 OA
ATOM     27  H11 UNL     1      -2.552  10.589  57.832  1.00  0.00     0.210 HD
ENDBRANCH   6  26
BRANCH   3  28
HETATM   28  C5  UNL     1      -5.523  14.697  58.253  1.00  0.00     0.198 C 
BRANCH  28  29
HETATM   29  O4  UNL     1      -4.885  15.868  57.842  1.00  0.00    -0.398 OA
ATOM     30  H4  UNL     1      -5.533  16.563  57.829  1.00  0.00     0.209 HD
ENDBRANCH  28  29
ENDBRANCH   3  28
BRANCH   5  31
HETATM   31  O6  UNL     1      -2.804  12.333  56.114  1.00  0.00    -0.351 OA
BRANCH  31  32
HETATM   32  C8  UNL     1      -3.088  11.305  55.218  1.00  0.00     0.261 C 
HETATM   33  C9  UNL     1      -2.812  11.681  53.795  1.00  0.00     0.068 C 
HETATM   34  C10 UNL     1      -1.326  11.485  53.701  1.00  0.00     0.025 C 
HETATM   35  C11 UNL     1      -0.944  10.918  52.352  1.00  0.00     0.042 C 
HETATM   36  C15 UNL     1      -1.100  10.404  54.716  1.00  0.00     0.168 C 
HETATM   37  C12 UNL     1      -0.031   9.752  52.680  1.00  0.00     0.157 C 
HETATM   38  C13 UNL     1      -0.633   9.189  53.972  1.00  0.00     0.131 C 
HETATM   39  O10 UNL     1      -2.267  10.219  55.418  1.00  0.00    -0.352 OA
BRANCH  37  40
HETATM   40  O7  UNL     1       1.256  10.229  52.941  1.00  0.00    -0.392 OA
ATOM     41  H7  UNL     1       1.823   9.500  53.165  1.00  0.00     0.210 HD
ENDBRANCH  37  40
BRANCH  38  42
HETATM   42  O8  UNL     1       0.346   8.471  54.622  1.00  0.00    -0.382 OA
ATOM     43  H8  UNL     1      -0.078   7.799  55.142  1.00  0.00     0.210 HD
ENDBRANCH  38  42
BRANCH  38  44
HETATM   44  C14 UNL     1      -1.725   8.253  53.568  1.00  0.00     0.207 C 
BRANCH  44  45
HETATM   45  O9  UNL     1      -1.273   7.066  53.016  1.00  0.00    -0.398 OA
ATOM     46  H9  UNL     1      -0.616   6.623  53.539  1.00  0.00     0.209 HD
ENDBRANCH  44  45
ENDBRANCH  38  44
ENDBRANCH  31  32
ENDBRANCH   5  31
BRANCH   4  47
HETATM   47  O5  UNL     1      -2.448  12.750  58.908  1.00  0.00    -0.390 OA
ATOM     48  H5  UNL     1      -2.846  11.896  59.027  1.00  0.00     0.210 HD
ENDBRANCH   4  47
TORSDOF 18
ENDMDL
MODEL 2
REMARK VINA RESULT: -7.624260246      2.196      3.299
REMARK  18 active torsions:
REMARK  status: ('A' for Active; 'I' for Inactive)
REMARK    1  A    between atoms: N1_1  and  N2_4 
REMARK    2  A    between atoms: N2_4  and  N3_6 
REMARK    3  A    between atoms: N3_6  and  C1_8 
REMARK    4  A    between atoms: C2_10  and  O2_11 
REMARK    5  A    between atoms: O2_11  and  C3_12 
REMARK    6  A    between atoms: C4_14  and  C5_15 
REMARK    7  A    between atoms: C5_15  and  O4_16 
REMARK    8  A    between atoms: C6_18  and  O5_19 
REMARK    9  A    between atoms: C7_21  and  O6_22 
REMARK   10  A    between atoms: O6_22  and  C8_23 
REMARK   11  A    between atoms: C12_27  and  O7_28 
REMARK   12  A    between atoms: C13_30  and  O8_31 
REMARK   13  A    between atoms: C13_30  and  C14_33 
REMARK   14  A    between atoms: C14_33  and  O9_34 
REMARK   15  A    between atoms: C16_38  and  O11_39 
REMARK   16  A    between atoms: C17_42  and  C18_43 
REMARK   17  A    between atoms: C18_43  and  O13_44 
REMARK   18  A    between atoms: C19_46  and  O14_47 
ROOT
HETATM    1  C3  UNL     1      -6.302  10.600  58.461  1.00  0.00     0.297 C 
HETATM    2  O3  UNL     1      -5.598  11.050  59.545  1.00  0.00    -0.348 OA
HETATM    3  C4  UNL     1      -4.313  11.414  59.294  1.00  0.00     0.179 C 
HETATM    4  C6  UNL     1      -3.575  10.195  58.779  1.00  0.00     0.181 C 
HETATM    5  C7  UNL     1      -4.213   9.780  57.495  1.00  0.00     0.189 C 
HETATM    6  C16 UNL     1      -5.660   9.379  57.820  1.00  0.00     0.205 C 
ENDROOT
BRANCH   1   7
HETATM    7  O2  UNL     1      -7.647  10.458  58.702  1.00  0.00    -0.305 OA
BRANCH   7   8
HETATM    8  C2  UNL     1      -7.988  10.259  60.022  1.00  0.00     0.417 C 
HETATM    9  O1  UNL     1      -8.202   8.871  60.197  1.00  0.00    -0.310 OA
HETATM   10  C1  UNL     1      -9.578   8.628  60.385  1.00  0.00     0.274 C 
HETATM   11  C19 UNL     1     -10.026   9.212  61.720  1.00  0.00     0.199 C 
HETATM   12  C17 UNL     1      -9.560  10.665  61.706  1.00  0.00     0.183 C 
HETATM   13  O12 UNL     1      -9.075  10.920  60.461  1.00  0.00    -0.329 OA
BRANCH  10  14
HETATM   14  N3  UNL     1      -9.860   7.222  60.319  1.00  0.00    -0.291 N 
ATOM     15  H3  UNL     1     -10.639   6.892  59.748  1.00  0.00     0.184 HD
BRANCH  14  16
HETATM   16  N2  UNL     1      -9.089   6.300  61.020  1.00  0.00    -0.251 N 
ATOM     17  H2  UNL     1      -9.154   6.236  62.036  1.00  0.00     0.207 HD
BRANCH  16  18
HETATM   18  N1  UNL     1      -8.290   5.528  60.365  1.00  0.00    -0.331 N 
ATOM     19  H12 UNL     1      -7.295   5.748  60.327  1.00  0.00     0.178 HD
ATOM     20  H11 UNL     1      -8.673   4.708  59.895  1.00  0.00     0.178 HD
ENDBRANCH  16  18
ENDBRANCH  14  16
ENDBRANCH  10  14
BRANCH  11  21
HETATM   21  O14 UNL     1     -11.397   9.123  61.876  1.00  0.00    -0.388 OA
ATOM     22  H14 UNL     1     -11.660   8.253  62.154  1.00  0.00     0.210 HD
ENDBRANCH  11  21
BRANCH  12  23
HETATM   23  C18 UNL     1      -8.440  10.829  62.721  1.00  0.00     0.199 C 
BRANCH  23  24
HETATM   24  O13 UNL     1      -8.144   9.607  63.335  1.00  0.00    -0.398 OA
ATOM     25  H13 UNL     1      -7.478   9.719  64.004  1.00  0.00     0.209 HD
ENDBRANCH  23  24
ENDBRANCH  12  23
ENDBRANCH   7   8
ENDBRANCH   1   7
BRANCH   6  26
HETATM   26  O11 UNL     1      -5.727   8.295  58.656  1.00  0.00    -0.388 OA
ATOM     27  H11 UNL     1      -5.444   7.505  58.211  1.00  0.00     0.210 HD
ENDBRANCH   6  26
BRANCH   3  28
HETATM   28  C5  UNL     1      -4.132  12.628  58.431  1.00  0.00     0.198 C 
BRANCH  28  29
HETATM   29  O4  UNL     1      -2.764  12.897  58.355  1.00  0.00    -0.398 OA
ATOM     30  H4  UNL     1      -2.328  12.103  58.069  1.00  0.00     0.209 HD
ENDBRANCH  28  29
ENDBRANCH   3  28
BRANCH   5  31
HETATM   31  O6  UNL     1      -3.494   8.772  56.922  1.00  0.00    -0.351 OA
BRANCH  31  32
HETATM   32  C8  UNL     1      -3.461   8.830  55.531  1.00  0.00     0.261 C 
HETATM   33  C9  UNL     1      -3.039  10.170  55.014  1.00  0.00     0.068 C 
HETATM   34  C10 UNL     1      -1.544  10.100  55.143  1.00  0.00     0.025 C 
HETATM   35  C11 UNL     1      -0.871  10.791  53.977  1.00  0.00     0.042 C 
HETATM   36  C15 UNL     1      -1.298   8.629  54.989  1.00  0.00     0.168 C 
HETATM   37  C12 UNL     1       0.163   9.792  53.496  1.00  0.00     0.157 C 
HETATM   38  C13 UNL     1      -0.525   8.441  53.718  1.00  0.00     0.131 C 
HETATM   39  O10 UNL     1      -2.509   7.982  55.011  1.00  0.00    -0.352 OA
BRANCH  37  40
HETATM   40  O7  UNL     1       1.296   9.869  54.308  1.00  0.00    -0.392 OA
ATOM     41  H7  UNL     1       2.071   9.684  53.790  1.00  0.00     0.210 HD
ENDBRANCH  37  40
BRANCH  38  42
HETATM   42  O8  UNL     1       0.449   7.471  53.788  1.00  0.00    -0.382 OA
ATOM     43  H8  UNL     1       0.325   6.875  53.059  1.00  0.00     0.210 HD
ENDBRANCH  38  42
BRANCH  38  44
HETATM   44  C14 UNL     1      -1.371   8.184  52.513  1.00  0.00     0.207 C 
BRANCH  44  45
HETATM   45  O9  UNL     1      -1.743   6.858  52.359  1.00  0.00    -0.398 OA
ATOM     46  H9  UNL     1      -2.401   6.718  51.689  1.00  0.00     0.209 HD
ENDBRANCH  44  45
ENDBRANCH  38  44
ENDBRANCH  31  32
ENDBRANCH   5  31
BRANCH   4  47
HETATM   47  O5  UNL     1      -3.790   9.181  59.725  1.00  0.00    -0.390 OA
ATOM     48  H5  UNL     1      -4.063   8.415  59.233  1.00  0.00     0.210 HD
ENDBRANCH   4  47
TORSDOF 18
ENDMDL
MODEL 3
REMARK VINA RESULT: -7.307188194      1.915      2.784
REMARK  18 active torsions:
REMARK  status: ('A' for Active; 'I' for Inactive)
REMARK    1  A    between atoms: N1_1  and  N2_4 
REMARK    2  A    between atoms: N2_4  and  N3_6 
REMARK    3  A    between atoms: N3_6  and  C1_8 
REMARK    4  A    between atoms: C2_10  and  O2_11 
REMARK    5  A    between atoms: O2_11  and  C3_12 
REMARK    6  A    between atoms: C4_14  and  C5_15 
REMARK    7  A    between atoms: C5_15  and  O4_16 
REMARK    8  A    between atoms: C6_18  and  O5_19 
REMARK    9  A    between atoms: C7_21  and  O6_22 
REMARK   10  A    between atoms: O6_22  and  C8_23 
REMARK   11  A    between atoms: C12_27  and  O7_28 
REMARK   12  A    between atoms: C13_30  and  O8_31 
REMARK   13  A    between atoms: C13_30  and  C14_33 
REMARK   14  A    between atoms: C14_33  and  O9_34 
REMARK   15  A    between atoms: C16_38  and  O11_39 
REMARK   16  A    between atoms: C17_42  and  C18_43 
REMARK   17  A    between atoms: C18_43  and  O13_44 
REMARK   18  A    between atoms: C19_46  and  O14_47 
ROOT
HETATM    1  C3  UNL     1      -5.717  10.543  59.518  1.00  0.00     0.297 C 
HETATM    2  O3  UNL     1      -5.170  11.743  59.881  1.00  0.00    -0.348 OA
HETATM    3  C4  UNL     1      -4.519  12.409  58.891  1.00  0.00     0.179 C 
HETATM    4  C6  UNL     1      -3.371  11.539  58.422  1.00  0.00     0.181 C 
HETATM    5  C7  UNL     1      -3.947  10.284  57.854  1.00  0.00     0.189 C 
HETATM    6  C16 UNL     1      -4.674   9.564  59.000  1.00  0.00     0.205 C 
ENDROOT
BRANCH   1   7
HETATM    7  O2  UNL     1      -6.552  10.011  60.472  1.00  0.00    -0.305 OA
BRANCH   7   8
HETATM    8  C2  UNL     1      -7.870   9.886  60.094  1.00  0.00     0.417 C 
HETATM    9  O1  UNL     1      -8.588   9.416  61.219  1.00  0.00    -0.310 OA
HETATM   10  C1  UNL     1      -8.980   8.080  61.001  1.00  0.00     0.274 C 
HETATM   11  C19 UNL     1     -10.019   8.022  59.887  1.00  0.00     0.199 C 
HETATM   12  C17 UNL     1      -9.400   8.778  58.715  1.00  0.00     0.183 C 
HETATM   13  O12 UNL     1      -8.115   9.066  59.054  1.00  0.00    -0.329 OA
BRANCH  10  14
HETATM   14  N3  UNL     1      -9.490   7.496  62.210  1.00  0.00    -0.291 N 
ATOM     15  H3  UNL     1      -9.706   6.499  62.234  1.00  0.00     0.184 HD
BRANCH  14  16
HETATM   16  N2  UNL     1      -9.694   8.267  63.350  1.00  0.00    -0.251 N 
ATOM     17  H2  UNL     1     -10.634   8.565  63.613  1.00  0.00     0.207 HD
BRANCH  16  18
HETATM   18  N1  UNL     1      -8.677   8.600  64.068  1.00  0.00    -0.331 N 
ATOM     19  H12 UNL     1      -7.775   8.762  63.620  1.00  0.00     0.178 HD
ATOM     20  H11 UNL     1      -8.795   8.695  65.077  1.00  0.00     0.178 HD
ENDBRANCH  16  18
ENDBRANCH  14  16
ENDBRANCH  10  14
BRANCH  11  21
HETATM   21  O14 UNL     1     -10.321   6.717  59.544  1.00  0.00    -0.388 OA
ATOM     22  H14 UNL     1     -11.056   6.677  58.944  1.00  0.00     0.210 HD
ENDBRANCH  11  21
BRANCH  12  23
HETATM   23  C18 UNL     1     -10.165  10.075  58.510  1.00  0.00     0.199 C 
BRANCH  23  24
HETATM   24  O13 UNL     1     -11.134  10.242  59.505  1.00  0.00    -0.398 OA
ATOM     25  H13 UNL     1     -11.571  11.081  59.413  1.00  0.00     0.209 HD
ENDBRANCH  23  24
ENDBRANCH  12  23
ENDBRANCH   7   8
ENDBRANCH   1   7
BRANCH   6  26
HETATM   26  O11 UNL     1      -3.821   9.182  60.002  1.00  0.00    -0.388 OA
ATOM     27  H11 UNL     1      -3.896   8.250  60.174  1.00  0.00     0.210 HD
ENDBRANCH   6  26
BRANCH   3  28
HETATM   28  C5  UNL     1      -5.376  12.920  57.770  1.00  0.00     0.198 C 
BRANCH  28  29
HETATM   29  O4  UNL     1      -4.548  13.605  56.879  1.00  0.00    -0.398 OA
ATOM     30  H4  UNL     1      -3.989  14.181  57.387  1.00  0.00     0.209 HD
ENDBRANCH  28  29
ENDBRANCH   3  28
BRANCH   5  31
HETATM   31  O6  UNL     1      -2.959   9.532  57.290  1.00  0.00    -0.351 OA
BRANCH  31  32
HETATM   32  C8  UNL     1      -3.218   9.168  55.970  1.00  0.00     0.261 C 
HETATM   33  C9  UNL     1      -3.081  10.312  55.013  1.00  0.00     0.068 C 
HETATM   34  C10 UNL     1      -1.595  10.372  54.807  1.00  0.00     0.025 C 
HETATM   35  C11 UNL     1      -1.266  10.717  53.371  1.00  0.00     0.042 C 
HETATM   36  C15 UNL     1      -1.203   8.941  55.020  1.00  0.00     0.168 C 
HETATM   37  C12 UNL     1      -0.234   9.682  52.965  1.00  0.00     0.157 C 
HETATM   38  C13 UNL     1      -0.689   8.422  53.711  1.00  0.00     0.131 C 
HETATM   39  O10 UNL     1      -2.294   8.260  55.504  1.00  0.00    -0.352 OA
BRANCH  37  40
HETATM   40  O7  UNL     1       1.022  10.067  53.437  1.00  0.00    -0.392 OA
ATOM     41  H7  UNL     1       1.446  10.621  52.791  1.00  0.00     0.210 HD
ENDBRANCH  37  40
BRANCH  38  42
HETATM   42  O8  UNL     1       0.393   7.578  53.823  1.00  0.00    -0.382 OA
ATOM     43  H8  UNL     1       0.628   7.283  52.952  1.00  0.00     0.210 HD
ENDBRANCH  38  42
BRANCH  38  44
HETATM   44  C14 UNL     1      -1.724   7.764  52.857  1.00  0.00     0.207 C 
BRANCH  44  45
HETATM   45  O9  UNL     1      -1.380   6.490  52.438  1.00  0.00    -0.398 OA
ATOM     46  H9  UNL     1      -2.118   5.898  52.358  1.00  0.00     0.209 HD
ENDBRANCH  44  45
ENDBRANCH  38  44
ENDBRANCH  31  32
ENDBRANCH   5  31
BRANCH   4  47
HETATM   47  O5  UNL     1      -2.638  11.205  59.571  1.00  0.00    -0.390 OA
ATOM     48  H5  UNL     1      -1.975  11.878  59.666  1.00  0.00     0.210 HD
ENDBRANCH   4  47
TORSDOF 18
ENDMDL
MODEL 4
REMARK VINA RESULT: -7.187069780      1.864      2.742
REMARK  18 active torsions:
REMARK  status: ('A' for Active; 'I' for Inactive)
REMARK    1  A    between atoms: N1_1  and  N2_4 
REMARK    2  A    between atoms: N2_4  and  N3_6 
REMARK    3  A    between atoms: N3_6  and  C1_8 
REMARK    4  A    between atoms: C2_10  and  O2_11 
REMARK    5  A    between atoms: O2_11  and  C3_12 
REMARK    6  A    between atoms: C4_14  and  C5_15 
REMARK    7  A    between atoms: C5_15  and  O4_16 
REMARK    8  A    between atoms: C6_18  and  O5_19 
REMARK    9  A    between atoms: C7_21  and  O6_22 
REMARK   10  A    between atoms: O6_22  and  C8_23 
REMARK   11  A    between atoms: C12_27  and  O7_28 
REMARK   12  A    between atoms: C13_30  and  O8_31 
REMARK   13  A    between atoms: C13_30  and  C14_33 
REMARK   14  A    between atoms: C14_33  and  O9_34 
REMARK   15  A    between atoms: C16_38  and  O11_39 
REMARK   16  A    between atoms: C17_42  and  C18_43 
REMARK   17  A    between atoms: C18_43  and  O13_44 
REMARK   18  A    between atoms: C19_46  and  O14_47 
ROOT
HETATM    1  C3  UNL     1      -6.786  10.531  57.611  1.00  0.00     0.297 C 
HETATM    2  O3  UNL     1      -6.599  11.136  58.824  1.00  0.00    -0.348 OA
HETATM    3  C4  UNL     1      -5.843  12.265  58.802  1.00  0.00     0.179 C 
HETATM    4  C6  UNL     1      -4.466  11.894  58.291  1.00  0.00     0.181 C 
HETATM    5  C7  UNL     1      -4.614  11.391  56.893  1.00  0.00     0.189 C 
HETATM    6  C16 UNL     1      -5.473  10.119  56.961  1.00  0.00     0.205 C 
ENDROOT
BRANCH   1   7
HETATM    7  O2  UNL     1      -7.730   9.534  57.636  1.00  0.00    -0.305 OA
BRANCH   7   8
HETATM    8  C2  UNL     1      -7.968   8.982  58.875  1.00  0.00     0.417 C 
HETATM    9  O1  UNL     1      -6.928   8.057  59.131  1.00  0.00    -0.310 OA
HETATM   10  C1  UNL     1      -7.441   6.745  59.067  1.00  0.00     0.274 C 
HETATM   11  C19 UNL     1      -8.399   6.509  60.229  1.00  0.00     0.199 C 
HETATM   12  C17 UNL     1      -9.397   7.662  60.174  1.00  0.00     0.183 C 
HETATM   13  O12 UNL     1      -9.149   8.355  59.030  1.00  0.00    -0.329 OA
BRANCH  10  14
HETATM   14  N3  UNL     1      -6.376   5.782  59.075  1.00  0.00    -0.291 N 
ATOM     15  H3  UNL     1      -6.599   4.787  59.114  1.00  0.00     0.184 HD
BRANCH  14  16
HETATM   16  N2  UNL     1      -5.044   6.183  59.030  1.00  0.00    -0.251 N 
ATOM     17  H2  UNL     1      -4.512   6.310  59.891  1.00  0.00     0.207 HD
BRANCH  16  18
HETATM   18  N1  UNL     1      -4.493   6.391  57.883  1.00  0.00    -0.331 N 
ATOM     19  H12 UNL     1      -5.077   6.455  57.049  1.00  0.00     0.178 HD
ATOM     20  H11 UNL     1      -3.479   6.487  57.833  1.00  0.00     0.178 HD
ENDBRANCH  16  18
ENDBRANCH  14  16
ENDBRANCH  10  14
BRANCH  11  21
HETATM   21  O14 UNL     1      -9.033   5.286  60.120  1.00  0.00    -0.388 OA
ATOM     22  H14 UNL     1      -9.288   4.949  60.972  1.00  0.00     0.210 HD
ENDBRANCH  11  21
BRANCH  12  23
HETATM   23  C18 UNL     1      -9.161   8.571  61.369  1.00  0.00     0.199 C 
BRANCH  23  24
HETATM   24  O13 UNL     1      -9.561   7.945  62.555  1.00  0.00    -0.398 OA
ATOM     25  H13 UNL     1     -10.476   8.124  62.738  1.00  0.00     0.209 HD
ENDBRANCH  23  24
ENDBRANCH  12  23
ENDBRANCH   7   8
ENDBRANCH   1   7
BRANCH   6  26
HETATM   26  O11 UNL     1      -4.868   9.117  57.673  1.00  0.00    -0.388 OA
ATOM     27  H11 UNL     1      -5.442   8.793  58.357  1.00  0.00     0.210 HD
ENDBRANCH   6  26
BRANCH   3  28
HETATM   28  C5  UNL     1      -6.444  13.443  58.092  1.00  0.00     0.198 C 
BRANCH  28  29
HETATM   29  O4  UNL     1      -5.697  14.572  58.431  1.00  0.00    -0.398 OA
ATOM     30  H4  UNL     1      -4.808  14.288  58.612  1.00  0.00     0.209 HD
ENDBRANCH  28  29
ENDBRANCH   3  28
BRANCH   5  31
HETATM   31  O6  UNL     1      -3.385  11.178  56.342  1.00  0.00    -0.351 OA
BRANCH  31  32
HETATM   32  C8  UNL     1      -3.424  10.452  55.153  1.00  0.00     0.261 C 
HETATM   33  C9  UNL     1      -2.946  11.241  53.973  1.00  0.00     0.068 C 
HETATM   34  C10 UNL     1      -1.454  11.132  54.106  1.00  0.00     0.025 C 
HETATM   35  C11 UNL     1      -0.803  11.003  52.746  1.00  0.00     0.042 C 
HETATM   36  C15 UNL     1      -1.310   9.807  54.793  1.00  0.00     0.168 C 
HETATM   37  C12 UNL     1       0.139   9.823  52.892  1.00  0.00     0.157 C 
HETATM   38  C13 UNL     1      -0.620   8.883  53.835  1.00  0.00     0.131 C 
HETATM   39  O10 UNL     1      -2.557   9.383  55.184  1.00  0.00    -0.352 OA
BRANCH  37  40
HETATM   40  O7  UNL     1       1.317  10.244  53.513  1.00  0.00    -0.392 OA
ATOM     41  H7  UNL     1       2.011   9.621  53.330  1.00  0.00     0.210 HD
ENDBRANCH  37  40
BRANCH  38  42
HETATM   42  O8  UNL     1       0.294   8.038  54.423  1.00  0.00    -0.382 OA
ATOM     43  H8  UNL     1      -0.149   7.225  54.633  1.00  0.00     0.210 HD
ENDBRANCH  38  42
BRANCH  38  44
HETATM   44  C14 UNL     1      -1.544   8.073  52.985  1.00  0.00     0.207 C 
BRANCH  44  45
HETATM   45  O9  UNL     1      -1.122   6.770  52.779  1.00  0.00    -0.398 OA
ATOM     46  H9  UNL     1      -1.438   6.385  51.971  1.00  0.00     0.209 HD
ENDBRANCH  44  45
ENDBRANCH  38  44
ENDBRANCH  31  32
ENDBRANCH   5  31
BRANCH   4  47
HETATM   47  O5  UNL     1      -4.024  10.833  59.095  1.00  0.00    -0.390 OA
ATOM     48  H5  UNL     1      -3.643  10.194  58.504  1.00  0.00     0.210 HD
ENDBRANCH   4  47
TORSDOF 18
ENDMDL
MODEL 5
REMARK VINA RESULT: -7.061697257      2.257      3.032
REMARK  18 active torsions:
REMARK  status: ('A' for Active; 'I' for Inactive)
REMARK    1  A    between atoms: N1_1  and  N2_4 
REMARK    2  A    between atoms: N2_4  and  N3_6 
REMARK    3  A    between atoms: N3_6  and  C1_8 
REMARK    4  A    between atoms: C2_10  and  O2_11 
REMARK    5  A    between atoms: O2_11  and  C3_12 
REMARK    6  A    between atoms: C4_14  and  C5_15 
REMARK    7  A    between atoms: C5_15  and  O4_16 
REMARK    8  A    between atoms: C6_18  and  O5_19 
REMARK    9  A    between atoms: C7_21  and  O6_22 
REMARK   10  A    between atoms: O6_22  and  C8_23 
REMARK   11  A    between atoms: C12_27  and  O7_28 
REMARK   12  A    between atoms: C13_30  and  O8_31 
REMARK   13  A    between atoms: C13_30  and  C14_33 
REMARK   14  A    between atoms: C14_33  and  O9_34 
REMARK   15  A    between atoms: C16_38  and  O11_39 
REMARK   16  A    between atoms: C17_42  and  C18_43 
REMARK   17  A    between atoms: C18_43  and  O13_44 
REMARK   18  A    between atoms: C19_46  and  O14_47 
ROOT
HETATM    1  C3  UNL     1      -4.845  13.329  58.518  1.00  0.00     0.297 C 
HETATM    2  O3  UNL     1      -4.774  14.677  58.295  1.00  0.00    -0.348 OA
HETATM    3  C4  UNL     1      -4.716  15.050  56.989  1.00  0.00     0.179 C 
HETATM    4  C6  UNL     1      -3.462  14.450  56.389  1.00  0.00     0.181 C 
HETATM    5  C7  UNL     1      -3.585  12.964  56.456  1.00  0.00     0.189 C 
HETATM    6  C16 UNL     1      -3.649  12.585  57.943  1.00  0.00     0.205 C 
ENDROOT
BRANCH   1   7
HETATM    7  O2  UNL     1      -5.127  13.004  59.822  1.00  0.00    -0.305 OA
BRANCH   7   8
HETATM    8  C2  UNL     1      -5.983  11.937  59.989  1.00  0.00     0.417 C 
HETATM    9  O1  UNL     1      -5.228  10.874  60.538  1.00  0.00    -0.310 OA
HETATM   10  C1  UNL     1      -5.059   9.868  59.566  1.00  0.00     0.274 C 
HETATM   11  C19 UNL     1      -6.402   9.211  59.264  1.00  0.00     0.199 C 
HETATM   12  C17 UNL     1      -7.350  10.360  58.935  1.00  0.00     0.183 C 
HETATM   13  O12 UNL     1      -6.605  11.496  58.880  1.00  0.00    -0.329 OA
BRANCH  10  14
HETATM   14  N3  UNL     1      -4.098   8.894  60.003  1.00  0.00    -0.291 N 
ATOM     15  H3  UNL     1      -4.239   7.910  59.773  1.00  0.00     0.184 HD
BRANCH  14  16
HETATM   16  N2  UNL     1      -2.977   9.271  60.737  1.00  0.00    -0.251 N 
ATOM     17  H2  UNL     1      -2.735   8.785  61.600  1.00  0.00     0.207 HD
BRANCH  16  18
HETATM   18  N1  UNL     1      -2.248  10.244  60.307  1.00  0.00    -0.331 N 
ATOM     19  H12 UNL     1      -1.235  10.135  60.267  1.00  0.00     0.178 HD
ATOM     20  H11 UNL     1      -2.704  11.109  60.013  1.00  0.00     0.178 HD
ENDBRANCH  16  18
ENDBRANCH  14  16
ENDBRANCH  10  14
BRANCH  11  21
HETATM   21  O14 UNL     1      -6.303   8.320  58.212  1.00  0.00    -0.388 OA
ATOM     22  H14 UNL     1      -6.935   8.516  57.530  1.00  0.00     0.210 HD
ENDBRANCH  11  21
BRANCH  12  23
HETATM   23  C18 UNL     1      -8.371  10.487  60.054  1.00  0.00     0.199 C 
BRANCH  23  24
HETATM   24  O13 UNL     1      -8.149   9.520  61.041  1.00  0.00    -0.398 OA
ATOM     25  H13 UNL     1      -8.077   9.923  61.898  1.00  0.00     0.209 HD
ENDBRANCH  23  24
ENDBRANCH  12  23
ENDBRANCH   7   8
ENDBRANCH   1   7
BRANCH   6  26
HETATM   26  O11 UNL     1      -2.500  12.910  58.616  1.00  0.00    -0.388 OA
ATOM     27  H11 UNL     1      -2.027  12.129  58.877  1.00  0.00     0.210 HD
ENDBRANCH   6  26
BRANCH   3  28
HETATM   28  C5  UNL     1      -5.950  14.786  56.177  1.00  0.00     0.198 C 
BRANCH  28  29
HETATM   29  O4  UNL     1      -5.768  15.371  54.923  1.00  0.00    -0.398 OA
ATOM     30  H4  UNL     1      -5.876  14.691  54.267  1.00  0.00     0.209 HD
ENDBRANCH  28  29
ENDBRANCH   3  28
BRANCH   5  31
HETATM   31  O6  UNL     1      -2.543  12.379  55.799  1.00  0.00    -0.351 OA
BRANCH  31  32
HETATM   32  C8  UNL     1      -2.921  11.310  54.990  1.00  0.00     0.261 C 
HETATM   33  C9  UNL     1      -2.756  11.598  53.529  1.00  0.00     0.068 C 
HETATM   34  C10 UNL     1      -1.287  11.359  53.326  1.00  0.00     0.025 C 
HETATM   35  C11 UNL     1      -1.030  10.707  51.985  1.00  0.00     0.042 C 
HETATM   36  C15 UNL     1      -1.001  10.331  54.380  1.00  0.00     0.168 C 
HETATM   37  C12 UNL     1      -0.118   9.539  52.305  1.00  0.00     0.157 C 
HETATM   38  C13 UNL     1      -0.622   9.065  53.672  1.00  0.00     0.131 C 
HETATM   39  O10 UNL     1      -2.109  10.216  55.184  1.00  0.00    -0.352 OA
BRANCH  37  40
HETATM   40  O7  UNL     1       1.195   9.996  52.432  1.00  0.00    -0.392 OA
ATOM     41  H7  UNL     1       1.363  10.229  53.338  1.00  0.00     0.210 HD
ENDBRANCH  37  40
BRANCH  38  42
HETATM   42  O8  UNL     1       0.392   8.360  54.281  1.00  0.00    -0.382 OA
ATOM     43  H8  UNL     1       0.218   8.340  55.214  1.00  0.00     0.210 HD
ENDBRANCH  38  42
BRANCH  38  44
HETATM   44  C14 UNL     1      -1.764   8.136  53.413  1.00  0.00     0.207 C 
BRANCH  44  45
HETATM   45  O9  UNL     1      -1.428   7.032  52.647  1.00  0.00    -0.398 OA
ATOM     46  H9  UNL     1      -1.568   6.202  53.086  1.00  0.00     0.209 HD
ENDBRANCH  44  45
ENDBRANCH  38  44
ENDBRANCH  31  32
ENDBRANCH   5  31
BRANCH   4  47
HETATM   47  O5  UNL     1      -2.404  14.841  57.222  1.00  0.00    -0.390 OA
ATOM     48  H5  UNL     1      -1.605  14.637  56.750  1.00  0.00     0.210 HD
ENDBRANCH   4  47
TORSDOF 18
ENDMDL
