MODEL 1
REMARK VINA RESULT: -6.711769482      0.000      0.000
REMARK  17 active torsions:
REMARK  status: ('A' for Active; 'I' for Inactive)
REMARK    1  A    between atoms: N1_1  and  C1_5 
REMARK    2  A    between atoms: C1_5  and  C2_6 
REMARK    3  A    between atoms: C3_8  and  O2_9 
REMARK    4  A    between atoms: O2_9  and  C4_10 
REMARK    5  A    between atoms: C4_10  and  O3_11 
REMARK    6  A    between atoms: O3_11  and  O4_12 
REMARK    7  A    between atoms: C5_15  and  S1_16 
REMARK    8  A    between atoms: S1_16  and  C6_17 
REMARK    9  A    between atoms: C6_17  and  C7_18 
REMARK   10  A    between atoms: C9_20  and  O6_21 
REMARK   11  A    between atoms: O6_21  and  C10_22 
REMARK   12  A    between atoms: C12_30  and  O7_31 
REMARK   13  A    between atoms: C13_34  and  N4_35 
REMARK   14  A    between atoms: C15_40  and  N5_41 
REMARK   15  A    between atoms: C16_45  and  N6_46 
REMARK   16  A    between atoms: C17_50  and  O9_51 
REMARK   17  A    between atoms: C18_53  and  O10_54 
ROOT
HETATM    1  C4  UNL     1      -4.261  10.600  55.907  1.00  0.00     0.343 C 
HETATM    2  O5  UNL     1      -3.382  11.222  56.743  1.00  0.00    -0.311 OA
HETATM    3  C5  UNL     1      -3.909  12.013  57.710  1.00  0.00     0.219 C 
HETATM    4  C13 UNL     1      -5.376  12.002  57.915  1.00  0.00     0.224 C 
HETATM    5  C14 UNL     1      -6.209  11.831  56.684  1.00  0.00     0.077 C 
HETATM    6  C15 UNL     1      -5.389  11.511  55.447  1.00  0.00     0.280 C 
ENDROOT
BRANCH   1   7
HETATM    7  O2  UNL     1      -3.664  10.010  54.805  1.00  0.00    -0.296 OA
BRANCH   7   8
HETATM    8  C3  UNL     1      -2.303  10.097  54.732  1.00  0.00     0.299 C 
HETATM    9  O1  UNL     1      -1.990  10.414  53.406  1.00  0.00    -0.349 OA
HETATM   10  C2  UNL     1      -0.659  10.626  53.172  1.00  0.00     0.181 C 
HETATM   11  C18 UNL     1       0.200  10.086  54.264  1.00  0.00     0.179 C 
HETATM   12  C17 UNL     1      -0.243   8.750  54.761  1.00  0.00     0.184 C 
HETATM   13  C16 UNL     1      -1.704   8.752  55.104  1.00  0.00     0.269 C 
BRANCH  10  14
HETATM   14  C1  UNL     1      -0.300  10.119  51.795  1.00  0.00     0.264 C 
BRANCH  14  15
HETATM   15  N1  UNL     1      -0.606  11.039  50.745  1.00  0.00    -0.077 N 
ATOM     16  H13 UNL     1      -1.594  11.289  50.762  1.00  0.00     0.274 HD
ATOM     17  H12 UNL     1      -0.196  11.953  50.937  1.00  0.00     0.274 HD
ATOM     18  H11 UNL     1      -0.334  10.710  49.819  1.00  0.00     0.274 HD
ENDBRANCH  14  15
ENDBRANCH  10  14
BRANCH  11  19
HETATM   19  O10 UNL     1       1.537  10.105  53.903  1.00  0.00    -0.390 OA
ATOM     20  H10 UNL     1       2.051  10.614  54.519  1.00  0.00     0.210 HD
ENDBRANCH  11  19
BRANCH  12  21
HETATM   21  O9  UNL     1       0.008   7.733  53.840  1.00  0.00    -0.391 OA
ATOM     22  H9  UNL     1      -0.311   6.910  54.192  1.00  0.00     0.210 HD
ENDBRANCH  12  21
BRANCH  13  23
HETATM   23  N6  UNL     1      -1.835   8.534  56.521  1.00  0.00    -0.068 N 
ATOM     24  H63 UNL     1      -0.938   8.603  57.004  1.00  0.00     0.275 HD
ATOM     25  H62 UNL     1      -2.313   9.306  56.985  1.00  0.00     0.275 HD
ATOM     26  H61 UNL     1      -2.294   7.640  56.694  1.00  0.00     0.275 HD
ENDBRANCH  13  23
ENDBRANCH   7   8
ENDBRANCH   1   7
BRANCH   1  27
HETATM   27  O3  UNL     1      -4.896   9.519  56.574  1.00  0.00    -0.171 OA
BRANCH  27  28
HETATM   28  O4  UNL     1      -5.046   8.507  55.746  1.00  0.00    -0.245 OA
ATOM     29  H4  UNL     1      -5.343   7.740  56.222  1.00  0.00     0.253 HD
ENDBRANCH  27  28
ENDBRANCH   1  27
BRANCH   6  30
HETATM   30  N5  UNL     1      -6.246  10.795  54.547  1.00  0.00    -0.067 N 
ATOM     31  H53 UNL     1      -5.877   9.873  54.315  1.00  0.00     0.275 HD
ATOM     32  H52 UNL     1      -7.112  10.497  54.996  1.00  0.00     0.275 HD
ATOM     33  H51 UNL     1      -6.419  11.361  53.717  1.00  0.00     0.275 HD
ENDBRANCH   6  30
BRANCH   3  34
HETATM   34  S1  UNL     1      -3.377  13.757  57.560  1.00  0.00    -0.133 SA
BRANCH  34  35
HETATM   35  C6  UNL     1      -4.465  14.675  56.450  1.00  0.00     0.108 C 
BRANCH  35  36
HETATM   36  C7  UNL     1      -3.797  15.000  55.141  1.00  0.00     0.138 C 
HETATM   37  C8  UNL     1      -2.794  13.981  54.652  1.00  0.00     0.093 C 
HETATM   38  C9  UNL     1      -3.339  14.535  53.334  1.00  0.00     0.265 C 
HETATM   39  O8  UNL     1      -4.577  14.657  54.009  1.00  0.00    -0.355 OA
BRANCH  38  40
HETATM   40  O6  UNL     1      -3.345  13.669  52.274  1.00  0.00    -0.325 OA
BRANCH  40  41
HETATM   41  C10 UNL     1      -3.429  14.411  51.101  1.00  0.00     0.382 C 
HETATM   42  N2  UNL     1      -4.822  14.747  50.881  1.00  0.00    -0.021 N 
HETATM   43  C11 UNL     1      -4.990  14.853  49.446  1.00  0.00     0.469 C 
ATOM     44  H22 UNL     1      -5.472  14.092  51.318  1.00  0.00     0.282 HD
ATOM     45  H21 UNL     1      -5.124  15.579  51.388  1.00  0.00     0.282 HD
HETATM   46  N3  UNL     1      -3.924  14.095  48.825  1.00  0.00    -0.021 N 
HETATM   47  C12 UNL     1      -3.050  13.620  49.881  1.00  0.00     0.377 C 
ATOM     48  H32 UNL     1      -4.268  13.343  48.227  1.00  0.00     0.282 HD
ATOM     49  H31 UNL     1      -3.428  14.622  48.107  1.00  0.00     0.282 HD
BRANCH  47  50
HETATM   50  O7  UNL     1      -3.223  12.273  50.101  1.00  0.00    -0.366 OA
ATOM     51  H7  UNL     1      -2.451  11.787  49.836  1.00  0.00     0.212 HD
ENDBRANCH  47  50
ENDBRANCH  40  41
ENDBRANCH  38  40
ENDBRANCH  35  36
ENDBRANCH  34  35
ENDBRANCH   3  34
BRANCH   4  52
HETATM   52  N4  UNL     1      -5.790  11.084  58.981  1.00  0.00    -0.072 N 
ATOM     53  H43 UNL     1      -6.482  11.519  59.590  1.00  0.00     0.274 HD
ATOM     54  H42 UNL     1      -6.354  10.320  58.609  1.00  0.00     0.274 HD
ATOM     55  H41 UNL     1      -5.000  10.727  59.521  1.00  0.00     0.274 HD
ENDBRANCH   4  52
TORSDOF 17
ENDMDL
MODEL 2
REMARK VINA RESULT: -6.653234787      2.375      5.593
REMARK  17 active torsions:
REMARK  status: ('A' for Active; 'I' for Inactive)
REMARK    1  A    between atoms: N1_1  and  C1_5 
REMARK    2  A    between atoms: C1_5  and  C2_6 
REMARK    3  A    between atoms: C3_8  and  O2_9 
REMARK    4  A    between atoms: O2_9  and  C4_10 
REMARK    5  A    between atoms: C4_10  and  O3_11 
REMARK    6  A    between atoms: O3_11  and  O4_12 
REMARK    7  A    between atoms: C5_15  and  S1_16 
REMARK    8  A    between atoms: S1_16  and  C6_17 
REMARK    9  A    between atoms: C6_17  and  C7_18 
REMARK   10  A    between atoms: C9_20  and  O6_21 
REMARK   11  A    between atoms: O6_21  and  C10_22 
REMARK   12  A    between atoms: C12_30  and  O7_31 
REMARK   13  A    between atoms: C13_34  and  N4_35 
REMARK   14  A    between atoms: C15_40  and  N5_41 
REMARK   15  A    between atoms: C16_45  and  N6_46 
REMARK   16  A    between atoms: C17_50  and  O9_51 
REMARK   17  A    between atoms: C18_53  and  O10_54 
ROOT
HETATM    1  C4  UNL     1      -4.201  11.561  55.035  1.00  0.00     0.343 C 
HETATM    2  O5  UNL     1      -4.085  11.543  56.393  1.00  0.00    -0.311 OA
HETATM    3  C5  UNL     1      -4.479  12.655  57.059  1.00  0.00     0.219 C 
HETATM    4  C13 UNL     1      -5.175  13.725  56.306  1.00  0.00     0.224 C 
HETATM    5  C14 UNL     1      -4.723  13.932  54.895  1.00  0.00     0.077 C 
HETATM    6  C15 UNL     1      -3.744  12.874  54.418  1.00  0.00     0.280 C 
ENDROOT
BRANCH   1   7
HETATM    7  O2  UNL     1      -3.564  10.507  54.403  1.00  0.00    -0.296 OA
BRANCH   7   8
HETATM    8  C3  UNL     1      -2.210  10.431  54.563  1.00  0.00     0.299 C 
HETATM    9  O1  UNL     1      -1.644  10.597  53.295  1.00  0.00    -0.349 OA
HETATM   10  C2  UNL     1      -0.277  10.635  53.283  1.00  0.00     0.181 C 
HETATM   11  C18 UNL     1       0.314  10.095  54.541  1.00  0.00     0.179 C 
HETATM   12  C17 UNL     1      -0.371   8.865  55.037  1.00  0.00     0.184 C 
HETATM   13  C16 UNL     1      -1.856   9.062  55.119  1.00  0.00     0.269 C 
BRANCH  10  14
HETATM   14  C1  UNL     1       0.238   9.975  52.025  1.00  0.00     0.264 C 
BRANCH  14  15
HETATM   15  N1  UNL     1      -0.508   8.820  51.636  1.00  0.00    -0.077 N 
ATOM     16  H13 UNL     1      -0.830   8.306  52.456  1.00  0.00     0.274 HD
ATOM     17  H12 UNL     1      -1.408   9.089  51.240  1.00  0.00     0.274 HD
ATOM     18  H11 UNL     1      -0.006   8.202  50.999  1.00  0.00     0.274 HD
ENDBRANCH  14  15
ENDBRANCH  10  14
BRANCH  11  19
HETATM   19  O10 UNL     1       1.684   9.931  54.417  1.00  0.00    -0.390 OA
ATOM     20  H10 UNL     1       1.915   9.011  54.373  1.00  0.00     0.210 HD
ENDBRANCH  11  19
BRANCH  12  21
HETATM   21  O9  UNL     1      -0.102   7.752  54.241  1.00  0.00    -0.391 OA
ATOM     22  H9  UNL     1       0.741   7.868  53.819  1.00  0.00     0.210 HD
ENDBRANCH  12  21
BRANCH  13  23
HETATM   23  N6  UNL     1      -2.246   8.982  56.504  1.00  0.00    -0.068 N 
ATOM     24  H63 UNL     1      -1.797   8.201  56.984  1.00  0.00     0.275 HD
ATOM     25  H62 UNL     1      -1.852   9.742  57.057  1.00  0.00     0.275 HD
ATOM     26  H61 UNL     1      -3.262   8.943  56.575  1.00  0.00     0.275 HD
ENDBRANCH  13  23
ENDBRANCH   7   8
ENDBRANCH   1   7
BRANCH   1  27
HETATM   27  O3  UNL     1      -5.562  11.419  54.655  1.00  0.00    -0.171 OA
BRANCH  27  28
HETATM   28  O4  UNL     1      -6.006  10.231  55.012  1.00  0.00    -0.245 OA
ATOM     29  H4  UNL     1      -6.884  10.306  55.367  1.00  0.00     0.253 HD
ENDBRANCH  27  28
ENDBRANCH   1  27
BRANCH   6  30
HETATM   30  N5  UNL     1      -3.865  12.801  52.991  1.00  0.00    -0.067 N 
ATOM     31  H53 UNL     1      -3.063  13.212  52.515  1.00  0.00     0.275 HD
ATOM     32  H52 UNL     1      -3.767  11.846  52.645  1.00  0.00     0.275 HD
ATOM     33  H51 UNL     1      -4.745  13.227  52.701  1.00  0.00     0.275 HD
ENDBRANCH   6  30
BRANCH   3  34
HETATM   34  S1  UNL     1      -3.117  13.430  58.004  1.00  0.00    -0.133 SA
BRANCH  34  35
HETATM   35  C6  UNL     1      -3.320  13.159  59.777  1.00  0.00     0.108 C 
BRANCH  35  36
HETATM   36  C7  UNL     1      -3.490  11.702  60.113  1.00  0.00     0.138 C 
HETATM   37  C8  UNL     1      -4.833  11.105  59.758  1.00  0.00     0.093 C 
HETATM   38  C9  UNL     1      -3.905   9.900  59.589  1.00  0.00     0.265 C 
HETATM   39  O8  UNL     1      -2.937  10.831  59.142  1.00  0.00    -0.355 OA
BRANCH  38  40
HETATM   40  O6  UNL     1      -4.287   8.974  58.657  1.00  0.00    -0.325 OA
BRANCH  40  41
HETATM   41  C10 UNL     1      -5.151   8.069  59.263  1.00  0.00     0.382 C 
HETATM   42  N2  UNL     1      -4.832   6.744  58.770  1.00  0.00    -0.021 N 
HETATM   43  C11 UNL     1      -6.068   5.990  58.813  1.00  0.00     0.469 C 
ATOM     44  H22 UNL     1      -4.391   6.748  57.850  1.00  0.00     0.282 HD
ATOM     45  H21 UNL     1      -4.065   6.297  59.274  1.00  0.00     0.282 HD
HETATM   46  N3  UNL     1      -7.160   6.940  58.801  1.00  0.00    -0.021 N 
HETATM   47  C12 UNL     1      -6.584   8.271  58.861  1.00  0.00     0.377 C 
ATOM     48  H32 UNL     1      -7.787   6.814  58.007  1.00  0.00     0.282 HD
ATOM     49  H31 UNL     1      -7.843   6.770  59.540  1.00  0.00     0.282 HD
BRANCH  47  50
HETATM   50  O7  UNL     1      -6.664   8.901  57.641  1.00  0.00    -0.366 OA
ATOM     51  H7  UNL     1      -7.417   8.593  57.152  1.00  0.00     0.212 HD
ENDBRANCH  47  50
ENDBRANCH  40  41
ENDBRANCH  38  40
ENDBRANCH  35  36
ENDBRANCH  34  35
ENDBRANCH   3  34
BRANCH   4  52
HETATM   52  N4  UNL     1      -6.634  13.622  56.399  1.00  0.00    -0.072 N 
ATOM     53  H43 UNL     1      -6.916  12.705  56.744  1.00  0.00     0.274 HD
ATOM     54  H42 UNL     1      -6.996  14.201  57.157  1.00  0.00     0.274 HD
ATOM     55  H41 UNL     1      -7.100  13.840  55.517  1.00  0.00     0.274 HD
ENDBRANCH   4  52
TORSDOF 17
ENDMDL
MODEL 3
REMARK VINA RESULT: -6.588310599      3.464      7.082
REMARK  17 active torsions:
REMARK  status: ('A' for Active; 'I' for Inactive)
REMARK    1  A    between atoms: N1_1  and  C1_5 
REMARK    2  A    between atoms: C1_5  and  C2_6 
REMARK    3  A    between atoms: C3_8  and  O2_9 
REMARK    4  A    between atoms: O2_9  and  C4_10 
REMARK    5  A    between atoms: C4_10  and  O3_11 
REMARK    6  A    between atoms: O3_11  and  O4_12 
REMARK    7  A    between atoms: C5_15  and  S1_16 
REMARK    8  A    between atoms: S1_16  and  C6_17 
REMARK    9  A    between atoms: C6_17  and  C7_18 
REMARK   10  A    between atoms: C9_20  and  O6_21 
REMARK   11  A    between atoms: O6_21  and  C10_22 
REMARK   12  A    between atoms: C12_30  and  O7_31 
REMARK   13  A    between atoms: C13_34  and  N4_35 
REMARK   14  A    between atoms: C15_40  and  N5_41 
REMARK   15  A    between atoms: C16_45  and  N6_46 
REMARK   16  A    between atoms: C17_50  and  O9_51 
REMARK   17  A    between atoms: C18_53  and  O10_54 
ROOT
HETATM    1  C4  UNL     1      -4.327  10.244  56.105  1.00  0.00     0.343 C 
HETATM    2  O5  UNL     1      -3.472  10.601  57.104  1.00  0.00    -0.311 OA
HETATM    3  C5  UNL     1      -4.011  11.222  58.182  1.00  0.00     0.219 C 
HETATM    4  C13 UNL     1      -5.486  11.302  58.291  1.00  0.00     0.224 C 
HETATM    5  C14 UNL     1      -6.231  11.462  57.003  1.00  0.00     0.077 C 
HETATM    6  C15 UNL     1      -5.344  11.327  55.778  1.00  0.00     0.280 C 
ENDROOT
BRANCH   1   7
HETATM    7  O2  UNL     1      -3.693   9.840  54.942  1.00  0.00    -0.296 OA
BRANCH   7   8
HETATM    8  C3  UNL     1      -2.330   9.933  54.930  1.00  0.00     0.299 C 
HETATM    9  O1  UNL     1      -1.969  10.397  53.660  1.00  0.00    -0.349 OA
HETATM   10  C2  UNL     1      -0.632  10.633  53.500  1.00  0.00     0.181 C 
HETATM   11  C18 UNL     1       0.189   9.973  54.556  1.00  0.00     0.179 C 
HETATM   12  C17 UNL     1      -0.268   8.590  54.883  1.00  0.00     0.184 C 
HETATM   13  C16 UNL     1      -1.741   8.554  55.170  1.00  0.00     0.269 C 
BRANCH  10  14
HETATM   14  C1  UNL     1      -0.220  10.283  52.090  1.00  0.00     0.264 C 
BRANCH  14  15
HETATM   15  N1  UNL     1      -0.877  11.063  51.089  1.00  0.00    -0.077 N 
ATOM     16  H13 UNL     1      -1.078  12.000  51.437  1.00  0.00     0.274 HD
ATOM     17  H12 UNL     1      -0.233  11.297  50.334  1.00  0.00     0.274 HD
ATOM     18  H11 UNL     1      -1.722  10.628  50.718  1.00  0.00     0.274 HD
ENDBRANCH  14  15
ENDBRANCH  10  14
BRANCH  11  19
HETATM   19  O10 UNL     1       1.538  10.031  54.249  1.00  0.00    -0.390 OA
ATOM     20  H10 UNL     1       1.740   9.492  53.493  1.00  0.00     0.210 HD
ENDBRANCH  11  19
BRANCH  12  21
HETATM   21  O9  UNL     1       0.020   7.682  53.864  1.00  0.00    -0.391 OA
ATOM     22  H9  UNL     1      -0.609   7.795  53.161  1.00  0.00     0.210 HD
ENDBRANCH  12  21
BRANCH  13  23
HETATM   23  N6  UNL     1      -1.922   8.179  56.549  1.00  0.00    -0.068 N 
ATOM     24  H63 UNL     1      -2.441   8.884  57.073  1.00  0.00     0.275 HD
ATOM     25  H62 UNL     1      -2.578   7.405  56.652  1.00  0.00     0.275 HD
ATOM     26  H61 UNL     1      -1.018   7.974  56.973  1.00  0.00     0.275 HD
ENDBRANCH  13  23
ENDBRANCH   7   8
ENDBRANCH   1   7
BRANCH   1  27
HETATM   27  O3  UNL     1      -5.092   9.112  56.491  1.00  0.00    -0.171 OA
BRANCH  27  28
HETATM   28  O4  UNL     1      -4.934   8.143  55.613  1.00  0.00    -0.245 OA
ATOM     29  H4  UNL     1      -4.155   7.639  55.822  1.00  0.00     0.253 HD
ENDBRANCH  27  28
ENDBRANCH   1  27
BRANCH   6  30
HETATM   30  N5  UNL     1      -6.180  10.890  54.698  1.00  0.00    -0.067 N 
ATOM     31  H53 UNL     1      -5.670  10.319  54.024  1.00  0.00     0.275 HD
ATOM     32  H52 UNL     1      -6.861  10.192  54.997  1.00  0.00     0.275 HD
ATOM     33  H51 UNL     1      -6.623  11.698  54.262  1.00  0.00     0.275 HD
ENDBRANCH   6  30
BRANCH   3  34
HETATM   34  S1  UNL     1      -3.338  12.905  58.434  1.00  0.00    -0.133 SA
BRANCH  34  35
HETATM   35  C6  UNL     1      -4.414  13.881  59.505  1.00  0.00     0.108 C 
BRANCH  35  36
HETATM   36  C7  UNL     1      -4.280  13.489  60.953  1.00  0.00     0.138 C 
HETATM   37  C8  UNL     1      -5.493  12.821  61.560  1.00  0.00     0.093 C 
HETATM   38  C9  UNL     1      -4.354  12.165  62.342  1.00  0.00     0.265 C 
HETATM   39  O8  UNL     1      -3.606  12.258  61.144  1.00  0.00    -0.355 OA
BRANCH  38  40
HETATM   40  O6  UNL     1      -4.583  10.888  62.780  1.00  0.00    -0.325 OA
BRANCH  40  41
HETATM   41  C10 UNL     1      -4.333  10.840  64.146  1.00  0.00     0.382 C 
HETATM   42  N2  UNL     1      -3.385  11.889  64.467  1.00  0.00    -0.021 N 
HETATM   43  C11 UNL     1      -2.635  11.417  65.613  1.00  0.00     0.469 C 
ATOM     44  H22 UNL     1      -2.795  12.158  63.679  1.00  0.00     0.282 HD
ATOM     45  H21 UNL     1      -3.821  12.799  64.613  1.00  0.00     0.282 HD
HETATM   46  N3  UNL     1      -2.736   9.973  65.636  1.00  0.00    -0.021 N 
HETATM   47  C12 UNL     1      -3.635   9.578  64.569  1.00  0.00     0.377 C 
ATOM     48  H32 UNL     1      -1.827   9.511  65.582  1.00  0.00     0.282 HD
ATOM     49  H31 UNL     1      -3.016   9.610  66.547  1.00  0.00     0.282 HD
BRANCH  47  50
HETATM   50  O7  UNL     1      -2.944   9.028  63.515  1.00  0.00    -0.366 OA
ATOM     51  H7  UNL     1      -2.330   8.371  63.822  1.00  0.00     0.212 HD
ENDBRANCH  47  50
ENDBRANCH  40  41
ENDBRANCH  38  40
ENDBRANCH  35  36
ENDBRANCH  34  35
ENDBRANCH   3  34
BRANCH   4  52
HETATM   52  N4  UNL     1      -6.050  10.227  59.114  1.00  0.00    -0.072 N 
ATOM     53  H43 UNL     1      -5.658   9.323  58.853  1.00  0.00     0.274 HD
ATOM     54  H42 UNL     1      -5.710  10.283  60.074  1.00  0.00     0.274 HD
ATOM     55  H41 UNL     1      -7.070  10.206  59.088  1.00  0.00     0.274 HD
ENDBRANCH   4  52
TORSDOF 17
ENDMDL
MODEL 4
REMARK VINA RESULT: -6.298323645      3.287      5.934
REMARK  17 active torsions:
REMARK  status: ('A' for Active; 'I' for Inactive)
REMARK    1  A    between atoms: N1_1  and  C1_5 
REMARK    2  A    between atoms: C1_5  and  C2_6 
REMARK    3  A    between atoms: C3_8  and  O2_9 
REMARK    4  A    between atoms: O2_9  and  C4_10 
REMARK    5  A    between atoms: C4_10  and  O3_11 
REMARK    6  A    between atoms: O3_11  and  O4_12 
REMARK    7  A    between atoms: C5_15  and  S1_16 
REMARK    8  A    between atoms: S1_16  and  C6_17 
REMARK    9  A    between atoms: C6_17  and  C7_18 
REMARK   10  A    between atoms: C9_20  and  O6_21 
REMARK   11  A    between atoms: O6_21  and  C10_22 
REMARK   12  A    between atoms: C12_30  and  O7_31 
REMARK   13  A    between atoms: C13_34  and  N4_35 
REMARK   14  A    between atoms: C15_40  and  N5_41 
REMARK   15  A    between atoms: C16_45  and  N6_46 
REMARK   16  A    between atoms: C17_50  and  O9_51 
REMARK   17  A    between atoms: C18_53  and  O10_54 
ROOT
HETATM    1  C4  UNL     1      -4.289  11.742  59.672  1.00  0.00     0.343 C 
HETATM    2  O5  UNL     1      -5.421  11.913  58.931  1.00  0.00    -0.311 OA
HETATM    3  C5  UNL     1      -6.304  10.885  58.912  1.00  0.00     0.219 C 
HETATM    4  C13 UNL     1      -6.083   9.741  59.828  1.00  0.00     0.224 C 
HETATM    5  C14 UNL     1      -4.655   9.373  60.084  1.00  0.00     0.077 C 
HETATM    6  C15 UNL     1      -3.667  10.365  59.497  1.00  0.00     0.280 C 
ENDROOT
BRANCH   1   7
HETATM    7  O2  UNL     1      -3.328  12.715  59.458  1.00  0.00    -0.296 OA
BRANCH   7   8
HETATM    8  C3  UNL     1      -3.565  13.590  58.437  1.00  0.00     0.299 C 
HETATM    9  O1  UNL     1      -2.867  13.109  57.324  1.00  0.00    -0.349 OA
HETATM   10  C2  UNL     1      -3.066  13.825  56.175  1.00  0.00     0.181 C 
HETATM   11  C18 UNL     1      -3.645  15.172  56.443  1.00  0.00     0.179 C 
HETATM   12  C17 UNL     1      -3.039  15.853  57.625  1.00  0.00     0.184 C 
HETATM   13  C16 UNL     1      -3.040  14.960  58.831  1.00  0.00     0.269 C 
BRANCH  10  14
HETATM   14  C1  UNL     1      -1.790  13.851  55.367  1.00  0.00     0.264 C 
BRANCH  14  15
HETATM   15  N1  UNL     1      -1.302  12.552  55.021  1.00  0.00    -0.077 N 
ATOM     16  H13 UNL     1      -1.885  11.826  55.437  1.00  0.00     0.274 HD
ATOM     17  H12 UNL     1      -1.466  12.358  54.034  1.00  0.00     0.274 HD
ATOM     18  H11 UNL     1      -0.321  12.406  55.259  1.00  0.00     0.274 HD
ENDBRANCH  14  15
ENDBRANCH  10  14
BRANCH  11  19
HETATM   19  O10 UNL     1      -3.624  15.959  55.304  1.00  0.00    -0.390 OA
ATOM     20  H10 UNL     1      -3.705  16.880  55.523  1.00  0.00     0.210 HD
ENDBRANCH  11  19
BRANCH  12  21
HETATM   21  O9  UNL     1      -1.736  16.284  57.378  1.00  0.00    -0.391 OA
ATOM     22  H9  UNL     1      -1.658  17.197  57.628  1.00  0.00     0.210 HD
ENDBRANCH  12  21
BRANCH  13  23
HETATM   23  N6  UNL     1      -3.902  15.545  59.825  1.00  0.00    -0.068 N 
ATOM     24  H63 UNL     1      -3.428  16.270  60.365  1.00  0.00     0.275 HD
ATOM     25  H62 UNL     1      -4.630  16.124  59.408  1.00  0.00     0.275 HD
ATOM     26  H61 UNL     1      -4.288  14.814  60.422  1.00  0.00     0.275 HD
ENDBRANCH  13  23
ENDBRANCH   7   8
ENDBRANCH   1   7
BRANCH   1  27
HETATM   27  O3  UNL     1      -4.586  11.850  61.056  1.00  0.00    -0.171 OA
BRANCH  27  28
HETATM   28  O4  UNL     1      -3.858  12.804  61.599  1.00  0.00    -0.245 OA
ATOM     29  H4  UNL     1      -4.382  13.298  62.219  1.00  0.00     0.253 HD
ENDBRANCH  27  28
ENDBRANCH   1  27
BRANCH   6  30
HETATM   30  N5  UNL     1      -2.468  10.278  60.279  1.00  0.00    -0.067 N 
ATOM     31  H53 UNL     1      -2.632   9.844  61.187  1.00  0.00     0.275 HD
ATOM     32  H52 UNL     1      -1.813   9.592  59.904  1.00  0.00     0.275 HD
ATOM     33  H51 UNL     1      -2.049  11.204  60.364  1.00  0.00     0.275 HD
ENDBRANCH   6  30
BRANCH   3  34
HETATM   34  S1  UNL     1      -6.565  10.212  57.230  1.00  0.00    -0.133 SA
BRANCH  34  35
HETATM   35  C6  UNL     1      -5.442  10.978  56.043  1.00  0.00     0.108 C 
BRANCH  35  36
HETATM   36  C7  UNL     1      -4.086  10.322  56.040  1.00  0.00     0.138 C 
HETATM   37  C8  UNL     1      -4.094   8.811  56.075  1.00  0.00     0.093 C 
HETATM   38  C9  UNL     1      -2.822   9.095  55.275  1.00  0.00     0.265 C 
HETATM   39  O8  UNL     1      -3.518  10.209  54.747  1.00  0.00    -0.355 OA
BRANCH  38  40
HETATM   40  O6  UNL     1      -2.468   8.148  54.352  1.00  0.00    -0.325 OA
BRANCH  40  41
HETATM   41  C10 UNL     1      -1.196   8.447  53.879  1.00  0.00     0.382 C 
HETATM   42  N2  UNL     1      -1.269   9.703  53.157  1.00  0.00    -0.021 N 
HETATM   43  C11 UNL     1      -0.237   9.646  52.143  1.00  0.00     0.469 C 
ATOM     44  H22 UNL     1      -2.196   9.902  52.782  1.00  0.00     0.282 HD
ATOM     45  H21 UNL     1      -1.201  10.523  53.761  1.00  0.00     0.282 HD
HETATM   46  N3  UNL     1       0.063   8.249  51.905  1.00  0.00    -0.021 N 
HETATM   47  C12 UNL     1      -0.708   7.466  52.851  1.00  0.00     0.377 C 
ATOM     48  H32 UNL     1      -0.094   7.969  50.936  1.00  0.00     0.282 HD
ATOM     49  H31 UNL     1       1.062   8.046  51.943  1.00  0.00     0.282 HD
BRANCH  47  50
HETATM   50  O7  UNL     1      -1.767   6.842  52.233  1.00  0.00    -0.366 OA
ATOM     51  H7  UNL     1      -1.941   5.999  52.634  1.00  0.00     0.212 HD
ENDBRANCH  47  50
ENDBRANCH  40  41
ENDBRANCH  38  40
ENDBRANCH  35  36
ENDBRANCH  34  35
ENDBRANCH   3  34
BRANCH   4  52
HETATM   52  N4  UNL     1      -6.844   9.863  61.075  1.00  0.00    -0.072 N 
ATOM     53  H43 UNL     1      -7.773  10.246  60.902  1.00  0.00     0.274 HD
ATOM     54  H42 UNL     1      -7.109   8.946  61.435  1.00  0.00     0.274 HD
ATOM     55  H41 UNL     1      -6.350  10.406  61.785  1.00  0.00     0.274 HD
ENDBRANCH   4  52
TORSDOF 17
ENDMDL
MODEL 5
REMARK VINA RESULT: -6.291642758      3.320      7.072
REMARK  17 active torsions:
REMARK  status: ('A' for Active; 'I' for Inactive)
REMARK    1  A    between atoms: N1_1  and  C1_5 
REMARK    2  A    between atoms: C1_5  and  C2_6 
REMARK    3  A    between atoms: C3_8  and  O2_9 
REMARK    4  A    between atoms: O2_9  and  C4_10 
REMARK    5  A    between atoms: C4_10  and  O3_11 
REMARK    6  A    between atoms: O3_11  and  O4_12 
REMARK    7  A    between atoms: C5_15  and  S1_16 
REMARK    8  A    between atoms: S1_16  and  C6_17 
REMARK    9  A    between atoms: C6_17  and  C7_18 
REMARK   10  A    between atoms: C9_20  and  O6_21 
REMARK   11  A    between atoms: O6_21  and  C10_22 
REMARK   12  A    between atoms: C12_30  and  O7_31 
REMARK   13  A    between atoms: C13_34  and  N4_35 
REMARK   14  A    between atoms: C15_40  and  N5_41 
REMARK   15  A    between atoms: C16_45  and  N6_46 
REMARK   16  A    between atoms: C17_50  and  O9_51 
REMARK   17  A    between atoms: C18_53  and  O10_54 
ROOT
HETATM    1  C4  UNL     1      -3.141  13.304  54.226  1.00  0.00     0.343 C 
HETATM    2  O5  UNL     1      -4.150  12.507  53.773  1.00  0.00    -0.311 OA
HETATM    3  C5  UNL     1      -5.402  12.797  54.203  1.00  0.00     0.219 C 
HETATM    4  C13 UNL     1      -5.620  14.046  54.968  1.00  0.00     0.224 C 
HETATM    5  C14 UNL     1      -4.504  14.462  55.874  1.00  0.00     0.077 C 
HETATM    6  C15 UNL     1      -3.253  13.618  55.711  1.00  0.00     0.280 C 
ENDROOT
BRANCH   1   7
HETATM    7  O2  UNL     1      -1.875  12.817  53.951  1.00  0.00    -0.296 OA
BRANCH   7   8
HETATM    8  C3  UNL     1      -1.793  11.498  53.605  1.00  0.00     0.299 C 
HETATM    9  O1  UNL     1      -1.185  10.837  54.677  1.00  0.00    -0.349 OA
HETATM   10  C2  UNL     1      -1.101   9.480  54.535  1.00  0.00     0.181 C 
HETATM   11  C18 UNL     1      -1.302   9.047  53.122  1.00  0.00     0.179 C 
HETATM   12  C17 UNL     1      -0.611   9.922  52.130  1.00  0.00     0.184 C 
HETATM   13  C16 UNL     1      -0.938  11.369  52.357  1.00  0.00     0.269 C 
BRANCH  10  14
HETATM   14  C1  UNL     1       0.182   8.983  55.157  1.00  0.00     0.264 C 
BRANCH  14  15
HETATM   15  N1  UNL     1       1.239   9.944  55.139  1.00  0.00    -0.077 N 
ATOM     16  H13 UNL     1       1.774   9.907  56.007  1.00  0.00     0.274 HD
ATOM     17  H12 UNL     1       1.966   9.668  54.480  1.00  0.00     0.274 HD
ATOM     18  H11 UNL     1       0.926  10.896  54.951  1.00  0.00     0.274 HD
ENDBRANCH  14  15
ENDBRANCH  10  14
BRANCH  11  19
HETATM   19  O10 UNL     1      -0.989   7.707  52.962  1.00  0.00    -0.390 OA
ATOM     20  H10 UNL     1      -0.900   7.484  52.043  1.00  0.00     0.210 HD
ENDBRANCH  11  19
BRANCH  12  21
HETATM   21  O9  UNL     1       0.774   9.758  52.155  1.00  0.00    -0.391 OA
ATOM     22  H9  UNL     1       1.076   9.537  51.282  1.00  0.00     0.210 HD
ENDBRANCH  12  21
BRANCH  13  23
HETATM   23  N6  UNL     1      -1.667  11.851  51.213  1.00  0.00    -0.068 N 
ATOM     24  H63 UNL     1      -2.632  12.089  51.445  1.00  0.00     0.275 HD
ATOM     25  H62 UNL     1      -1.353  12.776  50.920  1.00  0.00     0.275 HD
ATOM     26  H61 UNL     1      -1.612  11.170  50.455  1.00  0.00     0.275 HD
ENDBRANCH  13  23
ENDBRANCH   7   8
ENDBRANCH   1   7
BRANCH   1  27
HETATM   27  O3  UNL     1      -3.176  14.564  53.571  1.00  0.00    -0.171 OA
BRANCH  27  28
HETATM   28  O4  UNL     1      -3.348  14.392  52.276  1.00  0.00    -0.245 OA
ATOM     29  H4  UNL     1      -3.657  15.198  51.881  1.00  0.00     0.253 HD
ENDBRANCH  27  28
ENDBRANCH   1  27
BRANCH   6  30
HETATM   30  N5  UNL     1      -2.142  14.428  56.115  1.00  0.00    -0.067 N 
ATOM     31  H53 UNL     1      -1.248  14.016  55.847  1.00  0.00     0.275 HD
ATOM     32  H52 UNL     1      -2.075  15.289  55.571  1.00  0.00     0.275 HD
ATOM     33  H51 UNL     1      -2.198  14.609  57.117  1.00  0.00     0.275 HD
ENDBRANCH   6  30
BRANCH   3  34
HETATM   34  S1  UNL     1      -6.157  11.423  55.148  1.00  0.00    -0.133 SA
BRANCH  34  35
HETATM   35  C6  UNL     1      -4.896  10.281  55.752  1.00  0.00     0.108 C 
BRANCH  35  36
HETATM   36  C7  UNL     1      -5.240   9.719  57.106  1.00  0.00     0.138 C 
HETATM   37  C8  UNL     1      -6.478  10.297  57.754  1.00  0.00     0.093 C 
HETATM   38  C9  UNL     1      -6.482   8.867  58.298  1.00  0.00     0.265 C 
HETATM   39  O8  UNL     1      -5.944   8.491  57.044  1.00  0.00    -0.355 OA
BRANCH  38  40
HETATM   40  O6  UNL     1      -7.712   8.335  58.579  1.00  0.00    -0.325 OA
BRANCH  40  41
HETATM   41  C10 UNL     1      -7.557   7.368  59.567  1.00  0.00     0.382 C 
HETATM   42  N2  UNL     1      -7.073   6.156  58.936  1.00  0.00    -0.021 N 
HETATM   43  C11 UNL     1      -7.572   5.058  59.738  1.00  0.00     0.469 C 
ATOM     44  H22 UNL     1      -7.322   6.083  57.950  1.00  0.00     0.282 HD
ATOM     45  H21 UNL     1      -6.061   6.140  58.811  1.00  0.00     0.282 HD
HETATM   46  N3  UNL     1      -8.726   5.539  60.467  1.00  0.00    -0.021 N 
HETATM   47  C12 UNL     1      -8.861   6.957  60.191  1.00  0.00     0.377 C 
ATOM     48  H32 UNL     1      -9.575   5.012  60.260  1.00  0.00     0.282 HD
ATOM     49  H31 UNL     1      -8.680   5.332  61.465  1.00  0.00     0.282 HD
BRANCH  47  50
HETATM   50  O7  UNL     1      -9.908   7.198  59.333  1.00  0.00    -0.366 OA
ATOM     51  H7  UNL     1     -10.246   8.078  59.454  1.00  0.00     0.212 HD
ENDBRANCH  47  50
ENDBRANCH  40  41
ENDBRANCH  38  40
ENDBRANCH  35  36
ENDBRANCH  34  35
ENDBRANCH   3  34
BRANCH   4  52
HETATM   52  N4  UNL     1      -6.073  15.155  54.121  1.00  0.00    -0.072 N 
ATOM     53  H43 UNL     1      -5.534  15.198  53.257  1.00  0.00     0.274 HD
ATOM     54  H42 UNL     1      -6.996  14.965  53.731  1.00  0.00     0.274 HD
ATOM     55  H41 UNL     1      -6.058  16.052  54.608  1.00  0.00     0.274 HD
ENDBRANCH   4  52
TORSDOF 17
ENDMDL
