MODEL 1
REMARK VINA RESULT: -7.255335527      0.000      0.000
REMARK  17 active torsions:
REMARK  status: ('A' for Active; 'I' for Inactive)
REMARK    1  A    between atoms: C3_3  and  C4_4 
REMARK    2  A    between atoms: C4_4  and  N1_5 
REMARK    3  A    between atoms: C4_4  and  N2_8 
REMARK    4  A    between atoms: N2_8  and  N3_10 
REMARK    5  A    between atoms: C8_22  and  S1_23 
REMARK    6  A    between atoms: S1_23  and  N7_24 
REMARK    7  A    between atoms: N8_29  and  N9_30 
REMARK    8  A    between atoms: N11_38  and  N12_39 
REMARK    9  A    between atoms: N12_39  and  C11_41 
REMARK   10  A    between atoms: C11_41  and  O3_42 
REMARK   11  A    between atoms: C11_41  and  N13_44 
REMARK   12  A    between atoms: N13_44  and  C12_46 
REMARK   13  A    between atoms: C12_46  and  O4_47 
REMARK   14  A    between atoms: C12_46  and  C13_49 
REMARK   15  A    between atoms: C13_49  and  C14_50 
REMARK   16  A    between atoms: C14_50  and  C15_51 
REMARK   17  A    between atoms: C15_51  and  N14_52 
ROOT
HETATM    1  C1  UNL     1      -1.903  11.338  54.516  1.00  0.00     0.074 C 
HETATM    2  C2  UNL     1      -3.067  10.738  55.209  1.00  0.00     0.080 A 
HETATM    3  C3  UNL     1      -4.086  11.427  55.842  1.00  0.00     0.128 A 
HETATM    4  N4  UNL     1      -4.858  10.459  56.350  1.00  0.00    -0.123 N 
HETATM    5  C5  UNL     1      -6.072  10.641  56.945  1.00  0.00     0.154 C 
HETATM    6  N5  UNL     1      -6.822  11.472  56.384  1.00  0.00    -0.383 N 
ATOM      7  H51 UNL     1      -7.730  11.608  56.829  1.00  0.00     0.157 HD
ATOM      8  H52 UNL     1      -6.497  11.987  55.567  1.00  0.00     0.157 HD
HETATM    9  C6  UNL     1      -6.510   9.949  58.044  1.00  0.00     0.133 A 
HETATM   10  C7  UNL     1      -6.227   8.617  58.361  1.00  0.00     0.106 A 
HETATM   11  N6  UNL     1      -6.868   8.367  59.495  1.00  0.00    -0.325 N 
ATOM     12  H6  UNL     1      -6.857   7.471  59.984  1.00  0.00     0.168 HD
HETATM   13  C8  UNL     1      -7.541   9.469  59.916  1.00  0.00     0.245 A 
HETATM   14  N8  UNL     1      -7.301  10.415  59.009  1.00  0.00    -0.229 N 
HETATM   15  C9  UNL     1      -5.446   7.718  57.653  1.00  0.00     0.145 C 
HETATM   16  S2  UNL     1      -5.271   6.231  58.298  1.00  0.00    -0.057 SA
HETATM   17  N10 UNL     1      -4.834   8.008  56.469  1.00  0.00    -0.177 N 
ATOM     18  H10 UNL     1      -4.728   7.234  55.813  1.00  0.00     0.185 HD
HETATM   19  C10 UNL     1      -4.346   9.223  56.062  1.00  0.00     0.713 A 
HETATM   20  N11 UNL     1      -3.236   9.380  55.348  1.00  0.00    -0.089 N 
ENDROOT
BRANCH  20  21
HETATM   21  N12 UNL     1      -2.378   8.438  54.776  1.00  0.00    -0.269 N 
ATOM     22  H12 UNL     1      -2.784   7.864  54.038  1.00  0.00     0.186 HD
BRANCH  21  23
HETATM   23  C11 UNL     1      -1.015   8.169  55.083  1.00  0.00     0.340 C 
BRANCH  23  24
HETATM   24  O3  UNL     1      -0.938   7.258  56.125  1.00  0.00    -0.359 OA
ATOM     25  H3  UNL     1      -1.158   7.685  56.943  1.00  0.00     0.214 HD
ENDBRANCH  23  24
BRANCH  23  26
HETATM   26  N13 UNL     1      -0.293   7.833  53.906  1.00  0.00    -0.354 N 
ATOM     27  H13 UNL     1       0.663   7.479  53.935  1.00  0.00     0.160 HD
BRANCH  26  28
HETATM   28  C12 UNL     1      -1.015   8.029  52.649  1.00  0.00     0.216 C 
BRANCH  28  29
HETATM   29  O4  UNL     1      -1.687   6.832  52.373  1.00  0.00    -0.377 OA
ATOM     30  H4  UNL     1      -2.145   6.954  51.550  1.00  0.00     0.212 HD
ENDBRANCH  28  29
BRANCH  28  31
HETATM   31  C13 UNL     1      -0.090   8.422  51.560  1.00  0.00     0.055 C 
BRANCH  31  32
HETATM   32  C14 UNL     1       0.187   9.883  51.516  1.00  0.00     0.031 C 
BRANCH  32  33
HETATM   33  C15 UNL     1       0.187  10.463  50.142  1.00  0.00     0.230 C 
BRANCH  33  34
HETATM   34  N14 UNL     1       1.469  10.244  49.536  1.00  0.00    -0.079 N 
ATOM     35 3H14 UNL     1       1.623   9.263  49.299  1.00  0.00     0.274 HD
ATOM     36 2H14 UNL     1       1.523  10.630  48.594  1.00  0.00     0.274 HD
ATOM     37 1H14 UNL     1       2.199  10.612  50.147  1.00  0.00     0.274 HD
ENDBRANCH  33  34
ENDBRANCH  32  33
ENDBRANCH  31  32
ENDBRANCH  28  31
ENDBRANCH  26  28
ENDBRANCH  23  26
ENDBRANCH  21  23
ENDBRANCH  20  21
BRANCH   3  38
HETATM   38  C4  UNL     1      -4.309  12.857  55.872  1.00  0.00     0.143 C 
BRANCH  38  39
HETATM   39  N1  UNL     1      -4.759  13.515  54.890  1.00  0.00    -0.383 N 
ATOM     40  H12 UNL     1      -5.776  13.591  54.921  1.00  0.00     0.157 HD
ATOM     41  H11 UNL     1      -4.167  14.025  54.235  1.00  0.00     0.157 HD
ENDBRANCH  38  39
BRANCH  38  42
HETATM   42  N2  UNL     1      -3.857  13.728  56.941  1.00  0.00    -0.291 N 
ATOM     43  H2  UNL     1      -4.311  14.631  57.080  1.00  0.00     0.188 HD
BRANCH  42  44
HETATM   44  N3  UNL     1      -2.813  13.347  57.781  1.00  0.00    -0.344 N 
ATOM     45  H32 UNL     1      -1.870  13.299  57.395  1.00  0.00     0.176 HD
ATOM     46  H31 UNL     1      -2.984  13.121  58.761  1.00  0.00     0.176 HD
ENDBRANCH  42  44
ENDBRANCH  38  42
ENDBRANCH   3  38
BRANCH  14  47
HETATM   47  N9  UNL     1      -7.794  11.723  59.053  1.00  0.00    -0.336 N 
ATOM     48  H92 UNL     1      -7.545  12.425  59.748  1.00  0.00     0.177 HD
ATOM     49  H91 UNL     1      -8.456  12.106  58.378  1.00  0.00     0.177 HD
ENDBRANCH  14  47
BRANCH  13  50
HETATM   50  S1  UNL     1      -8.499   9.522  61.363  1.00  0.00     0.290 S 
HETATM   51  O1  UNL     1      -7.622  10.048  62.474  1.00  0.00    -0.198 OA
HETATM   52  O2  UNL     1      -9.629  10.509  61.212  1.00  0.00    -0.198 OA
BRANCH  50  53
HETATM   53  N7  UNL     1      -9.188   8.008  61.768  1.00  0.00    -0.322 N 
ATOM     54  H72 UNL     1      -8.656   7.138  61.741  1.00  0.00     0.169 HD
ATOM     55  H71 UNL     1     -10.170   8.074  62.036  1.00  0.00     0.169 HD
ENDBRANCH  50  53
ENDBRANCH  13  50
TORSDOF 17
ENDMDL
MODEL 2
REMARK VINA RESULT: -7.070738594      0.384      1.016
REMARK  17 active torsions:
REMARK  status: ('A' for Active; 'I' for Inactive)
REMARK    1  A    between atoms: C3_3  and  C4_4 
REMARK    2  A    between atoms: C4_4  and  N1_5 
REMARK    3  A    between atoms: C4_4  and  N2_8 
REMARK    4  A    between atoms: N2_8  and  N3_10 
REMARK    5  A    between atoms: C8_22  and  S1_23 
REMARK    6  A    between atoms: S1_23  and  N7_24 
REMARK    7  A    between atoms: N8_29  and  N9_30 
REMARK    8  A    between atoms: N11_38  and  N12_39 
REMARK    9  A    between atoms: N12_39  and  C11_41 
REMARK   10  A    between atoms: C11_41  and  O3_42 
REMARK   11  A    between atoms: C11_41  and  N13_44 
REMARK   12  A    between atoms: N13_44  and  C12_46 
REMARK   13  A    between atoms: C12_46  and  O4_47 
REMARK   14  A    between atoms: C12_46  and  C13_49 
REMARK   15  A    between atoms: C13_49  and  C14_50 
REMARK   16  A    between atoms: C14_50  and  C15_51 
REMARK   17  A    between atoms: C15_51  and  N14_52 
ROOT
HETATM    1  C1  UNL     1      -2.107  11.467  54.385  1.00  0.00     0.074 C 
HETATM    2  C2  UNL     1      -3.232  10.830  55.109  1.00  0.00     0.080 A 
HETATM    3  C3  UNL     1      -4.281  11.484  55.728  1.00  0.00     0.128 A 
HETATM    4  N4  UNL     1      -4.996  10.495  56.276  1.00  0.00    -0.123 N 
HETATM    5  C5  UNL     1      -6.213  10.632  56.876  1.00  0.00     0.154 C 
HETATM    6  N5  UNL     1      -7.012  11.402  56.295  1.00  0.00    -0.383 N 
ATOM      7  H51 UNL     1      -7.922  11.504  56.743  1.00  0.00     0.157 HD
ATOM      8  H52 UNL     1      -6.721  11.906  55.458  1.00  0.00     0.157 HD
HETATM    9  C6  UNL     1      -6.605   9.955  58.002  1.00  0.00     0.133 A 
HETATM   10  C7  UNL     1      -6.249   8.652  58.360  1.00  0.00     0.106 A 
HETATM   11  N6  UNL     1      -6.867   8.407  59.509  1.00  0.00    -0.325 N 
ATOM     12  H6  UNL     1      -6.803   7.530  60.027  1.00  0.00     0.168 HD
HETATM   13  C8  UNL     1      -7.595   9.485  59.898  1.00  0.00     0.245 A 
HETATM   14  N8  UNL     1      -7.412  10.412  58.958  1.00  0.00    -0.229 N 
HETATM   15  C9  UNL     1      -5.426   7.773  57.676  1.00  0.00     0.145 C 
HETATM   16  S2  UNL     1      -5.166   6.320  58.368  1.00  0.00    -0.057 SA
HETATM   17  N10 UNL     1      -4.840   8.054  56.477  1.00  0.00    -0.177 N 
ATOM     18  H10 UNL     1      -4.697   7.265  55.846  1.00  0.00     0.185 HD
HETATM   19  C10 UNL     1      -4.421   9.279  56.025  1.00  0.00     0.713 A 
HETATM   20  N11 UNL     1      -3.326   9.471  55.295  1.00  0.00    -0.089 N 
ENDROOT
BRANCH  20  21
HETATM   21  N12 UNL     1      -2.424   8.557  54.747  1.00  0.00    -0.269 N 
ATOM     22  H12 UNL     1      -2.802   7.945  54.024  1.00  0.00     0.186 HD
BRANCH  21  23
HETATM   23  C11 UNL     1      -1.049   8.362  55.059  1.00  0.00     0.340 C 
BRANCH  23  24
HETATM   24  O3  UNL     1      -0.931   7.588  56.202  1.00  0.00    -0.359 OA
ATOM     25  H3  UNL     1      -1.488   7.936  56.887  1.00  0.00     0.214 HD
ENDBRANCH  23  24
BRANCH  23  26
HETATM   26  N13 UNL     1      -0.336   7.904  53.919  1.00  0.00    -0.354 N 
ATOM     27  H13 UNL     1       0.598   7.501  53.986  1.00  0.00     0.160 HD
BRANCH  26  28
HETATM   28  C12 UNL     1      -1.034   8.049  52.641  1.00  0.00     0.216 C 
BRANCH  28  29
HETATM   29  O4  UNL     1      -1.664   6.826  52.379  1.00  0.00    -0.377 OA
ATOM     30  H4  UNL     1      -1.055   6.304  51.870  1.00  0.00     0.212 HD
ENDBRANCH  28  29
BRANCH  28  31
HETATM   31  C13 UNL     1      -0.097   8.444  51.564  1.00  0.00     0.055 C 
BRANCH  31  32
HETATM   32  C14 UNL     1       0.217   9.899  51.556  1.00  0.00     0.031 C 
BRANCH  32  33
HETATM   33  C15 UNL     1       0.171  10.525  50.203  1.00  0.00     0.230 C 
BRANCH  33  34
HETATM   34  N14 UNL     1       1.416  10.291  49.530  1.00  0.00    -0.079 N 
ATOM     35 3H14 UNL     1       2.072   9.760  50.104  1.00  0.00     0.274 HD
ATOM     36 2H14 UNL     1       1.323   9.625  48.764  1.00  0.00     0.274 HD
ATOM     37 1H14 UNL     1       1.806  11.182  49.223  1.00  0.00     0.274 HD
ENDBRANCH  33  34
ENDBRANCH  32  33
ENDBRANCH  31  32
ENDBRANCH  28  31
ENDBRANCH  26  28
ENDBRANCH  23  26
ENDBRANCH  21  23
ENDBRANCH  20  21
BRANCH   3  38
HETATM   38  C4  UNL     1      -4.580  12.901  55.712  1.00  0.00     0.143 C 
BRANCH  38  39
HETATM   39  N1  UNL     1      -4.380  13.669  56.698  1.00  0.00    -0.383 N 
ATOM     40  H12 UNL     1      -4.571  14.643  56.462  1.00  0.00     0.157 HD
ATOM     41  H11 UNL     1      -4.193  13.335  57.643  1.00  0.00     0.157 HD
ENDBRANCH  38  39
BRANCH  38  42
HETATM   42  N2  UNL     1      -5.325  13.564  54.658  1.00  0.00    -0.291 N 
ATOM     43  H2  UNL     1      -6.111  14.167  54.900  1.00  0.00     0.188 HD
BRANCH  42  44
HETATM   44  N3  UNL     1      -4.981  13.387  53.319  1.00  0.00    -0.344 N 
ATOM     45  H32 UNL     1      -4.828  12.438  52.977  1.00  0.00     0.176 HD
ATOM     46  H31 UNL     1      -4.882  14.187  52.694  1.00  0.00     0.176 HD
ENDBRANCH  42  44
ENDBRANCH  38  42
ENDBRANCH   3  38
BRANCH  14  47
HETATM   47  N9  UNL     1      -7.975  11.692  58.963  1.00  0.00    -0.336 N 
ATOM     48  H92 UNL     1      -8.605  12.057  59.676  1.00  0.00     0.177 HD
ATOM     49  H91 UNL     1      -7.801  12.394  58.244  1.00  0.00     0.177 HD
ENDBRANCH  14  47
BRANCH  13  50
HETATM   50  S1  UNL     1      -8.543   9.536  61.352  1.00  0.00     0.290 S 
HETATM   51  O1  UNL     1      -7.663  10.076  62.455  1.00  0.00    -0.198 OA
HETATM   52  O2  UNL     1      -9.683  10.511  61.205  1.00  0.00    -0.198 OA
BRANCH  50  53
HETATM   53  N7  UNL     1      -9.214   8.018  61.770  1.00  0.00    -0.322 N 
ATOM     54  H72 UNL     1      -9.107   7.190  61.184  1.00  0.00     0.169 HD
ATOM     55  H71 UNL     1      -9.722   8.035  62.654  1.00  0.00     0.169 HD
ENDBRANCH  50  53
ENDBRANCH  13  50
TORSDOF 17
ENDMDL
MODEL 3
REMARK VINA RESULT: -6.982070181      2.520      8.017
REMARK  17 active torsions:
REMARK  status: ('A' for Active; 'I' for Inactive)
REMARK    1  A    between atoms: C3_3  and  C4_4 
REMARK    2  A    between atoms: C4_4  and  N1_5 
REMARK    3  A    between atoms: C4_4  and  N2_8 
REMARK    4  A    between atoms: N2_8  and  N3_10 
REMARK    5  A    between atoms: C8_22  and  S1_23 
REMARK    6  A    between atoms: S1_23  and  N7_24 
REMARK    7  A    between atoms: N8_29  and  N9_30 
REMARK    8  A    between atoms: N11_38  and  N12_39 
REMARK    9  A    between atoms: N12_39  and  C11_41 
REMARK   10  A    between atoms: C11_41  and  O3_42 
REMARK   11  A    between atoms: C11_41  and  N13_44 
REMARK   12  A    between atoms: N13_44  and  C12_46 
REMARK   13  A    between atoms: C12_46  and  O4_47 
REMARK   14  A    between atoms: C12_46  and  C13_49 
REMARK   15  A    between atoms: C13_49  and  C14_50 
REMARK   16  A    between atoms: C14_50  and  C15_51 
REMARK   17  A    between atoms: C15_51  and  N14_52 
ROOT
HETATM    1  C1  UNL     1      -5.971  15.102  56.226  1.00  0.00     0.074 C 
HETATM    2  C2  UNL     1      -5.116  13.891  56.186  1.00  0.00     0.080 A 
HETATM    3  C3  UNL     1      -3.960  13.731  55.446  1.00  0.00     0.128 A 
HETATM    4  N4  UNL     1      -3.589  12.471  55.701  1.00  0.00    -0.123 N 
HETATM    5  C5  UNL     1      -2.418  11.891  55.307  1.00  0.00     0.154 C 
HETATM    6  N5  UNL     1      -1.402  12.616  55.411  1.00  0.00    -0.383 N 
ATOM      7  H51 UNL     1      -0.527  12.183  55.118  1.00  0.00     0.157 HD
ATOM      8  H52 UNL     1      -1.490  13.580  55.732  1.00  0.00     0.157 HD
HETATM    9  C6  UNL     1      -2.299  10.595  54.876  1.00  0.00     0.133 A 
HETATM   10  C7  UNL     1      -3.033   9.494  55.327  1.00  0.00     0.106 A 
HETATM   11  N6  UNL     1      -2.575   8.449  54.649  1.00  0.00    -0.325 N 
ATOM     12  H6  UNL     1      -2.915   7.493  54.757  1.00  0.00     0.168 HD
HETATM   13  C8  UNL     1      -1.592   8.829  53.793  1.00  0.00     0.245 A 
HETATM   14  N8  UNL     1      -1.450  10.143  53.956  1.00  0.00    -0.229 N 
HETATM   15  C9  UNL     1      -4.033   9.467  56.284  1.00  0.00     0.145 C 
HETATM   16  S2  UNL     1      -4.735   8.025  56.573  1.00  0.00    -0.057 SA
HETATM   17  N10 UNL     1      -4.447  10.563  56.984  1.00  0.00    -0.177 N 
ATOM     18  H10 UNL     1      -4.774  10.395  57.935  1.00  0.00     0.185 HD
HETATM   19  C10 UNL     1      -4.473  11.864  56.551  1.00  0.00     0.713 A 
HETATM   20  N11 UNL     1      -5.425  12.736  56.866  1.00  0.00    -0.089 N 
ENDROOT
BRANCH  20  21
HETATM   21  N12 UNL     1      -6.519  12.621  57.726  1.00  0.00    -0.269 N 
ATOM     22  H12 UNL     1      -6.521  13.258  58.523  1.00  0.00     0.186 HD
BRANCH  21  23
HETATM   23  C11 UNL     1      -7.632  11.737  57.643  1.00  0.00     0.340 C 
BRANCH  23  24
HETATM   24  O3  UNL     1      -7.692  11.174  56.379  1.00  0.00    -0.359 OA
ATOM     25  H3  UNL     1      -8.561  10.826  56.221  1.00  0.00     0.214 HD
ENDBRANCH  23  24
BRANCH  23  26
HETATM   26  N13 UNL     1      -7.630  10.826  58.733  1.00  0.00    -0.354 N 
ATOM     27  H13 UNL     1      -7.496  11.130  59.697  1.00  0.00     0.160 HD
BRANCH  26  28
HETATM   28  C12 UNL     1      -7.833   9.421  58.379  1.00  0.00     0.216 C 
BRANCH  28  29
HETATM   29  O4  UNL     1      -9.131   9.314  57.866  1.00  0.00    -0.377 OA
ATOM     30  H4  UNL     1      -9.636   8.812  58.494  1.00  0.00     0.212 HD
ENDBRANCH  28  29
BRANCH  28  31
HETATM   31  C13 UNL     1      -7.612   8.540  59.549  1.00  0.00     0.055 C 
BRANCH  31  32
HETATM   32  C14 UNL     1      -7.682   7.090  59.220  1.00  0.00     0.031 C 
BRANCH  32  33
HETATM   33  C15 UNL     1      -8.746   6.348  59.956  1.00  0.00     0.230 C 
BRANCH  33  34
HETATM   34  N14 UNL     1     -10.000   7.026  59.786  1.00  0.00    -0.079 N 
ATOM     35 3H14 UNL     1      -9.952   8.004  60.071  1.00  0.00     0.274 HD
ATOM     36 2H14 UNL     1     -10.230   7.173  58.804  1.00  0.00     0.274 HD
ATOM     37 1H14 UNL     1     -10.729   6.514  60.282  1.00  0.00     0.274 HD
ENDBRANCH  33  34
ENDBRANCH  32  33
ENDBRANCH  31  32
ENDBRANCH  28  31
ENDBRANCH  26  28
ENDBRANCH  23  26
ENDBRANCH  21  23
ENDBRANCH  20  21
BRANCH   3  38
HETATM   38  C4  UNL     1      -3.268  14.722  54.649  1.00  0.00     0.143 C 
BRANCH  38  39
HETATM   39  N1  UNL     1      -3.201  14.682  53.386  1.00  0.00    -0.383 N 
ATOM     40  H12 UNL     1      -2.272  14.409  53.066  1.00  0.00     0.157 HD
ATOM     41  H11 UNL     1      -4.013  14.771  52.776  1.00  0.00     0.157 HD
ENDBRANCH  38  39
BRANCH  38  42
HETATM   42  N2  UNL     1      -2.406  15.751  55.200  1.00  0.00    -0.291 N 
ATOM     43  H2  UNL     1      -2.056  16.492  54.592  1.00  0.00     0.188 HD
BRANCH  42  44
HETATM   44  N3  UNL     1      -2.051  15.741  56.547  1.00  0.00    -0.344 N 
ATOM     45  H32 UNL     1      -2.283  14.920  57.106  1.00  0.00     0.176 HD
ATOM     46  H31 UNL     1      -1.570  16.537  56.969  1.00  0.00     0.176 HD
ENDBRANCH  42  44
ENDBRANCH  38  42
ENDBRANCH   3  38
BRANCH  14  47
HETATM   47  N9  UNL     1      -0.546  10.952  53.260  1.00  0.00    -0.336 N 
ATOM     48  H92 UNL     1       0.321  11.331  53.641  1.00  0.00     0.177 HD
ATOM     49  H91 UNL     1      -0.667  11.240  52.289  1.00  0.00     0.177 HD
ENDBRANCH  14  47
BRANCH  13  50
HETATM   50  S1  UNL     1      -0.750   7.732  52.741  1.00  0.00     0.290 S 
HETATM   51  O1  UNL     1       0.344   7.074  53.547  1.00  0.00    -0.198 OA
HETATM   52  O2  UNL     1      -1.668   6.625  52.290  1.00  0.00    -0.198 OA
BRANCH  50  53
HETATM   53  N7  UNL     1      -0.128   8.491  51.339  1.00  0.00    -0.322 N 
ATOM     54  H72 UNL     1       0.832   8.828  51.277  1.00  0.00     0.169 HD
ATOM     55  H71 UNL     1      -0.814   8.566  50.587  1.00  0.00     0.169 HD
ENDBRANCH  50  53
ENDBRANCH  13  50
TORSDOF 17
ENDMDL
MODEL 4
REMARK VINA RESULT: -6.923480727      2.460      8.049
REMARK  17 active torsions:
REMARK  status: ('A' for Active; 'I' for Inactive)
REMARK    1  A    between atoms: C3_3  and  C4_4 
REMARK    2  A    between atoms: C4_4  and  N1_5 
REMARK    3  A    between atoms: C4_4  and  N2_8 
REMARK    4  A    between atoms: N2_8  and  N3_10 
REMARK    5  A    between atoms: C8_22  and  S1_23 
REMARK    6  A    between atoms: S1_23  and  N7_24 
REMARK    7  A    between atoms: N8_29  and  N9_30 
REMARK    8  A    between atoms: N11_38  and  N12_39 
REMARK    9  A    between atoms: N12_39  and  C11_41 
REMARK   10  A    between atoms: C11_41  and  O3_42 
REMARK   11  A    between atoms: C11_41  and  N13_44 
REMARK   12  A    between atoms: N13_44  and  C12_46 
REMARK   13  A    between atoms: C12_46  and  O4_47 
REMARK   14  A    between atoms: C12_46  and  C13_49 
REMARK   15  A    between atoms: C13_49  and  C14_50 
REMARK   16  A    between atoms: C14_50  and  C15_51 
REMARK   17  A    between atoms: C15_51  and  N14_52 
ROOT
HETATM    1  C1  UNL     1      -6.479  14.964  56.158  1.00  0.00     0.074 C 
HETATM    2  C2  UNL     1      -5.545  13.812  56.145  1.00  0.00     0.080 A 
HETATM    3  C3  UNL     1      -4.393  13.703  55.388  1.00  0.00     0.128 A 
HETATM    4  N4  UNL     1      -3.933  12.481  55.681  1.00  0.00    -0.123 N 
HETATM    5  C5  UNL     1      -2.733  11.968  55.286  1.00  0.00     0.154 C 
HETATM    6  N5  UNL     1      -1.766  12.762  55.344  1.00  0.00    -0.383 N 
ATOM      7  H51 UNL     1      -0.869  12.379  55.050  1.00  0.00     0.157 HD
ATOM      8  H52 UNL     1      -1.914  13.729  55.632  1.00  0.00     0.157 HD
HETATM    9  C6  UNL     1      -2.533  10.668  54.899  1.00  0.00     0.133 A 
HETATM   10  C7  UNL     1      -3.182   9.537  55.403  1.00  0.00     0.106 A 
HETATM   11  N6  UNL     1      -2.666   8.501  54.754  1.00  0.00    -0.325 N 
ATOM     12  H6  UNL     1      -2.938   7.529  54.903  1.00  0.00     0.168 HD
HETATM   13  C8  UNL     1      -1.726   8.914  53.866  1.00  0.00     0.245 A 
HETATM   14  N8  UNL     1      -1.670  10.240  53.979  1.00  0.00    -0.229 N 
HETATM   15  C9  UNL     1      -4.162   9.478  56.379  1.00  0.00     0.145 C 
HETATM   16  S2  UNL     1      -4.760   8.003  56.734  1.00  0.00    -0.057 SA
HETATM   17  N10 UNL     1      -4.638  10.568  57.047  1.00  0.00    -0.177 N 
ATOM     18  H10 UNL     1      -4.937  10.415  58.010  1.00  0.00     0.185 HD
HETATM   19  C10 UNL     1      -4.760  11.848  56.569  1.00  0.00     0.713 A 
HETATM   20  N11 UNL     1      -5.763  12.666  56.871  1.00  0.00    -0.089 N 
ENDROOT
BRANCH  20  21
HETATM   21  N12 UNL     1      -6.832  12.509  57.756  1.00  0.00    -0.269 N 
ATOM     22  H12 UNL     1      -6.880  13.189  58.514  1.00  0.00     0.186 HD
BRANCH  21  23
HETATM   23  C11 UNL     1      -7.865  11.529  57.744  1.00  0.00     0.340 C 
BRANCH  23  24
HETATM   24  O3  UNL     1      -7.977  10.978  56.478  1.00  0.00    -0.359 OA
ATOM     25  H3  UNL     1      -8.845  11.143  56.130  1.00  0.00     0.214 HD
ENDBRANCH  23  24
BRANCH  23  26
HETATM   26  N13 UNL     1      -7.693  10.609  58.813  1.00  0.00    -0.354 N 
ATOM     27  H13 UNL     1      -7.371  10.899  59.736  1.00  0.00     0.160 HD
BRANCH  26  28
HETATM   28  C12 UNL     1      -8.010   9.215  58.499  1.00  0.00     0.216 C 
BRANCH  28  29
HETATM   29  O4  UNL     1      -9.403   9.129  58.384  1.00  0.00    -0.377 OA
ATOM     30  H4  UNL     1      -9.596   8.990  57.465  1.00  0.00     0.212 HD
ENDBRANCH  28  29
BRANCH  28  31
HETATM   31  C13 UNL     1      -7.470   8.301  59.532  1.00  0.00     0.055 C 
BRANCH  31  32
HETATM   32  C14 UNL     1      -7.514   6.867  59.136  1.00  0.00     0.031 C 
BRANCH  32  33
HETATM   33  C15 UNL     1      -8.455   6.040  59.945  1.00  0.00     0.230 C 
BRANCH  33  34
HETATM   34  N14 UNL     1      -9.161   6.887  60.863  1.00  0.00    -0.079 N 
ATOM     35 3H14 UNL     1      -8.742   7.814  60.935  1.00  0.00     0.274 HD
ATOM     36 2H14 UNL     1     -10.074   7.167  60.507  1.00  0.00     0.274 HD
ATOM     37 1H14 UNL     1      -9.225   6.422  61.769  1.00  0.00     0.274 HD
ENDBRANCH  33  34
ENDBRANCH  32  33
ENDBRANCH  31  32
ENDBRANCH  28  31
ENDBRANCH  26  28
ENDBRANCH  23  26
ENDBRANCH  21  23
ENDBRANCH  20  21
BRANCH   3  38
HETATM   38  C4  UNL     1      -3.783  14.709  54.543  1.00  0.00     0.143 C 
BRANCH  38  39
HETATM   39  N1  UNL     1      -3.228  15.754  54.990  1.00  0.00    -0.383 N 
ATOM     40  H12 UNL     1      -3.844  16.269  55.620  1.00  0.00     0.157 HD
ATOM     41  H11 UNL     1      -2.241  15.971  54.850  1.00  0.00     0.157 HD
ENDBRANCH  38  39
BRANCH  38  42
HETATM   42  N2  UNL     1      -3.914  14.746  53.099  1.00  0.00    -0.291 N 
ATOM     43  H2  UNL     1      -4.241  15.599  52.645  1.00  0.00     0.188 HD
BRANCH  42  44
HETATM   44  N3  UNL     1      -3.599  13.632  52.323  1.00  0.00    -0.344 N 
ATOM     45  H32 UNL     1      -3.271  12.788  52.793  1.00  0.00     0.176 HD
ATOM     46  H31 UNL     1      -3.692  13.657  51.307  1.00  0.00     0.176 HD
ENDBRANCH  42  44
ENDBRANCH  38  42
ENDBRANCH   3  38
BRANCH  14  47
HETATM   47  N9  UNL     1      -0.835  11.082  53.238  1.00  0.00    -0.336 N 
ATOM     48  H92 UNL     1      -1.140  11.715  52.500  1.00  0.00     0.177 HD
ATOM     49  H91 UNL     1       0.174  11.148  53.373  1.00  0.00     0.177 HD
ENDBRANCH  14  47
BRANCH  13  50
HETATM   50  S1  UNL     1      -0.829   7.839  52.839  1.00  0.00     0.290 S 
HETATM   51  O1  UNL     1       0.202   7.141  53.694  1.00  0.00    -0.198 OA
HETATM   52  O2  UNL     1      -1.727   6.757  52.294  1.00  0.00    -0.198 OA
BRANCH  50  53
HETATM   53  N7  UNL     1      -0.107   8.631  51.504  1.00  0.00    -0.322 N 
ATOM     54  H72 UNL     1       0.832   9.026  51.543  1.00  0.00     0.169 HD
ATOM     55  H71 UNL     1      -0.711   8.661  50.683  1.00  0.00     0.169 HD
ENDBRANCH  50  53
ENDBRANCH  13  50
TORSDOF 17
ENDMDL
MODEL 5
REMARK VINA RESULT: -6.791216181      2.425      8.044
REMARK  17 active torsions:
REMARK  status: ('A' for Active; 'I' for Inactive)
REMARK    1  A    between atoms: C3_3  and  C4_4 
REMARK    2  A    between atoms: C4_4  and  N1_5 
REMARK    3  A    between atoms: C4_4  and  N2_8 
REMARK    4  A    between atoms: N2_8  and  N3_10 
REMARK    5  A    between atoms: C8_22  and  S1_23 
REMARK    6  A    between atoms: S1_23  and  N7_24 
REMARK    7  A    between atoms: N8_29  and  N9_30 
REMARK    8  A    between atoms: N11_38  and  N12_39 
REMARK    9  A    between atoms: N12_39  and  C11_41 
REMARK   10  A    between atoms: C11_41  and  O3_42 
REMARK   11  A    between atoms: C11_41  and  N13_44 
REMARK   12  A    between atoms: N13_44  and  C12_46 
REMARK   13  A    between atoms: C12_46  and  O4_47 
REMARK   14  A    between atoms: C12_46  and  C13_49 
REMARK   15  A    between atoms: C13_49  and  C14_50 
REMARK   16  A    between atoms: C14_50  and  C15_51 
REMARK   17  A    between atoms: C15_51  and  N14_52 
ROOT
HETATM    1  C1  UNL     1      -5.979  15.077  56.407  1.00  0.00     0.074 C 
HETATM    2  C2  UNL     1      -5.108  13.880  56.334  1.00  0.00     0.080 A 
HETATM    3  C3  UNL     1      -3.980  13.737  55.547  1.00  0.00     0.128 A 
HETATM    4  N4  UNL     1      -3.579  12.483  55.789  1.00  0.00    -0.123 N 
HETATM    5  C5  UNL     1      -2.416  11.922  55.349  1.00  0.00     0.154 C 
HETATM    6  N5  UNL     1      -1.408  12.663  55.410  1.00  0.00    -0.383 N 
ATOM      7  H51 UNL     1      -0.539  12.243  55.082  1.00  0.00     0.157 HD
ATOM      8  H52 UNL     1      -1.499  13.626  55.732  1.00  0.00     0.157 HD
HETATM    9  C6  UNL     1      -2.294  10.627  54.916  1.00  0.00     0.133 A 
HETATM   10  C7  UNL     1      -2.991   9.515  55.398  1.00  0.00     0.106 A 
HETATM   11  N6  UNL     1      -2.545   8.476  54.704  1.00  0.00    -0.325 N 
ATOM     12  H6  UNL     1      -2.864   7.515  54.827  1.00  0.00     0.168 HD
HETATM   13  C8  UNL     1      -1.604   8.869  53.807  1.00  0.00     0.245 A 
HETATM   14  N8  UNL     1      -1.476  10.186  53.962  1.00  0.00    -0.229 N 
HETATM   15  C9  UNL     1      -3.951   9.475  56.395  1.00  0.00     0.145 C 
HETATM   16  S2  UNL     1      -4.618   8.022  56.715  1.00  0.00    -0.057 SA
HETATM   17  N10 UNL     1      -4.354  10.565  57.109  1.00  0.00    -0.177 N 
ATOM     18  H10 UNL     1      -4.639  10.394  58.073  1.00  0.00     0.185 HD
HETATM   19  C10 UNL     1      -4.418  11.864  56.676  1.00  0.00     0.713 A 
HETATM   20  N11 UNL     1      -5.370  12.722  57.028  1.00  0.00    -0.089 N 
ENDROOT
BRANCH  20  21
HETATM   21  N12 UNL     1      -6.426  12.592  57.932  1.00  0.00    -0.269 N 
ATOM     22  H12 UNL     1      -7.358  12.733  57.544  1.00  0.00     0.186 HD
BRANCH  21  23
HETATM   23  C11 UNL     1      -6.380  12.289  59.322  1.00  0.00     0.340 C 
BRANCH  23  24
HETATM   24  O3  UNL     1      -6.346  13.462  60.059  1.00  0.00    -0.359 OA
ATOM     25  H3  UNL     1      -5.446  13.735  60.190  1.00  0.00     0.214 HD
ENDBRANCH  23  24
BRANCH  23  26
HETATM   26  N13 UNL     1      -7.402  11.365  59.668  1.00  0.00    -0.354 N 
ATOM     27  H13 UNL     1      -8.364  11.656  59.841  1.00  0.00     0.160 HD
BRANCH  26  28
HETATM   28  C12 UNL     1      -6.982   9.967  59.758  1.00  0.00     0.216 C 
BRANCH  28  29
HETATM   29  O4  UNL     1      -5.584   9.955  59.681  1.00  0.00    -0.377 OA
ATOM     30  H4  UNL     1      -5.347  10.411  58.882  1.00  0.00     0.212 HD
ENDBRANCH  28  29
BRANCH  28  31
HETATM   31  C13 UNL     1      -7.614   9.150  58.696  1.00  0.00     0.055 C 
BRANCH  31  32
HETATM   32  C14 UNL     1      -7.912   7.755  59.119  1.00  0.00     0.031 C 
BRANCH  32  33
HETATM   33  C15 UNL     1      -9.256   7.580  59.741  1.00  0.00     0.230 C 
BRANCH  33  34
HETATM   34  N14 UNL     1      -9.124   6.812  60.946  1.00  0.00    -0.079 N 
ATOM     35 3H14 UNL     1      -8.733   5.886  60.773  1.00  0.00     0.274 HD
ATOM     36 2H14 UNL     1      -8.388   7.169  61.553  1.00  0.00     0.274 HD
ATOM     37 1H14 UNL     1     -10.028   6.767  61.417  1.00  0.00     0.274 HD
ENDBRANCH  33  34
ENDBRANCH  32  33
ENDBRANCH  31  32
ENDBRANCH  28  31
ENDBRANCH  26  28
ENDBRANCH  23  26
ENDBRANCH  21  23
ENDBRANCH  20  21
BRANCH   3  38
HETATM   38  C4  UNL     1      -3.337  14.737  54.721  1.00  0.00     0.143 C 
BRANCH  38  39
HETATM   39  N1  UNL     1      -3.280  14.670  53.459  1.00  0.00    -0.383 N 
ATOM     40  H12 UNL     1      -3.610  13.769  53.113  1.00  0.00     0.157 HD
ATOM     41  H11 UNL     1      -3.067  15.469  52.862  1.00  0.00     0.157 HD
ENDBRANCH  38  39
BRANCH  38  42
HETATM   42  N2  UNL     1      -2.514  15.814  55.240  1.00  0.00    -0.291 N 
ATOM     43  H2  UNL     1      -2.308  16.619  54.649  1.00  0.00     0.188 HD
BRANCH  42  44
HETATM   44  N3  UNL     1      -2.001  15.762  56.535  1.00  0.00    -0.344 N 
ATOM     45  H32 UNL     1      -2.029  16.608  57.104  1.00  0.00     0.176 HD
ATOM     46  H31 UNL     1      -1.606  14.898  56.907  1.00  0.00     0.176 HD
ENDBRANCH  42  44
ENDBRANCH  38  42
ENDBRANCH   3  38
BRANCH  14  47
HETATM   47  N9  UNL     1      -0.614  11.008  53.229  1.00  0.00    -0.336 N 
ATOM     48  H92 UNL     1      -0.061  11.775  53.612  1.00  0.00     0.177 HD
ATOM     49  H91 UNL     1      -0.449  10.913  52.227  1.00  0.00     0.177 HD
ENDBRANCH  14  47
BRANCH  13  50
HETATM   50  S1  UNL     1      -0.788   7.784  52.724  1.00  0.00     0.290 S 
HETATM   51  O1  UNL     1       0.259   7.043  53.521  1.00  0.00    -0.198 OA
HETATM   52  O2  UNL     1      -1.743   6.739  52.206  1.00  0.00    -0.198 OA
BRANCH  50  53
HETATM   53  N7  UNL     1      -0.104   8.575  51.370  1.00  0.00    -0.322 N 
ATOM     54  H72 UNL     1      -0.669   8.937  50.601  1.00  0.00     0.169 HD
ATOM     55  H71 UNL     1       0.913   8.643  51.417  1.00  0.00     0.169 HD
ENDBRANCH  50  53
ENDBRANCH  13  50
TORSDOF 17
ENDMDL
