MODEL 1
REMARK VINA RESULT: -6.417396187      0.000      0.000
REMARK  16 active torsions:
REMARK  status: ('A' for Active; 'I' for Inactive)
REMARK    1  A    between atoms: N1_2  and  C2_4 
REMARK    2  A    between atoms: C3_5  and  O1_6 
REMARK    3  A    between atoms: C6_11  and  O3_12 
REMARK    4  A    between atoms: O3_12  and  C7_13 
REMARK    5  A    between atoms: N2_18  and  O5_20 
REMARK    6  A    between atoms: C11_23  and  N3_24 
REMARK    7  A    between atoms: C12_26  and  C13_27 
REMARK    8  A    between atoms: C12_26  and  C15_31 
REMARK    9  A    between atoms: C13_27  and  O7_29 
REMARK   10  A    between atoms: C15_31  and  O8_32 
REMARK   11  A    between atoms: C15_31  and  C16_34 
REMARK   12  A    between atoms: C16_34  and  O9_35 
REMARK   13  A    between atoms: C17_38  and  C18_39 
REMARK   14  A    between atoms: C18_39  and  O11_40 
REMARK   15  A    between atoms: C19_42  and  O12_43 
REMARK   16  A    between atoms: C20_45  and  O13_46 
ROOT
HETATM    1  C7  UNL     1      -5.321   8.109  57.413  1.00  0.00     0.298 C 
HETATM    2  O4  UNL     1      -5.606   9.346  57.904  1.00  0.00    -0.317 OA
HETATM    3  C8  UNL     1      -5.823   9.553  59.209  1.00  0.00     0.225 C 
HETATM    4  C9  UNL     1      -4.690   9.568  60.186  1.00  0.00     0.160 C 
HETATM    5  C10 UNL     1      -4.910  11.018  60.425  1.00  0.00     0.146 C 
HETATM    6  N2  UNL     1      -4.470  11.930  61.226  1.00  0.00    -0.251 N 
ATOM      7  H2  UNL     1      -4.809  12.890  61.167  1.00  0.00     0.196 HD
HETATM    8  O6  UNL     1      -5.810  10.991  59.402  1.00  0.00    -0.295 OA
HETATM    9  C11 UNL     1      -7.137   8.944  59.760  1.00  0.00     0.285 C 
HETATM   10  O10 UNL     1      -7.527   8.021  58.794  1.00  0.00    -0.351 OA
HETATM   11  C17 UNL     1      -6.878   6.853  58.717  1.00  0.00     0.181 C 
HETATM   12  C19 UNL     1      -5.391   6.984  58.382  1.00  0.00     0.204 C 
ENDROOT
BRANCH   1  13
HETATM   13  O3  UNL     1      -4.178   8.089  56.601  1.00  0.00    -0.326 OA
BRANCH  13  14
HETATM   14  C6  UNL     1      -3.518   9.313  56.543  1.00  0.00     0.294 C 
HETATM   15  O2  UNL     1      -2.131   9.130  56.458  1.00  0.00    -0.351 OA
HETATM   16  C4  UNL     1      -1.899   8.645  55.149  1.00  0.00     0.151 C 
HETATM   17  C3  UNL     1      -1.848   9.838  54.199  1.00  0.00     0.171 C 
HETATM   18  C5  UNL     1      -0.569   7.966  55.150  1.00  0.00     0.042 C 
HETATM   19  C2  UNL     1      -2.699  10.906  54.844  1.00  0.00     0.141 C 
HETATM   20  C20 UNL     1      -3.937  10.195  55.410  1.00  0.00     0.198 C 
BRANCH  17  21
HETATM   21  O1  UNL     1      -0.545  10.258  53.991  1.00  0.00    -0.391 OA
ATOM     22  H1  UNL     1      -0.340  10.356  53.069  1.00  0.00     0.210 HD
ENDBRANCH  17  21
BRANCH  19  23
HETATM   23  N1  UNL     1      -3.086  11.862  53.857  1.00  0.00    -0.416 N 
HETATM   24  C1  UNL     1      -2.469  13.153  53.969  1.00  0.00     0.140 C 
ATOM     25  H1  UNL     1      -3.757  11.642  53.120  1.00  0.00     0.153 HD
ENDBRANCH  19  23
BRANCH  20  26
HETATM   26  O13 UNL     1      -4.747  11.274  55.849  1.00  0.00    -0.388 OA
ATOM     27  H13 UNL     1      -5.515  10.835  56.194  1.00  0.00     0.210 HD
ENDBRANCH  20  26
ENDBRANCH  13  14
ENDBRANCH   1  13
BRANCH  12  28
HETATM   28  O12 UNL     1      -5.018   5.782  57.806  1.00  0.00    -0.388 OA
ATOM     29  H12 UNL     1      -5.041   5.067  58.431  1.00  0.00     0.210 HD
ENDBRANCH  12  28
BRANCH  11  30
HETATM   30  C18 UNL     1      -6.987   5.875  59.826  1.00  0.00     0.199 C 
BRANCH  30  31
HETATM   31  O11 UNL     1      -7.317   4.588  59.376  1.00  0.00    -0.398 OA
ATOM     32  H11 UNL     1      -6.746   3.919  59.737  1.00  0.00     0.209 HD
ENDBRANCH  30  31
ENDBRANCH  11  30
BRANCH   9  33
HETATM   33  N3  UNL     1      -8.018   9.973  59.983  1.00  0.00    -0.362 N 
HETATM   34  C12 UNL     1      -9.174  10.376  59.451  1.00  0.00     0.044 C 
ATOM     35  H3  UNL     1      -7.713  10.581  60.744  1.00  0.00     0.162 HD
BRANCH  34  36
HETATM   36  C13 UNL     1      -9.304  10.775  57.999  1.00  0.00     0.162 C 
HETATM   37  C14 UNL     1     -10.283   9.989  57.198  1.00  0.00     0.045 C 
BRANCH  36  38
HETATM   38  O7  UNL     1      -8.059  10.894  57.376  1.00  0.00    -0.390 OA
ATOM     39  H7  UNL     1      -8.016  10.394  56.570  1.00  0.00     0.210 HD
ENDBRANCH  36  38
ENDBRANCH  34  36
BRANCH  34  40
HETATM   40  C15 UNL     1     -10.489   9.797  59.876  1.00  0.00     0.189 C 
BRANCH  40  41
HETATM   41  O8  UNL     1     -11.285  10.722  60.604  1.00  0.00    -0.388 OA
ATOM     42  H8  UNL     1     -12.144  10.848  60.219  1.00  0.00     0.210 HD
ENDBRANCH  40  41
BRANCH  40  43
HETATM   43  C16 UNL     1     -10.532   8.530  60.609  1.00  0.00     0.201 C 
BRANCH  43  44
HETATM   44  O9  UNL     1     -10.232   7.379  59.937  1.00  0.00    -0.398 OA
ATOM     45  H9  UNL     1      -9.323   7.106  59.890  1.00  0.00     0.209 HD
ENDBRANCH  43  44
ENDBRANCH  40  43
ENDBRANCH  34  40
ENDBRANCH   9  33
BRANCH   6  46
HETATM   46  O5  UNL     1      -3.528  11.564  62.164  1.00  0.00    -0.288 OA
ATOM     47  H5  UNL     1      -3.724  10.825  62.727  1.00  0.00     0.244 HD
ENDBRANCH   6  46
TORSDOF 16
ENDMDL
MODEL 2
REMARK VINA RESULT: -6.297781472      1.382      2.230
REMARK  16 active torsions:
REMARK  status: ('A' for Active; 'I' for Inactive)
REMARK    1  A    between atoms: N1_2  and  C2_4 
REMARK    2  A    between atoms: C3_5  and  O1_6 
REMARK    3  A    between atoms: C6_11  and  O3_12 
REMARK    4  A    between atoms: O3_12  and  C7_13 
REMARK    5  A    between atoms: N2_18  and  O5_20 
REMARK    6  A    between atoms: C11_23  and  N3_24 
REMARK    7  A    between atoms: C12_26  and  C13_27 
REMARK    8  A    between atoms: C12_26  and  C15_31 
REMARK    9  A    between atoms: C13_27  and  O7_29 
REMARK   10  A    between atoms: C15_31  and  O8_32 
REMARK   11  A    between atoms: C15_31  and  C16_34 
REMARK   12  A    between atoms: C16_34  and  O9_35 
REMARK   13  A    between atoms: C17_38  and  C18_39 
REMARK   14  A    between atoms: C18_39  and  O11_40 
REMARK   15  A    between atoms: C19_42  and  O12_43 
REMARK   16  A    between atoms: C20_45  and  O13_46 
ROOT
HETATM    1  C7  UNL     1      -5.634   8.075  57.387  1.00  0.00     0.298 C 
HETATM    2  O4  UNL     1      -5.978   9.274  57.928  1.00  0.00    -0.317 OA
HETATM    3  C8  UNL     1      -6.128   9.435  59.250  1.00  0.00     0.225 C 
HETATM    4  C9  UNL     1      -4.940   9.513  60.156  1.00  0.00     0.160 C 
HETATM    5  C10 UNL     1      -5.251  10.936  60.448  1.00  0.00     0.146 C 
HETATM    6  N2  UNL     1      -4.830  11.860  61.245  1.00  0.00    -0.251 N 
ATOM      7  H2  UNL     1      -5.243  12.793  61.233  1.00  0.00     0.196 HD
HETATM    8  O6  UNL     1      -6.209  10.864  59.481  1.00  0.00    -0.295 OA
HETATM    9  C11 UNL     1      -7.355   8.715  59.863  1.00  0.00     0.285 C 
HETATM   10  O10 UNL     1      -7.736   7.788  58.897  1.00  0.00    -0.351 OA
HETATM   11  C17 UNL     1      -7.008   6.675  58.749  1.00  0.00     0.181 C 
HETATM   12  C19 UNL     1      -5.558   6.925  58.327  1.00  0.00     0.204 C 
ENDROOT
BRANCH   1  13
HETATM   13  O3  UNL     1      -4.546   8.160  56.506  1.00  0.00    -0.326 OA
BRANCH  13  14
HETATM   14  C6  UNL     1      -3.896   9.389  56.546  1.00  0.00     0.294 C 
HETATM   15  O2  UNL     1      -2.510   9.220  56.675  1.00  0.00    -0.351 OA
HETATM   16  C4  UNL     1      -2.077   8.735  55.418  1.00  0.00     0.151 C 
HETATM   17  C3  UNL     1      -1.893   9.927  54.484  1.00  0.00     0.171 C 
HETATM   18  C5  UNL     1      -0.757   8.069  55.625  1.00  0.00     0.042 C 
HETATM   19  C2  UNL     1      -2.841  10.988  54.988  1.00  0.00     0.141 C 
HETATM   20  C20 UNL     1      -4.145  10.266  55.361  1.00  0.00     0.198 C 
BRANCH  17  21
HETATM   21  O1  UNL     1      -0.577  10.359  54.476  1.00  0.00    -0.391 OA
ATOM     22  H1  UNL     1      -0.015   9.795  53.957  1.00  0.00     0.210 HD
ENDBRANCH  17  21
BRANCH  19  23
HETATM   23  N1  UNL     1      -3.082  11.939  53.950  1.00  0.00    -0.416 N 
HETATM   24  C1  UNL     1      -2.495  13.233  54.149  1.00  0.00     0.140 C 
ATOM     25  H1  UNL     1      -3.634  11.713  53.123  1.00  0.00     0.153 HD
ENDBRANCH  19  23
BRANCH  20  26
HETATM   26  O13 UNL     1      -5.022  11.338  55.667  1.00  0.00    -0.388 OA
ATOM     27  H13 UNL     1      -5.380  11.084  56.510  1.00  0.00     0.210 HD
ENDBRANCH  20  26
ENDBRANCH  13  14
ENDBRANCH   1  13
BRANCH  12  28
HETATM   28  O12 UNL     1      -5.134   5.769  57.697  1.00  0.00    -0.388 OA
ATOM     29  H12 UNL     1      -4.570   5.955  56.956  1.00  0.00     0.210 HD
ENDBRANCH  12  28
BRANCH  11  30
HETATM   30  C18 UNL     1      -6.974   5.666  59.835  1.00  0.00     0.199 C 
BRANCH  30  31
HETATM   31  O11 UNL     1      -7.333   4.385  59.389  1.00  0.00    -0.398 OA
ATOM     32  H11 UNL     1      -8.104   4.049  59.832  1.00  0.00     0.209 HD
ENDBRANCH  30  31
ENDBRANCH  11  30
BRANCH   9  33
HETATM   33  N3  UNL     1      -8.295   9.669  60.167  1.00  0.00    -0.362 N 
HETATM   34  C12 UNL     1      -9.033   9.979  61.235  1.00  0.00     0.044 C 
ATOM     35  H3  UNL     1      -8.472  10.297  59.383  1.00  0.00     0.162 HD
BRANCH  34  36
HETATM   36  C13 UNL     1     -10.030   9.017  61.839  1.00  0.00     0.162 C 
HETATM   37  C14 UNL     1     -10.963   9.599  62.844  1.00  0.00     0.045 C 
BRANCH  36  38
HETATM   38  O7  UNL     1      -9.420   7.839  62.278  1.00  0.00    -0.390 OA
ATOM     39  H7  UNL     1      -9.962   7.368  62.900  1.00  0.00     0.210 HD
ENDBRANCH  36  38
ENDBRANCH  34  36
BRANCH  34  40
HETATM   40  C15 UNL     1      -8.504  10.833  62.347  1.00  0.00     0.189 C 
BRANCH  40  41
HETATM   41  O8  UNL     1      -8.009  12.084  61.887  1.00  0.00    -0.388 OA
ATOM     42  H8  UNL     1      -7.297  11.989  61.265  1.00  0.00     0.210 HD
ENDBRANCH  40  41
BRANCH  40  43
HETATM   43  C16 UNL     1      -7.508  10.297  63.276  1.00  0.00     0.201 C 
BRANCH  43  44
HETATM   44  O9  UNL     1      -6.464  11.097  63.644  1.00  0.00    -0.398 OA
ATOM     45  H9  UNL     1      -6.630  12.023  63.781  1.00  0.00     0.209 HD
ENDBRANCH  43  44
ENDBRANCH  40  43
ENDBRANCH  34  40
ENDBRANCH   9  33
BRANCH   6  46
HETATM   46  O5  UNL     1      -3.807  11.547  62.113  1.00  0.00    -0.288 OA
ATOM     47  H5  UNL     1      -4.029  11.091  62.916  1.00  0.00     0.244 HD
ENDBRANCH   6  46
TORSDOF 16
ENDMDL
MODEL 3
REMARK VINA RESULT: -6.135151094      3.370      8.416
REMARK  16 active torsions:
REMARK  status: ('A' for Active; 'I' for Inactive)
REMARK    1  A    between atoms: N1_2  and  C2_4 
REMARK    2  A    between atoms: C3_5  and  O1_6 
REMARK    3  A    between atoms: C6_11  and  O3_12 
REMARK    4  A    between atoms: O3_12  and  C7_13 
REMARK    5  A    between atoms: N2_18  and  O5_20 
REMARK    6  A    between atoms: C11_23  and  N3_24 
REMARK    7  A    between atoms: C12_26  and  C13_27 
REMARK    8  A    between atoms: C12_26  and  C15_31 
REMARK    9  A    between atoms: C13_27  and  O7_29 
REMARK   10  A    between atoms: C15_31  and  O8_32 
REMARK   11  A    between atoms: C15_31  and  C16_34 
REMARK   12  A    between atoms: C16_34  and  O9_35 
REMARK   13  A    between atoms: C17_38  and  C18_39 
REMARK   14  A    between atoms: C18_39  and  O11_40 
REMARK   15  A    between atoms: C19_42  and  O12_43 
REMARK   16  A    between atoms: C20_45  and  O13_46 
ROOT
HETATM    1  C7  UNL     1      -5.362  12.926  54.722  1.00  0.00     0.298 C 
HETATM    2  O4  UNL     1      -5.178  11.581  54.620  1.00  0.00    -0.317 OA
HETATM    3  C8  UNL     1      -4.178  10.956  55.255  1.00  0.00     0.225 C 
HETATM    4  C9  UNL     1      -4.239  10.706  56.729  1.00  0.00     0.160 C 
HETATM    5  C10 UNL     1      -4.334   9.244  56.480  1.00  0.00     0.146 C 
HETATM    6  N2  UNL     1      -4.317   8.155  57.175  1.00  0.00    -0.251 N 
ATOM      7  H2  UNL     1      -4.407   7.244  56.726  1.00  0.00     0.196 HD
HETATM    8  O6  UNL     1      -4.456   9.536  55.154  1.00  0.00    -0.295 OA
HETATM    9  C11 UNL     1      -2.760  11.271  54.715  1.00  0.00     0.285 C 
HETATM   10  O10 UNL     1      -2.924  12.426  53.955  1.00  0.00    -0.351 OA
HETATM   11  C17 UNL     1      -3.074  13.597  54.585  1.00  0.00     0.181 C 
HETATM   12  C19 UNL     1      -4.319  13.678  55.470  1.00  0.00     0.204 C 
ENDROOT
BRANCH   1  13
HETATM   13  O3  UNL     1      -6.674  13.278  55.069  1.00  0.00    -0.326 OA
BRANCH  13  14
HETATM   14  C6  UNL     1      -7.487  12.183  55.342  1.00  0.00     0.294 C 
HETATM   15  O2  UNL     1      -7.959  12.226  56.661  1.00  0.00    -0.351 OA
HETATM   16  C4  UNL     1      -8.913  13.271  56.681  1.00  0.00     0.151 C 
HETATM   17  C3  UNL     1     -10.241  12.718  56.173  1.00  0.00     0.171 C 
HETATM   18  C5  UNL     1      -9.076  13.704  58.100  1.00  0.00     0.042 C 
HETATM   19  C2  UNL     1      -9.878  11.574  55.256  1.00  0.00     0.141 C 
HETATM   20  C20 UNL     1      -8.667  12.039  54.434  1.00  0.00     0.198 C 
BRANCH  17  21
HETATM   21  O1  UNL     1     -11.049  12.315  57.222  1.00  0.00    -0.391 OA
ATOM     22  H1  UNL     1     -10.660  12.500  58.069  1.00  0.00     0.210 HD
ENDBRANCH  17  21
BRANCH  19  23
HETATM   23  N1  UNL     1     -10.981  11.291  54.395  1.00  0.00    -0.416 N 
HETATM   24  C1  UNL     1     -11.653  10.046  54.636  1.00  0.00     0.140 C 
ATOM     25  H1  UNL     1     -11.273  11.932  53.656  1.00  0.00     0.153 HD
ENDBRANCH  19  23
BRANCH  20  26
HETATM   26  O13 UNL     1      -8.496  10.984  53.501  1.00  0.00    -0.388 OA
ATOM     27  H13 UNL     1      -7.750  11.275  52.989  1.00  0.00     0.210 HD
ENDBRANCH  20  26
ENDBRANCH  13  14
ENDBRANCH   1  13
BRANCH  12  28
HETATM   28  O12 UNL     1      -4.630  15.022  55.579  1.00  0.00    -0.388 OA
ATOM     29  H12 UNL     1      -3.868  15.545  55.798  1.00  0.00     0.210 HD
ENDBRANCH  12  28
BRANCH  11  30
HETATM   30  C18 UNL     1      -1.949  14.162  55.368  1.00  0.00     0.199 C 
BRANCH  30  31
HETATM   31  O11 UNL     1      -2.189  14.132  56.751  1.00  0.00    -0.398 OA
ATOM     32  H11 UNL     1      -1.937  13.305  57.145  1.00  0.00     0.209 HD
ENDBRANCH  30  31
ENDBRANCH  11  30
BRANCH   9  33
HETATM   33  N3  UNL     1      -2.317  10.169  54.027  1.00  0.00    -0.362 N 
HETATM   34  C12 UNL     1      -1.127   9.670  53.684  1.00  0.00     0.044 C 
ATOM     35  H3  UNL     1      -3.087   9.588  53.696  1.00  0.00     0.162 HD
BRANCH  34  36
HETATM   36  C13 UNL     1      -0.152  10.425  52.810  1.00  0.00     0.162 C 
HETATM   37  C14 UNL     1      -0.357  10.284  51.342  1.00  0.00     0.045 C 
BRANCH  36  38
HETATM   38  O7  UNL     1       1.172  10.211  53.200  1.00  0.00    -0.390 OA
ATOM     39  H7  UNL     1       1.713   9.920  52.475  1.00  0.00     0.210 HD
ENDBRANCH  36  38
ENDBRANCH  34  36
BRANCH  34  40
HETATM   40  C15 UNL     1      -0.326   8.814  54.616  1.00  0.00     0.189 C 
BRANCH  40  41
HETATM   41  O8  UNL     1       0.172   7.640  53.989  1.00  0.00    -0.388 OA
ATOM     42  H8  UNL     1       0.229   6.903  54.586  1.00  0.00     0.210 HD
ENDBRANCH  40  41
BRANCH  40  43
HETATM   43  C16 UNL     1      -0.887   8.403  55.904  1.00  0.00     0.201 C 
BRANCH  43  44
HETATM   44  O9  UNL     1      -1.008   7.068  56.164  1.00  0.00    -0.398 OA
ATOM     45  H9  UNL     1      -1.377   6.800  56.999  1.00  0.00     0.209 HD
ENDBRANCH  43  44
ENDBRANCH  40  43
ENDBRANCH  34  40
ENDBRANCH   9  33
BRANCH   6  46
HETATM   46  O5  UNL     1      -4.173   8.264  58.541  1.00  0.00    -0.288 OA
ATOM     47  H5  UNL     1      -4.046   7.466  59.039  1.00  0.00     0.244 HD
ENDBRANCH   6  46
TORSDOF 16
ENDMDL
MODEL 4
REMARK VINA RESULT: -6.067727808      2.028      4.037
REMARK  16 active torsions:
REMARK  status: ('A' for Active; 'I' for Inactive)
REMARK    1  A    between atoms: N1_2  and  C2_4 
REMARK    2  A    between atoms: C3_5  and  O1_6 
REMARK    3  A    between atoms: C6_11  and  O3_12 
REMARK    4  A    between atoms: O3_12  and  C7_13 
REMARK    5  A    between atoms: N2_18  and  O5_20 
REMARK    6  A    between atoms: C11_23  and  N3_24 
REMARK    7  A    between atoms: C12_26  and  C13_27 
REMARK    8  A    between atoms: C12_26  and  C15_31 
REMARK    9  A    between atoms: C13_27  and  O7_29 
REMARK   10  A    between atoms: C15_31  and  O8_32 
REMARK   11  A    between atoms: C15_31  and  C16_34 
REMARK   12  A    between atoms: C16_34  and  O9_35 
REMARK   13  A    between atoms: C17_38  and  C18_39 
REMARK   14  A    between atoms: C18_39  and  O11_40 
REMARK   15  A    between atoms: C19_42  and  O12_43 
REMARK   16  A    between atoms: C20_45  and  O13_46 
ROOT
HETATM    1  C7  UNL     1      -4.060  10.136  57.587  1.00  0.00     0.298 C 
HETATM    2  O4  UNL     1      -5.302   9.916  57.076  1.00  0.00    -0.317 OA
HETATM    3  C8  UNL     1      -6.410  10.284  57.733  1.00  0.00     0.225 C 
HETATM    4  C9  UNL     1      -6.830  11.719  57.793  1.00  0.00     0.160 C 
HETATM    5  C10 UNL     1      -8.022  11.409  56.962  1.00  0.00     0.146 C 
HETATM    6  N2  UNL     1      -9.087  12.017  56.559  1.00  0.00    -0.251 N 
ATOM      7  H2  UNL     1      -9.771  11.543  55.968  1.00  0.00     0.196 HD
HETATM    8  O6  UNL     1      -7.504  10.160  56.789  1.00  0.00    -0.295 OA
HETATM    9  C11 UNL     1      -6.708   9.473  59.019  1.00  0.00     0.285 C 
HETATM   10  O10 UNL     1      -5.508   8.836  59.318  1.00  0.00    -0.351 OA
HETATM   11  C17 UNL     1      -4.514   9.553  59.857  1.00  0.00     0.181 C 
HETATM   12  C19 UNL     1      -4.004  10.688  58.967  1.00  0.00     0.204 C 
ENDROOT
BRANCH   1  13
HETATM   13  O3  UNL     1      -3.199  10.776  56.684  1.00  0.00    -0.326 OA
BRANCH  13  14
HETATM   14  C6  UNL     1      -3.169  10.178  55.429  1.00  0.00     0.294 C 
HETATM   15  O2  UNL     1      -3.477  11.107  54.424  1.00  0.00    -0.351 OA
HETATM   16  C4  UNL     1      -2.345  11.952  54.339  1.00  0.00     0.151 C 
HETATM   17  C3  UNL     1      -1.305  11.270  53.456  1.00  0.00     0.171 C 
HETATM   18  C5  UNL     1      -2.781  13.222  53.687  1.00  0.00     0.042 C 
HETATM   19  C2  UNL     1      -1.567   9.789  53.591  1.00  0.00     0.141 C 
HETATM   20  C20 UNL     1      -1.867   9.532  55.075  1.00  0.00     0.198 C 
BRANCH  17  21
HETATM   21  O1  UNL     1      -1.400  11.703  52.144  1.00  0.00    -0.391 OA
ATOM     22  H1  UNL     1      -0.548  11.836  51.745  1.00  0.00     0.210 HD
ENDBRANCH  17  21
BRANCH  19  23
HETATM   23  N1  UNL     1      -0.403   9.065  53.190  1.00  0.00    -0.416 N 
HETATM   24  C1  UNL     1      -0.536   8.300  51.982  1.00  0.00     0.140 C 
ATOM     25  H1  UNL     1       0.464   9.089  53.726  1.00  0.00     0.153 HD
ENDBRANCH  19  23
BRANCH  20  26
HETATM   26  O13 UNL     1      -1.941   8.117  55.141  1.00  0.00    -0.388 OA
ATOM     27  H13 UNL     1      -1.844   7.858  54.232  1.00  0.00     0.210 HD
ENDBRANCH  20  26
ENDBRANCH  13  14
ENDBRANCH   1  13
BRANCH  12  28
HETATM   28  O12 UNL     1      -2.705  10.941  59.369  1.00  0.00    -0.388 OA
ATOM     29  H12 UNL     1      -2.673  11.519  60.123  1.00  0.00     0.210 HD
ENDBRANCH  12  28
BRANCH  11  30
HETATM   30  C18 UNL     1      -4.664  10.110  61.223  1.00  0.00     0.199 C 
BRANCH  30  31
HETATM   31  O11 UNL     1      -3.483  10.016  61.975  1.00  0.00    -0.398 OA
ATOM     32  H11 UNL     1      -3.549   9.379  62.676  1.00  0.00     0.209 HD
ENDBRANCH  30  31
ENDBRANCH  11  30
BRANCH   9  33
HETATM   33  N3  UNL     1      -7.768   8.641  58.756  1.00  0.00    -0.362 N 
HETATM   34  C12 UNL     1      -8.451   7.717  59.436  1.00  0.00     0.044 C 
ATOM     35  H3  UNL     1      -8.121   8.758  57.806  1.00  0.00     0.162 HD
BRANCH  34  36
HETATM   36  C13 UNL     1      -7.800   6.470  59.989  1.00  0.00     0.162 C 
HETATM   37  C14 UNL     1      -6.866   5.766  59.067  1.00  0.00     0.045 C 
BRANCH  36  38
HETATM   38  O7  UNL     1      -8.730   5.614  60.584  1.00  0.00    -0.390 OA
ATOM     39  H7  UNL     1      -8.562   5.497  61.512  1.00  0.00     0.210 HD
ENDBRANCH  36  38
ENDBRANCH  34  36
BRANCH  34  40
HETATM   40  C15 UNL     1      -9.581   8.077  60.351  1.00  0.00     0.189 C 
BRANCH  40  41
HETATM   41  O8  UNL     1     -10.485   9.005  59.767  1.00  0.00    -0.388 OA
ATOM     42  H8  UNL     1     -10.810   9.642  60.392  1.00  0.00     0.210 HD
ENDBRANCH  40  41
BRANCH  40  43
HETATM   43  C16 UNL     1      -9.305   8.550  61.709  1.00  0.00     0.201 C 
BRANCH  43  44
HETATM   44  O9  UNL     1      -9.583   7.719  62.757  1.00  0.00    -0.398 OA
ATOM     45  H9  UNL     1      -9.434   8.038  63.640  1.00  0.00     0.209 HD
ENDBRANCH  43  44
ENDBRANCH  40  43
ENDBRANCH  34  40
ENDBRANCH   9  33
BRANCH   6  46
HETATM   46  O5  UNL     1      -9.272  13.324  56.952  1.00  0.00    -0.288 OA
ATOM     47  H5  UNL     1      -9.890  13.853  56.463  1.00  0.00     0.244 HD
ENDBRANCH   6  46
TORSDOF 16
ENDMDL
MODEL 5
REMARK VINA RESULT: -5.943715485      2.488      4.848
REMARK  16 active torsions:
REMARK  status: ('A' for Active; 'I' for Inactive)
REMARK    1  A    between atoms: N1_2  and  C2_4 
REMARK    2  A    between atoms: C3_5  and  O1_6 
REMARK    3  A    between atoms: C6_11  and  O3_12 
REMARK    4  A    between atoms: O3_12  and  C7_13 
REMARK    5  A    between atoms: N2_18  and  O5_20 
REMARK    6  A    between atoms: C11_23  and  N3_24 
REMARK    7  A    between atoms: C12_26  and  C13_27 
REMARK    8  A    between atoms: C12_26  and  C15_31 
REMARK    9  A    between atoms: C13_27  and  O7_29 
REMARK   10  A    between atoms: C15_31  and  O8_32 
REMARK   11  A    between atoms: C15_31  and  C16_34 
REMARK   12  A    between atoms: C16_34  and  O9_35 
REMARK   13  A    between atoms: C17_38  and  C18_39 
REMARK   14  A    between atoms: C18_39  and  O11_40 
REMARK   15  A    between atoms: C19_42  and  O12_43 
REMARK   16  A    between atoms: C20_45  and  O13_46 
ROOT
HETATM    1  C7  UNL     1      -3.910  11.773  57.318  1.00  0.00     0.298 C 
HETATM    2  O4  UNL     1      -3.803  10.774  58.236  1.00  0.00    -0.317 OA
HETATM    3  C8  UNL     1      -4.841   9.985  58.544  1.00  0.00     0.225 C 
HETATM    4  C9  UNL     1      -5.292   8.906  57.612  1.00  0.00     0.160 C 
HETATM    5  C10 UNL     1      -4.855   7.875  58.588  1.00  0.00     0.146 C 
HETATM    6  N2  UNL     1      -4.939   6.593  58.724  1.00  0.00    -0.251 N 
ATOM      7  H2  UNL     1      -4.530   6.122  59.530  1.00  0.00     0.196 HD
HETATM    8  O6  UNL     1      -4.301   8.884  59.318  1.00  0.00    -0.295 OA
HETATM    9  C11 UNL     1      -5.987  10.683  59.320  1.00  0.00     0.285 C 
HETATM   10  O10 UNL     1      -5.757  12.043  59.135  1.00  0.00    -0.351 OA
HETATM   11  C17 UNL     1      -6.061  12.595  57.953  1.00  0.00     0.181 C 
HETATM   12  C19 UNL     1      -5.271  12.024  56.774  1.00  0.00     0.204 C 
ENDROOT
BRANCH   1  13
HETATM   13  O3  UNL     1      -2.906  11.733  56.341  1.00  0.00    -0.326 OA
BRANCH  13  14
HETATM   14  C6  UNL     1      -3.017  10.648  55.477  1.00  0.00     0.294 C 
HETATM   15  O2  UNL     1      -3.272  11.075  54.166  1.00  0.00    -0.351 OA
HETATM   16  C4  UNL     1      -2.056  11.644  53.718  1.00  0.00     0.151 C 
HETATM   17  C3  UNL     1      -1.153  10.517  53.226  1.00  0.00     0.171 C 
HETATM   18  C5  UNL     1      -2.377  12.546  52.572  1.00  0.00     0.042 C 
HETATM   19  C2  UNL     1      -1.577   9.291  54.000  1.00  0.00     0.141 C 
HETATM   20  C20 UNL     1      -1.821   9.750  55.446  1.00  0.00     0.198 C 
BRANCH  17  21
HETATM   21  O1  UNL     1      -1.271  10.341  51.858  1.00  0.00    -0.391 OA
ATOM     22  H1  UNL     1      -1.359  11.166  51.395  1.00  0.00     0.210 HD
ENDBRANCH  17  21
BRANCH  19  23
HETATM   23  N1  UNL     1      -0.530   8.321  53.960  1.00  0.00    -0.416 N 
HETATM   24  C1  UNL     1      -0.638   7.336  52.921  1.00  0.00     0.140 C 
ATOM     25  H1  UNL     1       0.243   8.328  54.625  1.00  0.00     0.153 HD
ENDBRANCH  19  23
BRANCH  20  26
HETATM   26  O13 UNL     1      -2.055   8.529  56.128  1.00  0.00    -0.388 OA
ATOM     27  H13 UNL     1      -1.515   7.913  55.649  1.00  0.00     0.210 HD
ENDBRANCH  20  26
ENDBRANCH  13  14
ENDBRANCH   1  13
BRANCH  12  28
HETATM   28  O12 UNL     1      -5.265  13.008  55.801  1.00  0.00    -0.388 OA
ATOM     29  H12 UNL     1      -6.144  13.293  55.579  1.00  0.00     0.210 HD
ENDBRANCH  12  28
BRANCH  11  30
HETATM   30  C18 UNL     1      -7.477  12.682  57.524  1.00  0.00     0.199 C 
BRANCH  30  31
HETATM   31  O11 UNL     1      -7.787  11.765  56.507  1.00  0.00    -0.398 OA
ATOM     32  H11 UNL     1      -8.541  12.033  55.994  1.00  0.00     0.209 HD
ENDBRANCH  30  31
ENDBRANCH  11  30
BRANCH   9  33
HETATM   33  N3  UNL     1      -5.940  10.249  60.621  1.00  0.00    -0.362 N 
HETATM   34  C12 UNL     1      -5.564  10.769  61.792  1.00  0.00     0.044 C 
ATOM     35  H3  UNL     1      -6.277   9.290  60.718  1.00  0.00     0.162 HD
BRANCH  34  36
HETATM   36  C13 UNL     1      -4.152  11.241  62.053  1.00  0.00     0.162 C 
HETATM   37  C14 UNL     1      -3.923  12.705  61.909  1.00  0.00     0.045 C 
BRANCH  36  38
HETATM   38  O7  UNL     1      -3.208  10.470  61.370  1.00  0.00    -0.390 OA
ATOM     39  H7  UNL     1      -3.465   9.557  61.318  1.00  0.00     0.210 HD
ENDBRANCH  36  38
ENDBRANCH  34  36
BRANCH  34  40
HETATM   40  C15 UNL     1      -6.481  11.622  62.614  1.00  0.00     0.189 C 
BRANCH  40  41
HETATM   41  O8  UNL     1      -6.566  11.189  63.965  1.00  0.00    -0.388 OA
ATOM     42  H8  UNL     1      -7.295  11.584  64.430  1.00  0.00     0.210 HD
ENDBRANCH  40  41
BRANCH  40  43
HETATM   43  C16 UNL     1      -7.850  11.877  62.162  1.00  0.00     0.201 C 
BRANCH  43  44
HETATM   44  O9  UNL     1      -8.037  12.678  61.071  1.00  0.00    -0.398 OA
ATOM     45  H9  UNL     1      -7.767  12.354  60.220  1.00  0.00     0.209 HD
ENDBRANCH  43  44
ENDBRANCH  40  43
ENDBRANCH  34  40
ENDBRANCH   9  33
BRANCH   6  46
HETATM   46  O5  UNL     1      -5.599   5.883  57.745  1.00  0.00    -0.288 OA
ATOM     47  H5  UNL     1      -6.256   5.253  58.018  1.00  0.00     0.244 HD
ENDBRANCH   6  46
TORSDOF 16
ENDMDL
