MODEL 1
REMARK VINA RESULT: -8.693519040      0.000      0.000
REMARK  13 active torsions:
REMARK  status: ('A' for Active; 'I' for Inactive)
REMARK    1  A    between atoms: C2_2  and  O1_3 
REMARK    2  A    between atoms: C2_2  and  N1_5 
REMARK    3  A    between atoms: N1_5  and  C3_7 
REMARK    4  A    between atoms: C4_8  and  C5_9 
REMARK    5  A    between atoms: C6_13  and  C7_14 
REMARK    6  A    between atoms: C8_18  and  O3_19 
REMARK    7  A    between atoms: C8_18  and  C9_21 
REMARK       I    between atoms: C9_21  and  N4_23 
REMARK    8  A    between atoms: N4_23  and  C10_25 
REMARK    9  A    between atoms: C14_37  and  O6_38 
REMARK   10  A    between atoms: C14_37  and  C15_40 
REMARK   11  A    between atoms: C15_40  and  O7_41 
REMARK   12  A    between atoms: C15_40  and  O8_43 
REMARK   13  A    between atoms: C16_50  and  C17_51 
ROOT
HETATM    1  C7  UNL     1      -3.735  12.151  56.757  1.00  0.00     0.309 C 
HETATM    2  N3  UNL     1      -3.692  12.207  55.312  1.00  0.00     0.007 N 
ATOM      3  H31 UNL     1      -4.491  12.712  54.930  1.00  0.00     0.284 HD
ATOM      4  H32 UNL     1      -3.872  11.295  54.893  1.00  0.00     0.284 HD
HETATM    5  C8  UNL     1      -2.460  12.757  54.867  1.00  0.00     0.474 C 
HETATM    6  N7  UNL     1      -1.777  13.541  55.859  1.00  0.00    -0.005 N 
ATOM      7  H71 UNL     1      -1.037  14.105  55.441  1.00  0.00     0.283 HD
ATOM      8  H72 UNL     1      -1.205  12.953  56.467  1.00  0.00     0.283 HD
HETATM    9  C13 UNL     1      -2.688  14.353  56.621  1.00  0.00     0.284 C 
HETATM   10  C14 UNL     1      -3.759  13.521  57.308  1.00  0.00     0.167 C 
ENDROOT
BRANCH   1  11
HETATM   11  C6  UNL     1      -4.843  11.260  57.193  1.00  0.00     0.183 A 
HETATM   12  O2  UNL     1      -6.118  11.616  57.324  1.00  0.00    -0.220 OA
HETATM   13  N2  UNL     1      -6.780  10.575  57.722  1.00  0.00    -0.241 N 
HETATM   14  C5  UNL     1      -5.999   9.510  57.870  1.00  0.00     0.159 A 
ATOM     15  H2  UNL     1      -7.784  10.573  57.902  1.00  0.00     0.196 HD
HETATM   16  N8  UNL     1      -4.759   9.981  57.521  1.00  0.00    -0.320 N 
ATOM     17  H8  UNL     1      -3.901   9.429  57.517  1.00  0.00     0.169 HD
BRANCH  14  18
HETATM   18  C4  UNL     1      -6.211   8.135  58.278  1.00  0.00     0.130 A 
HETATM   19  C3  UNL     1      -7.203   7.585  59.076  1.00  0.00     0.106 A 
HETATM   20  C16 UNL     1      -7.003   6.206  59.128  1.00  0.00     0.203 A 
HETATM   21  O9  UNL     1      -5.916   5.988  58.380  1.00  0.00    -0.228 OA
HETATM   22  N9  UNL     1      -5.458   7.061  57.894  1.00  0.00    -0.254 N 
ATOM     23  H9  UNL     1      -4.634   7.118  57.295  1.00  0.00     0.195 HD
BRANCH  19  24
HETATM   24  N1  UNL     1      -8.196   8.299  59.756  1.00  0.00    -0.360 N 
ATOM     25  H1  UNL     1      -7.968   8.725  60.655  1.00  0.00     0.162 HD
BRANCH  24  26
HETATM   26  C2  UNL     1      -9.513   8.451  59.240  1.00  0.00     0.213 C 
HETATM   27  C1  UNL     1     -10.496   9.013  60.213  1.00  0.00     0.063 C 
BRANCH  26  28
HETATM   28  O1  UNL     1      -9.522   9.292  58.108  1.00  0.00    -0.377 OA
ATOM     29  H1  UNL     1      -8.965   8.886  57.453  1.00  0.00     0.212 HD
ENDBRANCH  26  28
ENDBRANCH  24  26
ENDBRANCH  19  24
BRANCH  20  30
HETATM   30  C17 UNL     1      -7.770   5.187  59.816  1.00  0.00     0.238 C 
HETATM   31  O10 UNL     1      -7.797   3.989  59.510  1.00  0.00    -0.642 OA
HETATM   32  O11 UNL     1      -8.551   5.566  60.918  1.00  0.00    -0.642 OA
ENDBRANCH  20  30
ENDBRANCH  14  18
ENDBRANCH   1  11
BRANCH  10  33
HETATM   33  O6  UNL     1      -4.968  14.136  57.010  1.00  0.00    -0.380 OA
ATOM     34  H6  UNL     1      -4.861  15.081  56.996  1.00  0.00     0.211 HD
ENDBRANCH  10  33
BRANCH  10  35
HETATM   35  C15 UNL     1      -3.563  13.595  58.815  1.00  0.00     0.292 C 
BRANCH  35  36
HETATM   36  O7  UNL     1      -2.409  12.853  59.102  1.00  0.00    -0.368 OA
ATOM     37  H7  UNL     1      -2.554  11.983  58.751  1.00  0.00     0.212 HD
ENDBRANCH  35  36
BRANCH  35  38
HETATM   38  O8  UNL     1      -4.665  13.203  59.533  1.00  0.00    -0.368 OA
ATOM     39  H8  UNL     1      -5.124  13.923  59.948  1.00  0.00     0.212 HD
ENDBRANCH  35  38
ENDBRANCH  10  35
BRANCH   5  40
HETATM   40  O3  UNL     1      -2.791  13.663  53.814  1.00  0.00    -0.336 OA
ATOM     41  H3  UNL     1      -1.980  13.827  53.346  1.00  0.00     0.214 HD
ENDBRANCH   5  40
BRANCH   5  42
HETATM   42  C9  UNL     1      -1.624  11.686  54.271  1.00  0.00     0.313 C 
HETATM   43  O4  UNL     1      -1.171  11.839  53.068  1.00  0.00    -0.266 OA
HETATM   44  N4  UNL     1      -1.262  10.480  54.899  1.00  0.00    -0.326 N 
ATOM     45  H4  UNL     1      -1.578  10.284  55.849  1.00  0.00     0.165 HD
BRANCH  44  46
HETATM   46  C10 UNL     1      -0.446   9.525  54.202  1.00  0.00     0.279 C 
HETATM   47  N5  UNL     1      -0.919   9.289  52.846  1.00  0.00    -0.357 N 
HETATM   48  C11 UNL     1      -0.622   7.925  52.574  1.00  0.00     0.180 C 
ATOM     49  H5  UNL     1      -1.368   9.960  52.222  1.00  0.00     0.162 HD
HETATM   50  N6  UNL     1      -0.414   7.274  53.677  1.00  0.00    -0.320 N 
HETATM   51  C12 UNL     1      -0.556   8.157  54.783  1.00  0.00     0.265 C 
ATOM     52  H6  UNL     1      -0.185   6.282  53.741  1.00  0.00     0.169 HD
HETATM   53  O5  UNL     1      -0.735   7.880  55.995  1.00  0.00    -0.269 OA
ENDBRANCH  44  46
ENDBRANCH   5  42
TORSDOF 13
ENDMDL
MODEL 2
REMARK VINA RESULT: -8.478566589      2.100      7.872
REMARK  13 active torsions:
REMARK  status: ('A' for Active; 'I' for Inactive)
REMARK    1  A    between atoms: C2_2  and  O1_3 
REMARK    2  A    between atoms: C2_2  and  N1_5 
REMARK    3  A    between atoms: N1_5  and  C3_7 
REMARK    4  A    between atoms: C4_8  and  C5_9 
REMARK    5  A    between atoms: C6_13  and  C7_14 
REMARK    6  A    between atoms: C8_18  and  O3_19 
REMARK    7  A    between atoms: C8_18  and  C9_21 
REMARK       I    between atoms: C9_21  and  N4_23 
REMARK    8  A    between atoms: N4_23  and  C10_25 
REMARK    9  A    between atoms: C14_37  and  O6_38 
REMARK   10  A    between atoms: C14_37  and  C15_40 
REMARK   11  A    between atoms: C15_40  and  O7_41 
REMARK   12  A    between atoms: C15_40  and  O8_43 
REMARK   13  A    between atoms: C16_50  and  C17_51 
ROOT
HETATM    1  C7  UNL     1      -4.636  12.443  56.717  1.00  0.00     0.309 C 
HETATM    2  N3  UNL     1      -4.543  11.589  57.880  1.00  0.00     0.007 N 
ATOM      3  H31 UNL     1      -3.890  11.960  58.570  1.00  0.00     0.284 HD
ATOM      4  H32 UNL     1      -4.063  10.714  57.669  1.00  0.00     0.284 HD
HETATM    5  C8  UNL     1      -5.829  11.361  58.441  1.00  0.00     0.474 C 
HETATM    6  N7  UNL     1      -6.809  12.344  58.073  1.00  0.00    -0.005 N 
ATOM      7  H71 UNL     1      -7.634  12.288  58.671  1.00  0.00     0.283 HD
ATOM      8  H72 UNL     1      -7.245  12.118  57.179  1.00  0.00     0.283 HD
HETATM    9  C13 UNL     1      -6.259  13.674  58.064  1.00  0.00     0.284 C 
HETATM   10  C14 UNL     1      -5.069  13.795  57.125  1.00  0.00     0.167 C 
ENDROOT
BRANCH   1  11
HETATM   11  C6  UNL     1      -3.368  12.378  55.942  1.00  0.00     0.183 A 
HETATM   12  O2  UNL     1      -2.212  12.930  56.300  1.00  0.00    -0.220 OA
HETATM   13  N2  UNL     1      -1.343  12.661  55.376  1.00  0.00    -0.241 N 
HETATM   14  C5  UNL     1      -1.866  11.938  54.390  1.00  0.00     0.159 A 
ATOM     15  H2  UNL     1      -0.371  12.968  55.402  1.00  0.00     0.196 HD
HETATM   16  N8  UNL     1      -3.170  11.771  54.783  1.00  0.00    -0.320 N 
ATOM     17  H8  UNL     1      -3.879  11.258  54.260  1.00  0.00     0.169 HD
BRANCH  14  18
HETATM   18  C4  UNL     1      -1.360  11.380  53.152  1.00  0.00     0.130 A 
HETATM   19  C3  UNL     1      -0.501  10.312  52.941  1.00  0.00     0.106 A 
HETATM   20  C16 UNL     1      -0.360  10.133  51.565  1.00  0.00     0.203 A 
HETATM   21  O9  UNL     1      -1.119  11.087  51.016  1.00  0.00    -0.228 OA
HETATM   22  N9  UNL     1      -1.689  11.797  51.892  1.00  0.00    -0.254 N 
ATOM     23  H9  UNL     1      -2.311  12.578  51.687  1.00  0.00     0.195 HD
BRANCH  19  24
HETATM   24  N1  UNL     1       0.155   9.579  53.937  1.00  0.00    -0.360 N 
ATOM     25  H1  UNL     1       1.066   9.899  54.265  1.00  0.00     0.162 HD
BRANCH  24  26
HETATM   26  C2  UNL     1      -0.405   8.403  54.509  1.00  0.00     0.213 C 
HETATM   27  C1  UNL     1      -1.898   8.355  54.485  1.00  0.00     0.063 C 
BRANCH  26  28
HETATM   28  O1  UNL     1       0.058   7.245  53.850  1.00  0.00    -0.377 OA
ATOM     29  H1  UNL     1       0.966   7.125  54.101  1.00  0.00     0.212 HD
ENDBRANCH  26  28
ENDBRANCH  24  26
ENDBRANCH  19  24
BRANCH  20  30
HETATM   30  C17 UNL     1       0.415   9.149  50.836  1.00  0.00     0.238 C 
HETATM   31  O10 UNL     1       0.666   8.005  51.233  1.00  0.00    -0.642 OA
HETATM   32  O11 UNL     1       0.932   9.499  49.580  1.00  0.00    -0.642 OA
ENDBRANCH  20  30
ENDBRANCH  14  18
ENDBRANCH   1  11
BRANCH  10  33
HETATM   33  O6  UNL     1      -4.067  14.418  57.858  1.00  0.00    -0.380 OA
ATOM     34  H6  UNL     1      -4.377  15.251  58.195  1.00  0.00     0.211 HD
ENDBRANCH  10  33
BRANCH  10  35
HETATM   35  C15 UNL     1      -5.434  14.713  55.968  1.00  0.00     0.292 C 
BRANCH  35  36
HETATM   36  O7  UNL     1      -6.345  14.006  55.172  1.00  0.00    -0.368 OA
ATOM     37  H7  UNL     1      -6.444  14.504  54.370  1.00  0.00     0.212 HD
ENDBRANCH  35  36
BRANCH  35  38
HETATM   38  O8  UNL     1      -4.346  15.186  55.277  1.00  0.00    -0.368 OA
ATOM     39  H8  UNL     1      -4.095  14.638  54.544  1.00  0.00     0.212 HD
ENDBRANCH  35  38
ENDBRANCH  10  35
BRANCH   5  40
HETATM   40  O3  UNL     1      -5.668  11.480  59.854  1.00  0.00    -0.336 OA
ATOM     41  H3  UNL     1      -4.874  11.986  59.985  1.00  0.00     0.214 HD
ENDBRANCH   5  40
BRANCH   5  42
HETATM   42  C9  UNL     1      -6.249   9.965  58.168  1.00  0.00     0.313 C 
HETATM   43  O4  UNL     1      -6.296   9.552  56.942  1.00  0.00    -0.266 OA
HETATM   44  N4  UNL     1      -6.615   9.012  59.136  1.00  0.00    -0.326 N 
ATOM     45  H4  UNL     1      -6.603   9.259  60.126  1.00  0.00     0.165 HD
BRANCH  44  46
HETATM   46  C10 UNL     1      -7.006   7.690  58.730  1.00  0.00     0.279 C 
HETATM   47  N5  UNL     1      -8.020   7.126  59.607  1.00  0.00    -0.357 N 
HETATM   48  C11 UNL     1      -7.760   5.728  59.636  1.00  0.00     0.180 C 
ATOM     49  H5  UNL     1      -8.761   7.627  60.098  1.00  0.00     0.162 HD
HETATM   50  N6  UNL     1      -6.553   5.480  59.231  1.00  0.00    -0.320 N 
HETATM   51  C12 UNL     1      -5.904   6.700  58.896  1.00  0.00     0.265 C 
ATOM     52  H6  UNL     1      -6.134   4.552  59.163  1.00  0.00     0.169 HD
HETATM   53  O5  UNL     1      -4.677   6.928  58.760  1.00  0.00    -0.269 OA
ENDBRANCH  44  46
ENDBRANCH   5  42
TORSDOF 13
ENDMDL
MODEL 3
REMARK VINA RESULT: -8.412705429      1.897      7.803
REMARK  13 active torsions:
REMARK  status: ('A' for Active; 'I' for Inactive)
REMARK    1  A    between atoms: C2_2  and  O1_3 
REMARK    2  A    between atoms: C2_2  and  N1_5 
REMARK    3  A    between atoms: N1_5  and  C3_7 
REMARK    4  A    between atoms: C4_8  and  C5_9 
REMARK    5  A    between atoms: C6_13  and  C7_14 
REMARK    6  A    between atoms: C8_18  and  O3_19 
REMARK    7  A    between atoms: C8_18  and  C9_21 
REMARK       I    between atoms: C9_21  and  N4_23 
REMARK    8  A    between atoms: N4_23  and  C10_25 
REMARK    9  A    between atoms: C14_37  and  O6_38 
REMARK   10  A    between atoms: C14_37  and  C15_40 
REMARK   11  A    between atoms: C15_40  and  O7_41 
REMARK   12  A    between atoms: C15_40  and  O8_43 
REMARK   13  A    between atoms: C16_50  and  C17_51 
ROOT
HETATM    1  C7  UNL     1      -4.373  11.907  58.065  1.00  0.00     0.309 C 
HETATM    2  N3  UNL     1      -4.173  10.486  58.244  1.00  0.00     0.007 N 
ATOM      3  H31 UNL     1      -3.183  10.244  58.262  1.00  0.00     0.284 HD
ATOM      4  H32 UNL     1      -4.445   9.959  57.415  1.00  0.00     0.284 HD
HETATM    5  C8  UNL     1      -4.849  10.025  59.406  1.00  0.00     0.474 C 
HETATM    6  N7  UNL     1      -5.148  11.059  60.357  1.00  0.00    -0.005 N 
ATOM      7  H71 UNL     1      -5.408  10.667  61.262  1.00  0.00     0.283 HD
ATOM      8  H72 UNL     1      -6.023  11.531  60.130  1.00  0.00     0.283 HD
HETATM    9  C13 UNL     1      -4.065  11.999  60.486  1.00  0.00     0.284 C 
HETATM   10  C14 UNL     1      -3.707  12.646  59.157  1.00  0.00     0.167 C 
ENDROOT
BRANCH   1  11
HETATM   11  C6  UNL     1      -3.980  12.301  56.686  1.00  0.00     0.183 A 
HETATM   12  O2  UNL     1      -4.339  13.423  56.069  1.00  0.00    -0.220 OA
HETATM   13  N2  UNL     1      -3.806  13.411  54.887  1.00  0.00    -0.241 N 
HETATM   14  C5  UNL     1      -3.089  12.313  54.670  1.00  0.00     0.159 A 
ATOM     15  H2  UNL     1      -3.923  14.158  54.202  1.00  0.00     0.196 HD
HETATM   16  N8  UNL     1      -3.220  11.618  55.846  1.00  0.00    -0.320 N 
ATOM     17  H8  UNL     1      -2.796  10.712  56.042  1.00  0.00     0.169 HD
BRANCH  14  18
HETATM   18  C4  UNL     1      -2.309  11.804  53.560  1.00  0.00     0.130 A 
HETATM   19  C3  UNL     1      -1.376  10.778  53.522  1.00  0.00     0.106 A 
HETATM   20  C16 UNL     1      -0.941  10.635  52.205  1.00  0.00     0.203 A 
HETATM   21  O9  UNL     1      -1.611  11.567  51.519  1.00  0.00    -0.228 OA
HETATM   22  N9  UNL     1      -2.385  12.233  52.264  1.00  0.00    -0.254 N 
ATOM     23  H9  UNL     1      -2.986  12.991  51.942  1.00  0.00     0.195 HD
BRANCH  19  24
HETATM   24  N1  UNL     1      -0.911  10.053  54.626  1.00  0.00    -0.360 N 
ATOM     25  H1  UNL     1      -0.126  10.423  55.163  1.00  0.00     0.162 HD
BRANCH  24  26
HETATM   26  C2  UNL     1      -1.493   8.818  55.024  1.00  0.00     0.213 C 
HETATM   27  C1  UNL     1      -0.565   7.650  54.964  1.00  0.00     0.063 C 
BRANCH  26  28
HETATM   28  O1  UNL     1      -1.985   8.889  56.345  1.00  0.00    -0.377 OA
ATOM     29  H1  UNL     1      -1.757   9.748  56.682  1.00  0.00     0.212 HD
ENDBRANCH  26  28
ENDBRANCH  24  26
ENDBRANCH  19  24
BRANCH  20  30
HETATM   30  C17 UNL     1       0.016   9.701  51.645  1.00  0.00     0.238 C 
HETATM   31  O10 UNL     1       1.240   9.872  51.609  1.00  0.00    -0.642 OA
HETATM   32  O11 UNL     1      -0.462   8.502  51.095  1.00  0.00    -0.642 OA
ENDBRANCH  20  30
ENDBRANCH  14  18
ENDBRANCH   1  11
BRANCH  10  33
HETATM   33  O6  UNL     1      -2.328  12.534  59.039  1.00  0.00    -0.380 OA
ATOM     34  H6  UNL     1      -2.061  11.629  59.155  1.00  0.00     0.211 HD
ENDBRANCH  10  33
BRANCH  10  35
HETATM   35  C15 UNL     1      -4.048  14.127  59.212  1.00  0.00     0.292 C 
BRANCH  35  36
HETATM   36  O7  UNL     1      -2.966  14.804  58.634  1.00  0.00    -0.368 OA
ATOM     37  H7  UNL     1      -2.928  14.525  57.727  1.00  0.00     0.212 HD
ENDBRANCH  35  36
BRANCH  35  38
HETATM   38  O8  UNL     1      -4.369  14.571  60.471  1.00  0.00    -0.368 OA
ATOM     39  H8  UNL     1      -3.736  15.180  60.832  1.00  0.00     0.212 HD
ENDBRANCH  35  38
ENDBRANCH  10  35
BRANCH   5  40
HETATM   40  O3  UNL     1      -3.943   9.140  60.063  1.00  0.00    -0.336 OA
ATOM     41  H3  UNL     1      -4.220   9.108  60.971  1.00  0.00     0.214 HD
ENDBRANCH   5  40
BRANCH   5  42
HETATM   42  C9  UNL     1      -6.030   9.220  59.007  1.00  0.00     0.313 C 
HETATM   43  O4  UNL     1      -6.841   9.695  58.117  1.00  0.00    -0.266 OA
HETATM   44  N4  UNL     1      -6.369   7.952  59.512  1.00  0.00    -0.326 N 
ATOM     45  H4  UNL     1      -5.779   7.508  60.216  1.00  0.00     0.165 HD
BRANCH  44  46
HETATM   46  C10 UNL     1      -7.548   7.282  59.036  1.00  0.00     0.279 C 
HETATM   47  N5  UNL     1      -8.758   8.039  59.319  1.00  0.00    -0.357 N 
HETATM   48  C11 UNL     1      -9.769   7.065  59.548  1.00  0.00     0.180 C 
ATOM     49  H5  UNL     1      -8.860   9.054  59.347  1.00  0.00     0.162 HD
HETATM   50  N6  UNL     1      -9.239   5.911  59.813  1.00  0.00    -0.320 N 
HETATM   51  C12 UNL     1      -7.821   6.021  59.782  1.00  0.00     0.265 C 
ATOM     52  H6  UNL     1      -9.759   5.056  60.013  1.00  0.00     0.169 HD
HETATM   53  O5  UNL     1      -6.960   5.245  60.265  1.00  0.00    -0.269 OA
ENDBRANCH  44  46
ENDBRANCH   5  42
TORSDOF 13
ENDMDL
MODEL 4
REMARK VINA RESULT: -8.382755475      2.345      8.279
REMARK  13 active torsions:
REMARK  status: ('A' for Active; 'I' for Inactive)
REMARK    1  A    between atoms: C2_2  and  O1_3 
REMARK    2  A    between atoms: C2_2  and  N1_5 
REMARK    3  A    between atoms: N1_5  and  C3_7 
REMARK    4  A    between atoms: C4_8  and  C5_9 
REMARK    5  A    between atoms: C6_13  and  C7_14 
REMARK    6  A    between atoms: C8_18  and  O3_19 
REMARK    7  A    between atoms: C8_18  and  C9_21 
REMARK       I    between atoms: C9_21  and  N4_23 
REMARK    8  A    between atoms: N4_23  and  C10_25 
REMARK    9  A    between atoms: C14_37  and  O6_38 
REMARK   10  A    between atoms: C14_37  and  C15_40 
REMARK   11  A    between atoms: C15_40  and  O7_41 
REMARK   12  A    between atoms: C15_40  and  O8_43 
REMARK   13  A    between atoms: C16_50  and  C17_51 
ROOT
HETATM    1  C7  UNL     1      -4.949  10.337  56.846  1.00  0.00     0.309 C 
HETATM    2  N3  UNL     1      -4.888  10.518  58.280  1.00  0.00     0.007 N 
ATOM      3  H31 UNL     1      -4.200  11.223  58.543  1.00  0.00     0.284 HD
ATOM      4  H32 UNL     1      -4.468   9.713  58.744  1.00  0.00     0.284 HD
HETATM    5  C8  UNL     1      -6.175  10.815  58.804  1.00  0.00     0.474 C 
HETATM    6  N7  UNL     1      -7.098  11.329  57.831  1.00  0.00    -0.005 N 
ATOM      7  H71 UNL     1      -7.913  11.749  58.277  1.00  0.00     0.283 HD
ATOM      8  H72 UNL     1      -7.564  10.573  57.327  1.00  0.00     0.283 HD
HETATM    9  C13 UNL     1      -6.465  12.250  56.924  1.00  0.00     0.284 C 
HETATM   10  C14 UNL     1      -5.288  11.619  56.197  1.00  0.00     0.167 C 
ENDROOT
BRANCH   1  11
HETATM   11  C6  UNL     1      -3.702   9.681  56.369  1.00  0.00     0.183 A 
HETATM   12  O2  UNL     1      -2.803   9.074  57.138  1.00  0.00    -0.220 OA
HETATM   13  N2  UNL     1      -1.860   8.629  56.366  1.00  0.00    -0.241 N 
HETATM   14  C5  UNL     1      -2.083   8.912  55.087  1.00  0.00     0.159 A 
ATOM     15  H2  UNL     1      -1.042   8.122  56.703  1.00  0.00     0.196 HD
HETATM   16  N8  UNL     1      -3.275   9.589  55.120  1.00  0.00    -0.320 N 
ATOM     17  H8  UNL     1      -3.760   9.964  54.305  1.00  0.00     0.169 HD
BRANCH  14  18
HETATM   18  C4  UNL     1      -1.377   8.660  53.846  1.00  0.00     0.130 A 
HETATM   19  C3  UNL     1      -0.821   9.550  52.940  1.00  0.00     0.106 A 
HETATM   20  C16 UNL     1      -0.202   8.813  51.931  1.00  0.00     0.203 A 
HETATM   21  O9  UNL     1      -0.414   7.535  52.260  1.00  0.00    -0.228 OA
HETATM   22  N9  UNL     1      -1.073   7.429  53.334  1.00  0.00    -0.254 N 
ATOM     23  H9  UNL     1      -1.342   6.543  53.762  1.00  0.00     0.195 HD
BRANCH  19  24
HETATM   24  N1  UNL     1      -0.914  10.946  53.001  1.00  0.00    -0.360 N 
ATOM     25  H1  UNL     1      -0.138  11.474  53.399  1.00  0.00     0.162 HD
BRANCH  24  26
HETATM   26  C2  UNL     1      -2.054  11.653  52.527  1.00  0.00     0.213 C 
HETATM   27  C1  UNL     1      -2.337  12.925  53.256  1.00  0.00     0.063 C 
BRANCH  26  28
HETATM   28  O1  UNL     1      -1.921  11.978  51.161  1.00  0.00    -0.377 OA
ATOM     29  H1  UNL     1      -2.775  11.866  50.762  1.00  0.00     0.212 HD
ENDBRANCH  26  28
ENDBRANCH  24  26
ENDBRANCH  19  24
BRANCH  20  30
HETATM   30  C17 UNL     1       0.526   9.273  50.765  1.00  0.00     0.238 C 
HETATM   31  O10 UNL     1       0.663  10.457  50.434  1.00  0.00    -0.642 OA
HETATM   32  O11 UNL     1       1.132   8.320  49.934  1.00  0.00    -0.642 OA
ENDBRANCH  20  30
ENDBRANCH  14  18
ENDBRANCH   1  11
BRANCH  10  33
HETATM   33  O6  UNL     1      -4.236  12.516  56.328  1.00  0.00    -0.380 OA
ATOM     34  H6  UNL     1      -3.961  12.827  55.472  1.00  0.00     0.211 HD
ENDBRANCH  10  33
BRANCH  10  35
HETATM   35  C15 UNL     1      -5.616  11.505  54.715  1.00  0.00     0.292 C 
BRANCH  35  36
HETATM   36  O7  UNL     1      -5.782  12.815  54.244  1.00  0.00    -0.368 OA
ATOM     37  H7  UNL     1      -5.187  12.914  53.510  1.00  0.00     0.212 HD
ENDBRANCH  35  36
BRANCH  35  38
HETATM   38  O8  UNL     1      -6.682  10.683  54.450  1.00  0.00    -0.368 OA
ATOM     39  H8  UNL     1      -7.281  11.034  53.803  1.00  0.00     0.212 HD
ENDBRANCH  35  38
ENDBRANCH  10  35
BRANCH   5  40
HETATM   40  O3  UNL     1      -5.980  11.867  59.750  1.00  0.00    -0.336 OA
ATOM     41  H3  UNL     1      -6.133  11.481  60.605  1.00  0.00     0.214 HD
ENDBRANCH   5  40
BRANCH   5  42
HETATM   42  C9  UNL     1      -6.688   9.644  59.557  1.00  0.00     0.313 C 
HETATM   43  O4  UNL     1      -6.895   9.758  60.829  1.00  0.00    -0.266 OA
HETATM   44  N4  UNL     1      -6.981   8.381  59.011  1.00  0.00    -0.326 N 
ATOM     45  H4  UNL     1      -6.846   8.211  58.015  1.00  0.00     0.165 HD
BRANCH  44  46
HETATM   46  C10 UNL     1      -7.472   7.330  59.860  1.00  0.00     0.279 C 
HETATM   47  N5  UNL     1      -6.905   6.036  59.512  1.00  0.00    -0.357 N 
HETATM   48  C11 UNL     1      -7.927   5.088  59.790  1.00  0.00     0.180 C 
ATOM     49  H5  UNL     1      -5.971   5.849  59.146  1.00  0.00     0.162 HD
HETATM   50  N6  UNL     1      -9.082   5.672  59.871  1.00  0.00    -0.320 N 
HETATM   51  C12 UNL     1      -8.925   7.069  59.652  1.00  0.00     0.265 C 
ATOM     52  H6  UNL     1      -9.967   5.202  60.061  1.00  0.00     0.169 HD
HETATM   53  O5  UNL     1      -9.795   7.922  59.349  1.00  0.00    -0.269 OA
ENDBRANCH  44  46
ENDBRANCH   5  42
TORSDOF 13
ENDMDL
MODEL 5
REMARK VINA RESULT: -8.361276891      3.118      7.980
REMARK  13 active torsions:
REMARK  status: ('A' for Active; 'I' for Inactive)
REMARK    1  A    between atoms: C2_2  and  O1_3 
REMARK    2  A    between atoms: C2_2  and  N1_5 
REMARK    3  A    between atoms: N1_5  and  C3_7 
REMARK    4  A    between atoms: C4_8  and  C5_9 
REMARK    5  A    between atoms: C6_13  and  C7_14 
REMARK    6  A    between atoms: C8_18  and  O3_19 
REMARK    7  A    between atoms: C8_18  and  C9_21 
REMARK       I    between atoms: C9_21  and  N4_23 
REMARK    8  A    between atoms: N4_23  and  C10_25 
REMARK    9  A    between atoms: C14_37  and  O6_38 
REMARK   10  A    between atoms: C14_37  and  C15_40 
REMARK   11  A    between atoms: C15_40  and  O7_41 
REMARK   12  A    between atoms: C15_40  and  O8_43 
REMARK   13  A    between atoms: C16_50  and  C17_51 
ROOT
HETATM    1  C7  UNL     1      -4.551  12.127  56.746  1.00  0.00     0.309 C 
HETATM    2  N3  UNL     1      -5.373  11.019  56.315  1.00  0.00     0.007 N 
ATOM      3  H31 UNL     1      -4.948  10.121  56.544  1.00  0.00     0.284 HD
ATOM      4  H32 UNL     1      -5.384  10.929  55.299  1.00  0.00     0.284 HD
HETATM    5  C8  UNL     1      -6.686  11.130  56.847  1.00  0.00     0.474 C 
HETATM    6  N7  UNL     1      -6.777  11.972  58.007  1.00  0.00    -0.005 N 
ATOM      7  H71 UNL     1      -7.663  11.839  58.494  1.00  0.00     0.283 HD
ATOM      8  H72 UNL     1      -6.883  12.953  57.746  1.00  0.00     0.283 HD
HETATM    9  C13 UNL     1      -5.659  11.785  58.895  1.00  0.00     0.284 C 
HETATM   10  C14 UNL     1      -4.330  12.046  58.204  1.00  0.00     0.167 C 
ENDROOT
BRANCH   1  11
HETATM   11  C6  UNL     1      -3.322  12.197  55.910  1.00  0.00     0.183 A 
HETATM   12  O2  UNL     1      -2.232  12.905  56.193  1.00  0.00    -0.220 OA
HETATM   13  N2  UNL     1      -1.380  12.716  55.234  1.00  0.00    -0.241 N 
HETATM   14  C5  UNL     1      -1.849  11.897  54.298  1.00  0.00     0.159 A 
ATOM     15  H2  UNL     1      -0.455  13.146  55.202  1.00  0.00     0.196 HD
HETATM   16  N8  UNL     1      -3.101  11.579  54.761  1.00  0.00    -0.320 N 
ATOM     17  H8  UNL     1      -3.761  10.961  54.290  1.00  0.00     0.169 HD
BRANCH  14  18
HETATM   18  C4  UNL     1      -1.333  11.364  53.054  1.00  0.00     0.130 A 
HETATM   19  C3  UNL     1      -0.475  10.298  52.828  1.00  0.00     0.106 A 
HETATM   20  C16 UNL     1      -0.322  10.148  51.450  1.00  0.00     0.203 A 
HETATM   21  O9  UNL     1      -1.072  11.116  50.914  1.00  0.00    -0.228 OA
HETATM   22  N9  UNL     1      -1.649  11.809  51.800  1.00  0.00    -0.254 N 
ATOM     23  H9  UNL     1      -2.267  12.596  51.606  1.00  0.00     0.195 HD
BRANCH  19  24
HETATM   24  N1  UNL     1       0.169   9.542  53.814  1.00  0.00    -0.360 N 
ATOM     25  H1  UNL     1       1.075   9.855  54.162  1.00  0.00     0.162 HD
BRANCH  24  26
HETATM   26  C2  UNL     1      -0.396   8.351  54.349  1.00  0.00     0.213 C 
HETATM   27  C1  UNL     1      -1.882   8.262  54.225  1.00  0.00     0.063 C 
BRANCH  26  28
HETATM   28  O1  UNL     1       0.142   7.206  53.724  1.00  0.00    -0.377 OA
ATOM     29  H1  UNL     1       1.045   7.405  53.506  1.00  0.00     0.212 HD
ENDBRANCH  26  28
ENDBRANCH  24  26
ENDBRANCH  19  24
BRANCH  20  30
HETATM   30  C17 UNL     1       0.458   9.177  50.707  1.00  0.00     0.238 C 
HETATM   31  O10 UNL     1       0.812   8.073  51.136  1.00  0.00    -0.642 OA
HETATM   32  O11 UNL     1       0.851   9.493  49.399  1.00  0.00    -0.642 OA
ENDBRANCH  20  30
ENDBRANCH  14  18
ENDBRANCH   1  11
BRANCH  10  33
HETATM   33  O6  UNL     1      -3.524  10.957  58.507  1.00  0.00    -0.380 OA
ATOM     34  H6  UNL     1      -4.027  10.152  58.455  1.00  0.00     0.211 HD
ENDBRANCH  10  33
BRANCH  10  35
HETATM   35  C15 UNL     1      -3.683  13.282  58.811  1.00  0.00     0.292 C 
BRANCH  35  36
HETATM   36  O7  UNL     1      -2.384  12.909  59.180  1.00  0.00    -0.368 OA
ATOM     37  H7  UNL     1      -1.992  12.507  58.414  1.00  0.00     0.212 HD
ENDBRANCH  35  36
BRANCH  35  38
HETATM   38  O8  UNL     1      -4.411  13.838  59.834  1.00  0.00    -0.368 OA
ATOM     39  H8  UNL     1      -4.631  14.750  59.692  1.00  0.00     0.212 HD
ENDBRANCH  35  38
ENDBRANCH  10  35
BRANCH   5  40
HETATM   40  O3  UNL     1      -7.045   9.820  57.286  1.00  0.00    -0.336 OA
ATOM     41  H3  UNL     1      -7.535   9.430  56.572  1.00  0.00     0.214 HD
ENDBRANCH   5  40
BRANCH   5  42
HETATM   42  C9  UNL     1      -7.631  11.498  55.764  1.00  0.00     0.313 C 
HETATM   43  O4  UNL     1      -8.892  11.255  55.923  1.00  0.00    -0.266 OA
HETATM   44  N4  UNL     1      -7.286  12.105  54.543  1.00  0.00    -0.326 N 
ATOM     45  H4  UNL     1      -6.312  12.331  54.342  1.00  0.00     0.165 HD
BRANCH  44  46
HETATM   46  C10 UNL     1      -8.308  12.407  53.578  1.00  0.00     0.279 C 
HETATM   47  N5  UNL     1      -8.812  11.209  52.924  1.00  0.00    -0.357 N 
HETATM   48  C11 UNL     1      -9.142  11.612  51.600  1.00  0.00     0.180 C 
ATOM     49  H5  UNL     1      -8.910  10.278  53.329  1.00  0.00     0.162 HD
HETATM   50  N6  UNL     1      -8.552  12.728  51.302  1.00  0.00    -0.320 N 
HETATM   51  C12 UNL     1      -7.776  13.166  52.411  1.00  0.00     0.265 C 
ATOM     52  H6  UNL     1      -8.633  13.216  50.411  1.00  0.00     0.169 HD
HETATM   53  O5  UNL     1      -6.842  14.004  52.437  1.00  0.00    -0.269 OA
ENDBRANCH  44  46
ENDBRANCH   5  42
TORSDOF 13
ENDMDL
