MODEL 1
REMARK VINA RESULT: -9.385973697      0.000      0.000
REMARK  12 active torsions:
REMARK  status: ('A' for Active; 'I' for Inactive)
REMARK    1  A    between atoms: C2_2  and  N1_3 
REMARK    2  A    between atoms: N3_9  and  C6_10 
REMARK    3  A    between atoms: C6_10  and  C7_11 
REMARK    4  A    between atoms: C7_11  and  C8_12 
REMARK    5  A    between atoms: C8_12  and  N4_13 
REMARK       I    between atoms: N5_20  and  C15_22 
REMARK    6  A    between atoms: C15_22  and  C16_24 
REMARK    7  A    between atoms: C18_26  and  N6_27 
REMARK       I    between atoms: N6_27  and  C19_29 
REMARK    8  A    between atoms: C19_29  and  C20_31 
REMARK    9  A    between atoms: C25_36  and  O3_37 
REMARK   10  A    between atoms: O3_37  and  C26_38 
REMARK   11  A    between atoms: C26_38  and  C27_39 
REMARK   12  A    between atoms: C27_39  and  N7_40 
ROOT
HETATM    1  N1  UNL     1       3.522  17.871  18.916  1.00  0.00    -0.408 N 
HETATM    2  C3  UNL     1       2.932  18.120  17.643  1.00  0.00     0.123 C 
HETATM    3  C4  UNL     1       3.068  16.981  16.680  1.00  0.00     0.078 C 
HETATM    4  C5  UNL     1       4.466  16.487  16.683  1.00  0.00     0.039 A 
HETATM    5  N2  UNL     1       5.193  15.769  15.798  1.00  0.00    -0.300 N 
ATOM      6  H2  UNL     1       4.839  15.428  14.904  1.00  0.00     0.187 HD
HETATM    7  N3  UNL     1       6.419  15.564  16.237  1.00  0.00    -0.276 N 
HETATM    8  C14 UNL     1       6.543  16.160  17.463  1.00  0.00     0.135 A 
HETATM    9  N5  UNL     1       7.628  16.128  18.122  1.00  0.00    -0.306 N 
ATOM     10  H5  UNL     1       8.388  15.627  17.662  1.00  0.00     0.170 HD
HETATM   11  C15 UNL     1       7.953  16.657  19.359  1.00  0.00     0.274 C 
HETATM   12  O1  UNL     1       7.712  15.913  20.381  1.00  0.00    -0.266 OA
HETATM   13  C33 UNL     1       5.340  16.727  17.735  1.00  0.00     0.029 A 
HETATM   14  C34 UNL     1       4.899  17.504  18.918  1.00  0.00     0.161 C 
ENDROOT
BRANCH  11  15
HETATM   15  C16 UNL     1       8.539  17.959  19.637  1.00  0.00     0.105 A 
HETATM   16  C17 UNL     1       9.855  18.309  19.436  1.00  0.00     0.066 A 
HETATM   17  C18 UNL     1      10.046  19.635  19.817  1.00  0.00     0.053 A 
HETATM   18  C31 UNL     1       8.823  20.049  20.241  1.00  0.00     0.120 A 
HETATM   19  N8  UNL     1       7.930  19.048  20.132  1.00  0.00    -0.354 N 
HETATM   20  C32 UNL     1       6.525  19.157  20.492  1.00  0.00     0.156 C 
BRANCH  17  21
HETATM   21  N6  UNL     1      11.281  20.287  19.710  1.00  0.00    -0.322 N 
HETATM   22  C19 UNL     1      11.563  21.430  18.928  1.00  0.00     0.256 C 
HETATM   23  O2  UNL     1      10.593  21.927  18.258  1.00  0.00    -0.267 OA
ATOM     24  H6  UNL     1      12.054  19.897  20.250  1.00  0.00     0.169 HD
BRANCH  22  25
HETATM   25  C20 UNL     1      12.871  22.049  18.853  1.00  0.00     0.035 A 
HETATM   26  C21 UNL     1      13.496  22.442  20.032  1.00  0.00     0.018 A 
HETATM   27  C22 UNL     1      14.735  23.055  20.011  1.00  0.00     0.010 A 
HETATM   28  C23 UNL     1      15.412  23.309  18.847  1.00  0.00    -0.029 A 
HETATM   29  C24 UNL     1      16.743  23.971  18.843  1.00  0.00     0.051 C 
HETATM   30  C25 UNL     1      14.801  22.921  17.647  1.00  0.00     0.075 A 
HETATM   31  C30 UNL     1      13.566  22.312  17.694  1.00  0.00     0.054 A 
BRANCH  30  32
HETATM   32  O3  UNL     1      15.449  23.161  16.499  1.00  0.00    -0.349 OA
BRANCH  32  33
HETATM   33  C26 UNL     1      16.197  22.444  15.615  1.00  0.00     0.206 C 
BRANCH  33  34
HETATM   34  C27 UNL     1      15.674  22.224  14.242  1.00  0.00     0.297 C 
BRANCH  34  35
HETATM   35  N7  UNL     1      15.027  20.942  14.039  1.00  0.00     0.082 N 
HETATM   36  C28 UNL     1      15.266  20.022  15.133  1.00  0.00     0.309 C 
HETATM   37  C29 UNL     1      13.583  21.234  14.071  1.00  0.00     0.309 C 
ENDBRANCH  34  35
ENDBRANCH  33  34
ENDBRANCH  32  33
ENDBRANCH  30  32
ENDBRANCH  22  25
ENDBRANCH  17  21
ENDBRANCH  11  15
BRANCH   7  38
HETATM   38  C6  UNL     1       7.414  14.821  15.497  1.00  0.00     0.156 C 
BRANCH  38  39
HETATM   39  C7  UNL     1       8.009  15.599  14.344  1.00  0.00     0.067 C 
BRANCH  39  40
HETATM   40  C8  UNL     1       9.485  15.829  14.528  1.00  0.00     0.069 C 
BRANCH  40  41
HETATM   41  N4  UNL     1       9.863  17.013  15.181  1.00  0.00    -0.354 N 
HETATM   42  C9  UNL     1      11.232  17.309  15.267  1.00  0.00     0.068 C 
HETATM   43  C10 UNL     1      11.603  18.452  16.147  1.00  0.00     0.045 C 
HETATM   44  C11 UNL     1      10.742  19.649  15.750  1.00  0.00     0.010 C 
HETATM   45  C12 UNL     1       9.304  19.228  16.079  1.00  0.00     0.045 C 
HETATM   46  C13 UNL     1       8.919  18.051  15.255  1.00  0.00     0.068 C 
ENDBRANCH  40  41
ENDBRANCH  39  40
ENDBRANCH  38  39
ENDBRANCH   7  38
BRANCH   1  47
HETATM   47  C2  UNL     1       2.700  17.149  19.839  1.00  0.00     0.112 C 
HETATM   48  C1  UNL     1       3.474  16.831  21.085  1.00  0.00     0.026 C 
ENDBRANCH   1  47
TORSDOF 12
ENDMDL
MODEL 2
REMARK VINA RESULT: -9.281498954      3.429     12.047
REMARK  12 active torsions:
REMARK  status: ('A' for Active; 'I' for Inactive)
REMARK    1  A    between atoms: C2_2  and  N1_3 
REMARK    2  A    between atoms: N3_9  and  C6_10 
REMARK    3  A    between atoms: C6_10  and  C7_11 
REMARK    4  A    between atoms: C7_11  and  C8_12 
REMARK    5  A    between atoms: C8_12  and  N4_13 
REMARK       I    between atoms: N5_20  and  C15_22 
REMARK    6  A    between atoms: C15_22  and  C16_24 
REMARK    7  A    between atoms: C18_26  and  N6_27 
REMARK       I    between atoms: N6_27  and  C19_29 
REMARK    8  A    between atoms: C19_29  and  C20_31 
REMARK    9  A    between atoms: C25_36  and  O3_37 
REMARK   10  A    between atoms: O3_37  and  C26_38 
REMARK   11  A    between atoms: C26_38  and  C27_39 
REMARK   12  A    between atoms: C27_39  and  N7_40 
ROOT
HETATM    1  N1  UNL     1      18.409  26.796  13.212  1.00  0.00    -0.408 N 
HETATM    2  C3  UNL     1      17.933  28.043  13.711  1.00  0.00     0.123 C 
HETATM    3  C4  UNL     1      18.495  28.414  15.049  1.00  0.00     0.078 C 
HETATM    4  C5  UNL     1      18.410  27.251  15.966  1.00  0.00     0.039 A 
HETATM    5  N2  UNL     1      18.429  27.135  17.313  1.00  0.00    -0.300 N 
ATOM      6  H2  UNL     1      18.513  27.922  17.957  1.00  0.00     0.187 HD
HETATM    7  N3  UNL     1      18.324  25.875  17.688  1.00  0.00    -0.276 N 
HETATM    8  C14 UNL     1      18.229  25.098  16.565  1.00  0.00     0.135 A 
HETATM    9  N5  UNL     1      18.110  23.836  16.628  1.00  0.00    -0.306 N 
ATOM     10  H5  UNL     1      18.090  23.458  17.575  1.00  0.00     0.170 HD
HETATM   11  C15 UNL     1      18.005  22.885  15.628  1.00  0.00     0.274 C 
HETATM   12  O1  UNL     1      19.109  22.412  15.167  1.00  0.00    -0.266 OA
HETATM   13  C33 UNL     1      18.283  25.947  15.508  1.00  0.00     0.029 A 
HETATM   14  C34 UNL     1      18.224  25.662  14.054  1.00  0.00     0.161 C 
ENDROOT
BRANCH  11  15
HETATM   15  C16 UNL     1      16.785  22.355  15.037  1.00  0.00     0.105 A 
HETATM   16  C17 UNL     1      15.987  21.374  15.582  1.00  0.00     0.066 A 
HETATM   17  C18 UNL     1      14.910  21.128  14.733  1.00  0.00     0.053 A 
HETATM   18  C31 UNL     1      15.094  21.979  13.691  1.00  0.00     0.120 A 
HETATM   19  N8  UNL     1      16.211  22.707  13.876  1.00  0.00    -0.354 N 
HETATM   20  C32 UNL     1      16.695  23.720  12.951  1.00  0.00     0.156 C 
BRANCH  17  21
HETATM   21  N6  UNL     1      13.909  20.193  15.027  1.00  0.00    -0.322 N 
HETATM   22  C19 UNL     1      12.590  20.477  15.445  1.00  0.00     0.256 C 
HETATM   23  O2  UNL     1      12.272  21.711  15.558  1.00  0.00    -0.267 OA
ATOM     24  H6  UNL     1      14.159  19.208  14.929  1.00  0.00     0.169 HD
BRANCH  22  25
HETATM   25  C20 UNL     1      11.604  19.457  15.744  1.00  0.00     0.035 A 
HETATM   26  C21 UNL     1      11.656  18.252  15.053  1.00  0.00     0.018 A 
HETATM   27  C22 UNL     1      10.726  17.255  15.289  1.00  0.00     0.010 A 
HETATM   28  C23 UNL     1       9.714  17.394  16.202  1.00  0.00    -0.029 A 
HETATM   29  C24 UNL     1       8.721  16.313  16.441  1.00  0.00     0.051 C 
HETATM   30  C25 UNL     1       9.643  18.601  16.910  1.00  0.00     0.075 A 
HETATM   31  C30 UNL     1      10.581  19.579  16.657  1.00  0.00     0.054 A 
BRANCH  30  32
HETATM   32  O3  UNL     1       8.660  18.753  17.807  1.00  0.00    -0.349 OA
BRANCH  32  33
HETATM   33  C26 UNL     1       8.550  18.762  19.165  1.00  0.00     0.206 C 
BRANCH  33  34
HETATM   34  C27 UNL     1       8.539  20.065  19.878  1.00  0.00     0.297 C 
BRANCH  34  35
HETATM   35  N7  UNL     1       9.788  20.407  20.533  1.00  0.00     0.082 N 
HETATM   36  C28 UNL     1      10.736  19.312  20.523  1.00  0.00     0.309 C 
HETATM   37  C29 UNL     1      10.384  21.460  19.692  1.00  0.00     0.309 C 
ENDBRANCH  34  35
ENDBRANCH  33  34
ENDBRANCH  32  33
ENDBRANCH  30  32
ENDBRANCH  22  25
ENDBRANCH  17  21
ENDBRANCH  11  15
BRANCH   7  38
HETATM   38  C6  UNL     1      18.320  25.457  19.072  1.00  0.00     0.156 C 
BRANCH  38  39
HETATM   39  C7  UNL     1      17.132  25.976  19.852  1.00  0.00     0.067 C 
BRANCH  39  40
HETATM   40  C8  UNL     1      15.853  25.855  19.068  1.00  0.00     0.069 C 
BRANCH  40  41
HETATM   41  N4  UNL     1      15.097  24.689  19.267  1.00  0.00    -0.354 N 
HETATM   42  C9  UNL     1      14.642  23.997  18.134  1.00  0.00     0.068 C 
HETATM   43  C10 UNL     1      13.671  22.896  18.383  1.00  0.00     0.045 C 
HETATM   44  C11 UNL     1      14.256  21.988  19.461  1.00  0.00     0.010 C 
HETATM   45  C12 UNL     1      14.332  22.864  20.719  1.00  0.00     0.045 C 
HETATM   46  C13 UNL     1      15.255  24.006  20.486  1.00  0.00     0.068 C 
ENDBRANCH  40  41
ENDBRANCH  39  40
ENDBRANCH  38  39
ENDBRANCH   7  38
BRANCH   1  47
HETATM   47  C2  UNL     1      19.669  26.850  12.534  1.00  0.00     0.112 C 
HETATM   48  C1  UNL     1      20.185  25.462  12.287  1.00  0.00     0.026 C 
ENDBRANCH   1  47
TORSDOF 12
ENDMDL
MODEL 3
REMARK VINA RESULT: -9.273259790      1.385      1.814
REMARK  12 active torsions:
REMARK  status: ('A' for Active; 'I' for Inactive)
REMARK    1  A    between atoms: C2_2  and  N1_3 
REMARK    2  A    between atoms: N3_9  and  C6_10 
REMARK    3  A    between atoms: C6_10  and  C7_11 
REMARK    4  A    between atoms: C7_11  and  C8_12 
REMARK    5  A    between atoms: C8_12  and  N4_13 
REMARK       I    between atoms: N5_20  and  C15_22 
REMARK    6  A    between atoms: C15_22  and  C16_24 
REMARK    7  A    between atoms: C18_26  and  N6_27 
REMARK       I    between atoms: N6_27  and  C19_29 
REMARK    8  A    between atoms: C19_29  and  C20_31 
REMARK    9  A    between atoms: C25_36  and  O3_37 
REMARK   10  A    between atoms: O3_37  and  C26_38 
REMARK   11  A    between atoms: C26_38  and  C27_39 
REMARK   12  A    between atoms: C27_39  and  N7_40 
ROOT
HETATM    1  N1  UNL     1       2.346  17.546  18.097  1.00  0.00    -0.408 N 
HETATM    2  C3  UNL     1       1.941  17.753  16.746  1.00  0.00     0.123 C 
HETATM    3  C4  UNL     1       2.142  16.559  15.864  1.00  0.00     0.078 C 
HETATM    4  C5  UNL     1       3.501  16.004  16.077  1.00  0.00     0.039 A 
HETATM    5  N2  UNL     1       4.300  15.207  15.331  1.00  0.00    -0.300 N 
ATOM      6  H2  UNL     1       4.048  14.835  14.415  1.00  0.00     0.187 HD
HETATM    7  N3  UNL     1       5.445  14.971  15.940  1.00  0.00    -0.276 N 
HETATM    8  C14 UNL     1       5.438  15.627  17.141  1.00  0.00     0.135 A 
HETATM    9  N5  UNL     1       6.424  15.581  17.940  1.00  0.00    -0.306 N 
ATOM     10  H5  UNL     1       7.212  15.022  17.609  1.00  0.00     0.170 HD
HETATM   11  C15 UNL     1       6.612  16.160  19.183  1.00  0.00     0.274 C 
HETATM   12  O1  UNL     1       6.201  15.484  20.197  1.00  0.00    -0.266 OA
HETATM   13  C33 UNL     1       4.241  16.261  17.223  1.00  0.00     0.029 A 
HETATM   14  C34 UNL     1       3.689  17.118  18.299  1.00  0.00     0.161 C 
ENDROOT
BRANCH  11  15
HETATM   15  C16 UNL     1       7.223  17.448  19.475  1.00  0.00     0.105 A 
HETATM   16  C17 UNL     1       8.345  17.963  18.865  1.00  0.00     0.066 A 
HETATM   17  C18 UNL     1       8.632  19.215  19.404  1.00  0.00     0.053 A 
HETATM   18  C31 UNL     1       7.661  19.418  20.333  1.00  0.00     0.120 A 
HETATM   19  N8  UNL     1       6.825  18.364  20.371  1.00  0.00    -0.354 N 
HETATM   20  C32 UNL     1       5.672  18.262  21.250  1.00  0.00     0.156 C 
BRANCH  17  21
HETATM   21  N6  UNL     1       9.707  20.001  18.971  1.00  0.00    -0.322 N 
HETATM   22  C19 UNL     1      11.056  19.875  19.375  1.00  0.00     0.256 C 
HETATM   23  O2  UNL     1      11.325  18.946  20.213  1.00  0.00    -0.267 OA
ATOM     24  H6  UNL     1       9.496  20.737  18.297  1.00  0.00     0.169 HD
BRANCH  22  25
HETATM   25  C20 UNL     1      12.122  20.731  18.895  1.00  0.00     0.035 A 
HETATM   26  C21 UNL     1      12.136  22.066  19.283  1.00  0.00     0.018 A 
HETATM   27  C22 UNL     1      13.121  22.928  18.836  1.00  0.00     0.010 A 
HETATM   28  C23 UNL     1      14.126  22.525  17.996  1.00  0.00    -0.029 A 
HETATM   29  C24 UNL     1      15.175  23.466  17.523  1.00  0.00     0.051 C 
HETATM   30  C25 UNL     1      14.131  21.183  17.592  1.00  0.00     0.075 A 
HETATM   31  C30 UNL     1      13.139  20.344  18.051  1.00  0.00     0.054 A 
BRANCH  30  32
HETATM   32  O3  UNL     1      15.107  20.772  16.772  1.00  0.00    -0.349 OA
BRANCH  32  33
HETATM   33  C26 UNL     1      15.191  20.249  15.517  1.00  0.00     0.206 C 
BRANCH  33  34
HETATM   34  C27 UNL     1      15.722  21.096  14.418  1.00  0.00     0.297 C 
BRANCH  34  35
HETATM   35  N7  UNL     1      14.868  22.207  14.044  1.00  0.00     0.082 N 
HETATM   36  C28 UNL     1      15.581  23.227  13.301  1.00  0.00     0.309 C 
HETATM   37  C29 UNL     1      13.890  21.636  13.101  1.00  0.00     0.309 C 
ENDBRANCH  34  35
ENDBRANCH  33  34
ENDBRANCH  32  33
ENDBRANCH  30  32
ENDBRANCH  22  25
ENDBRANCH  17  21
ENDBRANCH  11  15
BRANCH   7  38
HETATM   38  C6  UNL     1       6.489  14.145  15.374  1.00  0.00     0.156 C 
BRANCH  38  39
HETATM   39  C7  UNL     1       7.253  14.825  14.260  1.00  0.00     0.067 C 
BRANCH  39  40
HETATM   40  C8  UNL     1       8.711  14.983  14.598  1.00  0.00     0.069 C 
BRANCH  40  41
HETATM   41  N4  UNL     1       9.188  16.296  14.737  1.00  0.00    -0.354 N 
HETATM   42  C9  UNL     1       8.317  17.262  15.264  1.00  0.00     0.068 C 
HETATM   43  C10 UNL     1       8.784  18.675  15.196  1.00  0.00     0.045 C 
HETATM   44  C11 UNL     1      10.191  18.734  15.785  1.00  0.00     0.010 C 
HETATM   45  C12 UNL     1      11.053  17.890  14.835  1.00  0.00     0.045 C 
HETATM   46  C13 UNL     1      10.578  16.480  14.838  1.00  0.00     0.068 C 
ENDBRANCH  40  41
ENDBRANCH  39  40
ENDBRANCH  38  39
ENDBRANCH   7  38
BRANCH   1  47
HETATM   47  C2  UNL     1       1.374  16.912  18.935  1.00  0.00     0.112 C 
HETATM   48  C1  UNL     1       2.007  16.473  20.223  1.00  0.00     0.026 C 
ENDBRANCH   1  47
TORSDOF 12
ENDMDL
MODEL 4
REMARK VINA RESULT: -9.212668359      0.862      1.110
REMARK  12 active torsions:
REMARK  status: ('A' for Active; 'I' for Inactive)
REMARK    1  A    between atoms: C2_2  and  N1_3 
REMARK    2  A    between atoms: N3_9  and  C6_10 
REMARK    3  A    between atoms: C6_10  and  C7_11 
REMARK    4  A    between atoms: C7_11  and  C8_12 
REMARK    5  A    between atoms: C8_12  and  N4_13 
REMARK       I    between atoms: N5_20  and  C15_22 
REMARK    6  A    between atoms: C15_22  and  C16_24 
REMARK    7  A    between atoms: C18_26  and  N6_27 
REMARK       I    between atoms: N6_27  and  C19_29 
REMARK    8  A    between atoms: C19_29  and  C20_31 
REMARK    9  A    between atoms: C25_36  and  O3_37 
REMARK   10  A    between atoms: O3_37  and  C26_38 
REMARK   11  A    between atoms: C26_38  and  C27_39 
REMARK   12  A    between atoms: C27_39  and  N7_40 
ROOT
HETATM    1  N1  UNL     1       3.353  17.785  18.771  1.00  0.00    -0.408 N 
HETATM    2  C3  UNL     1       2.804  18.161  17.511  1.00  0.00     0.123 C 
HETATM    3  C4  UNL     1       2.876  17.083  16.473  1.00  0.00     0.078 C 
HETATM    4  C5  UNL     1       4.236  16.492  16.460  1.00  0.00     0.039 A 
HETATM    5  N2  UNL     1       4.926  15.784  15.537  1.00  0.00    -0.300 N 
ATOM      6  H2  UNL     1       4.564  15.531  14.618  1.00  0.00     0.187 HD
HETATM    7  N3  UNL     1       6.126  15.463  15.977  1.00  0.00    -0.276 N 
HETATM    8  C14 UNL     1       6.270  15.965  17.242  1.00  0.00     0.135 A 
HETATM    9  N5  UNL     1       7.338  15.811  17.911  1.00  0.00    -0.306 N 
ATOM     10  H5  UNL     1       8.070  15.289  17.428  1.00  0.00     0.170 HD
HETATM   11  C15 UNL     1       7.678  16.231  19.185  1.00  0.00     0.274 C 
HETATM   12  O1  UNL     1       7.368  15.439  20.151  1.00  0.00    -0.266 OA
HETATM   13  C33 UNL     1       5.106  16.597  17.537  1.00  0.00     0.029 A 
HETATM   14  C34 UNL     1       4.700  17.322  18.765  1.00  0.00     0.161 C 
ENDROOT
BRANCH  11  15
HETATM   15  C16 UNL     1       8.350  17.466  19.560  1.00  0.00     0.105 A 
HETATM   16  C17 UNL     1       9.615  17.844  19.171  1.00  0.00     0.066 A 
HETATM   17  C18 UNL     1       9.919  19.086  19.724  1.00  0.00     0.053 A 
HETATM   18  C31 UNL     1       8.812  19.422  20.438  1.00  0.00     0.120 A 
HETATM   19  N8  UNL     1       7.882  18.455  20.336  1.00  0.00    -0.354 N 
HETATM   20  C32 UNL     1       6.574  18.504  20.972  1.00  0.00     0.156 C 
BRANCH  17  21
HETATM   21  N6  UNL     1      11.133  19.745  19.493  1.00  0.00    -0.322 N 
HETATM   22  C19 UNL     1      11.297  21.033  18.934  1.00  0.00     0.256 C 
HETATM   23  O2  UNL     1      10.231  21.666  18.617  1.00  0.00    -0.267 OA
ATOM     24  H6  UNL     1      11.983  19.245  19.753  1.00  0.00     0.169 HD
BRANCH  22  25
HETATM   25  C20 UNL     1      12.587  21.653  18.711  1.00  0.00     0.035 A 
HETATM   26  C21 UNL     1      13.334  22.062  19.810  1.00  0.00     0.018 A 
HETATM   27  C22 UNL     1      14.563  22.677  19.648  1.00  0.00     0.010 A 
HETATM   28  C23 UNL     1      15.109  22.916  18.414  1.00  0.00    -0.029 A 
HETATM   29  C24 UNL     1      16.429  23.581  18.259  1.00  0.00     0.051 C 
HETATM   30  C25 UNL     1      14.373  22.512  17.292  1.00  0.00     0.075 A 
HETATM   31  C30 UNL     1      13.152  21.901  17.480  1.00  0.00     0.054 A 
BRANCH  30  32
HETATM   32  O3  UNL     1      14.893  22.738  16.078  1.00  0.00    -0.349 OA
BRANCH  32  33
HETATM   33  C26 UNL     1      15.117  22.014  14.946  1.00  0.00     0.206 C 
BRANCH  33  34
HETATM   34  C27 UNL     1      16.464  21.430  14.721  1.00  0.00     0.297 C 
BRANCH  34  35
HETATM   35  N7  UNL     1      17.539  22.401  14.636  1.00  0.00     0.082 N 
HETATM   36  C28 UNL     1      18.827  21.781  14.396  1.00  0.00     0.309 C 
HETATM   37  C29 UNL     1      17.244  23.190  13.426  1.00  0.00     0.309 C 
ENDBRANCH  34  35
ENDBRANCH  33  34
ENDBRANCH  32  33
ENDBRANCH  30  32
ENDBRANCH  22  25
ENDBRANCH  17  21
ENDBRANCH  11  15
BRANCH   7  38
HETATM   38  C6  UNL     1       7.079  14.702  15.200  1.00  0.00     0.156 C 
BRANCH  38  39
HETATM   39  C7  UNL     1       7.869  15.548  14.225  1.00  0.00     0.067 C 
BRANCH  39  40
HETATM   40  C8  UNL     1       9.319  15.641  14.615  1.00  0.00     0.069 C 
BRANCH  40  41
HETATM   41  N4  UNL     1       9.742  16.849  15.192  1.00  0.00    -0.354 N 
HETATM   42  C9  UNL     1      11.119  17.120  15.218  1.00  0.00     0.068 C 
HETATM   43  C10 UNL     1      11.541  18.299  16.024  1.00  0.00     0.045 C 
HETATM   44  C11 UNL     1      10.691  19.492  15.593  1.00  0.00     0.010 C 
HETATM   45  C12 UNL     1       9.256  19.118  15.991  1.00  0.00     0.045 C 
HETATM   46  C13 UNL     1       8.821  17.909  15.242  1.00  0.00     0.068 C 
ENDBRANCH  40  41
ENDBRANCH  39  40
ENDBRANCH  38  39
ENDBRANCH   7  38
BRANCH   1  47
HETATM   47  C2  UNL     1       2.466  17.063  19.632  1.00  0.00     0.112 C 
HETATM   48  C1  UNL     1       3.153  16.730  20.924  1.00  0.00     0.026 C 
ENDBRANCH   1  47
TORSDOF 12
ENDMDL
MODEL 5
REMARK VINA RESULT: -9.149953295      1.757      2.713
REMARK  12 active torsions:
REMARK  status: ('A' for Active; 'I' for Inactive)
REMARK    1  A    between atoms: C2_2  and  N1_3 
REMARK    2  A    between atoms: N3_9  and  C6_10 
REMARK    3  A    between atoms: C6_10  and  C7_11 
REMARK    4  A    between atoms: C7_11  and  C8_12 
REMARK    5  A    between atoms: C8_12  and  N4_13 
REMARK       I    between atoms: N5_20  and  C15_22 
REMARK    6  A    between atoms: C15_22  and  C16_24 
REMARK    7  A    between atoms: C18_26  and  N6_27 
REMARK       I    between atoms: N6_27  and  C19_29 
REMARK    8  A    between atoms: C19_29  and  C20_31 
REMARK    9  A    between atoms: C25_36  and  O3_37 
REMARK   10  A    between atoms: O3_37  and  C26_38 
REMARK   11  A    between atoms: C26_38  and  C27_39 
REMARK   12  A    between atoms: C27_39  and  N7_40 
ROOT
HETATM    1  N1  UNL     1       2.975  18.110  18.853  1.00  0.00    -0.408 N 
HETATM    2  C3  UNL     1       2.476  18.484  17.571  1.00  0.00     0.123 C 
HETATM    3  C4  UNL     1       2.433  17.357  16.586  1.00  0.00     0.078 C 
HETATM    4  C5  UNL     1       3.720  16.620  16.613  1.00  0.00     0.039 A 
HETATM    5  N2  UNL     1       4.331  15.798  15.729  1.00  0.00    -0.300 N 
ATOM      6  H2  UNL     1       3.947  15.543  14.819  1.00  0.00     0.187 HD
HETATM    7  N3  UNL     1       5.488  15.369  16.195  1.00  0.00    -0.276 N 
HETATM    8  C14 UNL     1       5.681  15.911  17.436  1.00  0.00     0.135 A 
HETATM    9  N5  UNL     1       6.723  15.672  18.122  1.00  0.00    -0.306 N 
ATOM     10  H5  UNL     1       7.394  15.051  17.669  1.00  0.00     0.170 HD
HETATM   11  C15 UNL     1       7.102  16.112  19.378  1.00  0.00     0.274 C 
HETATM   12  O1  UNL     1       6.703  15.405  20.377  1.00  0.00    -0.266 OA
HETATM   13  C33 UNL     1       4.592  16.680  17.691  1.00  0.00     0.029 A 
HETATM   14  C34 UNL     1       4.263  17.501  18.881  1.00  0.00     0.161 C 
ENDROOT
BRANCH  11  15
HETATM   15  C16 UNL     1       7.904  17.283  19.701  1.00  0.00     0.105 A 
HETATM   16  C17 UNL     1       9.127  17.596  19.153  1.00  0.00     0.066 A 
HETATM   17  C18 UNL     1       9.591  18.788  19.705  1.00  0.00     0.053 A 
HETATM   18  C31 UNL     1       8.619  19.161  20.578  1.00  0.00     0.120 A 
HETATM   19  N8  UNL     1       7.617  18.262  20.572  1.00  0.00    -0.354 N 
HETATM   20  C32 UNL     1       6.417  18.365  21.386  1.00  0.00     0.156 C 
BRANCH  17  21
HETATM   21  N6  UNL     1      10.805  19.378  19.330  1.00  0.00    -0.322 N 
HETATM   22  C19 UNL     1      11.040  20.755  19.119  1.00  0.00     0.256 C 
HETATM   23  O2  UNL     1      10.050  21.546  19.297  1.00  0.00    -0.267 OA
ATOM     24  H6  UNL     1      11.597  18.750  19.196  1.00  0.00     0.169 HD
BRANCH  22  25
HETATM   25  C20 UNL     1      12.323  21.299  18.720  1.00  0.00     0.035 A 
HETATM   26  C21 UNL     1      13.395  20.431  18.547  1.00  0.00     0.018 A 
HETATM   27  C22 UNL     1      14.643  20.904  18.186  1.00  0.00     0.010 A 
HETATM   28  C23 UNL     1      14.896  22.235  17.981  1.00  0.00    -0.029 A 
HETATM   29  C24 UNL     1      16.245  22.726  17.596  1.00  0.00     0.051 C 
HETATM   30  C25 UNL     1      13.829  23.128  18.150  1.00  0.00     0.075 A 
HETATM   31  C30 UNL     1      12.595  22.632  18.510  1.00  0.00     0.054 A 
BRANCH  30  32
HETATM   32  O3  UNL     1      14.058  24.433  17.953  1.00  0.00    -0.349 OA
BRANCH  32  33
HETATM   33  C26 UNL     1      14.466  25.492  18.707  1.00  0.00     0.206 C 
BRANCH  33  34
HETATM   34  C27 UNL     1      15.035  25.239  20.056  1.00  0.00     0.297 C 
BRANCH  34  35
HETATM   35  N7  UNL     1      16.378  25.750  20.252  1.00  0.00     0.082 N 
HETATM   36  C28 UNL     1      17.305  24.719  20.676  1.00  0.00     0.309 C 
HETATM   37  C29 UNL     1      16.828  26.164  18.911  1.00  0.00     0.309 C 
ENDBRANCH  34  35
ENDBRANCH  33  34
ENDBRANCH  32  33
ENDBRANCH  30  32
ENDBRANCH  22  25
ENDBRANCH  17  21
ENDBRANCH  11  15
BRANCH   7  38
HETATM   38  C6  UNL     1       6.354  14.472  15.462  1.00  0.00     0.156 C 
BRANCH  38  39
HETATM   39  C7  UNL     1       7.125  15.156  14.355  1.00  0.00     0.067 C 
BRANCH  39  40
HETATM   40  C8  UNL     1       7.260  16.634  14.598  1.00  0.00     0.069 C 
BRANCH  40  41
HETATM   41  N4  UNL     1       8.562  17.132  14.766  1.00  0.00    -0.354 N 
HETATM   42  C9  UNL     1       8.751  18.191  15.666  1.00  0.00     0.068 C 
HETATM   43  C10 UNL     1      10.097  18.829  15.657  1.00  0.00     0.045 C 
HETATM   44  C11 UNL     1      11.142  17.723  15.784  1.00  0.00     0.010 C 
HETATM   45  C12 UNL     1      10.990  16.886  14.507  1.00  0.00     0.045 C 
HETATM   46  C13 UNL     1       9.634  16.277  14.458  1.00  0.00     0.068 C 
ENDBRANCH  40  41
ENDBRANCH  39  40
ENDBRANCH  38  39
ENDBRANCH   7  38
BRANCH   1  47
HETATM   47  C2  UNL     1       2.011  17.530  19.738  1.00  0.00     0.112 C 
HETATM   48  C1  UNL     1       2.701  16.856  20.888  1.00  0.00     0.026 C 
ENDBRANCH   1  47
TORSDOF 12
ENDMDL
