MODEL 1
REMARK VINA RESULT: -8.508164089      0.000      0.000
REMARK  17 active torsions:
REMARK  status: ('A' for Active; 'I' for Inactive)
REMARK    1  A    between atoms: C2_2  and  C3_3 
REMARK    2  A    between atoms: C3_3  and  N1_4 
REMARK    3  A    between atoms: N1_4  and  C4_5 
REMARK    4  A    between atoms: N1_4  and  C6_7 
REMARK    5  A    between atoms: C6_7  and  O1_8 
REMARK    6  A    between atoms: C6_7  and  N2_10 
REMARK    7  A    between atoms: N3_13  and  C9_14 
REMARK    8  A    between atoms: C12_17  and  C13_18 
REMARK    9  A    between atoms: C14_21  and  N5_22 
REMARK   10  A    between atoms: C17_27  and  O2_28 
REMARK   11  A    between atoms: C19_30  and  O3_31 
REMARK   12  A    between atoms: C24_38  and  N7_39 
REMARK   13  A    between atoms: N7_39  and  C26_41 
REMARK   14  A    between atoms: C26_41  and  O4_42 
REMARK   15  A    between atoms: C27_44  and  N8_45 
REMARK   16  A    between atoms: N8_45  and  C28_46 
REMARK   17  A    between atoms: N8_45  and  C30_48 
ROOT
HETATM    1  C9  UNL     1      12.986  20.401  16.577  1.00  0.00     0.057 A 
HETATM    2  C10 UNL     1      13.486  19.786  15.400  1.00  0.00     0.033 A 
HETATM    3  C11 UNL     1      14.625  20.271  14.804  1.00  0.00     0.017 A 
HETATM    4  C12 UNL     1      15.311  21.342  15.307  1.00  0.00     0.010 A 
HETATM    5  C23 UNL     1      14.793  21.913  16.455  1.00  0.00     0.047 A 
HETATM    6  C24 UNL     1      13.656  21.473  17.098  1.00  0.00     0.063 A 
ENDROOT
BRANCH   4   7
HETATM    7  C13 UNL     1      16.523  21.914  14.725  1.00  0.00     0.117 A 
HETATM    8  N4  UNL     1      17.738  21.401  15.031  1.00  0.00    -0.328 N 
HETATM    9  C14 UNL     1      18.898  21.889  14.514  1.00  0.00     0.113 A 
ATOM     10  H4  UNL     1      17.786  20.615  15.678  1.00  0.00     0.169 HD
HETATM   11  C15 UNL     1      18.862  22.945  13.647  1.00  0.00     0.037 A 
HETATM   12  C16 UNL     1      20.007  23.493  13.085  1.00  0.00     0.057 A 
HETATM   13  C22 UNL     1      17.648  23.469  13.331  1.00  0.00     0.050 A 
HETATM   14  C17 UNL     1      19.956  24.573  12.200  1.00  0.00     0.102 A 
HETATM   15  C19 UNL     1      18.711  25.072  11.909  1.00  0.00     0.103 A 
HETATM   16  C21 UNL     1      17.555  24.537  12.460  1.00  0.00     0.070 A 
HETATM   17  N6  UNL     1      16.505  22.944  13.878  1.00  0.00    -0.341 N 
ATOM     18  H6  UNL     1      15.606  23.356  13.627  1.00  0.00     0.167 HD
BRANCH   9  19
HETATM   19  N5  UNL     1      19.976  21.339  14.862  1.00  0.00    -0.385 N 
ATOM     20  H52 UNL     1      20.801  21.328  14.263  1.00  0.00     0.157 HD
ATOM     21  H51 UNL     1      20.010  20.892  15.779  1.00  0.00     0.157 HD
ENDBRANCH   9  19
BRANCH  14  22
HETATM   22  O2  UNL     1      21.120  25.108  11.643  1.00  0.00    -0.353 OA
HETATM   23  C18 UNL     1      21.614  24.503  10.466  1.00  0.00     0.210 C 
ENDBRANCH  14  22
BRANCH  15  24
HETATM   24  O3  UNL     1      18.635  26.158  11.020  1.00  0.00    -0.353 OA
HETATM   25  C20 UNL     1      18.300  25.950   9.649  1.00  0.00     0.210 C 
ENDBRANCH  15  24
ENDBRANCH   4   7
BRANCH   6  26
HETATM   26  N7  UNL     1      13.258  22.176  18.285  1.00  0.00    -0.329 N 
HETATM   27  C25 UNL     1      12.137  23.077  18.111  1.00  0.00     0.158 C 
BRANCH  26  28
HETATM   28  C26 UNL     1      13.933  22.078  19.498  1.00  0.00     0.158 C 
HETATM   29  C27 UNL     1      14.972  22.842  20.136  1.00  0.00     0.146 C 
BRANCH  28  30
HETATM   30  O4  UNL     1      13.536  21.055  20.228  1.00  0.00    -0.345 OA
ATOM     31  H4  UNL     1      14.097  20.892  20.976  1.00  0.00     0.219 HD
ENDBRANCH  28  30
BRANCH  29  32
HETATM   32  N8  UNL     1      15.502  24.014  19.618  1.00  0.00    -0.367 N 
BRANCH  32  33
HETATM   33  C28 UNL     1      14.912  25.264  19.870  1.00  0.00     0.059 C 
HETATM   34  C29 UNL     1      14.363  25.935  18.609  1.00  0.00     0.055 C 
ENDBRANCH  32  33
BRANCH  32  35
HETATM   35  C30 UNL     1      16.871  23.999  19.221  1.00  0.00     0.123 C 
HETATM   36  C31 UNL     1      17.622  25.019  20.074  1.00  0.00     0.027 C 
ENDBRANCH  32  35
ENDBRANCH  29  32
ENDBRANCH  26  28
ENDBRANCH   6  26
BRANCH   1  37
HETATM   37  N3  UNL     1      11.812  19.871  17.133  1.00  0.00    -0.376 N 
HETATM   38  C8  UNL     1      10.514  20.382  16.798  1.00  0.00     0.143 C 
HETATM   39  C7  UNL     1       9.748  19.231  16.084  1.00  0.00     0.146 C 
HETATM   40  N2  UNL     1       9.798  18.079  16.941  1.00  0.00    -0.344 N 
HETATM   41  C33 UNL     1      10.434  18.250  18.265  1.00  0.00     0.146 C 
HETATM   42  C32 UNL     1      11.850  18.760  18.056  1.00  0.00     0.143 C 
BRANCH  40  43
HETATM   43  C6  UNL     1       9.273  16.810  16.604  1.00  0.00     0.217 C 
BRANCH  43  44
HETATM   44  N1  UNL     1       8.820  16.340  15.381  1.00  0.00    -0.348 N 
BRANCH  44  45
HETATM   45  C3  UNL     1       7.548  16.420  14.748  1.00  0.00     0.126 C 
BRANCH  45  46
HETATM   46  C2  UNL     1       7.142  15.092  14.113  1.00  0.00     0.015 C 
HETATM   47  C1  UNL     1       5.992  14.548  14.939  1.00  0.00     0.006 C 
ENDBRANCH  45  46
ENDBRANCH  44  45
BRANCH  44  48
HETATM   48  C4  UNL     1       9.862  15.612  14.559  1.00  0.00     0.122 C 
HETATM   49  C5  UNL     1      10.863  16.564  14.004  1.00  0.00     0.026 C 
ENDBRANCH  44  48
ENDBRANCH  43  44
BRANCH  43  50
HETATM   50  O1  UNL     1       9.204  15.958  17.590  1.00  0.00    -0.333 OA
ATOM     51  H1  UNL     1      10.039  15.702  17.964  1.00  0.00     0.220 HD
ENDBRANCH  43  50
ENDBRANCH  40  43
ENDBRANCH   1  37
TORSDOF 17
ENDMDL
MODEL 2
REMARK VINA RESULT: -8.501148655      4.106     12.339
REMARK  17 active torsions:
REMARK  status: ('A' for Active; 'I' for Inactive)
REMARK    1  A    between atoms: C2_2  and  C3_3 
REMARK    2  A    between atoms: C3_3  and  N1_4 
REMARK    3  A    between atoms: N1_4  and  C4_5 
REMARK    4  A    between atoms: N1_4  and  C6_7 
REMARK    5  A    between atoms: C6_7  and  O1_8 
REMARK    6  A    between atoms: C6_7  and  N2_10 
REMARK    7  A    between atoms: N3_13  and  C9_14 
REMARK    8  A    between atoms: C12_17  and  C13_18 
REMARK    9  A    between atoms: C14_21  and  N5_22 
REMARK   10  A    between atoms: C17_27  and  O2_28 
REMARK   11  A    between atoms: C19_30  and  O3_31 
REMARK   12  A    between atoms: C24_38  and  N7_39 
REMARK   13  A    between atoms: N7_39  and  C26_41 
REMARK   14  A    between atoms: C26_41  and  O4_42 
REMARK   15  A    between atoms: C27_44  and  N8_45 
REMARK   16  A    between atoms: N8_45  and  C28_46 
REMARK   17  A    between atoms: N8_45  and  C30_48 
ROOT
HETATM    1  C9  UNL     1      11.252  21.014  19.037  1.00  0.00     0.057 A 
HETATM    2  C10 UNL     1      10.265  21.616  19.860  1.00  0.00     0.033 A 
HETATM    3  C11 UNL     1       9.101  20.941  20.139  1.00  0.00     0.017 A 
HETATM    4  C12 UNL     1       8.849  19.690  19.646  1.00  0.00     0.010 A 
HETATM    5  C23 UNL     1       9.834  19.138  18.849  1.00  0.00     0.047 A 
HETATM    6  C24 UNL     1      11.021  19.764  18.533  1.00  0.00     0.063 A 
ENDROOT
BRANCH   4   7
HETATM    7  C13 UNL     1       7.634  18.917  19.896  1.00  0.00     0.117 A 
HETATM    8  N4  UNL     1       6.995  18.296  18.877  1.00  0.00    -0.328 N 
HETATM    9  C14 UNL     1       5.865  17.559  19.053  1.00  0.00     0.113 A 
ATOM     10  H4  UNL     1       7.378  18.385  17.936  1.00  0.00     0.169 HD
HETATM   11  C15 UNL     1       5.330  17.427  20.304  1.00  0.00     0.037 A 
HETATM   12  C16 UNL     1       4.179  16.692  20.552  1.00  0.00     0.057 A 
HETATM   13  C22 UNL     1       5.962  18.046  21.336  1.00  0.00     0.050 A 
HETATM   14  C17 UNL     1       3.642  16.565  21.835  1.00  0.00     0.102 A 
HETATM   15  C19 UNL     1       4.310  17.206  22.849  1.00  0.00     0.103 A 
HETATM   16  C21 UNL     1       5.462  17.944  22.619  1.00  0.00     0.070 A 
HETATM   17  N6  UNL     1       7.099  18.779  21.110  1.00  0.00    -0.341 N 
ATOM     18  H6  UNL     1       7.553  19.236  21.901  1.00  0.00     0.167 HD
BRANCH   9  19
HETATM   19  N5  UNL     1       5.350  17.020  18.038  1.00  0.00    -0.385 N 
ATOM     20  H52 UNL     1       4.341  16.916  17.928  1.00  0.00     0.157 HD
ATOM     21  H51 UNL     1       5.976  16.678  17.308  1.00  0.00     0.157 HD
ENDBRANCH   9  19
BRANCH  14  22
HETATM   22  O2  UNL     1       2.483  15.819  22.065  1.00  0.00    -0.353 OA
HETATM   23  C18 UNL     1       1.495  15.827  21.056  1.00  0.00     0.210 C 
ENDBRANCH  14  22
BRANCH  15  24
HETATM   24  O3  UNL     1       3.789  17.093  24.148  1.00  0.00    -0.353 OA
HETATM   25  C20 UNL     1       4.646  17.201  25.285  1.00  0.00     0.210 C 
ENDBRANCH  15  24
ENDBRANCH   4   7
BRANCH   6  26
HETATM   26  N7  UNL     1      11.941  19.048  17.696  1.00  0.00    -0.329 N 
HETATM   27  C25 UNL     1      12.920  18.252  18.409  1.00  0.00     0.158 C 
BRANCH  26  28
HETATM   28  C26 UNL     1      11.963  19.159  16.309  1.00  0.00     0.158 C 
HETATM   29  C27 UNL     1      11.111  18.693  15.248  1.00  0.00     0.146 C 
BRANCH  28  30
HETATM   30  O4  UNL     1      12.999  19.842  15.864  1.00  0.00    -0.345 OA
ATOM     31  H4  UNL     1      12.797  20.755  15.695  1.00  0.00     0.219 HD
ENDBRANCH  28  30
BRANCH  29  32
HETATM   32  N8  UNL     1       9.912  18.026  15.453  1.00  0.00    -0.367 N 
BRANCH  32  33
HETATM   33  C28 UNL     1       8.685  18.709  15.488  1.00  0.00     0.059 C 
HETATM   34  C29 UNL     1       7.655  18.144  14.508  1.00  0.00     0.055 C 
ENDBRANCH  32  33
BRANCH  32  35
HETATM   35  C30 UNL     1       9.881  16.628  15.175  1.00  0.00     0.123 C 
HETATM   36  C31 UNL     1      10.853  16.351  14.031  1.00  0.00     0.027 C 
ENDBRANCH  32  35
ENDBRANCH  29  32
ENDBRANCH  26  28
ENDBRANCH   6  26
BRANCH   1  37
HETATM   37  N3  UNL     1      12.414  21.757  18.776  1.00  0.00    -0.376 N 
HETATM   38  C8  UNL     1      13.575  21.672  19.615  1.00  0.00     0.143 C 
HETATM   39  C7  UNL     1      14.718  21.076  18.743  1.00  0.00     0.146 C 
HETATM   40  N2  UNL     1      14.823  21.880  17.557  1.00  0.00    -0.344 N 
HETATM   41  C33 UNL     1      13.955  23.073  17.471  1.00  0.00     0.146 C 
HETATM   42  C32 UNL     1      12.510  22.628  17.628  1.00  0.00     0.143 C 
BRANCH  40  43
HETATM   43  C6  UNL     1      15.704  21.609  16.485  1.00  0.00     0.217 C 
BRANCH  43  44
HETATM   44  N1  UNL     1      16.434  22.488  15.700  1.00  0.00    -0.348 N 
BRANCH  44  45
HETATM   45  C3  UNL     1      16.512  22.655  14.288  1.00  0.00     0.126 C 
BRANCH  45  46
HETATM   46  C2  UNL     1      15.183  23.112  13.693  1.00  0.00     0.015 C 
HETATM   47  C1  UNL     1      14.540  21.888  13.071  1.00  0.00     0.006 C 
ENDBRANCH  45  46
ENDBRANCH  44  45
BRANCH  44  48
HETATM   48  C4  UNL     1      17.304  23.455  16.473  1.00  0.00     0.122 C 
HETATM   49  C5  UNL     1      18.747  23.137  16.289  1.00  0.00     0.026 C 
ENDBRANCH  44  48
ENDBRANCH  43  44
BRANCH  43  50
HETATM   50  O1  UNL     1      15.853  20.346  16.194  1.00  0.00    -0.333 OA
ATOM     51  H1  UNL     1      15.925  19.763  16.941  1.00  0.00     0.220 HD
ENDBRANCH  43  50
ENDBRANCH  40  43
ENDBRANCH   1  37
TORSDOF 17
ENDMDL
MODEL 3
REMARK VINA RESULT: -8.492673587      2.447      4.735
REMARK  17 active torsions:
REMARK  status: ('A' for Active; 'I' for Inactive)
REMARK    1  A    between atoms: C2_2  and  C3_3 
REMARK    2  A    between atoms: C3_3  and  N1_4 
REMARK    3  A    between atoms: N1_4  and  C4_5 
REMARK    4  A    between atoms: N1_4  and  C6_7 
REMARK    5  A    between atoms: C6_7  and  O1_8 
REMARK    6  A    between atoms: C6_7  and  N2_10 
REMARK    7  A    between atoms: N3_13  and  C9_14 
REMARK    8  A    between atoms: C12_17  and  C13_18 
REMARK    9  A    between atoms: C14_21  and  N5_22 
REMARK   10  A    between atoms: C17_27  and  O2_28 
REMARK   11  A    between atoms: C19_30  and  O3_31 
REMARK   12  A    between atoms: C24_38  and  N7_39 
REMARK   13  A    between atoms: N7_39  and  C26_41 
REMARK   14  A    between atoms: C26_41  and  O4_42 
REMARK   15  A    between atoms: C27_44  and  N8_45 
REMARK   16  A    between atoms: N8_45  and  C28_46 
REMARK   17  A    between atoms: N8_45  and  C30_48 
ROOT
HETATM    1  C9  UNL     1      12.864  21.088  18.898  1.00  0.00     0.057 A 
HETATM    2  C10 UNL     1      13.314  21.702  20.095  1.00  0.00     0.033 A 
HETATM    3  C11 UNL     1      14.293  22.665  20.046  1.00  0.00     0.017 A 
HETATM    4  C12 UNL     1      14.864  23.063  18.868  1.00  0.00     0.010 A 
HETATM    5  C23 UNL     1      14.399  22.442  17.724  1.00  0.00     0.047 A 
HETATM    6  C24 UNL     1      13.421  21.471  17.709  1.00  0.00     0.063 A 
ENDROOT
BRANCH   4   7
HETATM    7  C13 UNL     1      15.911  24.075  18.741  1.00  0.00     0.117 A 
HETATM    8  N4  UNL     1      16.192  24.903  19.773  1.00  0.00    -0.328 N 
HETATM    9  C14 UNL     1      17.160  25.858  19.713  1.00  0.00     0.113 A 
ATOM     10  H4  UNL     1      15.655  24.808  20.635  1.00  0.00     0.169 HD
HETATM   11  C15 UNL     1      17.893  26.008  18.568  1.00  0.00     0.037 A 
HETATM   12  C16 UNL     1      18.892  26.963  18.438  1.00  0.00     0.057 A 
HETATM   13  C22 UNL     1      17.620  25.182  17.524  1.00  0.00     0.050 A 
HETATM   14  C17 UNL     1      19.633  27.106  17.263  1.00  0.00     0.102 A 
HETATM   15  C19 UNL     1      19.326  26.253  16.233  1.00  0.00     0.103 A 
HETATM   16  C21 UNL     1      18.331  25.292  16.345  1.00  0.00     0.070 A 
HETATM   17  N6  UNL     1      16.634  24.234  17.632  1.00  0.00    -0.341 N 
ATOM     18  H6  UNL     1      16.447  23.628  16.833  1.00  0.00     0.167 HD
BRANCH   9  19
HETATM   19  N5  UNL     1      17.344  26.576  20.730  1.00  0.00    -0.385 N 
ATOM     20  H52 UNL     1      16.573  26.992  21.252  1.00  0.00     0.157 HD
ATOM     21  H51 UNL     1      18.305  26.739  21.033  1.00  0.00     0.157 HD
ENDBRANCH   9  19
BRANCH  14  22
HETATM   22  O2  UNL     1      20.637  28.072  17.154  1.00  0.00    -0.353 OA
HETATM   23  C18 UNL     1      21.312  28.444  18.338  1.00  0.00     0.210 C 
ENDBRANCH  14  22
BRANCH  15  24
HETATM   24  O3  UNL     1      20.058  26.378  15.041  1.00  0.00    -0.353 OA
HETATM   25  C20 UNL     1      19.515  25.917  13.805  1.00  0.00     0.210 C 
ENDBRANCH  15  24
ENDBRANCH   4   7
BRANCH   6  26
HETATM   26  N7  UNL     1      13.048  20.932  16.432  1.00  0.00    -0.329 N 
HETATM   27  C25 UNL     1      11.711  21.275  15.993  1.00  0.00     0.158 C 
BRANCH  26  28
HETATM   28  C26 UNL     1      13.860  20.075  15.694  1.00  0.00     0.158 C 
HETATM   29  C27 UNL     1      14.990  20.260  14.823  1.00  0.00     0.146 C 
BRANCH  28  30
HETATM   30  O4  UNL     1      13.517  18.809  15.816  1.00  0.00    -0.345 OA
ATOM     31  H4  UNL     1      13.922  18.384  16.562  1.00  0.00     0.219 HD
ENDBRANCH  28  30
BRANCH  29  32
HETATM   32  N8  UNL     1      15.601  21.485  14.596  1.00  0.00    -0.367 N 
BRANCH  32  33
HETATM   33  C28 UNL     1      16.978  21.672  14.804  1.00  0.00     0.059 C 
HETATM   34  C29 UNL     1      17.609  22.645  13.805  1.00  0.00     0.055 C 
ENDBRANCH  32  33
BRANCH  32  35
HETATM   35  C30 UNL     1      14.933  22.403  13.734  1.00  0.00     0.123 C 
HETATM   36  C31 UNL     1      14.068  21.600  12.766  1.00  0.00     0.027 C 
ENDBRANCH  32  35
ENDBRANCH  29  32
ENDBRANCH  26  28
ENDBRANCH   6  26
BRANCH   1  37
HETATM   37  N3  UNL     1      11.872  20.102  19.012  1.00  0.00    -0.376 N 
HETATM   38  C8  UNL     1      10.583  20.383  19.577  1.00  0.00     0.143 C 
HETATM   39  C7  UNL     1       9.539  20.173  18.442  1.00  0.00     0.146 C 
HETATM   40  N2  UNL     1       9.746  18.859  17.899  1.00  0.00    -0.344 N 
HETATM   41  C33 UNL     1      10.765  18.011  18.554  1.00  0.00     0.146 C 
HETATM   42  C32 UNL     1      12.090  18.755  18.539  1.00  0.00     0.143 C 
BRANCH  40  43
HETATM   43  C6  UNL     1       9.034  18.329  16.798  1.00  0.00     0.217 C 
BRANCH  43  44
HETATM   44  N1  UNL     1       8.608  17.031  16.566  1.00  0.00    -0.348 N 
BRANCH  44  45
HETATM   45  C3  UNL     1       9.092  16.017  15.692  1.00  0.00     0.126 C 
BRANCH  45  46
HETATM   46  C2  UNL     1       8.554  16.181  14.273  1.00  0.00     0.015 C 
HETATM   47  C1  UNL     1       7.621  15.012  14.023  1.00  0.00     0.006 C 
ENDBRANCH  45  46
ENDBRANCH  44  45
BRANCH  44  48
HETATM   48  C4  UNL     1       7.414  16.600  17.390  1.00  0.00     0.122 C 
HETATM   49  C5  UNL     1       7.829  15.689  18.493  1.00  0.00     0.026 C 
ENDBRANCH  44  48
ENDBRANCH  43  44
BRANCH  43  50
HETATM   50  O1  UNL     1       8.734  19.190  15.865  1.00  0.00    -0.333 OA
ATOM     51  H1  UNL     1       8.533  20.067  16.171  1.00  0.00     0.220 HD
ENDBRANCH  43  50
ENDBRANCH  40  43
ENDBRANCH   1  37
TORSDOF 17
ENDMDL
MODEL 4
REMARK VINA RESULT: -8.454636917      3.465     12.139
REMARK  17 active torsions:
REMARK  status: ('A' for Active; 'I' for Inactive)
REMARK    1  A    between atoms: C2_2  and  C3_3 
REMARK    2  A    between atoms: C3_3  and  N1_4 
REMARK    3  A    between atoms: N1_4  and  C4_5 
REMARK    4  A    between atoms: N1_4  and  C6_7 
REMARK    5  A    between atoms: C6_7  and  O1_8 
REMARK    6  A    between atoms: C6_7  and  N2_10 
REMARK    7  A    between atoms: N3_13  and  C9_14 
REMARK    8  A    between atoms: C12_17  and  C13_18 
REMARK    9  A    between atoms: C14_21  and  N5_22 
REMARK   10  A    between atoms: C17_27  and  O2_28 
REMARK   11  A    between atoms: C19_30  and  O3_31 
REMARK   12  A    between atoms: C24_38  and  N7_39 
REMARK   13  A    between atoms: N7_39  and  C26_41 
REMARK   14  A    between atoms: C26_41  and  O4_42 
REMARK   15  A    between atoms: C27_44  and  N8_45 
REMARK   16  A    between atoms: N8_45  and  C28_46 
REMARK   17  A    between atoms: N8_45  and  C30_48 
ROOT
HETATM    1  C9  UNL     1      11.239  21.123  19.146  1.00  0.00     0.057 A 
HETATM    2  C10 UNL     1      10.252  21.708  19.982  1.00  0.00     0.033 A 
HETATM    3  C11 UNL     1       9.068  21.049  20.208  1.00  0.00     0.017 A 
HETATM    4  C12 UNL     1       8.795  19.830  19.651  1.00  0.00     0.010 A 
HETATM    5  C23 UNL     1       9.780  19.293  18.844  1.00  0.00     0.047 A 
HETATM    6  C24 UNL     1      10.987  19.904  18.579  1.00  0.00     0.063 A 
ENDROOT
BRANCH   4   7
HETATM    7  C13 UNL     1       7.558  19.075  19.843  1.00  0.00     0.117 A 
HETATM    8  N4  UNL     1       6.792  19.283  20.939  1.00  0.00    -0.328 N 
HETATM    9  C14 UNL     1       5.629  18.615  21.166  1.00  0.00     0.113 A 
ATOM     10  H4  UNL     1       7.100  19.971  21.626  1.00  0.00     0.169 HD
HETATM   11  C15 UNL     1       5.194  17.685  20.263  1.00  0.00     0.037 A 
HETATM   12  C16 UNL     1       4.019  16.966  20.434  1.00  0.00     0.057 A 
HETATM   13  C22 UNL     1       5.955  17.466  19.158  1.00  0.00     0.050 A 
HETATM   14  C17 UNL     1       3.587  16.018  19.503  1.00  0.00     0.102 A 
HETATM   15  C19 UNL     1       4.384  15.828  18.402  1.00  0.00     0.103 A 
HETATM   16  C21 UNL     1       5.562  16.538  18.214  1.00  0.00     0.070 A 
HETATM   17  N6  UNL     1       7.121  18.165  18.972  1.00  0.00    -0.341 N 
ATOM     18  H6  UNL     1       7.675  17.981  18.135  1.00  0.00     0.167 HD
BRANCH   9  19
HETATM   19  N5  UNL     1       4.989  18.884  22.217  1.00  0.00    -0.385 N 
ATOM     20  H52 UNL     1       5.422  19.347  23.016  1.00  0.00     0.157 HD
ATOM     21  H51 UNL     1       4.003  18.624  22.255  1.00  0.00     0.157 HD
ENDBRANCH   9  19
BRANCH  14  22
HETATM   22  O2  UNL     1       2.399  15.307  19.692  1.00  0.00    -0.353 OA
HETATM   23  C18 UNL     1       1.189  15.974  19.398  1.00  0.00     0.210 C 
ENDBRANCH  14  22
BRANCH  15  24
HETATM   24  O3  UNL     1       3.970  14.880  17.452  1.00  0.00    -0.353 OA
HETATM   25  C20 UNL     1       3.475  15.297  16.180  1.00  0.00     0.210 C 
ENDBRANCH  15  24
ENDBRANCH   4   7
BRANCH   6  26
HETATM   26  N7  UNL     1      11.904  19.207  17.723  1.00  0.00    -0.329 N 
HETATM   27  C25 UNL     1      12.886  18.396  18.414  1.00  0.00     0.158 C 
BRANCH  26  28
HETATM   28  C26 UNL     1      11.922  19.350  16.339  1.00  0.00     0.158 C 
HETATM   29  C27 UNL     1      11.090  18.872  15.266  1.00  0.00     0.146 C 
BRANCH  28  30
HETATM   30  O4  UNL     1      12.929  20.085  15.910  1.00  0.00    -0.345 OA
ATOM     31  H4  UNL     1      12.681  20.983  15.726  1.00  0.00     0.219 HD
ENDBRANCH  28  30
BRANCH  29  32
HETATM   32  N8  UNL     1       9.920  18.151  15.456  1.00  0.00    -0.367 N 
BRANCH  32  33
HETATM   33  C28 UNL     1       8.660  18.773  15.436  1.00  0.00     0.059 C 
HETATM   34  C29 UNL     1       7.657  18.068  14.520  1.00  0.00     0.055 C 
ENDBRANCH  32  33
BRANCH  32  35
HETATM   35  C30 UNL     1       9.966  16.747  15.217  1.00  0.00     0.123 C 
HETATM   36  C31 UNL     1      10.949  16.492  14.077  1.00  0.00     0.027 C 
ENDBRANCH  32  35
ENDBRANCH  29  32
ENDBRANCH  26  28
ENDBRANCH   6  26
BRANCH   1  37
HETATM   37  N3  UNL     1      12.423  21.848  18.941  1.00  0.00    -0.376 N 
HETATM   38  C8  UNL     1      13.594  21.635  19.741  1.00  0.00     0.143 C 
HETATM   39  C7  UNL     1      14.699  21.096  18.787  1.00  0.00     0.146 C 
HETATM   40  N2  UNL     1      14.813  22.018  17.691  1.00  0.00    -0.344 N 
HETATM   41  C33 UNL     1      13.987  23.242  17.750  1.00  0.00     0.146 C 
HETATM   42  C32 UNL     1      12.530  22.834  17.890  1.00  0.00     0.143 C 
BRANCH  40  43
HETATM   43  C6  UNL     1      15.665  21.832  16.578  1.00  0.00     0.217 C 
BRANCH  43  44
HETATM   44  N1  UNL     1      16.299  22.777  15.786  1.00  0.00    -0.348 N 
BRANCH  44  45
HETATM   45  C3  UNL     1      17.362  23.683  16.061  1.00  0.00     0.126 C 
BRANCH  45  46
HETATM   46  C2  UNL     1      18.085  23.338  17.360  1.00  0.00     0.015 C 
HETATM   47  C1  UNL     1      17.691  24.397  18.373  1.00  0.00     0.006 C 
ENDBRANCH  45  46
ENDBRANCH  44  45
BRANCH  44  48
HETATM   48  C4  UNL     1      15.780  22.865  14.367  1.00  0.00     0.122 C 
HETATM   49  C5  UNL     1      16.868  23.244  13.424  1.00  0.00     0.026 C 
ENDBRANCH  44  48
ENDBRANCH  43  44
BRANCH  43  50
HETATM   50  O1  UNL     1      15.886  20.590  16.249  1.00  0.00    -0.333 OA
ATOM     51  H1  UNL     1      15.119  20.029  16.241  1.00  0.00     0.220 HD
ENDBRANCH  43  50
ENDBRANCH  40  43
ENDBRANCH   1  37
TORSDOF 17
ENDMDL
MODEL 5
REMARK VINA RESULT: -8.452562262      1.580      1.961
REMARK  17 active torsions:
REMARK  status: ('A' for Active; 'I' for Inactive)
REMARK    1  A    between atoms: C2_2  and  C3_3 
REMARK    2  A    between atoms: C3_3  and  N1_4 
REMARK    3  A    between atoms: N1_4  and  C4_5 
REMARK    4  A    between atoms: N1_4  and  C6_7 
REMARK    5  A    between atoms: C6_7  and  O1_8 
REMARK    6  A    between atoms: C6_7  and  N2_10 
REMARK    7  A    between atoms: N3_13  and  C9_14 
REMARK    8  A    between atoms: C12_17  and  C13_18 
REMARK    9  A    between atoms: C14_21  and  N5_22 
REMARK   10  A    between atoms: C17_27  and  O2_28 
REMARK   11  A    between atoms: C19_30  and  O3_31 
REMARK   12  A    between atoms: C24_38  and  N7_39 
REMARK   13  A    between atoms: N7_39  and  C26_41 
REMARK   14  A    between atoms: C26_41  and  O4_42 
REMARK   15  A    between atoms: C27_44  and  N8_45 
REMARK   16  A    between atoms: N8_45  and  C28_46 
REMARK   17  A    between atoms: N8_45  and  C30_48 
ROOT
HETATM    1  C9  UNL     1      12.768  20.277  15.949  1.00  0.00     0.057 A 
HETATM    2  C10 UNL     1      12.654  20.622  14.576  1.00  0.00     0.033 A 
HETATM    3  C11 UNL     1      13.632  21.377  13.977  1.00  0.00     0.017 A 
HETATM    4  C12 UNL     1      14.732  21.820  14.660  1.00  0.00     0.010 A 
HETATM    5  C23 UNL     1      14.807  21.463  15.993  1.00  0.00     0.047 A 
HETATM    6  C24 UNL     1      13.859  20.708  16.651  1.00  0.00     0.063 A 
ENDROOT
BRANCH   4   7
HETATM    7  C13 UNL     1      15.806  22.630  14.089  1.00  0.00     0.117 A 
HETATM    8  N4  UNL     1      17.091  22.210  14.157  1.00  0.00    -0.328 N 
HETATM    9  C14 UNL     1      18.129  22.920  13.638  1.00  0.00     0.113 A 
ATOM     10  H4  UNL     1      17.290  21.323  14.617  1.00  0.00     0.169 HD
HETATM   11  C15 UNL     1      17.890  24.115  13.018  1.00  0.00     0.037 A 
HETATM   12  C16 UNL     1      18.903  24.891  12.470  1.00  0.00     0.057 A 
HETATM   13  C22 UNL     1      16.604  24.548  12.944  1.00  0.00     0.050 A 
HETATM   14  C17 UNL     1      18.645  26.110  11.839  1.00  0.00     0.102 A 
HETATM   15  C19 UNL     1      17.334  26.511  11.787  1.00  0.00     0.103 A 
HETATM   16  C21 UNL     1      16.308  25.749  12.329  1.00  0.00     0.070 A 
HETATM   17  N6  UNL     1      15.590  23.798  13.482  1.00  0.00    -0.341 N 
ATOM     18  H6  UNL     1      14.633  24.146  13.415  1.00  0.00     0.167 HD
BRANCH   9  19
HETATM   19  N5  UNL     1      19.287  22.440  13.752  1.00  0.00    -0.385 N 
ATOM     20  H52 UNL     1      19.452  21.459  13.980  1.00  0.00     0.157 HD
ATOM     21  H51 UNL     1      20.081  23.066  13.609  1.00  0.00     0.157 HD
ENDBRANCH   9  19
BRANCH  14  22
HETATM   22  O2  UNL     1      19.678  26.874  11.291  1.00  0.00    -0.353 OA
HETATM   23  C18 UNL     1      20.902  26.913  11.997  1.00  0.00     0.210 C 
ENDBRANCH  14  22
BRANCH  15  24
HETATM   24  O3  UNL     1      17.049  27.734  11.157  1.00  0.00    -0.353 OA
HETATM   25  C20 UNL     1      16.126  27.793  10.071  1.00  0.00     0.210 C 
ENDBRANCH  15  24
ENDBRANCH   4   7
BRANCH   6  26
HETATM   26  N7  UNL     1      14.092  20.421  18.038  1.00  0.00    -0.329 N 
HETATM   27  C25 UNL     1      14.842  19.207  18.290  1.00  0.00     0.158 C 
BRANCH  26  28
HETATM   28  C26 UNL     1      13.577  21.189  19.078  1.00  0.00     0.158 C 
HETATM   29  C27 UNL     1      13.793  22.535  19.539  1.00  0.00     0.146 C 
BRANCH  28  30
HETATM   30  O4  UNL     1      12.694  20.539  19.809  1.00  0.00    -0.345 OA
ATOM     31  H4  UNL     1      12.996  20.371  20.694  1.00  0.00     0.219 HD
ENDBRANCH  28  30
BRANCH  29  32
HETATM   32  N8  UNL     1      14.607  23.454  18.892  1.00  0.00    -0.367 N 
BRANCH  32  33
HETATM   33  C28 UNL     1      14.071  24.515  18.144  1.00  0.00     0.059 C 
HETATM   34  C29 UNL     1      14.431  25.891  18.709  1.00  0.00     0.055 C 
ENDBRANCH  32  33
BRANCH  32  35
HETATM   35  C30 UNL     1      15.948  23.586  19.356  1.00  0.00     0.123 C 
HETATM   36  C31 UNL     1      16.883  23.382  18.166  1.00  0.00     0.027 C 
ENDBRANCH  32  35
ENDBRANCH  29  32
ENDBRANCH  26  28
ENDBRANCH   6  26
BRANCH   1  37
HETATM   37  N3  UNL     1      11.732  19.514  16.510  1.00  0.00    -0.376 N 
HETATM   38  C8  UNL     1      10.613  20.123  17.171  1.00  0.00     0.143 C 
HETATM   39  C7  UNL     1       9.349  19.766  16.337  1.00  0.00     0.146 C 
HETATM   40  N2  UNL     1       9.321  18.338  16.179  1.00  0.00    -0.344 N 
HETATM   41  C33 UNL     1      10.368  17.562  16.877  1.00  0.00     0.146 C 
HETATM   42  C32 UNL     1      11.726  18.072  16.426  1.00  0.00     0.143 C 
BRANCH  40  43
HETATM   43  C6  UNL     1       8.358  17.638  15.416  1.00  0.00     0.217 C 
BRANCH  43  44
HETATM   44  N1  UNL     1       8.033  16.291  15.429  1.00  0.00    -0.348 N 
BRANCH  44  45
HETATM   45  C3  UNL     1       7.265  15.511  16.339  1.00  0.00     0.126 C 
BRANCH  45  46
HETATM   46  C2  UNL     1       6.098  16.302  16.926  1.00  0.00     0.015 C 
HETATM   47  C1  UNL     1       4.970  16.230  15.914  1.00  0.00     0.006 C 
ENDBRANCH  45  46
ENDBRANCH  44  45
BRANCH  44  48
HETATM   48  C4  UNL     1       8.583  15.496  14.265  1.00  0.00     0.122 C 
HETATM   49  C5  UNL     1       7.507  14.712  13.598  1.00  0.00     0.026 C 
ENDBRANCH  44  48
ENDBRANCH  43  44
BRANCH  43  50
HETATM   50  O1  UNL     1       7.676  18.369  14.578  1.00  0.00    -0.333 OA
ATOM     51  H1  UNL     1       7.770  19.308  14.688  1.00  0.00     0.220 HD
ENDBRANCH  43  50
ENDBRANCH  40  43
ENDBRANCH   1  37
TORSDOF 17
ENDMDL
