MODEL 1
REMARK VINA RESULT: -6.295517868      0.000      0.000
REMARK  6 active torsions:
REMARK  status: ('A' for Active; 'I' for Inactive)
REMARK    1  A    between atoms: C3_4  and  C4_5 
REMARK    2  A    between atoms: C5_7  and  C6_8 
REMARK    3  A    between atoms: C6_8  and  O2_9 
REMARK    4  A    between atoms: C7_11  and  O3_12 
REMARK    5  A    between atoms: C8_14  and  O4_15 
REMARK    6  A    between atoms: C9_17  and  O5_18 
ROOT
HETATM    1  C4  UNL     1       3.485   1.929  34.846  1.00  0.00     0.177 C 
HETATM    2  O1  UNL     1       3.095   2.451  36.075  1.00  0.00    -0.369 OA
HETATM    3  C5  UNL     1       3.554   3.726  36.272  1.00  0.00     0.177 C 
HETATM    4  C7  UNL     1       5.075   3.756  36.303  1.00  0.00     0.180 C 
HETATM    5  C8  UNL     1       5.527   3.249  34.929  1.00  0.00     0.181 C 
HETATM    6  C9  UNL     1       5.004   1.821  34.857  1.00  0.00     0.182 C 
ENDROOT
BRANCH   1   7
HETATM    7  C3  UNL     1       2.849   0.634  34.589  1.00  0.00     0.022 C 
HETATM    8  C2  UNL     1       2.264   0.368  33.435  1.00  0.00    -0.016 C 
HETATM    9  C1  UNL     1       2.258   1.409  32.391  1.00  0.00     0.056 C 
HETATM   10  S1  UNL     1       1.483  -1.200  33.094  1.00  0.00    -0.058 SA
ENDBRANCH   1   7
BRANCH   6  11
HETATM   11  O5  UNL     1       5.481   1.199  33.712  1.00  0.00    -0.390 OA
ATOM     12  H5  UNL     1       5.963   0.407  33.918  1.00  0.00     0.210 HD
ENDBRANCH   6  11
BRANCH   3  13
HETATM   13  C6  UNL     1       2.955   4.294  37.534  1.00  0.00     0.198 C 
BRANCH  13  14
HETATM   14  O2  UNL     1       3.787   4.100  38.638  1.00  0.00    -0.398 OA
ATOM     15  H2  UNL     1       3.463   4.551  39.409  1.00  0.00     0.209 HD
ENDBRANCH  13  14
ENDBRANCH   3  13
BRANCH   5  16
HETATM   16  O4  UNL     1       6.915   3.287  34.821  1.00  0.00    -0.390 OA
ATOM     17  H4  UNL     1       7.219   2.677  34.160  1.00  0.00     0.210 HD
ENDBRANCH   5  16
BRANCH   4  18
HETATM   18  O3  UNL     1       5.572   4.993  36.599  1.00  0.00    -0.390 OA
ATOM     19  H3  UNL     1       5.908   5.051  37.486  1.00  0.00     0.210 HD
ENDBRANCH   4  18
TORSDOF 6
ENDMDL
MODEL 2
REMARK VINA RESULT: -6.129804584      2.903      4.317
REMARK  6 active torsions:
REMARK  status: ('A' for Active; 'I' for Inactive)
REMARK    1  A    between atoms: C3_4  and  C4_5 
REMARK    2  A    between atoms: C5_7  and  C6_8 
REMARK    3  A    between atoms: C6_8  and  O2_9 
REMARK    4  A    between atoms: C7_11  and  O3_12 
REMARK    5  A    between atoms: C8_14  and  O4_15 
REMARK    6  A    between atoms: C9_17  and  O5_18 
ROOT
HETATM    1  C4  UNL     1       6.322   2.552  34.986  1.00  0.00     0.177 C 
HETATM    2  O1  UNL     1       6.231   3.864  35.438  1.00  0.00    -0.369 OA
HETATM    3  C5  UNL     1       5.426   3.984  36.539  1.00  0.00     0.177 C 
HETATM    4  C7  UNL     1       3.995   3.588  36.210  1.00  0.00     0.180 C 
HETATM    5  C8  UNL     1       4.061   2.120  35.774  1.00  0.00     0.181 C 
HETATM    6  C9  UNL     1       4.933   2.131  34.526  1.00  0.00     0.182 C 
ENDROOT
BRANCH   1   7
HETATM    7  C3  UNL     1       7.313   2.423  33.913  1.00  0.00     0.022 C 
HETATM    8  C2  UNL     1       8.609   2.503  34.156  1.00  0.00    -0.016 C 
HETATM    9  C1  UNL     1       9.053   2.728  35.544  1.00  0.00     0.056 C 
HETATM   10  S1  UNL     1       9.837   2.349  32.871  1.00  0.00    -0.058 SA
ENDBRANCH   1   7
BRANCH   6  11
HETATM   11  O5  UNL     1       4.946   0.869  33.947  1.00  0.00    -0.390 OA
ATOM     12  H5  UNL     1       5.244   0.900  33.046  1.00  0.00     0.210 HD
ENDBRANCH   6  11
BRANCH   3  13
HETATM   13  C6  UNL     1       5.510   5.389  37.081  1.00  0.00     0.198 C 
BRANCH  13  14
HETATM   14  O2  UNL     1       5.297   5.427  38.460  1.00  0.00    -0.398 OA
ATOM     15  H2  UNL     1       5.742   6.162  38.866  1.00  0.00     0.209 HD
ENDBRANCH  13  14
ENDBRANCH   3  13
BRANCH   5  16
HETATM   16  O4  UNL     1       2.787   1.629  35.500  1.00  0.00    -0.390 OA
ATOM     17  H4  UNL     1       2.312   1.456  36.304  1.00  0.00     0.210 HD
ENDBRANCH   5  16
BRANCH   4  18
HETATM   18  O3  UNL     1       3.138   3.790  37.253  1.00  0.00    -0.390 OA
ATOM     19  H3  UNL     1       3.461   3.428  38.070  1.00  0.00     0.210 HD
ENDBRANCH   4  18
TORSDOF 6
ENDMDL
MODEL 3
REMARK VINA RESULT: -6.116375292      3.157      5.257
REMARK  6 active torsions:
REMARK  status: ('A' for Active; 'I' for Inactive)
REMARK    1  A    between atoms: C3_4  and  C4_5 
REMARK    2  A    between atoms: C5_7  and  C6_8 
REMARK    3  A    between atoms: C6_8  and  O2_9 
REMARK    4  A    between atoms: C7_11  and  O3_12 
REMARK    5  A    between atoms: C8_14  and  O4_15 
REMARK    6  A    between atoms: C9_17  and  O5_18 
ROOT
HETATM    1  C4  UNL     1       6.499   2.861  34.931  1.00  0.00     0.177 C 
HETATM    2  O1  UNL     1       6.280   2.956  33.560  1.00  0.00    -0.369 OA
HETATM    3  C5  UNL     1       7.072   2.099  32.843  1.00  0.00     0.177 C 
HETATM    4  C7  UNL     1       8.543   2.439  33.025  1.00  0.00     0.180 C 
HETATM    5  C8  UNL     1       8.824   2.273  34.522  1.00  0.00     0.181 C 
HETATM    6  C9  UNL     1       7.931   3.307  35.196  1.00  0.00     0.182 C 
ENDROOT
BRANCH   1   7
HETATM    7  C3  UNL     1       5.531   3.665  35.683  1.00  0.00     0.022 C 
HETATM    8  C2  UNL     1       4.368   3.169  36.063  1.00  0.00    -0.016 C 
HETATM    9  C1  UNL     1       4.049   1.772  35.714  1.00  0.00     0.056 C 
HETATM   10  S1  UNL     1       3.172   4.123  36.981  1.00  0.00    -0.058 SA
ENDBRANCH   1   7
BRANCH   6  11
HETATM   11  O5  UNL     1       8.208   3.358  36.555  1.00  0.00    -0.390 OA
ATOM     12  H5  UNL     1       8.790   2.656  36.820  1.00  0.00     0.210 HD
ENDBRANCH   6  11
BRANCH   3  13
HETATM   13  C6  UNL     1       6.664   2.123  31.392  1.00  0.00     0.198 C 
BRANCH  13  14
HETATM   14  O2  UNL     1       7.210   1.053  30.681  1.00  0.00    -0.398 OA
ATOM     15  H2  UNL     1       6.624   0.746  29.998  1.00  0.00     0.209 HD
ENDBRANCH  13  14
ENDBRANCH   3  13
BRANCH   5  16
HETATM   16  O4  UNL     1      10.169   2.507  34.800  1.00  0.00    -0.390 OA
ATOM     17  H4  UNL     1      10.583   1.723  35.143  1.00  0.00     0.210 HD
ENDBRANCH   5  16
BRANCH   4  18
HETATM   18  O3  UNL     1       9.362   1.672  32.246  1.00  0.00    -0.390 OA
ATOM     19  H3  UNL     1       9.212   0.741  32.361  1.00  0.00     0.210 HD
ENDBRANCH   4  18
TORSDOF 6
ENDMDL
MODEL 4
REMARK VINA RESULT: -5.986924998      2.947      4.471
REMARK  6 active torsions:
REMARK  status: ('A' for Active; 'I' for Inactive)
REMARK    1  A    between atoms: C3_4  and  C4_5 
REMARK    2  A    between atoms: C5_7  and  C6_8 
REMARK    3  A    between atoms: C6_8  and  O2_9 
REMARK    4  A    between atoms: C7_11  and  O3_12 
REMARK    5  A    between atoms: C8_14  and  O4_15 
REMARK    6  A    between atoms: C9_17  and  O5_18 
ROOT
HETATM    1  C4  UNL     1       6.190   3.356  34.991  1.00  0.00     0.177 C 
HETATM    2  O1  UNL     1       6.180   4.746  34.931  1.00  0.00    -0.369 OA
HETATM    3  C5  UNL     1       5.634   5.315  36.051  1.00  0.00     0.177 C 
HETATM    4  C7  UNL     1       4.172   4.923  36.200  1.00  0.00     0.180 C 
HETATM    5  C8  UNL     1       4.165   3.397  36.339  1.00  0.00     0.181 C 
HETATM    6  C9  UNL     1       4.740   2.891  35.023  1.00  0.00     0.182 C 
ENDROOT
BRANCH   1   7
HETATM    7  C3  UNL     1       6.923   2.777  33.861  1.00  0.00     0.022 C 
HETATM    8  C2  UNL     1       8.235   2.630  33.891  1.00  0.00    -0.016 C 
HETATM    9  C1  UNL     1       8.966   3.063  35.096  1.00  0.00     0.056 C 
HETATM   10  S1  UNL     1       9.152   1.928  32.532  1.00  0.00    -0.058 SA
ENDBRANCH   1   7
BRANCH   6  11
HETATM   11  O5  UNL     1       4.645   1.507  34.965  1.00  0.00    -0.390 OA
ATOM     12  H5  UNL     1       4.226   1.218  34.164  1.00  0.00     0.210 HD
ENDBRANCH   6  11
BRANCH   3  13
HETATM   13  C6  UNL     1       5.813   6.811  36.001  1.00  0.00     0.198 C 
BRANCH  13  14
HETATM   14  O2  UNL     1       5.886   7.283  34.689  1.00  0.00    -0.398 OA
ATOM     15  H2  UNL     1       6.784   7.336  34.382  1.00  0.00     0.209 HD
ENDBRANCH  13  14
ENDBRANCH   3  13
BRANCH   5  16
HETATM   16  O4  UNL     1       2.869   2.926  36.540  1.00  0.00    -0.390 OA
ATOM     17  H4  UNL     1       2.580   2.407  35.798  1.00  0.00     0.210 HD
ENDBRANCH   5  16
BRANCH   4  18
HETATM   18  O3  UNL     1       3.562   5.550  37.249  1.00  0.00    -0.390 OA
ATOM     19  H3  UNL     1       3.933   5.307  38.089  1.00  0.00     0.210 HD
ENDBRANCH   4  18
TORSDOF 6
ENDMDL
MODEL 5
REMARK VINA RESULT: -5.925588784      2.855      4.483
REMARK  6 active torsions:
REMARK  status: ('A' for Active; 'I' for Inactive)
REMARK    1  A    between atoms: C3_4  and  C4_5 
REMARK    2  A    between atoms: C5_7  and  C6_8 
REMARK    3  A    between atoms: C6_8  and  O2_9 
REMARK    4  A    between atoms: C7_11  and  O3_12 
REMARK    5  A    between atoms: C8_14  and  O4_15 
REMARK    6  A    between atoms: C9_17  and  O5_18 
ROOT
HETATM    1  C4  UNL     1       6.281   3.271  34.890  1.00  0.00     0.177 C 
HETATM    2  O1  UNL     1       5.531   2.136  35.179  1.00  0.00    -0.369 OA
HETATM    3  C5  UNL     1       4.191   2.405  35.276  1.00  0.00     0.177 C 
HETATM    4  C7  UNL     1       3.911   3.359  36.427  1.00  0.00     0.180 C 
HETATM    5  C8  UNL     1       4.674   4.645  36.093  1.00  0.00     0.181 C 
HETATM    6  C9  UNL     1       6.138   4.226  36.068  1.00  0.00     0.182 C 
ENDROOT
BRANCH   1   7
HETATM    7  C3  UNL     1       7.684   2.933  34.631  1.00  0.00     0.022 C 
HETATM    8  C2  UNL     1       8.080   2.480  33.455  1.00  0.00    -0.016 C 
HETATM    9  C1  UNL     1       7.076   2.315  32.389  1.00  0.00     0.056 C 
HETATM   10  S1  UNL     1       9.780   2.062  33.112  1.00  0.00    -0.058 SA
ENDBRANCH   1   7
BRANCH   6  11
HETATM   11  O5  UNL     1       6.948   5.343  35.923  1.00  0.00    -0.390 OA
ATOM     12  H5  UNL     1       6.637   6.072  36.447  1.00  0.00     0.210 HD
ENDBRANCH   6  11
BRANCH   3  13
HETATM   13  C6  UNL     1       3.422   1.116  35.414  1.00  0.00     0.198 C 
BRANCH  13  14
HETATM   14  O2  UNL     1       4.123   0.032  34.880  1.00  0.00    -0.398 OA
ATOM     15  H2  UNL     1       4.724   0.302  34.195  1.00  0.00     0.209 HD
ENDBRANCH  13  14
ENDBRANCH   3  13
BRANCH   5  16
HETATM   16  O4  UNL     1       4.443   5.621  37.060  1.00  0.00    -0.390 OA
ATOM     17  H4  UNL     1       4.230   5.223  37.897  1.00  0.00     0.210 HD
ENDBRANCH   5  16
BRANCH   4  18
HETATM   18  O3  UNL     1       2.576   3.573  36.621  1.00  0.00    -0.390 OA
ATOM     19  H3  UNL     1       2.126   2.805  36.955  1.00  0.00     0.210 HD
ENDBRANCH   4  18
TORSDOF 6
ENDMDL
