MODEL 1
REMARK VINA RESULT: -6.608856182      0.000      0.000
REMARK  8 active torsions:
REMARK  status: ('A' for Active; 'I' for Inactive)
REMARK    1  A    between atoms: O1_1  and  C1_3 
REMARK    2  A    between atoms: C1_3  and  C2_4 
REMARK    3  A    between atoms: C3_6  and  C4_7 
REMARK    4  A    between atoms: C4_7  and  O2_8 
REMARK    5  A    between atoms: N1_10  and  O3_12 
REMARK    6  A    between atoms: C5_14  and  O4_15 
REMARK    7  A    between atoms: C6_17  and  O5_18 
REMARK    8  A    between atoms: C7_20  and  O6_21 
ROOT
HETATM    1  C2  UNL     1       5.497   1.755  34.090  1.00  0.00     0.103 C 
HETATM    2  S1  UNL     1       4.639   2.415  35.545  1.00  0.00    -0.143 SA
HETATM    3  C3  UNL     1       5.771   3.375  36.589  1.00  0.00     0.155 C 
HETATM    4  C5  UNL     1       6.923   3.929  35.792  1.00  0.00     0.171 C 
HETATM    5  C6  UNL     1       7.524   2.888  34.870  1.00  0.00     0.178 C 
HETATM    6  C7  UNL     1       6.659   2.602  33.686  1.00  0.00     0.165 C 
ENDROOT
BRANCH   3   7
HETATM    7  C4  UNL     1       5.091   4.450  37.339  1.00  0.00     0.152 C 
HETATM    8  N1  UNL     1       3.930   4.227  37.847  1.00  0.00    -0.250 N 
ATOM      9  H1  UNL     1       3.513   3.306  37.712  1.00  0.00     0.196 HD
BRANCH   7  10
HETATM   10  O2  UNL     1       5.629   5.709  37.538  1.00  0.00    -0.347 OA
ATOM     11  H2  UNL     1       6.454   5.866  37.980  1.00  0.00     0.219 HD
ENDBRANCH   7  10
BRANCH   8  12
HETATM   12  O3  UNL     1       3.222   5.159  38.557  1.00  0.00    -0.288 OA
ATOM     13  H3  UNL     1       3.548   5.578  39.345  1.00  0.00     0.244 HD
ENDBRANCH   8  12
ENDBRANCH   3   7
BRANCH   4  14
HETATM   14  O4  UNL     1       6.522   5.022  35.058  1.00  0.00    -0.391 OA
ATOM     15  H4  UNL     1       6.670   5.824  35.544  1.00  0.00     0.210 HD
ENDBRANCH   4  14
BRANCH   1  16
HETATM   16  C1  UNL     1       4.458   1.634  32.984  1.00  0.00     0.181 C 
BRANCH  16  17
HETATM   17  O1  UNL     1       4.929   0.852  31.934  1.00  0.00    -0.400 OA
ATOM     18  H1  UNL     1       4.736   1.252  31.094  1.00  0.00     0.209 HD
ENDBRANCH  16  17
ENDBRANCH   1  16
BRANCH   5  19
HETATM   19  O5  UNL     1       8.729   3.419  34.400  1.00  0.00    -0.390 OA
ATOM     20  H5  UNL     1       8.952   2.934  33.614  1.00  0.00     0.210 HD
ENDBRANCH   5  19
BRANCH   6  21
HETATM   21  O6  UNL     1       7.431   1.843  32.782  1.00  0.00    -0.392 OA
ATOM     22  H6  UNL     1       8.064   2.434  32.390  1.00  0.00     0.210 HD
ENDBRANCH   6  21
TORSDOF 8
ENDMDL
MODEL 2
REMARK VINA RESULT: -6.517432636      1.723      3.112
REMARK  8 active torsions:
REMARK  status: ('A' for Active; 'I' for Inactive)
REMARK    1  A    between atoms: O1_1  and  C1_3 
REMARK    2  A    between atoms: C1_3  and  C2_4 
REMARK    3  A    between atoms: C3_6  and  C4_7 
REMARK    4  A    between atoms: C4_7  and  O2_8 
REMARK    5  A    between atoms: N1_10  and  O3_12 
REMARK    6  A    between atoms: C5_14  and  O4_15 
REMARK    7  A    between atoms: C6_17  and  O5_18 
REMARK    8  A    between atoms: C7_20  and  O6_21 
ROOT
HETATM    1  C2  UNL     1       7.333   3.494  34.794  1.00  0.00     0.103 C 
HETATM    2  S1  UNL     1       6.354   4.520  35.924  1.00  0.00    -0.143 SA
HETATM    3  C3  UNL     1       4.589   4.112  35.809  1.00  0.00     0.155 C 
HETATM    4  C5  UNL     1       4.377   2.701  35.330  1.00  0.00     0.171 C 
HETATM    5  C6  UNL     1       5.257   2.370  34.142  1.00  0.00     0.178 C 
HETATM    6  C7  UNL     1       6.688   2.174  34.524  1.00  0.00     0.165 C 
ENDROOT
BRANCH   3   7
HETATM    7  C4  UNL     1       3.860   4.350  37.071  1.00  0.00     0.152 C 
HETATM    8  N1  UNL     1       4.399   5.080  37.983  1.00  0.00    -0.250 N 
ATOM      9  H1  UNL     1       5.322   5.474  37.802  1.00  0.00     0.196 HD
BRANCH   7  10
HETATM   10  O2  UNL     1       2.608   3.830  37.346  1.00  0.00    -0.347 OA
ATOM     11  H2  UNL     1       2.458   3.092  37.924  1.00  0.00     0.219 HD
ENDBRANCH   7  10
BRANCH   8  12
HETATM   12  O3  UNL     1       3.801   5.357  39.183  1.00  0.00    -0.288 OA
ATOM     13  H3  UNL     1       3.028   4.906  39.502  1.00  0.00     0.244 HD
ENDBRANCH   8  12
ENDBRANCH   3   7
BRANCH   4  14
HETATM   14  O4  UNL     1       4.614   1.804  36.346  1.00  0.00    -0.391 OA
ATOM     15  H4  UNL     1       3.810   1.366  36.600  1.00  0.00     0.210 HD
ENDBRANCH   4  14
BRANCH   1  16
HETATM   16  C1  UNL     1       8.713   3.345  35.419  1.00  0.00     0.181 C 
BRANCH  16  17
HETATM   17  O1  UNL     1       9.644   2.900  34.486  1.00  0.00    -0.400 OA
ATOM     18  H1  UNL     1       9.217   2.503  33.736  1.00  0.00     0.209 HD
ENDBRANCH  16  17
ENDBRANCH   1  16
BRANCH   5  19
HETATM   19  O5  UNL     1       4.786   1.161  33.620  1.00  0.00    -0.390 OA
ATOM     20  H5  UNL     1       4.249   1.380  32.868  1.00  0.00     0.210 HD
ENDBRANCH   5  19
BRANCH   6  21
HETATM   21  O6  UNL     1       7.342   1.612  33.409  1.00  0.00    -0.392 OA
ATOM     22  H6  UNL     1       7.497   2.317  32.790  1.00  0.00     0.210 HD
ENDBRANCH   6  21
TORSDOF 8
ENDMDL
MODEL 3
REMARK VINA RESULT: -6.291578344      0.847      1.029
REMARK  8 active torsions:
REMARK  status: ('A' for Active; 'I' for Inactive)
REMARK    1  A    between atoms: O1_1  and  C1_3 
REMARK    2  A    between atoms: C1_3  and  C2_4 
REMARK    3  A    between atoms: C3_6  and  C4_7 
REMARK    4  A    between atoms: C4_7  and  O2_8 
REMARK    5  A    between atoms: N1_10  and  O3_12 
REMARK    6  A    between atoms: C5_14  and  O4_15 
REMARK    7  A    between atoms: C6_17  and  O5_18 
REMARK    8  A    between atoms: C7_20  and  O6_21 
ROOT
HETATM    1  C2  UNL     1       5.491   1.653  33.552  1.00  0.00     0.103 C 
HETATM    2  S1  UNL     1       4.374   2.048  34.925  1.00  0.00    -0.143 SA
HETATM    3  C3  UNL     1       5.245   2.962  36.230  1.00  0.00     0.155 C 
HETATM    4  C5  UNL     1       6.434   3.707  35.685  1.00  0.00     0.171 C 
HETATM    5  C6  UNL     1       7.262   2.845  34.754  1.00  0.00     0.178 C 
HETATM    6  C7  UNL     1       6.607   2.638  33.427  1.00  0.00     0.165 C 
ENDROOT
BRANCH   3   7
HETATM    7  C4  UNL     1       4.360   3.872  36.984  1.00  0.00     0.152 C 
HETATM    8  N1  UNL     1       4.805   4.452  38.043  1.00  0.00    -0.250 N 
ATOM      9  H1  UNL     1       5.765   4.262  38.329  1.00  0.00     0.196 HD
BRANCH   7  10
HETATM   10  O2  UNL     1       3.054   4.149  36.622  1.00  0.00    -0.347 OA
ATOM     11  H2  UNL     1       2.630   4.985  36.775  1.00  0.00     0.219 HD
ENDBRANCH   7  10
BRANCH   8  12
HETATM   12  O3  UNL     1       4.060   5.311  38.806  1.00  0.00    -0.288 OA
ATOM     13  H3  UNL     1       3.505   5.991  38.442  1.00  0.00     0.244 HD
ENDBRANCH   8  12
ENDBRANCH   3   7
BRANCH   4  14
HETATM   14  O4  UNL     1       6.031   4.846  35.026  1.00  0.00    -0.391 OA
ATOM     15  H4  UNL     1       5.112   5.019  35.189  1.00  0.00     0.210 HD
ENDBRANCH   4  14
BRANCH   1  16
HETATM   16  C1  UNL     1       4.636   1.585  32.295  1.00  0.00     0.181 C 
BRANCH  16  17
HETATM   17  O1  UNL     1       5.183   0.712  31.360  1.00  0.00    -0.400 OA
ATOM     18  H1  UNL     1       5.768   1.166  30.765  1.00  0.00     0.209 HD
ENDBRANCH  16  17
ENDBRANCH   1  16
BRANCH   5  19
HETATM   19  O5  UNL     1       8.461   3.531  34.535  1.00  0.00    -0.390 OA
ATOM     20  H5  UNL     1       9.043   2.926  34.089  1.00  0.00     0.210 HD
ENDBRANCH   5  19
BRANCH   6  21
HETATM   21  O6  UNL     1       7.571   2.068  32.571  1.00  0.00    -0.392 OA
ATOM     22  H6  UNL     1       8.083   2.783  32.211  1.00  0.00     0.210 HD
ENDBRANCH   6  21
TORSDOF 8
ENDMDL
MODEL 4
REMARK VINA RESULT: -6.215314381      2.386      4.433
REMARK  8 active torsions:
REMARK  status: ('A' for Active; 'I' for Inactive)
REMARK    1  A    between atoms: O1_1  and  C1_3 
REMARK    2  A    between atoms: C1_3  and  C2_4 
REMARK    3  A    between atoms: C3_6  and  C4_7 
REMARK    4  A    between atoms: C4_7  and  O2_8 
REMARK    5  A    between atoms: N1_10  and  O3_12 
REMARK    6  A    between atoms: C5_14  and  O4_15 
REMARK    7  A    between atoms: C6_17  and  O5_18 
REMARK    8  A    between atoms: C7_20  and  O6_21 
ROOT
HETATM    1  C2  UNL     1       3.949   2.670  35.093  1.00  0.00     0.103 C 
HETATM    2  S1  UNL     1       5.393   2.111  34.149  1.00  0.00    -0.143 SA
HETATM    3  C3  UNL     1       6.793   3.246  34.368  1.00  0.00     0.155 C 
HETATM    4  C5  UNL     1       6.701   3.994  35.672  1.00  0.00     0.171 C 
HETATM    5  C6  UNL     1       5.307   4.537  35.913  1.00  0.00     0.178 C 
HETATM    6  C7  UNL     1       4.332   3.470  36.294  1.00  0.00     0.165 C 
ENDROOT
BRANCH   3   7
HETATM    7  C4  UNL     1       8.102   2.575  34.243  1.00  0.00     0.152 C 
HETATM    8  N1  UNL     1       9.124   3.065  34.853  1.00  0.00    -0.250 N 
ATOM      9  H1  UNL     1       8.993   3.910  35.409  1.00  0.00     0.196 HD
BRANCH   7  10
HETATM   10  O2  UNL     1       8.311   1.428  33.498  1.00  0.00    -0.347 OA
ATOM     11  H2  UNL     1       8.445   1.427  32.558  1.00  0.00     0.219 HD
ENDBRANCH   7  10
BRANCH   8  12
HETATM   12  O3  UNL     1      10.376   2.515  34.798  1.00  0.00    -0.288 OA
ATOM     13  H3  UNL     1      11.010   2.579  35.502  1.00  0.00     0.244 HD
ENDBRANCH   8  12
ENDBRANCH   3   7
BRANCH   4  14
HETATM   14  O4  UNL     1       7.070   3.185  36.721  1.00  0.00    -0.391 OA
ATOM     15  H4  UNL     1       7.026   3.661  37.542  1.00  0.00     0.210 HD
ENDBRANCH   4  14
BRANCH   1  16
HETATM   16  C1  UNL     1       3.153   1.425  35.457  1.00  0.00     0.181 C 
BRANCH  16  17
HETATM   17  O1  UNL     1       3.823   0.268  35.073  1.00  0.00    -0.400 OA
ATOM     18  H1  UNL     1       4.034  -0.274  35.824  1.00  0.00     0.209 HD
ENDBRANCH  16  17
ENDBRANCH   1  16
BRANCH   5  19
HETATM   19  O5  UNL     1       5.406   5.428  36.986  1.00  0.00    -0.390 OA
ATOM     20  H5  UNL     1       4.667   5.250  37.557  1.00  0.00     0.210 HD
ENDBRANCH   5  19
BRANCH   6  21
HETATM   21  O6  UNL     1       3.167   4.117  36.752  1.00  0.00    -0.392 OA
ATOM     22  H6  UNL     1       3.365   5.045  36.810  1.00  0.00     0.210 HD
ENDBRANCH   6  21
TORSDOF 8
ENDMDL
MODEL 5
REMARK VINA RESULT: -5.982810924      2.476      4.442
REMARK  8 active torsions:
REMARK  status: ('A' for Active; 'I' for Inactive)
REMARK    1  A    between atoms: O1_1  and  C1_3 
REMARK    2  A    between atoms: C1_3  and  C2_4 
REMARK    3  A    between atoms: C3_6  and  C4_7 
REMARK    4  A    between atoms: C4_7  and  O2_8 
REMARK    5  A    between atoms: N1_10  and  O3_12 
REMARK    6  A    between atoms: C5_14  and  O4_15 
REMARK    7  A    between atoms: C6_17  and  O5_18 
REMARK    8  A    between atoms: C7_20  and  O6_21 
ROOT
HETATM    1  C2  UNL     1       3.982   2.623  35.064  1.00  0.00     0.103 C 
HETATM    2  S1  UNL     1       5.486   2.235  34.128  1.00  0.00    -0.143 SA
HETATM    3  C3  UNL     1       6.777   3.475  34.430  1.00  0.00     0.155 C 
HETATM    4  C5  UNL     1       6.596   4.151  35.763  1.00  0.00     0.171 C 
HETATM    5  C6  UNL     1       5.157   4.559  35.998  1.00  0.00     0.178 C 
HETATM    6  C7  UNL     1       4.272   3.396  36.309  1.00  0.00     0.165 C 
ENDROOT
BRANCH   3   7
HETATM    7  C4  UNL     1       8.143   2.927  34.304  1.00  0.00     0.152 C 
HETATM    8  N1  UNL     1       8.408   2.106  33.348  1.00  0.00    -0.250 N 
ATOM      9  H1  UNL     1       7.658   1.860  32.703  1.00  0.00     0.196 HD
BRANCH   7  10
HETATM   10  O2  UNL     1       9.180   3.242  35.163  1.00  0.00    -0.347 OA
ATOM     11  H2  UNL     1       9.752   2.595  35.560  1.00  0.00     0.219 HD
ENDBRANCH   7  10
BRANCH   8  12
HETATM   12  O3  UNL     1       9.641   1.547  33.151  1.00  0.00    -0.288 OA
ATOM     13  H3  UNL     1      10.441   1.888  33.534  1.00  0.00     0.244 HD
ENDBRANCH   8  12
ENDBRANCH   3   7
BRANCH   4  14
HETATM   14  O4  UNL     1       7.016   3.328  36.783  1.00  0.00    -0.391 OA
ATOM     15  H4  UNL     1       6.299   2.786  37.092  1.00  0.00     0.210 HD
ENDBRANCH   4  14
BRANCH   1  16
HETATM   16  C1  UNL     1       3.291   1.298  35.354  1.00  0.00     0.181 C 
BRANCH  16  17
HETATM   17  O1  UNL     1       4.088   0.221  34.978  1.00  0.00    -0.400 OA
ATOM     18  H1  UNL     1       4.574   0.412  34.184  1.00  0.00     0.209 HD
ENDBRANCH  16  17
ENDBRANCH   1  16
BRANCH   5  19
HETATM   19  O5  UNL     1       5.157   5.404  37.112  1.00  0.00    -0.390 OA
ATOM     20  H5  UNL     1       4.275   5.389  37.465  1.00  0.00     0.210 HD
ENDBRANCH   5  19
BRANCH   6  21
HETATM   21  O6  UNL     1       3.046   3.917  36.769  1.00  0.00    -0.392 OA
ATOM     22  H6  UNL     1       3.082   4.860  36.655  1.00  0.00     0.210 HD
ENDBRANCH   6  21
TORSDOF 8
ENDMDL
