MODEL 1
REMARK VINA RESULT: -6.987875697      0.000      0.000
REMARK  8 active torsions:
REMARK  status: ('A' for Active; 'I' for Inactive)
REMARK    1  A    between atoms: C4_5  and  C5_6 
REMARK    2  A    between atoms: C6_9  and  O4_10 
REMARK    3  A    between atoms: O4_10  and  C7_11 
REMARK    4  A    between atoms: C7_11  and  C8_12 
REMARK       I    between atoms: C8_12  and  N1_14 
REMARK    5  A    between atoms: N1_14  and  C9_16 
REMARK    6  A    between atoms: C9_16  and  C10_17 
REMARK    7  A    between atoms: C10_17  and  S1_18 
REMARK    8  A    between atoms: S1_18  and  N2_19 
ROOT
HETATM    1  C1  UNL     1      28.781 -28.633   8.663  1.00  0.00     0.077 C 
HETATM    2  C2  UNL     1      29.415 -27.571   7.833  1.00  0.00     0.056 A 
HETATM    3  O1  UNL     1      30.485 -26.866   8.067  1.00  0.00    -0.313 OA
HETATM    4  C3  UNL     1      30.740 -26.018   7.102  1.00  0.00     0.106 A 
HETATM    5  C4  UNL     1      31.733 -25.075   6.882  1.00  0.00     0.109 A 
HETATM    6  C6  UNL     1      31.766 -24.291   5.747  1.00  0.00     0.095 A 
HETATM    7  C11 UNL     1      30.754 -24.491   4.831  1.00  0.00    -0.021 A 
HETATM    8  C12 UNL     1      30.749 -23.667   3.589  1.00  0.00     0.052 C 
HETATM    9  C13 UNL     1      29.749 -25.411   5.000  1.00  0.00    -0.040 A 
HETATM   10  C14 UNL     1      28.675 -25.601   3.993  1.00  0.00     0.050 C 
HETATM   11  C15 UNL     1      29.733 -26.193   6.153  1.00  0.00     0.014 A 
HETATM   12  C16 UNL     1      28.877 -27.179   6.600  1.00  0.00    -0.019 A 
HETATM   13  C17 UNL     1      27.680 -27.688   5.924  1.00  0.00     0.052 C 
ENDROOT
BRANCH   6  14
HETATM   14  O4  UNL     1      32.723 -23.350   5.488  1.00  0.00    -0.340 OA
BRANCH  14  15
HETATM   15  C7  UNL     1      34.045 -23.584   5.127  1.00  0.00     0.278 C 
BRANCH  15  16
HETATM   16  C8  UNL     1      34.934 -22.772   5.996  1.00  0.00     0.241 C 
HETATM   17  O5  UNL     1      36.168 -22.919   5.936  1.00  0.00    -0.271 OA
HETATM   18  N1  UNL     1      34.368 -21.837   6.892  1.00  0.00    -0.358 N 
ATOM     19  H1  UNL     1      33.354 -21.730   6.922  1.00  0.00     0.162 HD
BRANCH  18  20
HETATM   20  C9  UNL     1      35.182 -21.033   7.762  1.00  0.00     0.139 C 
BRANCH  20  21
HETATM   21  C10 UNL     1      34.398 -19.944   8.394  1.00  0.00     0.182 C 
BRANCH  21  22
HETATM   22  S1  UNL     1      33.647 -20.456   9.929  1.00  0.00     0.226 S 
HETATM   23  O6  UNL     1      32.187 -20.692   9.641  1.00  0.00    -0.206 OA
HETATM   24  O7  UNL     1      33.803 -19.360  10.920  1.00  0.00    -0.206 OA
BRANCH  22  25
HETATM   25  N2  UNL     1      34.431 -21.913  10.423  1.00  0.00    -0.328 N 
ATOM     26  H22 UNL     1      35.314 -21.970  10.932  1.00  0.00     0.168 HD
ATOM     27  H21 UNL     1      33.849 -22.691  10.111  1.00  0.00     0.168 HD
ENDBRANCH  22  25
ENDBRANCH  21  22
ENDBRANCH  20  21
ENDBRANCH  18  20
ENDBRANCH  15  16
ENDBRANCH  14  15
ENDBRANCH   6  14
BRANCH   5  28
HETATM   28  C5  UNL     1      32.763 -24.918   7.887  1.00  0.00     0.215 C 
HETATM   29  O2  UNL     1      33.583 -25.832   8.063  1.00  0.00    -0.644 OA
HETATM   30  O3  UNL     1      32.848 -23.767   8.657  1.00  0.00    -0.644 OA
ENDBRANCH   5  28
TORSDOF 8
ENDMDL
MODEL 2
REMARK VINA RESULT: -6.805584087      5.088      8.363
REMARK  8 active torsions:
REMARK  status: ('A' for Active; 'I' for Inactive)
REMARK    1  A    between atoms: C4_5  and  C5_6 
REMARK    2  A    between atoms: C6_9  and  O4_10 
REMARK    3  A    between atoms: O4_10  and  C7_11 
REMARK    4  A    between atoms: C7_11  and  C8_12 
REMARK       I    between atoms: C8_12  and  N1_14 
REMARK    5  A    between atoms: N1_14  and  C9_16 
REMARK    6  A    between atoms: C9_16  and  C10_17 
REMARK    7  A    between atoms: C10_17  and  S1_18 
REMARK    8  A    between atoms: S1_18  and  N2_19 
ROOT
HETATM    1  C1  UNL     1      30.576 -21.078   1.888  1.00  0.00     0.077 C 
HETATM    2  C2  UNL     1      30.664 -22.191   2.875  1.00  0.00     0.056 A 
HETATM    3  O1  UNL     1      30.312 -23.439   2.748  1.00  0.00    -0.313 OA
HETATM    4  C3  UNL     1      30.540 -24.130   3.838  1.00  0.00     0.106 A 
HETATM    5  C4  UNL     1      30.348 -25.456   4.198  1.00  0.00     0.109 A 
HETATM    6  C6  UNL     1      30.685 -25.935   5.447  1.00  0.00     0.095 A 
HETATM    7  C11 UNL     1      31.229 -25.025   6.330  1.00  0.00    -0.021 A 
HETATM    8  C12 UNL     1      31.609 -25.498   7.691  1.00  0.00     0.052 C 
HETATM    9  C13 UNL     1      31.440 -23.703   6.023  1.00  0.00    -0.040 A 
HETATM   10  C14 UNL     1      32.027 -22.750   6.998  1.00  0.00     0.050 C 
HETATM   11  C15 UNL     1      31.092 -23.238   4.757  1.00  0.00     0.014 A 
HETATM   12  C16 UNL     1      31.179 -21.995   4.163  1.00  0.00    -0.019 A 
HETATM   13  C17 UNL     1      31.698 -20.761   4.759  1.00  0.00     0.052 C 
ENDROOT
BRANCH   6  14
HETATM   14  O4  UNL     1      30.514 -27.231   5.846  1.00  0.00    -0.340 OA
BRANCH  14  15
HETATM   15  C7  UNL     1      29.898 -27.670   7.012  1.00  0.00     0.278 C 
BRANCH  15  16
HETATM   16  C8  UNL     1      28.428 -27.674   6.809  1.00  0.00     0.241 C 
HETATM   17  O5  UNL     1      27.847 -26.640   6.436  1.00  0.00    -0.271 OA
HETATM   18  N1  UNL     1      27.696 -28.859   7.045  1.00  0.00    -0.358 N 
ATOM     19  H1  UNL     1      28.193 -29.698   7.346  1.00  0.00     0.162 HD
BRANCH  18  20
HETATM   20  C9  UNL     1      26.269 -28.916   6.873  1.00  0.00     0.139 C 
BRANCH  20  21
HETATM   21  C10 UNL     1      25.879 -29.943   5.877  1.00  0.00     0.182 C 
BRANCH  21  22
HETATM   22  S1  UNL     1      25.308 -29.221   4.349  1.00  0.00     0.226 S 
HETATM   23  O6  UNL     1      23.812 -29.088   4.464  1.00  0.00    -0.206 OA
HETATM   24  O7  UNL     1      25.657 -30.137   3.233  1.00  0.00    -0.206 OA
BRANCH  22  25
HETATM   25  N2  UNL     1      26.065 -27.675   4.199  1.00  0.00    -0.328 N 
ATOM     26  H22 UNL     1      25.921 -26.880   4.823  1.00  0.00     0.168 HD
ATOM     27  H21 UNL     1      26.671 -27.713   3.380  1.00  0.00     0.168 HD
ENDBRANCH  22  25
ENDBRANCH  21  22
ENDBRANCH  20  21
ENDBRANCH  18  20
ENDBRANCH  15  16
ENDBRANCH  14  15
ENDBRANCH   6  14
BRANCH   5  28
HETATM   28  C5  UNL     1      29.773 -26.354   3.221  1.00  0.00     0.215 C 
HETATM   29  O2  UNL     1      30.520 -26.948   2.427  1.00  0.00    -0.644 OA
HETATM   30  O3  UNL     1      28.402 -26.562   3.153  1.00  0.00    -0.644 OA
ENDBRANCH   5  28
TORSDOF 8
ENDMDL
MODEL 3
REMARK VINA RESULT: -6.798827438      0.778      1.066
REMARK  8 active torsions:
REMARK  status: ('A' for Active; 'I' for Inactive)
REMARK    1  A    between atoms: C4_5  and  C5_6 
REMARK    2  A    between atoms: C6_9  and  O4_10 
REMARK    3  A    between atoms: O4_10  and  C7_11 
REMARK    4  A    between atoms: C7_11  and  C8_12 
REMARK       I    between atoms: C8_12  and  N1_14 
REMARK    5  A    between atoms: N1_14  and  C9_16 
REMARK    6  A    between atoms: C9_16  and  C10_17 
REMARK    7  A    between atoms: C10_17  and  S1_18 
REMARK    8  A    between atoms: S1_18  and  N2_19 
ROOT
HETATM    1  C1  UNL     1      28.656 -28.488   8.473  1.00  0.00     0.077 C 
HETATM    2  C2  UNL     1      29.354 -27.436   7.683  1.00  0.00     0.056 A 
HETATM    3  O1  UNL     1      30.440 -26.773   7.966  1.00  0.00    -0.313 OA
HETATM    4  C3  UNL     1      30.758 -25.920   7.024  1.00  0.00     0.106 A 
HETATM    5  C4  UNL     1      31.790 -25.009   6.854  1.00  0.00     0.109 A 
HETATM    6  C6  UNL     1      31.890 -24.210   5.734  1.00  0.00     0.095 A 
HETATM    7  C11 UNL     1      30.906 -24.361   4.780  1.00  0.00    -0.021 A 
HETATM    8  C12 UNL     1      30.973 -23.519   3.552  1.00  0.00     0.052 C 
HETATM    9  C13 UNL     1      29.864 -25.248   4.899  1.00  0.00    -0.040 A 
HETATM   10  C14 UNL     1      28.821 -25.384   3.852  1.00  0.00     0.050 C 
HETATM   11  C15 UNL     1      29.780 -26.045   6.038  1.00  0.00     0.014 A 
HETATM   12  C16 UNL     1      28.875 -27.008   6.438  1.00  0.00    -0.019 A 
HETATM   13  C17 UNL     1      27.687 -27.465   5.713  1.00  0.00     0.052 C 
ENDROOT
BRANCH   6  14
HETATM   14  O4  UNL     1      32.888 -23.299   5.525  1.00  0.00    -0.340 OA
BRANCH  14  15
HETATM   15  C7  UNL     1      34.212 -23.573   5.200  1.00  0.00     0.278 C 
BRANCH  15  16
HETATM   16  C8  UNL     1      35.101 -22.787   6.092  1.00  0.00     0.241 C 
HETATM   17  O5  UNL     1      36.329 -22.985   6.080  1.00  0.00    -0.271 OA
HETATM   18  N1  UNL     1      34.541 -21.818   6.954  1.00  0.00    -0.358 N 
ATOM     19  H1  UNL     1      33.532 -21.668   6.944  1.00  0.00     0.162 HD
BRANCH  18  20
HETATM   20  C9  UNL     1      35.355 -21.035   7.844  1.00  0.00     0.139 C 
BRANCH  20  21
HETATM   21  C10 UNL     1      34.872 -21.119   9.244  1.00  0.00     0.182 C 
BRANCH  21  22
HETATM   22  S1  UNL     1      33.593 -19.926   9.590  1.00  0.00     0.226 S 
HETATM   23  O6  UNL     1      33.849 -19.405  10.981  1.00  0.00    -0.206 OA
HETATM   24  O7  UNL     1      32.277 -20.614   9.535  1.00  0.00    -0.206 OA
BRANCH  22  25
HETATM   25  N2  UNL     1      33.734 -18.668   8.415  1.00  0.00    -0.328 N 
ATOM     26  H22 UNL     1      32.955 -18.197   7.952  1.00  0.00     0.168 HD
ATOM     27  H21 UNL     1      34.729 -18.491   8.278  1.00  0.00     0.168 HD
ENDBRANCH  22  25
ENDBRANCH  21  22
ENDBRANCH  20  21
ENDBRANCH  18  20
ENDBRANCH  15  16
ENDBRANCH  14  15
ENDBRANCH   6  14
BRANCH   5  28
HETATM   28  C5  UNL     1      32.788 -24.904   7.897  1.00  0.00     0.215 C 
HETATM   29  O2  UNL     1      33.589 -25.836   8.069  1.00  0.00    -0.644 OA
HETATM   30  O3  UNL     1      32.864 -23.781   8.710  1.00  0.00    -0.644 OA
ENDBRANCH   5  28
TORSDOF 8
ENDMDL
MODEL 4
REMARK VINA RESULT: -6.790838455      2.294      3.863
REMARK  8 active torsions:
REMARK  status: ('A' for Active; 'I' for Inactive)
REMARK    1  A    between atoms: C4_5  and  C5_6 
REMARK    2  A    between atoms: C6_9  and  O4_10 
REMARK    3  A    between atoms: O4_10  and  C7_11 
REMARK    4  A    between atoms: C7_11  and  C8_12 
REMARK       I    between atoms: C8_12  and  N1_14 
REMARK    5  A    between atoms: N1_14  and  C9_16 
REMARK    6  A    between atoms: C9_16  and  C10_17 
REMARK    7  A    between atoms: C10_17  and  S1_18 
REMARK    8  A    between atoms: S1_18  and  N2_19 
ROOT
HETATM    1  C1  UNL     1      24.850 -28.746   4.526  1.00  0.00     0.077 C 
HETATM    2  C2  UNL     1      26.141 -28.157   4.981  1.00  0.00     0.056 A 
HETATM    3  O1  UNL     1      26.923 -27.309   4.375  1.00  0.00    -0.313 OA
HETATM    4  C3  UNL     1      27.982 -27.016   5.087  1.00  0.00     0.106 A 
HETATM    5  C4  UNL     1      29.079 -26.189   4.892  1.00  0.00     0.109 A 
HETATM    6  C6  UNL     1      30.081 -26.062   5.832  1.00  0.00     0.095 A 
HETATM    7  C11 UNL     1      29.938 -26.801   6.987  1.00  0.00    -0.021 A 
HETATM    8  C12 UNL     1      30.997 -26.694   8.032  1.00  0.00     0.052 C 
HETATM    9  C13 UNL     1      28.873 -27.633   7.230  1.00  0.00    -0.040 A 
HETATM   10  C14 UNL     1      28.752 -28.415   8.486  1.00  0.00     0.050 C 
HETATM   11  C15 UNL     1      27.872 -27.749   6.268  1.00  0.00     0.014 A 
HETATM   12  C16 UNL     1      26.704 -28.484   6.221  1.00  0.00    -0.019 A 
HETATM   13  C17 UNL     1      26.187 -29.395   7.245  1.00  0.00     0.052 C 
ENDROOT
BRANCH   6  14
HETATM   14  O4  UNL     1      31.179 -25.261   5.683  1.00  0.00    -0.340 OA
BRANCH  14  15
HETATM   15  C7  UNL     1      31.333 -23.963   6.155  1.00  0.00     0.278 C 
BRANCH  15  16
HETATM   16  C8  UNL     1      32.681 -23.826   6.761  1.00  0.00     0.241 C 
HETATM   17  O5  UNL     1      33.697 -23.923   6.049  1.00  0.00    -0.271 OA
HETATM   18  N1  UNL     1      32.800 -23.589   8.148  1.00  0.00    -0.358 N 
ATOM     19  H1  UNL     1      31.954 -23.509   8.712  1.00  0.00     0.162 HD
BRANCH  18  20
HETATM   20  C9  UNL     1      34.081 -23.458   8.788  1.00  0.00     0.139 C 
BRANCH  20  21
HETATM   21  C10 UNL     1      33.984 -22.702  10.060  1.00  0.00     0.182 C 
BRANCH  21  22
HETATM   22  S1  UNL     1      33.573 -20.987   9.797  1.00  0.00     0.226 S 
HETATM   23  O6  UNL     1      32.071 -20.884   9.863  1.00  0.00    -0.206 OA
HETATM   24  O7  UNL     1      34.055 -20.587   8.449  1.00  0.00    -0.206 OA
BRANCH  22  25
HETATM   25  N2  UNL     1      34.318 -20.081  11.064  1.00  0.00    -0.328 N 
ATOM     26  H22 UNL     1      35.295 -20.154  11.352  1.00  0.00     0.168 HD
ATOM     27  H21 UNL     1      33.604 -19.470  11.460  1.00  0.00     0.168 HD
ENDBRANCH  22  25
ENDBRANCH  21  22
ENDBRANCH  20  21
ENDBRANCH  18  20
ENDBRANCH  15  16
ENDBRANCH  14  15
ENDBRANCH   6  14
BRANCH   5  28
HETATM   28  C5  UNL     1      29.162 -25.443   3.655  1.00  0.00     0.215 C 
HETATM   29  O2  UNL     1      29.055 -24.207   3.682  1.00  0.00    -0.644 OA
HETATM   30  O3  UNL     1      29.356 -26.085   2.439  1.00  0.00    -0.644 OA
ENDBRANCH   5  28
TORSDOF 8
ENDMDL
MODEL 5
REMARK VINA RESULT: -6.752120107      4.626      7.604
REMARK  8 active torsions:
REMARK  status: ('A' for Active; 'I' for Inactive)
REMARK    1  A    between atoms: C4_5  and  C5_6 
REMARK    2  A    between atoms: C6_9  and  O4_10 
REMARK    3  A    between atoms: O4_10  and  C7_11 
REMARK    4  A    between atoms: C7_11  and  C8_12 
REMARK       I    between atoms: C8_12  and  N1_14 
REMARK    5  A    between atoms: N1_14  and  C9_16 
REMARK    6  A    between atoms: C9_16  and  C10_17 
REMARK    7  A    between atoms: C10_17  and  S1_18 
REMARK    8  A    between atoms: S1_18  and  N2_19 
ROOT
HETATM    1  C1  UNL     1      27.951 -23.459  -0.975  1.00  0.00     0.077 C 
HETATM    2  C2  UNL     1      28.670 -23.511   0.329  1.00  0.00     0.056 A 
HETATM    3  O1  UNL     1      29.042 -24.546   1.027  1.00  0.00    -0.313 OA
HETATM    4  C3  UNL     1      29.655 -24.202   2.133  1.00  0.00     0.106 A 
HETATM    5  C4  UNL     1      30.226 -24.909   3.181  1.00  0.00     0.109 A 
HETATM    6  C6  UNL     1      30.824 -24.280   4.254  1.00  0.00     0.095 A 
HETATM    7  C11 UNL     1      30.829 -22.902   4.234  1.00  0.00    -0.021 A 
HETATM    8  C12 UNL     1      31.465 -22.179   5.373  1.00  0.00     0.052 C 
HETATM    9  C13 UNL     1      30.279 -22.155   3.222  1.00  0.00    -0.040 A 
HETATM   10  C14 UNL     1      30.302 -20.670   3.233  1.00  0.00     0.050 C 
HETATM   11  C15 UNL     1      29.679 -22.808   2.147  1.00  0.00     0.014 A 
HETATM   12  C16 UNL     1      29.055 -22.347   1.005  1.00  0.00    -0.019 A 
HETATM   13  C17 UNL     1      28.852 -20.951   0.607  1.00  0.00     0.052 C 
ENDROOT
BRANCH   6  14
HETATM   14  O4  UNL     1      31.397 -24.935   5.308  1.00  0.00    -0.340 OA
BRANCH  14  15
HETATM   15  C7  UNL     1      31.017 -24.859   6.643  1.00  0.00     0.278 C 
BRANCH  15  16
HETATM   16  C8  UNL     1      30.475 -26.174   7.066  1.00  0.00     0.241 C 
HETATM   17  O5  UNL     1      31.120 -26.890   7.853  1.00  0.00    -0.271 OA
HETATM   18  N1  UNL     1      29.225 -26.606   6.569  1.00  0.00    -0.358 N 
ATOM     19  H1  UNL     1      28.711 -26.000   5.929  1.00  0.00     0.162 HD
BRANCH  18  20
HETATM   20  C9  UNL     1      28.659 -27.874   6.939  1.00  0.00     0.139 C 
BRANCH  20  21
HETATM   21  C10 UNL     1      27.221 -27.956   6.584  1.00  0.00     0.182 C 
BRANCH  21  22
HETATM   22  S1  UNL     1      26.418 -29.358   7.339  1.00  0.00     0.226 S 
HETATM   23  O6  UNL     1      25.157 -28.842   7.984  1.00  0.00    -0.206 OA
HETATM   24  O7  UNL     1      27.325 -29.925   8.370  1.00  0.00    -0.206 OA
BRANCH  22  25
HETATM   25  N2  UNL     1      26.060 -30.484   6.079  1.00  0.00    -0.328 N 
ATOM     26  H22 UNL     1      26.631 -30.648   5.249  1.00  0.00     0.168 HD
ATOM     27  H21 UNL     1      25.183 -30.944   6.324  1.00  0.00     0.168 HD
ENDBRANCH  22  25
ENDBRANCH  21  22
ENDBRANCH  20  21
ENDBRANCH  18  20
ENDBRANCH  15  16
ENDBRANCH  14  15
ENDBRANCH   6  14
BRANCH   5  28
HETATM   28  C5  UNL     1      30.183 -26.355   3.134  1.00  0.00     0.215 C 
HETATM   29  O2  UNL     1      29.193 -26.949   3.589  1.00  0.00    -0.644 OA
HETATM   30  O3  UNL     1      31.230 -27.089   2.592  1.00  0.00    -0.644 OA
ENDBRANCH   5  28
TORSDOF 8
ENDMDL
