MODEL 1
REMARK VINA RESULT: -6.990670952      0.000      0.000
REMARK  7 active torsions:
REMARK  status: ('A' for Active; 'I' for Inactive)
REMARK       I    between atoms: N2_9  and  C5_10 
REMARK    1  A    between atoms: C5_10  and  C6_12 
REMARK    2  A    between atoms: C6_12  and  C7_13 
REMARK    3  A    between atoms: C6_12  and  N3_19 
REMARK    4  A    between atoms: C7_13  and  S1_14 
REMARK    5  A    between atoms: S1_14  and  C8_15 
REMARK    6  A    between atoms: C8_15  and  C9_16 
REMARK    7  A    between atoms: N3_19  and  C10_21 
ROOT
HETATM    1  C6  UNL     1      29.888 -25.248   4.155  1.00  0.00     0.180 C 
ENDROOT
BRANCH   1   2
HETATM    2  C5  UNL     1      29.477 -25.317   2.732  1.00  0.00     0.248 C 
HETATM    3  N2  UNL     1      29.236 -24.185   1.926  1.00  0.00    -0.302 N 
HETATM    4  C1  UNL     1      28.789 -24.385   0.566  1.00  0.00     0.103 C 
HETATM    5  C4  UNL     1      29.458 -22.826   2.351  1.00  0.00     0.159 C 
HETATM    6  N1  UNL     1      28.056 -25.321   0.199  1.00  0.00    -0.387 N 
HETATM    7  C2  UNL     1      29.235 -23.401  -0.497  1.00  0.00     0.243 C 
ATOM      8  H12 UNL     1      27.740 -25.462  -0.760  1.00  0.00     0.157 HD
ATOM      9  H11 UNL     1      27.756 -25.984   0.915  1.00  0.00     0.157 HD
HETATM   10  O1  UNL     1      30.206 -22.595   0.068  1.00  0.00    -0.382 OA
HETATM   11  C3  UNL     1      29.666 -21.919   1.133  1.00  0.00     0.188 C 
HETATM   12  O2  UNL     1      29.344 -26.446   2.195  1.00  0.00    -0.271 OA
ENDBRANCH   1   2
BRANCH   1  13
HETATM   13  C7  UNL     1      29.473 -26.600   4.827  1.00  0.00     0.108 C 
BRANCH  13  14
HETATM   14  S1  UNL     1      27.826 -26.569   5.516  1.00  0.00    -0.156 SA
BRANCH  14  15
HETATM   15  C8  UNL     1      27.754 -27.261   7.209  1.00  0.00     0.186 C 
BRANCH  15  16
HETATM   16  C9  UNL     1      27.015 -28.547   7.130  1.00  0.00     0.182 C 
HETATM   17  O3  UNL     1      26.258 -28.838   6.193  1.00  0.00    -0.647 OA
HETATM   18  O4  UNL     1      27.182 -29.470   8.161  1.00  0.00    -0.647 OA
ENDBRANCH  15  16
ENDBRANCH  14  15
ENDBRANCH  13  14
ENDBRANCH   1  13
BRANCH   1  19
HETATM   19  N3  UNL     1      31.199 -24.953   4.463  1.00  0.00    -0.400 N 
ATOM     20  H3  UNL     1      31.842 -25.381   3.796  1.00  0.00     0.154 HD
BRANCH  19  21
HETATM   21  C10 UNL     1      31.869 -24.249   5.412  1.00  0.00     0.027 C 
HETATM   22  C11 UNL     1      31.273 -22.842   5.606  1.00  0.00     0.035 C 
HETATM   23  C12 UNL     1      32.245 -21.906   6.299  1.00  0.00    -0.012 C 
HETATM   24  C13 UNL     1      33.557 -21.813   5.599  1.00  0.00     0.009 C 
HETATM   25  C17 UNL     1      32.466 -22.425   7.695  1.00  0.00     0.009 C 
HETATM   26  C14 UNL     1      34.170 -23.182   5.586  1.00  0.00    -0.012 C 
HETATM   27  C15 UNL     1      34.365 -23.768   6.971  1.00  0.00     0.009 C 
HETATM   28  C19 UNL     1      33.294 -24.086   4.831  1.00  0.00     0.035 C 
HETATM   29  C16 UNL     1      32.997 -23.835   7.586  1.00  0.00    -0.012 C 
HETATM   30  C18 UNL     1      32.061 -24.755   6.808  1.00  0.00     0.035 C 
ENDBRANCH  19  21
ENDBRANCH   1  19
TORSDOF 7
ENDMDL
MODEL 2
REMARK VINA RESULT: -6.989017105      2.277      5.377
REMARK  7 active torsions:
REMARK  status: ('A' for Active; 'I' for Inactive)
REMARK       I    between atoms: N2_9  and  C5_10 
REMARK    1  A    between atoms: C5_10  and  C6_12 
REMARK    2  A    between atoms: C6_12  and  C7_13 
REMARK    3  A    between atoms: C6_12  and  N3_19 
REMARK    4  A    between atoms: C7_13  and  S1_14 
REMARK    5  A    between atoms: S1_14  and  C8_15 
REMARK    6  A    between atoms: C8_15  and  C9_16 
REMARK    7  A    between atoms: N3_19  and  C10_21 
ROOT
HETATM    1  C6  UNL     1      29.791 -25.400   4.224  1.00  0.00     0.180 C 
ENDROOT
BRANCH   1   2
HETATM    2  C5  UNL     1      28.759 -26.117   5.009  1.00  0.00     0.248 C 
HETATM    3  N2  UNL     1      29.046 -27.119   5.960  1.00  0.00    -0.302 N 
HETATM    4  C1  UNL     1      27.946 -27.781   6.623  1.00  0.00     0.103 C 
HETATM    5  C4  UNL     1      30.378 -27.498   6.359  1.00  0.00     0.159 C 
HETATM    6  N1  UNL     1      26.844 -28.014   6.093  1.00  0.00    -0.387 N 
HETATM    7  C2  UNL     1      28.127 -28.226   8.060  1.00  0.00     0.243 C 
ATOM      8  H12 UNL     1      26.068 -28.481   6.561  1.00  0.00     0.157 HD
ATOM      9  H11 UNL     1      26.723 -27.714   5.125  1.00  0.00     0.157 HD
HETATM   10  O1  UNL     1      29.310 -27.676   8.517  1.00  0.00    -0.382 OA
HETATM   11  C3  UNL     1      30.348 -28.142   7.750  1.00  0.00     0.188 C 
HETATM   12  O2  UNL     1      27.549 -25.815   4.838  1.00  0.00    -0.271 OA
ENDBRANCH   1   2
BRANCH   1  13
HETATM   13  C7  UNL     1      29.267 -25.292   2.752  1.00  0.00     0.108 C 
BRANCH  13  14
HETATM   14  S1  UNL     1      29.600 -26.751   1.777  1.00  0.00    -0.156 SA
BRANCH  14  15
HETATM   15  C8  UNL     1      28.372 -27.003   0.442  1.00  0.00     0.186 C 
BRANCH  15  16
HETATM   16  C9  UNL     1      29.039 -26.663  -0.841  1.00  0.00     0.182 C 
HETATM   17  O3  UNL     1      29.748 -27.461  -1.470  1.00  0.00    -0.647 OA
HETATM   18  O4  UNL     1      28.857 -25.382  -1.361  1.00  0.00    -0.647 OA
ENDBRANCH  15  16
ENDBRANCH  14  15
ENDBRANCH  13  14
ENDBRANCH   1  13
BRANCH   1  19
HETATM   19  N3  UNL     1      30.231 -24.167   4.657  1.00  0.00    -0.400 N 
ATOM     20  H3  UNL     1      29.660 -23.414   4.274  1.00  0.00     0.154 HD
BRANCH  19  21
HETATM   21  C10 UNL     1      31.216 -23.681   5.456  1.00  0.00     0.027 C 
HETATM   22  C11 UNL     1      31.067 -22.166   5.690  1.00  0.00     0.035 C 
HETATM   23  C12 UNL     1      32.359 -21.539   6.178  1.00  0.00    -0.012 C 
HETATM   24  C13 UNL     1      33.511 -21.806   5.271  1.00  0.00     0.009 C 
HETATM   25  C17 UNL     1      32.661 -22.109   7.538  1.00  0.00     0.009 C 
HETATM   26  C14 UNL     1      33.716 -23.291   5.211  1.00  0.00    -0.012 C 
HETATM   27  C15 UNL     1      33.973 -23.918   6.568  1.00  0.00     0.009 C 
HETATM   28  C19 UNL     1      32.514 -23.913   4.645  1.00  0.00     0.035 C 
HETATM   29  C16 UNL     1      32.761 -23.609   7.400  1.00  0.00    -0.012 C 
HETATM   30  C18 UNL     1      31.493 -24.231   6.821  1.00  0.00     0.035 C 
ENDBRANCH  19  21
ENDBRANCH   1  19
TORSDOF 7
ENDMDL
MODEL 3
REMARK VINA RESULT: -6.967421576      1.269      1.938
REMARK  7 active torsions:
REMARK  status: ('A' for Active; 'I' for Inactive)
REMARK       I    between atoms: N2_9  and  C5_10 
REMARK    1  A    between atoms: C5_10  and  C6_12 
REMARK    2  A    between atoms: C6_12  and  C7_13 
REMARK    3  A    between atoms: C6_12  and  N3_19 
REMARK    4  A    between atoms: C7_13  and  S1_14 
REMARK    5  A    between atoms: S1_14  and  C8_15 
REMARK    6  A    between atoms: C8_15  and  C9_16 
REMARK    7  A    between atoms: N3_19  and  C10_21 
ROOT
HETATM    1  C6  UNL     1      29.715 -25.113   3.451  1.00  0.00     0.180 C 
ENDROOT
BRANCH   1   2
HETATM    2  C5  UNL     1      29.471 -25.873   2.202  1.00  0.00     0.248 C 
HETATM    3  N2  UNL     1      28.934 -25.308   1.026  1.00  0.00    -0.302 N 
HETATM    4  C1  UNL     1      28.694 -26.167  -0.110  1.00  0.00     0.103 C 
HETATM    5  C4  UNL     1      28.653 -23.904   0.859  1.00  0.00     0.159 C 
HETATM    6  N1  UNL     1      28.349 -27.360  -0.027  1.00  0.00    -0.387 N 
HETATM    7  C2  UNL     1      28.873 -25.597  -1.502  1.00  0.00     0.243 C 
ATOM      8  H12 UNL     1      28.180 -27.967  -0.829  1.00  0.00     0.157 HD
ATOM      9  H11 UNL     1      28.229 -27.744   0.911  1.00  0.00     0.157 HD
HETATM   10  O1  UNL     1      29.470 -24.357  -1.367  1.00  0.00    -0.382 OA
HETATM   11  C3  UNL     1      28.648 -23.541  -0.630  1.00  0.00     0.188 C 
HETATM   12  O2  UNL     1      29.767 -27.096   2.170  1.00  0.00    -0.271 OA
ENDBRANCH   1   2
BRANCH   1  13
HETATM   13  C7  UNL     1      28.561 -25.469   4.448  1.00  0.00     0.108 C 
BRANCH  13  14
HETATM   14  S1  UNL     1      29.015 -26.728   5.631  1.00  0.00    -0.156 SA
BRANCH  14  15
HETATM   15  C8  UNL     1      27.658 -27.127   6.793  1.00  0.00     0.186 C 
BRANCH  15  16
HETATM   16  C9  UNL     1      28.171 -28.158   7.733  1.00  0.00     0.182 C 
HETATM   17  O3  UNL     1      27.668 -29.285   7.844  1.00  0.00    -0.647 OA
HETATM   18  O4  UNL     1      29.270 -27.838   8.528  1.00  0.00    -0.647 OA
ENDBRANCH  15  16
ENDBRANCH  14  15
ENDBRANCH  13  14
ENDBRANCH   1  13
BRANCH   1  19
HETATM   19  N3  UNL     1      30.935 -25.230   4.082  1.00  0.00    -0.400 N 
ATOM     20  H3  UNL     1      31.270 -26.194   4.066  1.00  0.00     0.154 HD
BRANCH  19  21
HETATM   21  C10 UNL     1      31.812 -24.414   4.721  1.00  0.00     0.027 C 
HETATM   22  C11 UNL     1      31.694 -24.535   6.253  1.00  0.00     0.035 C 
HETATM   23  C12 UNL     1      32.313 -23.347   6.963  1.00  0.00    -0.012 C 
HETATM   24  C13 UNL     1      31.752 -22.043   6.508  1.00  0.00     0.009 C 
HETATM   25  C17 UNL     1      33.794 -23.368   6.690  1.00  0.00     0.009 C 
HETATM   26  C14 UNL     1      32.042 -21.903   5.043  1.00  0.00    -0.012 C 
HETATM   27  C15 UNL     1      33.522 -21.970   4.713  1.00  0.00     0.009 C 
HETATM   28  C19 UNL     1      31.368 -22.987   4.320  1.00  0.00     0.035 C 
HETATM   29  C16 UNL     1      33.989 -23.314   5.194  1.00  0.00    -0.012 C 
HETATM   30  C18 UNL     1      33.288 -24.460   4.469  1.00  0.00     0.035 C 
ENDBRANCH  19  21
ENDBRANCH   1  19
TORSDOF 7
ENDMDL
MODEL 4
REMARK VINA RESULT: -6.948749747      1.250      1.493
REMARK  7 active torsions:
REMARK  status: ('A' for Active; 'I' for Inactive)
REMARK       I    between atoms: N2_9  and  C5_10 
REMARK    1  A    between atoms: C5_10  and  C6_12 
REMARK    2  A    between atoms: C6_12  and  C7_13 
REMARK    3  A    between atoms: C6_12  and  N3_19 
REMARK    4  A    between atoms: C7_13  and  S1_14 
REMARK    5  A    between atoms: S1_14  and  C8_15 
REMARK    6  A    between atoms: C8_15  and  C9_16 
REMARK    7  A    between atoms: N3_19  and  C10_21 
ROOT
HETATM    1  C6  UNL     1      29.573 -25.076   3.434  1.00  0.00     0.180 C 
ENDROOT
BRANCH   1   2
HETATM    2  C5  UNL     1      29.391 -25.856   2.187  1.00  0.00     0.248 C 
HETATM    3  N2  UNL     1      28.891 -25.314   0.984  1.00  0.00    -0.302 N 
HETATM    4  C1  UNL     1      28.711 -26.192  -0.151  1.00  0.00     0.103 C 
HETATM    5  C4  UNL     1      28.594 -23.918   0.787  1.00  0.00     0.159 C 
HETATM    6  N1  UNL     1      28.383 -27.389  -0.066  1.00  0.00    -0.387 N 
HETATM    7  C2  UNL     1      28.935 -25.635  -1.542  1.00  0.00     0.243 C 
ATOM      8  H12 UNL     1      28.255 -28.009  -0.866  1.00  0.00     0.157 HD
ATOM      9  H11 UNL     1      28.232 -27.764   0.872  1.00  0.00     0.157 HD
HETATM   10  O1  UNL     1      29.505 -24.384  -1.399  1.00  0.00    -0.382 OA
HETATM   11  C3  UNL     1      28.642 -23.573  -0.706  1.00  0.00     0.188 C 
HETATM   12  O2  UNL     1      29.708 -27.074   2.182  1.00  0.00    -0.271 OA
ENDBRANCH   1   2
BRANCH   1  13
HETATM   13  C7  UNL     1      28.432 -25.499   4.420  1.00  0.00     0.108 C 
BRANCH  13  14
HETATM   14  S1  UNL     1      28.916 -26.801   5.543  1.00  0.00    -0.156 SA
BRANCH  14  15
HETATM   15  C8  UNL     1      27.686 -27.084   6.869  1.00  0.00     0.186 C 
BRANCH  15  16
HETATM   16  C9  UNL     1      28.228 -28.148   7.754  1.00  0.00     0.182 C 
HETATM   17  O3  UNL     1      27.729 -29.279   7.840  1.00  0.00    -0.647 OA
HETATM   18  O4  UNL     1      29.353 -27.857   8.524  1.00  0.00    -0.647 OA
ENDBRANCH  15  16
ENDBRANCH  14  15
ENDBRANCH  13  14
ENDBRANCH   1  13
BRANCH   1  19
HETATM   19  N3  UNL     1      30.790 -25.115   4.080  1.00  0.00    -0.400 N 
ATOM     20  H3  UNL     1      31.297 -25.974   3.865  1.00  0.00     0.154 HD
BRANCH  19  21
HETATM   21  C10 UNL     1      31.499 -24.322   4.925  1.00  0.00     0.027 C 
HETATM   22  C11 UNL     1      31.055 -22.850   4.834  1.00  0.00     0.035 C 
HETATM   23  C12 UNL     1      32.098 -21.908   5.403  1.00  0.00    -0.012 C 
HETATM   24  C13 UNL     1      33.437 -22.078   4.770  1.00  0.00     0.009 C 
HETATM   25  C17 UNL     1      32.211 -22.185   6.878  1.00  0.00     0.009 C 
HETATM   26  C14 UNL     1      33.896 -23.482   5.033  1.00  0.00    -0.012 C 
HETATM   27  C15 UNL     1      33.975 -23.823   6.509  1.00  0.00     0.009 C 
HETATM   28  C19 UNL     1      32.953 -24.414   4.404  1.00  0.00     0.035 C 
HETATM   29  C16 UNL     1      32.586 -23.637   7.050  1.00  0.00    -0.012 C 
HETATM   30  C18 UNL     1      31.583 -24.583   6.397  1.00  0.00     0.035 C 
ENDBRANCH  19  21
ENDBRANCH   1  19
TORSDOF 7
ENDMDL
MODEL 5
REMARK VINA RESULT: -6.919911946      2.280      5.551
REMARK  7 active torsions:
REMARK  status: ('A' for Active; 'I' for Inactive)
REMARK       I    between atoms: N2_9  and  C5_10 
REMARK    1  A    between atoms: C5_10  and  C6_12 
REMARK    2  A    between atoms: C6_12  and  C7_13 
REMARK    3  A    between atoms: C6_12  and  N3_19 
REMARK    4  A    between atoms: C7_13  and  S1_14 
REMARK    5  A    between atoms: S1_14  and  C8_15 
REMARK    6  A    between atoms: C8_15  and  C9_16 
REMARK    7  A    between atoms: N3_19  and  C10_21 
ROOT
HETATM    1  C6  UNL     1      29.770 -25.480   4.133  1.00  0.00     0.180 C 
ENDROOT
BRANCH   1   2
HETATM    2  C5  UNL     1      28.742 -26.159   4.956  1.00  0.00     0.248 C 
HETATM    3  N2  UNL     1      29.032 -27.136   5.932  1.00  0.00    -0.302 N 
HETATM    4  C1  UNL     1      27.935 -27.763   6.633  1.00  0.00     0.103 C 
HETATM    5  C4  UNL     1      30.365 -27.520   6.322  1.00  0.00     0.159 C 
HETATM    6  N1  UNL     1      26.822 -27.997   6.128  1.00  0.00    -0.387 N 
HETATM    7  C2  UNL     1      28.134 -28.166   8.080  1.00  0.00     0.243 C 
ATOM      8  H12 UNL     1      26.047 -28.440   6.622  1.00  0.00     0.157 HD
ATOM      9  H11 UNL     1      26.688 -27.726   5.154  1.00  0.00     0.157 HD
HETATM   10  O1  UNL     1      29.331 -27.618   8.501  1.00  0.00    -0.382 OA
HETATM   11  C3  UNL     1      30.350 -28.121   7.732  1.00  0.00     0.188 C 
HETATM   12  O2  UNL     1      27.534 -25.847   4.795  1.00  0.00    -0.271 OA
ENDBRANCH   1   2
BRANCH   1  13
HETATM   13  C7  UNL     1      29.188 -25.332   2.686  1.00  0.00     0.108 C 
BRANCH  13  14
HETATM   14  S1  UNL     1      29.447 -26.778   1.670  1.00  0.00    -0.156 SA
BRANCH  14  15
HETATM   15  C8  UNL     1      28.271 -26.878   0.270  1.00  0.00     0.186 C 
BRANCH  15  16
HETATM   16  C9  UNL     1      29.041 -26.609  -0.972  1.00  0.00     0.182 C 
HETATM   17  O3  UNL     1      29.790 -27.443  -1.500  1.00  0.00    -0.647 OA
HETATM   18  O4  UNL     1      28.912 -25.357  -1.570  1.00  0.00    -0.647 OA
ENDBRANCH  15  16
ENDBRANCH  14  15
ENDBRANCH  13  14
ENDBRANCH   1  13
BRANCH   1  19
HETATM   19  N3  UNL     1      30.283 -24.274   4.558  1.00  0.00    -0.400 N 
ATOM     20  H3  UNL     1      29.621 -23.513   4.403  1.00  0.00     0.154 HD
BRANCH  19  21
HETATM   21  C10 UNL     1      31.430 -23.820   5.127  1.00  0.00     0.027 C 
HETATM   22  C11 UNL     1      31.498 -24.163   6.628  1.00  0.00     0.035 C 
HETATM   23  C12 UNL     1      32.510 -23.302   7.360  1.00  0.00    -0.012 C 
HETATM   24  C13 UNL     1      32.267 -21.843   7.178  1.00  0.00     0.009 C 
HETATM   25  C17 UNL     1      33.875 -23.645   6.826  1.00  0.00     0.009 C 
HETATM   26  C14 UNL     1      32.378 -21.536   5.715  1.00  0.00    -0.012 C 
HETATM   27  C15 UNL     1      33.722 -21.913   5.120  1.00  0.00     0.009 C 
HETATM   28  C19 UNL     1      31.340 -22.281   4.993  1.00  0.00     0.035 C 
HETATM   29  C16 UNL     1      33.868 -23.391   5.338  1.00  0.00    -0.012 C 
HETATM   30  C18 UNL     1      32.787 -24.188   4.612  1.00  0.00     0.035 C 
ENDBRANCH  19  21
ENDBRANCH   1  19
TORSDOF 7
ENDMDL
