MODEL 1
REMARK VINA RESULT: -7.396450634      0.000      0.000
REMARK  10 active torsions:
REMARK  status: ('A' for Active; 'I' for Inactive)
REMARK    1  A    between atoms: C2_2  and  C4_4 
REMARK    2  A    between atoms: C4_4  and  C5_5 
REMARK    3  A    between atoms: C5_5  and  O1_6 
REMARK    4  A    between atoms: C5_5  and  C6_8 
REMARK    5  A    between atoms: C6_8  and  N1_9 
REMARK    6  A    between atoms: N1_9  and  C7_11 
REMARK    7  A    between atoms: C7_11  and  C8_12 
REMARK    8  A    between atoms: C8_12  and  N2_15 
REMARK    9  A    between atoms: C16_21  and  N3_22 
REMARK       I    between atoms: N3_22  and  C17_24 
REMARK   10  A    between atoms: C17_24  and  C18_26 
ROOT
HETATM    1  N2  UNL     1      30.030 -25.735   5.853  1.00  0.00    -0.355 N 
HETATM    2  C11 UNL     1      29.093 -26.273   4.951  1.00  0.00     0.097 C 
HETATM    3  C12 UNL     1      29.152 -25.765   3.541  1.00  0.00     0.261 C 
HETATM    4  C13 UNL     1      30.162 -26.566   2.743  1.00  0.00     0.043 C 
HETATM    5  C14 UNL     1      31.466 -25.872   3.069  1.00  0.00     0.042 C 
HETATM    6  C15 UNL     1      31.070 -24.695   3.885  1.00  0.00     0.265 C 
HETATM    7  C16 UNL     1      31.100 -24.972   5.383  1.00  0.00     0.220 C 
HETATM    8  N4  UNL     1      29.714 -24.407   3.529  1.00  0.00     0.102 N 
HETATM    9  C22 UNL     1      29.570 -23.918   2.177  1.00  0.00     0.311 C 
ENDROOT
BRANCH   1  10
HETATM   10  C8  UNL     1      30.237 -26.631   6.949  1.00  0.00     0.058 C 
HETATM   11  C9  UNL     1      31.494 -26.350   7.725  1.00  0.00     0.044 C 
HETATM   12  C10 UNL     1      30.493 -28.011   6.295  1.00  0.00     0.044 C 
BRANCH  10  13
HETATM   13  C7  UNL     1      29.071 -26.837   7.832  1.00  0.00     0.086 C 
BRANCH  13  14
HETATM   14  N1  UNL     1      28.274 -27.983   7.722  1.00  0.00    -0.397 N 
ATOM     15  H1  UNL     1      28.689 -28.887   7.952  1.00  0.00     0.158 HD
BRANCH  14  16
HETATM   16  C6  UNL     1      26.936 -27.951   7.311  1.00  0.00     0.150 C 
BRANCH  16  17
HETATM   17  C5  UNL     1      26.184 -29.225   7.766  1.00  0.00     0.136 C 
BRANCH  17  18
HETATM   18  C4  UNL     1      25.295 -29.792   6.741  1.00  0.00     0.037 C 
BRANCH  18  19
HETATM   19  C2  UNL     1      25.753 -29.784   5.330  1.00  0.00    -0.020 C 
HETATM   20  C1  UNL     1      24.854 -28.949   4.422  1.00  0.00     0.009 C 
HETATM   21  C3  UNL     1      26.056 -31.107   4.723  1.00  0.00     0.009 C 
ENDBRANCH  18  19
ENDBRANCH  17  18
BRANCH  17  22
HETATM   22  O1  UNL     1      27.045 -30.081   8.401  1.00  0.00    -0.394 OA
ATOM     23  H1  UNL     1      27.948 -29.803   8.497  1.00  0.00     0.210 HD
ENDBRANCH  17  22
ENDBRANCH  16  17
ENDBRANCH  14  16
ENDBRANCH  13  14
ENDBRANCH  10  13
ENDBRANCH   1  10
BRANCH   7  24
HETATM   24  N3  UNL     1      31.133 -23.638   5.959  1.00  0.00    -0.337 N 
HETATM   25  C17 UNL     1      32.411 -23.116   6.368  1.00  0.00     0.227 C 
HETATM   26  O2  UNL     1      33.463 -23.787   6.226  1.00  0.00    -0.273 OA
ATOM     27  H3  UNL     1      30.279 -23.091   6.069  1.00  0.00     0.164 HD
BRANCH  25  28
HETATM   28  C18 UNL     1      32.526 -21.764   6.974  1.00  0.00     0.030 C 
HETATM   29  C19 UNL     1      31.297 -20.924   6.700  1.00  0.00     0.024 C 
HETATM   30  C20 UNL     1      32.729 -22.003   8.476  1.00  0.00     0.024 C 
HETATM   31  C21 UNL     1      33.770 -21.097   6.458  1.00  0.00     0.024 C 
ENDBRANCH  25  28
ENDBRANCH   7  24
TORSDOF 10
ENDMDL
MODEL 2
REMARK VINA RESULT: -6.380876412      2.088      3.793
REMARK  10 active torsions:
REMARK  status: ('A' for Active; 'I' for Inactive)
REMARK    1  A    between atoms: C2_2  and  C4_4 
REMARK    2  A    between atoms: C4_4  and  C5_5 
REMARK    3  A    between atoms: C5_5  and  O1_6 
REMARK    4  A    between atoms: C5_5  and  C6_8 
REMARK    5  A    between atoms: C6_8  and  N1_9 
REMARK    6  A    between atoms: N1_9  and  C7_11 
REMARK    7  A    between atoms: C7_11  and  C8_12 
REMARK    8  A    between atoms: C8_12  and  N2_15 
REMARK    9  A    between atoms: C16_21  and  N3_22 
REMARK       I    between atoms: N3_22  and  C17_24 
REMARK   10  A    between atoms: C17_24  and  C18_26 
ROOT
HETATM    1  N2  UNL     1      31.407 -22.893   5.533  1.00  0.00    -0.355 N 
HETATM    2  C11 UNL     1      30.278 -22.759   4.705  1.00  0.00     0.097 C 
HETATM    3  C12 UNL     1      29.904 -21.363   4.301  1.00  0.00     0.261 C 
HETATM    4  C13 UNL     1      30.680 -20.957   3.064  1.00  0.00     0.043 C 
HETATM    5  C14 UNL     1      31.987 -20.461   3.642  1.00  0.00     0.042 C 
HETATM    6  C15 UNL     1      31.786 -20.502   5.113  1.00  0.00     0.265 C 
HETATM    7  C16 UNL     1      32.259 -21.807   5.742  1.00  0.00     0.220 C 
HETATM    8  N4  UNL     1      30.372 -20.413   5.320  1.00  0.00     0.102 N 
HETATM    9  C22 UNL     1      29.822 -19.126   4.961  1.00  0.00     0.311 C 
ENDROOT
BRANCH   1  10
HETATM   10  C8  UNL     1      31.964 -24.205   5.408  1.00  0.00     0.058 C 
HETATM   11  C9  UNL     1      33.242 -24.242   4.617  1.00  0.00     0.044 C 
HETATM   12  C10 UNL     1      30.952 -24.988   4.534  1.00  0.00     0.044 C 
BRANCH  10  13
HETATM   13  C7  UNL     1      32.062 -24.978   6.663  1.00  0.00     0.086 C 
BRANCH  13  14
HETATM   14  N1  UNL     1      30.940 -25.606   7.216  1.00  0.00    -0.397 N 
ATOM     15  H1  UNL     1      30.067 -25.080   7.269  1.00  0.00     0.158 HD
BRANCH  14  16
HETATM   16  C6  UNL     1      30.955 -26.920   7.698  1.00  0.00     0.150 C 
BRANCH  16  17
HETATM   17  C5  UNL     1      29.518 -27.474   7.849  1.00  0.00     0.136 C 
BRANCH  17  18
HETATM   18  C4  UNL     1      28.865 -27.796   6.569  1.00  0.00     0.037 C 
BRANCH  18  19
HETATM   19  C2  UNL     1      27.441 -27.422   6.393  1.00  0.00    -0.020 C 
HETATM   20  C1  UNL     1      26.516 -28.635   6.332  1.00  0.00     0.009 C 
HETATM   21  C3  UNL     1      27.138 -26.455   5.305  1.00  0.00     0.009 C 
ENDBRANCH  18  19
ENDBRANCH  17  18
BRANCH  17  22
HETATM   22  O1  UNL     1      29.477 -28.422   8.836  1.00  0.00    -0.394 OA
ATOM     23  H1  UNL     1      28.840 -29.122   8.746  1.00  0.00     0.210 HD
ENDBRANCH  17  22
ENDBRANCH  16  17
ENDBRANCH  14  16
ENDBRANCH  13  14
ENDBRANCH  10  13
ENDBRANCH   1  10
BRANCH   7  24
HETATM   24  N3  UNL     1      32.391 -21.461   7.147  1.00  0.00    -0.337 N 
HETATM   25  C17 UNL     1      33.627 -21.795   7.807  1.00  0.00     0.227 C 
HETATM   26  O2  UNL     1      34.562 -22.361   7.187  1.00  0.00    -0.273 OA
ATOM     27  H3  UNL     1      31.633 -20.996   7.649  1.00  0.00     0.164 HD
BRANCH  25  28
HETATM   28  C18 UNL     1      33.835 -21.483   9.244  1.00  0.00     0.030 C 
HETATM   29  C19 UNL     1      32.951 -20.341   9.700  1.00  0.00     0.024 C 
HETATM   30  C20 UNL     1      33.521 -22.782   9.998  1.00  0.00     0.024 C 
HETATM   31  C21 UNL     1      35.287 -21.175   9.477  1.00  0.00     0.024 C 
ENDBRANCH  25  28
ENDBRANCH   7  24
TORSDOF 10
ENDMDL
MODEL 3
REMARK VINA RESULT: -6.352529487      2.500      4.668
REMARK  10 active torsions:
REMARK  status: ('A' for Active; 'I' for Inactive)
REMARK    1  A    between atoms: C2_2  and  C4_4 
REMARK    2  A    between atoms: C4_4  and  C5_5 
REMARK    3  A    between atoms: C5_5  and  O1_6 
REMARK    4  A    between atoms: C5_5  and  C6_8 
REMARK    5  A    between atoms: C6_8  and  N1_9 
REMARK    6  A    between atoms: N1_9  and  C7_11 
REMARK    7  A    between atoms: C7_11  and  C8_12 
REMARK    8  A    between atoms: C8_12  and  N2_15 
REMARK    9  A    between atoms: C16_21  and  N3_22 
REMARK       I    between atoms: N3_22  and  C17_24 
REMARK   10  A    between atoms: C17_24  and  C18_26 
ROOT
HETATM    1  N2  UNL     1      31.255 -24.035   3.820  1.00  0.00    -0.355 N 
HETATM    2  C11 UNL     1      32.450 -24.690   4.169  1.00  0.00     0.097 C 
HETATM    3  C12 UNL     1      33.426 -23.907   4.997  1.00  0.00     0.261 C 
HETATM    4  C13 UNL     1      33.089 -24.049   6.468  1.00  0.00     0.043 C 
HETATM    5  C14 UNL     1      32.034 -22.983   6.669  1.00  0.00     0.042 C 
HETATM    6  C15 UNL     1      31.971 -22.268   5.370  1.00  0.00     0.265 C 
HETATM    7  C16 UNL     1      30.909 -22.828   4.430  1.00  0.00     0.220 C 
HETATM    8  N4  UNL     1      33.244 -22.470   4.746  1.00  0.00     0.102 N 
HETATM    9  C22 UNL     1      34.326 -21.797   5.428  1.00  0.00     0.311 C 
ENDROOT
BRANCH   1  10
HETATM   10  C8  UNL     1      30.230 -24.990   3.529  1.00  0.00     0.058 C 
HETATM   11  C9  UNL     1      30.762 -26.345   3.150  1.00  0.00     0.044 C 
HETATM   12  C10 UNL     1      29.554 -24.471   2.236  1.00  0.00     0.044 C 
BRANCH  10  13
HETATM   13  C7  UNL     1      29.141 -25.077   4.521  1.00  0.00     0.086 C 
BRANCH  13  14
HETATM   14  N1  UNL     1      28.135 -26.046   4.410  1.00  0.00    -0.397 N 
ATOM     15  H1  UNL     1      28.074 -26.584   3.544  1.00  0.00     0.158 HD
BRANCH  14  16
HETATM   16  C6  UNL     1      27.209 -26.312   5.425  1.00  0.00     0.150 C 
BRANCH  16  17
HETATM   17  C5  UNL     1      27.605 -27.580   6.219  1.00  0.00     0.136 C 
BRANCH  17  18
HETATM   18  C4  UNL     1      28.342 -27.300   7.462  1.00  0.00     0.037 C 
BRANCH  18  19
HETATM   19  C2  UNL     1      29.815 -27.474   7.460  1.00  0.00    -0.020 C 
HETATM   20  C1  UNL     1      30.563 -26.171   7.727  1.00  0.00     0.009 C 
HETATM   21  C3  UNL     1      30.396 -28.204   6.301  1.00  0.00     0.009 C 
ENDBRANCH  18  19
ENDBRANCH  17  18
BRANCH  17  22
HETATM   22  O1  UNL     1      26.544 -28.443   6.293  1.00  0.00    -0.394 OA
ATOM     23  H1  UNL     1      25.937 -28.456   5.562  1.00  0.00     0.210 HD
ENDBRANCH  17  22
ENDBRANCH  16  17
ENDBRANCH  14  16
ENDBRANCH  13  14
ENDBRANCH  10  13
ENDBRANCH   1  10
BRANCH   7  24
HETATM   24  N3  UNL     1      30.719 -21.750   3.475  1.00  0.00    -0.337 N 
HETATM   25  C17 UNL     1      29.836 -20.674   3.845  1.00  0.00     0.227 C 
HETATM   26  O2  UNL     1      29.255 -20.664   4.959  1.00  0.00    -0.273 OA
ATOM     27  H3  UNL     1      31.196 -21.756   2.573  1.00  0.00     0.164 HD
BRANCH  25  28
HETATM   28  C18 UNL     1      29.582 -19.541   2.919  1.00  0.00     0.030 C 
HETATM   29  C19 UNL     1      28.614 -18.541   3.514  1.00  0.00     0.024 C 
HETATM   30  C20 UNL     1      30.956 -18.913   2.650  1.00  0.00     0.024 C 
HETATM   31  C21 UNL     1      29.076 -20.078   1.609  1.00  0.00     0.024 C 
ENDBRANCH  25  28
ENDBRANCH   7  24
TORSDOF 10
ENDMDL
MODEL 4
REMARK VINA RESULT: -6.303992827      2.064      3.772
REMARK  10 active torsions:
REMARK  status: ('A' for Active; 'I' for Inactive)
REMARK    1  A    between atoms: C2_2  and  C4_4 
REMARK    2  A    between atoms: C4_4  and  C5_5 
REMARK    3  A    between atoms: C5_5  and  O1_6 
REMARK    4  A    between atoms: C5_5  and  C6_8 
REMARK    5  A    between atoms: C6_8  and  N1_9 
REMARK    6  A    between atoms: N1_9  and  C7_11 
REMARK    7  A    between atoms: C7_11  and  C8_12 
REMARK    8  A    between atoms: C8_12  and  N2_15 
REMARK    9  A    between atoms: C16_21  and  N3_22 
REMARK       I    between atoms: N3_22  and  C17_24 
REMARK   10  A    between atoms: C17_24  and  C18_26 
ROOT
HETATM    1  N2  UNL     1      31.209 -22.805   5.250  1.00  0.00    -0.355 N 
HETATM    2  C11 UNL     1      30.136 -22.485   4.397  1.00  0.00     0.097 C 
HETATM    3  C12 UNL     1      29.921 -21.028   4.109  1.00  0.00     0.261 C 
HETATM    4  C13 UNL     1      30.787 -20.597   2.942  1.00  0.00     0.043 C 
HETATM    5  C14 UNL     1      32.110 -20.289   3.608  1.00  0.00     0.042 C 
HETATM    6  C15 UNL     1      31.841 -20.438   5.061  1.00  0.00     0.265 C 
HETATM    7  C16 UNL     1      32.154 -21.834   5.586  1.00  0.00     0.220 C 
HETATM    8  N4  UNL     1      30.435 -20.223   5.226  1.00  0.00     0.102 N 
HETATM    9  C22 UNL     1      30.032 -18.860   4.966  1.00  0.00     0.311 C 
ENDROOT
BRANCH   1  10
HETATM   10  C8  UNL     1      31.639 -24.151   5.025  1.00  0.00     0.058 C 
HETATM   11  C9  UNL     1      33.093 -24.265   4.662  1.00  0.00     0.044 C 
HETATM   12  C10 UNL     1      30.889 -24.603   3.747  1.00  0.00     0.044 C 
BRANCH  10  13
HETATM   13  C7  UNL     1      31.246 -25.126   6.063  1.00  0.00     0.086 C 
BRANCH  13  14
HETATM   14  N1  UNL     1      30.188 -26.020   5.852  1.00  0.00    -0.397 N 
ATOM     15  H1  UNL     1      29.435 -25.741   5.222  1.00  0.00     0.158 HD
BRANCH  14  16
HETATM   16  C6  UNL     1      30.113 -27.278   6.463  1.00  0.00     0.150 C 
BRANCH  16  17
HETATM   17  C5  UNL     1      29.175 -27.243   7.693  1.00  0.00     0.136 C 
BRANCH  17  18
HETATM   18  C4  UNL     1      27.749 -27.115   7.353  1.00  0.00     0.037 C 
BRANCH  18  19
HETATM   19  C2  UNL     1      27.156 -28.108   6.425  1.00  0.00    -0.020 C 
HETATM   20  C1  UNL     1      26.637 -27.475   5.136  1.00  0.00     0.009 C 
HETATM   21  C3  UNL     1      26.160 -29.048   7.005  1.00  0.00     0.009 C 
ENDBRANCH  18  19
ENDBRANCH  17  18
BRANCH  17  22
HETATM   22  O1  UNL     1      29.528 -28.220   8.585  1.00  0.00    -0.394 OA
ATOM     23  H1  UNL     1      30.411 -28.196   8.936  1.00  0.00     0.210 HD
ENDBRANCH  17  22
ENDBRANCH  16  17
ENDBRANCH  14  16
ENDBRANCH  13  14
ENDBRANCH  10  13
ENDBRANCH   1  10
BRANCH   7  24
HETATM   24  N3  UNL     1      32.258 -21.626   7.020  1.00  0.00    -0.337 N 
HETATM   25  C17 UNL     1      33.549 -21.804   7.632  1.00  0.00     0.227 C 
HETATM   26  O2  UNL     1      34.554 -22.122   6.949  1.00  0.00    -0.273 OA
ATOM     27  H3  UNL     1      31.443 -21.363   7.575  1.00  0.00     0.164 HD
BRANCH  25  28
HETATM   28  C18 UNL     1      33.734 -21.619   9.095  1.00  0.00     0.030 C 
HETATM   29  C19 UNL     1      33.511 -22.911   9.852  1.00  0.00     0.024 C 
HETATM   30  C20 UNL     1      35.168 -21.100   9.266  1.00  0.00     0.024 C 
HETATM   31  C21 UNL     1      32.810 -20.537   9.577  1.00  0.00     0.024 C 
ENDBRANCH  25  28
ENDBRANCH   7  24
TORSDOF 10
ENDMDL
MODEL 5
REMARK VINA RESULT: -6.262825531      2.187      4.067
REMARK  10 active torsions:
REMARK  status: ('A' for Active; 'I' for Inactive)
REMARK    1  A    between atoms: C2_2  and  C4_4 
REMARK    2  A    between atoms: C4_4  and  C5_5 
REMARK    3  A    between atoms: C5_5  and  O1_6 
REMARK    4  A    between atoms: C5_5  and  C6_8 
REMARK    5  A    between atoms: C6_8  and  N1_9 
REMARK    6  A    between atoms: N1_9  and  C7_11 
REMARK    7  A    between atoms: C7_11  and  C8_12 
REMARK    8  A    between atoms: C8_12  and  N2_15 
REMARK    9  A    between atoms: C16_21  and  N3_22 
REMARK       I    between atoms: N3_22  and  C17_24 
REMARK   10  A    between atoms: C17_24  and  C18_26 
ROOT
HETATM    1  N2  UNL     1      31.187 -22.864   5.453  1.00  0.00    -0.355 N 
HETATM    2  C11 UNL     1      30.154 -22.476   4.580  1.00  0.00     0.097 C 
HETATM    3  C12 UNL     1      30.093 -21.022   4.217  1.00  0.00     0.261 C 
HETATM    4  C13 UNL     1      30.999 -20.744   3.034  1.00  0.00     0.043 C 
HETATM    5  C14 UNL     1      32.347 -20.544   3.691  1.00  0.00     0.042 C 
HETATM    6  C15 UNL     1      32.065 -20.589   5.148  1.00  0.00     0.265 C 
HETATM    7  C16 UNL     1      32.229 -21.982   5.745  1.00  0.00     0.220 C 
HETATM    8  N4  UNL     1      30.689 -20.219   5.295  1.00  0.00     0.102 N 
HETATM    9  C22 UNL     1      30.431 -18.837   4.964  1.00  0.00     0.311 C 
ENDROOT
BRANCH   1  10
HETATM   10  C8  UNL     1      31.472 -24.257   5.300  1.00  0.00     0.058 C 
HETATM   11  C9  UNL     1      31.487 -25.014   6.599  1.00  0.00     0.044 C 
HETATM   12  C10 UNL     1      32.940 -24.314   4.808  1.00  0.00     0.044 C 
BRANCH  10  13
HETATM   13  C7  UNL     1      30.694 -24.955   4.257  1.00  0.00     0.086 C 
BRANCH  13  14
HETATM   14  N1  UNL     1      29.802 -25.983   4.586  1.00  0.00    -0.397 N 
ATOM     15  H1  UNL     1      30.173 -26.823   5.033  1.00  0.00     0.158 HD
BRANCH  14  16
HETATM   16  C6  UNL     1      28.427 -25.918   4.333  1.00  0.00     0.150 C 
BRANCH  16  17
HETATM   17  C5  UNL     1      27.654 -26.950   5.188  1.00  0.00     0.136 C 
BRANCH  17  18
HETATM   18  C4  UNL     1      27.601 -26.618   6.621  1.00  0.00     0.037 C 
BRANCH  18  19
HETATM   19  C2  UNL     1      27.976 -27.666   7.600  1.00  0.00    -0.020 C 
HETATM   20  C1  UNL     1      29.445 -28.069   7.501  1.00  0.00     0.009 C 
HETATM   21  C3  UNL     1      27.090 -28.860   7.666  1.00  0.00     0.009 C 
ENDBRANCH  18  19
ENDBRANCH  17  18
BRANCH  17  22
HETATM   22  O1  UNL     1      26.478 -27.289   4.574  1.00  0.00    -0.394 OA
ATOM     23  H1  UNL     1      26.504 -27.457   3.639  1.00  0.00     0.210 HD
ENDBRANCH  17  22
ENDBRANCH  16  17
ENDBRANCH  14  16
ENDBRANCH  13  14
ENDBRANCH  10  13
ENDBRANCH   1  10
BRANCH   7  24
HETATM   24  N3  UNL     1      32.354 -21.713   7.167  1.00  0.00    -0.337 N 
HETATM   25  C17 UNL     1      33.649 -21.893   7.772  1.00  0.00     0.227 C 
HETATM   26  O2  UNL     1      34.639 -22.263   7.092  1.00  0.00    -0.273 OA
ATOM     27  H3  UNL     1      31.552 -21.407   7.718  1.00  0.00     0.164 HD
BRANCH  25  28
HETATM   28  C18 UNL     1      33.856 -21.648   9.222  1.00  0.00     0.030 C 
HETATM   29  C19 UNL     1      35.272 -21.199   9.515  1.00  0.00     0.024 C 
HETATM   30  C20 UNL     1      32.828 -20.577   9.610  1.00  0.00     0.024 C 
HETATM   31  C21 UNL     1      33.509 -22.894   9.988  1.00  0.00     0.024 C 
ENDBRANCH  25  28
ENDBRANCH   7  24
TORSDOF 10
ENDMDL
