MODEL 1
REMARK VINA RESULT: -4.574760809      0.000      0.000
REMARK  3 active torsions:
REMARK  status: ('A' for Active; 'I' for Inactive)
REMARK    1  A    between atoms: C2_2  and  O1_5 
REMARK    2  A    between atoms: O1_5  and  C5_6 
REMARK    3  A    between atoms: C5_6  and  N1_8 
ROOT
HETATM    1  N1  UNL     1       2.779   4.529 -12.488  1.00  0.00    -0.264 N 
ATOM      2  H1  UNL     1       2.794   3.627 -12.965  1.00  0.00     0.181 HD
HETATM    3  C6  UNL     1       3.939   5.314 -12.417  1.00  0.00     0.184 C 
HETATM    4  N2  UNL     1       4.892   5.968 -12.340  1.00  0.00    -0.172 NA
ENDROOT
BRANCH   1   5
HETATM    5  C5  UNL     1       1.591   5.006 -11.891  1.00  0.00     0.224 C 
HETATM    6  S1  UNL     1       1.180   6.567 -12.109  1.00  0.00    -0.032 SA
BRANCH   5   7
HETATM    7  O1  UNL     1       0.810   4.161 -11.149  1.00  0.00    -0.316 OA
BRANCH   7   8
HETATM    8  C2  UNL     1      -0.367   3.546 -11.594  1.00  0.00     0.059 C 
HETATM    9  C1  UNL     1      -1.542   4.481 -11.395  1.00  0.00     0.045 C 
HETATM   10  C3  UNL     1      -0.639   2.304 -10.780  1.00  0.00     0.045 C 
HETATM   11  C4  UNL     1      -0.191   3.216 -13.064  1.00  0.00     0.045 C 
ENDBRANCH   7   8
ENDBRANCH   5   7
ENDBRANCH   1   5
TORSDOF 3
ENDMDL
MODEL 2
REMARK VINA RESULT: -4.545534150      0.052      1.357
REMARK  3 active torsions:
REMARK  status: ('A' for Active; 'I' for Inactive)
REMARK    1  A    between atoms: C2_2  and  O1_5 
REMARK    2  A    between atoms: O1_5  and  C5_6 
REMARK    3  A    between atoms: C5_6  and  N1_8 
ROOT
HETATM    1  N1  UNL     1       2.756   4.543 -12.477  1.00  0.00    -0.264 N 
ATOM      2  H1  UNL     1       2.758   3.634 -12.940  1.00  0.00     0.181 HD
HETATM    3  C6  UNL     1       3.930   5.306 -12.406  1.00  0.00     0.184 C 
HETATM    4  N2  UNL     1       4.894   5.944 -12.329  1.00  0.00    -0.172 NA
ENDROOT
BRANCH   1   5
HETATM    5  C5  UNL     1       1.571   5.051 -11.900  1.00  0.00     0.224 C 
HETATM    6  S1  UNL     1       1.186   6.613 -12.155  1.00  0.00    -0.032 SA
BRANCH   5   7
HETATM    7  O1  UNL     1       0.772   4.235 -11.144  1.00  0.00    -0.316 OA
BRANCH   7   8
HETATM    8  C2  UNL     1      -0.389   3.594 -11.596  1.00  0.00     0.059 C 
HETATM    9  C1  UNL     1      -0.610   2.318 -10.809  1.00  0.00     0.045 C 
HETATM   10  C3  UNL     1      -0.232   3.207 -13.047  1.00  0.00     0.045 C 
HETATM   11  C4  UNL     1      -1.551   4.550 -11.400  1.00  0.00     0.045 C 
ENDBRANCH   7   8
ENDBRANCH   5   7
ENDBRANCH   1   5
TORSDOF 3
ENDMDL
MODEL 3
REMARK VINA RESULT: -4.481134637      0.042      1.354
REMARK  3 active torsions:
REMARK  status: ('A' for Active; 'I' for Inactive)
REMARK    1  A    between atoms: C2_2  and  O1_5 
REMARK    2  A    between atoms: O1_5  and  C5_6 
REMARK    3  A    between atoms: C5_6  and  N1_8 
ROOT
HETATM    1  N1  UNL     1       2.764   4.511 -12.483  1.00  0.00    -0.264 N 
ATOM      2  H1  UNL     1       2.771   3.611 -12.962  1.00  0.00     0.181 HD
HETATM    3  C6  UNL     1       3.926   5.294 -12.422  1.00  0.00     0.184 C 
HETATM    4  N2  UNL     1       4.880   5.946 -12.354  1.00  0.00    -0.172 NA
ENDROOT
BRANCH   1   5
HETATM    5  C5  UNL     1       1.583   4.989 -11.872  1.00  0.00     0.224 C 
HETATM    6  S1  UNL     1       1.183   6.556 -12.065  1.00  0.00    -0.032 SA
BRANCH   5   7
HETATM    7  O1  UNL     1       0.799   4.140 -11.138  1.00  0.00    -0.316 OA
BRANCH   7   8
HETATM    8  C2  UNL     1      -0.390   3.547 -11.582  1.00  0.00     0.059 C 
HETATM    9  C1  UNL     1      -0.283   3.225 -13.058  1.00  0.00     0.045 C 
HETATM   10  C3  UNL     1      -1.540   4.511 -11.414  1.00  0.00     0.045 C 
HETATM   11  C4  UNL     1      -0.607   2.282 -10.773  1.00  0.00     0.045 C 
ENDBRANCH   7   8
ENDBRANCH   5   7
ENDBRANCH   1   5
TORSDOF 3
ENDMDL
MODEL 4
REMARK VINA RESULT: -4.180760882      2.724      4.448
REMARK  3 active torsions:
REMARK  status: ('A' for Active; 'I' for Inactive)
REMARK    1  A    between atoms: C2_2  and  O1_5 
REMARK    2  A    between atoms: O1_5  and  C5_6 
REMARK    3  A    between atoms: C5_6  and  N1_8 
ROOT
HETATM    1  N1  UNL     1      -0.370   3.452 -12.528  1.00  0.00    -0.264 N 
ATOM      2  H1  UNL     1      -0.632   2.814 -13.280  1.00  0.00     0.181 HD
HETATM    3  C6  UNL     1      -1.344   3.961 -11.657  1.00  0.00     0.184 C 
HETATM    4  N2  UNL     1      -2.138   4.399 -10.937  1.00  0.00    -0.172 NA
ENDROOT
BRANCH   1   5
HETATM    5  C5  UNL     1       0.978   3.834 -12.349  1.00  0.00     0.224 C 
HETATM    6  S1  UNL     1       1.887   3.011 -11.276  1.00  0.00    -0.032 SA
BRANCH   5   7
HETATM    7  O1  UNL     1       1.497   4.876 -13.069  1.00  0.00    -0.316 OA
BRANCH   7   8
HETATM    8  C2  UNL     1       1.918   6.100 -12.535  1.00  0.00     0.059 C 
HETATM    9  C1  UNL     1       1.982   7.144 -13.632  1.00  0.00     0.045 C 
HETATM   10  C3  UNL     1       3.308   5.963 -11.963  1.00  0.00     0.045 C 
HETATM   11  C4  UNL     1       0.919   6.508 -11.469  1.00  0.00     0.045 C 
ENDBRANCH   7   8
ENDBRANCH   5   7
ENDBRANCH   1   5
TORSDOF 3
ENDMDL
MODEL 5
REMARK VINA RESULT: -4.167652284      1.978      2.583
REMARK  3 active torsions:
REMARK  status: ('A' for Active; 'I' for Inactive)
REMARK    1  A    between atoms: C2_2  and  O1_5 
REMARK    2  A    between atoms: O1_5  and  C5_6 
REMARK    3  A    between atoms: C5_6  and  N1_8 
ROOT
HETATM    1  N1  UNL     1       0.283   6.792 -12.164  1.00  0.00    -0.264 N 
ATOM      2  H1  UNL     1      -0.205   7.637 -12.461  1.00  0.00     0.181 HD
HETATM    3  C6  UNL     1       1.668   6.669 -12.350  1.00  0.00     0.184 C 
HETATM    4  N2  UNL     1       2.809   6.548 -12.507  1.00  0.00    -0.172 NA
ENDROOT
BRANCH   1   5
HETATM    5  C5  UNL     1      -0.425   5.729 -11.560  1.00  0.00     0.224 C 
HETATM    6  S1  UNL     1      -2.053   5.789 -11.539  1.00  0.00    -0.032 SA
BRANCH   5   7
HETATM    7  O1  UNL     1       0.256   4.678 -11.008  1.00  0.00    -0.316 OA
BRANCH   7   8
HETATM    8  C2  UNL     1       0.394   3.410 -11.587  1.00  0.00     0.059 C 
HETATM    9  C1  UNL     1       1.790   2.878 -11.330  1.00  0.00     0.045 C 
HETATM   10  C3  UNL     1       0.218   3.504 -13.083  1.00  0.00     0.045 C 
HETATM   11  C4  UNL     1      -0.647   2.500 -10.963  1.00  0.00     0.045 C 
ENDBRANCH   7   8
ENDBRANCH   5   7
ENDBRANCH   1   5
TORSDOF 3
ENDMDL
