MODEL 1
REMARK VINA RESULT: -4.341776079      0.000      0.000
REMARK  0 active torsions:
REMARK  status: ('A' for Active; 'I' for Inactive)
ROOT
HETATM    1  C1  UNL     1      -2.728   6.824 -10.685  1.00  0.00     0.044 C 
HETATM    2  C2  UNL     1      -2.454   5.378 -10.945  1.00  0.00     0.165 A 
HETATM    3  O1  UNL     1      -2.252   5.126 -12.359  1.00  0.00    -0.358 OA
HETATM    4  C3  UNL     1      -1.199   4.948 -11.476  1.00  0.00     0.137 A 
HETATM    5  C4  UNL     1      -0.023   5.853 -11.491  1.00  0.00     0.068 C 
HETATM    6  C5  UNL     1       0.990   5.600 -12.539  1.00  0.00     0.115 C 
HETATM    7  N1  UNL     1       1.419   4.322 -12.815  1.00  0.00    -0.219 NA
HETATM    8  N2  UNL     1       2.742   4.042 -12.374  1.00  0.00    -0.162 NA
HETATM    9  C6  UNL     1       2.199   3.195 -11.308  1.00  0.00     0.160 C 
HETATM   10  C7  UNL     1       0.970   3.185 -12.190  1.00  0.00     0.156 C 
HETATM   11  S1  UNL     1      -0.578   3.250 -11.307  1.00  0.00    -0.106 SA
ENDROOT
TORSDOF 0
ENDMDL
MODEL 2
REMARK VINA RESULT: -4.246915642      2.132      2.704
REMARK  0 active torsions:
REMARK  status: ('A' for Active; 'I' for Inactive)
ROOT
HETATM    1  C1  UNL     1      -1.727   2.802 -10.528  1.00  0.00     0.044 C 
HETATM    2  C2  UNL     1      -0.404   2.588 -11.190  1.00  0.00     0.165 A 
HETATM    3  O1  UNL     1      -0.446   2.968 -12.589  1.00  0.00    -0.358 OA
HETATM    4  C3  UNL     1       0.349   3.686 -11.710  1.00  0.00     0.137 A 
HETATM    5  C4  UNL     1       0.017   5.084 -11.341  1.00  0.00     0.068 C 
HETATM    6  C5  UNL     1       0.389   6.130 -12.320  1.00  0.00     0.115 C 
HETATM    7  N1  UNL     1       1.623   6.120 -12.931  1.00  0.00    -0.219 NA
HETATM    8  N2  UNL     1       2.507   7.136 -12.478  1.00  0.00    -0.162 NA
HETATM    9  C6  UNL     1       3.299   6.123 -11.774  1.00  0.00     0.160 C 
HETATM   10  C7  UNL     1       2.599   5.177 -12.725  1.00  0.00     0.156 C 
HETATM   11  S1  UNL     1       2.138   3.610 -12.009  1.00  0.00    -0.106 SA
ENDROOT
TORSDOF 0
ENDMDL
MODEL 3
REMARK VINA RESULT: -4.236271824      2.352      3.739
REMARK  0 active torsions:
REMARK  status: ('A' for Active; 'I' for Inactive)
ROOT
HETATM    1  C1  UNL     1       3.792   6.474 -12.033  1.00  0.00     0.044 C 
HETATM    2  C2  UNL     1       2.310   6.646 -12.117  1.00  0.00     0.165 A 
HETATM    3  O1  UNL     1       1.780   6.064 -13.336  1.00  0.00    -0.358 OA
HETATM    4  C3  UNL     1       1.434   5.517 -12.110  1.00  0.00     0.137 A 
HETATM    5  C4  UNL     1       1.918   4.174 -11.704  1.00  0.00     0.068 C 
HETATM    6  C5  UNL     1       1.198   3.014 -12.273  1.00  0.00     0.115 C 
HETATM    7  N1  UNL     1      -0.178   2.987 -12.318  1.00  0.00    -0.219 NA
HETATM    8  N2  UNL     1      -0.774   2.087 -11.393  1.00  0.00    -0.162 NA
HETATM    9  C6  UNL     1      -1.227   3.225 -10.588  1.00  0.00     0.160 C 
HETATM   10  C7  UNL     1      -1.002   3.991 -11.873  1.00  0.00     0.156 C 
HETATM   11  S1  UNL     1      -0.321   5.624 -11.655  1.00  0.00    -0.106 SA
ENDROOT
TORSDOF 0
ENDMDL
MODEL 4
REMARK VINA RESULT: -3.443810329      1.762      2.095
REMARK  0 active torsions:
REMARK  status: ('A' for Active; 'I' for Inactive)
ROOT
HETATM    1  C1  UNL     1      -3.062   5.404 -11.824  1.00  0.00     0.044 C 
HETATM    2  C2  UNL     1      -1.702   6.020 -11.861  1.00  0.00     0.165 A 
HETATM    3  O1  UNL     1      -1.032   5.898 -10.581  1.00  0.00    -0.358 OA
HETATM    4  C3  UNL     1      -0.526   5.227 -11.683  1.00  0.00     0.137 A 
HETATM    5  C4  UNL     1      -0.580   3.747 -11.773  1.00  0.00     0.068 C 
HETATM    6  C5  UNL     1       0.451   3.003 -11.016  1.00  0.00     0.115 C 
HETATM    7  N1  UNL     1       1.770   3.395 -11.045  1.00  0.00    -0.219 NA
HETATM    8  N2  UNL     1       2.619   2.534 -11.793  1.00  0.00    -0.162 NA
HETATM    9  C6  UNL     1       2.715   3.554 -12.842  1.00  0.00     0.160 C 
HETATM   10  C7  UNL     1       2.258   4.477 -11.734  1.00  0.00     0.156 C 
HETATM   11  S1  UNL     1       1.119   5.748 -12.248  1.00  0.00    -0.106 SA
ENDROOT
TORSDOF 0
ENDMDL
MODEL 5
REMARK VINA RESULT: -3.262671928      2.582      3.864
REMARK  0 active torsions:
REMARK  status: ('A' for Active; 'I' for Inactive)
ROOT
HETATM    1  C1  UNL     1       3.202   7.289 -12.875  1.00  0.00     0.044 C 
HETATM    2  C2  UNL     1       3.173   5.870 -12.406  1.00  0.00     0.165 A 
HETATM    3  O1  UNL     1       2.754   5.781 -11.021  1.00  0.00    -0.358 OA
HETATM    4  C3  UNL     1       1.949   5.246 -12.014  1.00  0.00     0.137 A 
HETATM    5  C4  UNL     1       0.637   5.853 -12.351  1.00  0.00     0.068 C 
HETATM    6  C5  UNL     1      -0.490   5.529 -11.449  1.00  0.00     0.115 C 
HETATM    7  N1  UNL     1      -0.704   4.238 -11.020  1.00  0.00    -0.219 NA
HETATM    8  N2  UNL     1      -1.833   3.607 -11.609  1.00  0.00    -0.162 NA
HETATM    9  C6  UNL     1      -0.937   2.763 -12.405  1.00  0.00     0.160 C 
HETATM   10  C7  UNL     1       0.074   3.157 -11.351  1.00  0.00     0.156 C 
HETATM   11  S1  UNL     1       1.721   3.445 -11.972  1.00  0.00    -0.106 SA
ENDROOT
TORSDOF 0
ENDMDL
