MODEL 1
REMARK VINA RESULT: -3.279605555      0.000      0.000
REMARK  0 active torsions:
REMARK  status: ('A' for Active; 'I' for Inactive)
ROOT
HETATM    1  C1  UNL     1      -5.202   4.521  -7.093  1.00  0.00     0.004 C 
HETATM    2  C2  UNL     1      -6.390   3.695  -6.722  1.00  0.00     0.023 C 
HETATM    3  C3  UNL     1      -6.303   3.224  -5.265  1.00  0.00     0.118 C 
HETATM    4  S1  UNL     1      -6.404   4.735  -4.219  1.00  0.00    -0.131 SA
HETATM    5  C4  UNL     1      -4.708   5.239  -4.744  1.00  0.00     0.149 C 
HETATM    6  C5  UNL     1      -4.855   5.628  -6.182  1.00  0.00     0.036 C 
HETATM    7  N1  UNL     1      -4.066   3.945  -4.680  1.00  0.00    -0.340 N 
HETATM    8  C6  UNL     1      -2.780   3.380  -4.319  1.00  0.00     0.261 C 
HETATM    9  N2  UNL     1      -2.839   2.048  -4.862  1.00  0.00    -0.120 NA
HETATM   10  N3  UNL     1      -4.158   1.793  -5.170  1.00  0.00    -0.290 N 
ATOM     11  H3  UNL     1      -4.525   0.882  -5.442  1.00  0.00     0.183 HD
HETATM   12  C7  UNL     1      -4.875   2.887  -5.066  1.00  0.00     0.107 C 
ENDROOT
TORSDOF 0
ENDMDL
MODEL 2
REMARK VINA RESULT: -2.985522855      3.123      4.436
REMARK  0 active torsions:
REMARK  status: ('A' for Active; 'I' for Inactive)
ROOT
HETATM    1  C1  UNL     1      -7.137   3.011  -5.100  1.00  0.00     0.004 C 
HETATM    2  C2  UNL     1      -5.881   3.660  -5.582  1.00  0.00     0.023 C 
HETATM    3  C3  UNL     1      -6.114   4.401  -6.905  1.00  0.00     0.118 C 
HETATM    4  S1  UNL     1      -7.274   5.781  -6.535  1.00  0.00    -0.131 SA
HETATM    5  C4  UNL     1      -8.663   4.585  -6.313  1.00  0.00     0.149 C 
HETATM    6  C5  UNL     1      -8.342   3.861  -5.043  1.00  0.00     0.036 C 
HETATM    7  N1  UNL     1      -8.376   3.709  -7.428  1.00  0.00    -0.340 N 
HETATM    8  C6  UNL     1      -9.095   2.932  -8.420  1.00  0.00     0.261 C 
HETATM    9  N2  UNL     1      -8.081   2.063  -8.958  1.00  0.00    -0.120 NA
HETATM   10  N3  UNL     1      -6.862   2.565  -8.556  1.00  0.00    -0.290 N 
ATOM     11  H3  UNL     1      -5.959   2.238  -8.900  1.00  0.00     0.183 HD
HETATM   12  C7  UNL     1      -7.024   3.519  -7.671  1.00  0.00     0.107 C 
ENDROOT
TORSDOF 0
ENDMDL
MODEL 3
REMARK VINA RESULT: -2.924373574      2.424      3.429
REMARK  0 active torsions:
REMARK  status: ('A' for Active; 'I' for Inactive)
ROOT
HETATM    1  C1  UNL     1      -4.865   3.695  -7.373  1.00  0.00     0.004 C 
HETATM    2  C2  UNL     1      -4.407   3.277  -6.014  1.00  0.00     0.023 C 
HETATM    3  C3  UNL     1      -4.914   4.245  -4.938  1.00  0.00     0.118 C 
HETATM    4  S1  UNL     1      -6.748   4.088  -4.914  1.00  0.00    -0.131 SA
HETATM    5  C4  UNL     1      -6.867   4.951  -6.540  1.00  0.00     0.149 C 
HETATM    6  C5  UNL     1      -6.305   3.978  -7.529  1.00  0.00     0.036 C 
HETATM    7  N1  UNL     1      -5.888   5.990  -6.309  1.00  0.00    -0.340 N 
HETATM    8  C6  UNL     1      -5.682   7.389  -6.630  1.00  0.00     0.261 C 
HETATM    9  N2  UNL     1      -4.292   7.599  -6.321  1.00  0.00    -0.120 NA
HETATM   10  N3  UNL     1      -3.876   6.522  -5.569  1.00  0.00    -0.290 N 
ATOM     11  H3  UNL     1      -2.978   6.461  -5.089  1.00  0.00     0.183 HD
HETATM   12  C7  UNL     1      -4.795   5.586  -5.556  1.00  0.00     0.107 C 
ENDROOT
TORSDOF 0
ENDMDL
MODEL 4
REMARK VINA RESULT: -2.907228908      2.199      2.969
REMARK  0 active torsions:
REMARK  status: ('A' for Active; 'I' for Inactive)
ROOT
HETATM    1  C1  UNL     1      -8.299   3.444  -8.062  1.00  0.00     0.004 C 
HETATM    2  C2  UNL     1      -8.829   2.758  -6.846  1.00  0.00     0.023 C 
HETATM    3  C3  UNL     1      -8.187   3.318  -5.571  1.00  0.00     0.118 C 
HETATM    4  S1  UNL     1      -8.739   5.069  -5.432  1.00  0.00    -0.131 SA
HETATM    5  C4  UNL     1      -7.663   5.545  -6.854  1.00  0.00     0.149 C 
HETATM    6  C5  UNL     1      -8.313   4.919  -8.049  1.00  0.00     0.036 C 
HETATM    7  N1  UNL     1      -6.491   4.772  -6.509  1.00  0.00    -0.340 N 
HETATM    8  C6  UNL     1      -5.046   4.887  -6.578  1.00  0.00     0.261 C 
HETATM    9  N2  UNL     1      -4.595   3.540  -6.345  1.00  0.00    -0.120 NA
HETATM   10  N3  UNL     1      -5.667   2.834  -5.843  1.00  0.00    -0.290 N 
ATOM     11  H3  UNL     1      -5.612   1.892  -5.455  1.00  0.00     0.183 HD
HETATM   12  C7  UNL     1      -6.768   3.541  -5.933  1.00  0.00     0.107 C 
ENDROOT
TORSDOF 0
ENDMDL
MODEL 5
REMARK VINA RESULT: -2.881604931      2.887      3.658
REMARK  0 active torsions:
REMARK  status: ('A' for Active; 'I' for Inactive)
ROOT
HETATM    1  C1  UNL     1      -8.780   4.962  -8.657  1.00  0.00     0.004 C 
HETATM    2  C2  UNL     1      -9.094   3.503  -8.638  1.00  0.00     0.023 C 
HETATM    3  C3  UNL     1      -8.379   2.798  -7.478  1.00  0.00     0.118 C 
HETATM    4  S1  UNL     1      -9.098   3.480  -5.927  1.00  0.00    -0.131 SA
HETATM    5  C4  UNL     1      -8.244   5.091  -6.212  1.00  0.00     0.149 C 
HETATM    6  C5  UNL     1      -8.952   5.693  -7.387  1.00  0.00     0.036 C 
HETATM    7  N1  UNL     1      -6.964   4.585  -6.656  1.00  0.00    -0.340 N 
HETATM    8  C6  UNL     1      -5.557   4.919  -6.541  1.00  0.00     0.261 C 
HETATM    9  N2  UNL     1      -4.940   4.110  -7.559  1.00  0.00    -0.120 NA
HETATM   10  N3  UNL     1      -5.867   3.165  -7.943  1.00  0.00    -0.290 N 
ATOM     11  H3  UNL     1      -5.667   2.369  -8.548  1.00  0.00     0.183 HD
HETATM   12  C7  UNL     1      -7.042   3.432  -7.423  1.00  0.00     0.107 C 
ENDROOT
TORSDOF 0
ENDMDL
