MODEL 1
REMARK VINA RESULT: -3.809807445      0.000      0.000
REMARK  1 active torsions:
REMARK  status: ('A' for Active; 'I' for Inactive)
REMARK    1  A    between atoms: N1_1  and  C1_5 
ROOT
HETATM    1  C1  UNL     1      -0.568   4.986 -11.215  1.00  0.00     0.189 C 
HETATM    2  C2  UNL     1       0.361   6.118 -11.383  1.00  0.00     0.040 C 
HETATM    3  C3  UNL     1       1.393   6.033 -12.435  1.00  0.00     0.015 C 
HETATM    4  C4  UNL     1       2.760   5.707 -11.867  1.00  0.00     0.198 C 
HETATM    5  O1  UNL     1       3.166   4.420 -12.132  1.00  0.00    -0.303 OA
HETATM    6  N2  UNL     1       2.183   3.529 -12.185  1.00  0.00    -0.192 NA
HETATM    7  C5  UNL     1       1.391   3.479 -11.006  1.00  0.00     0.128 C 
HETATM    8  C6  UNL     1      -0.040   3.627 -11.407  1.00  0.00     0.033 C 
HETATM    9  C7  UNL     1      -0.036   3.142 -12.835  1.00  0.00     0.030 C 
HETATM   10  C8  UNL     1       1.298   3.724 -13.319  1.00  0.00     0.087 C 
HETATM   11  C9  UNL     1       1.037   5.163 -13.610  1.00  0.00     0.029 C 
ENDROOT
BRANCH   1  12
HETATM   12  N1  UNL     1      -1.788   5.203 -12.009  1.00  0.00    -0.075 N 
ATOM     13  H13 UNL     1      -1.913   6.186 -12.254  1.00  0.00     0.274 HD
ATOM     14  H12 UNL     1      -1.701   4.823 -12.951  1.00  0.00     0.274 HD
ATOM     15  H11 UNL     1      -2.601   4.827 -11.520  1.00  0.00     0.274 HD
ENDBRANCH   1  12
TORSDOF 1
ENDMDL
MODEL 2
REMARK VINA RESULT: -2.944202631      8.556     10.147
REMARK  1 active torsions:
REMARK  status: ('A' for Active; 'I' for Inactive)
REMARK    1  A    between atoms: N1_1  and  C1_5 
ROOT
HETATM    1  C1  UNL     1      -4.721   3.234  -4.930  1.00  0.00     0.189 C 
HETATM    2  C2  UNL     1      -6.010   2.901  -4.298  1.00  0.00     0.040 C 
HETATM    3  C3  UNL     1      -7.255   3.207  -5.031  1.00  0.00     0.015 C 
HETATM    4  C4  UNL     1      -7.939   4.451  -4.498  1.00  0.00     0.198 C 
HETATM    5  O1  UNL     1      -7.827   5.534  -5.336  1.00  0.00    -0.303 OA
HETATM    6  N2  UNL     1      -6.697   5.584  -6.031  1.00  0.00    -0.192 NA
HETATM    7  C5  UNL     1      -5.527   5.562  -5.224  1.00  0.00     0.128 C 
HETATM    8  C6  UNL     1      -4.642   4.468  -5.727  1.00  0.00     0.033 C 
HETATM    9  C7  UNL     1      -5.074   4.327  -7.164  1.00  0.00     0.030 C 
HETATM   10  C8  UNL     1      -6.588   4.524  -7.018  1.00  0.00     0.087 C 
HETATM   11  C9  UNL     1      -7.127   3.221  -6.530  1.00  0.00     0.029 C 
ENDROOT
BRANCH   1  12
HETATM   12  N1  UNL     1      -4.207   2.078  -5.683  1.00  0.00    -0.075 N 
ATOM     13  H13 UNL     1      -4.286   1.212  -5.150  1.00  0.00     0.274 HD
ATOM     14  H12 UNL     1      -4.816   1.831  -6.463  1.00  0.00     0.274 HD
ATOM     15  H11 UNL     1      -3.249   2.252  -5.988  1.00  0.00     0.274 HD
ENDBRANCH   1  12
TORSDOF 1
ENDMDL
MODEL 3
REMARK VINA RESULT: -2.899850721      8.532      9.794
REMARK  1 active torsions:
REMARK  status: ('A' for Active; 'I' for Inactive)
REMARK    1  A    between atoms: N1_1  and  C1_5 
ROOT
HETATM    1  C1  UNL     1      -6.120   3.253  -4.789  1.00  0.00     0.189 C 
HETATM    2  C2  UNL     1      -7.038   3.101  -5.932  1.00  0.00     0.040 C 
HETATM    3  C3  UNL     1      -6.787   3.899  -7.149  1.00  0.00     0.015 C 
HETATM    4  C4  UNL     1      -7.727   5.084  -7.255  1.00  0.00     0.198 C 
HETATM    5  O1  UNL     1      -7.114   6.289  -7.002  1.00  0.00    -0.303 OA
HETATM    6  N2  UNL     1      -6.133   6.235  -6.111  1.00  0.00    -0.192 NA
HETATM    7  C5  UNL     1      -6.529   5.699  -4.855  1.00  0.00     0.128 C 
HETATM    8  C6  UNL     1      -5.585   4.594  -4.508  1.00  0.00     0.033 C 
HETATM    9  C7  UNL     1      -4.345   4.960  -5.285  1.00  0.00     0.030 C 
HETATM   10  C8  UNL     1      -4.978   5.489  -6.579  1.00  0.00     0.087 C 
HETATM   11  C9  UNL     1      -5.350   4.285  -7.376  1.00  0.00     0.029 C 
ENDROOT
BRANCH   1  12
HETATM   12  N1  UNL     1      -5.043   2.252  -4.861  1.00  0.00    -0.075 N 
ATOM     13  H13 UNL     1      -4.169   2.657  -5.198  1.00  0.00     0.274 HD
ATOM     14  H12 UNL     1      -4.729   1.965  -3.934  1.00  0.00     0.274 HD
ATOM     15  H11 UNL     1      -5.337   1.456  -5.427  1.00  0.00     0.274 HD
ENDBRANCH   1  12
TORSDOF 1
ENDMDL
MODEL 4
REMARK VINA RESULT: -2.809711615      8.467      9.860
REMARK  1 active torsions:
REMARK  status: ('A' for Active; 'I' for Inactive)
REMARK    1  A    between atoms: N1_1  and  C1_5 
ROOT
HETATM    1  C1  UNL     1      -6.648   4.064  -7.528  1.00  0.00     0.189 C 
HETATM    2  C2  UNL     1      -5.202   3.914  -7.285  1.00  0.00     0.040 C 
HETATM    3  C3  UNL     1      -4.749   3.564  -5.925  1.00  0.00     0.015 C 
HETATM    4  C4  UNL     1      -4.193   4.764  -5.183  1.00  0.00     0.198 C 
HETATM    5  O1  UNL     1      -5.028   5.226  -4.193  1.00  0.00    -0.303 OA
HETATM    6  N2  UNL     1      -6.323   5.080  -4.447  1.00  0.00    -0.192 NA
HETATM    7  C5  UNL     1      -6.741   5.693  -5.660  1.00  0.00     0.128 C 
HETATM    8  C6  UNL     1      -7.468   4.666  -6.466  1.00  0.00     0.033 C 
HETATM    9  C7  UNL     1      -7.955   3.702  -5.414  1.00  0.00     0.030 C 
HETATM   10  C8  UNL     1      -6.747   3.692  -4.469  1.00  0.00     0.087 C 
HETATM   11  C9  UNL     1      -5.741   2.789  -5.100  1.00  0.00     0.029 C 
ENDROOT
BRANCH   1  12
HETATM   12  N1  UNL     1      -7.224   2.790  -7.989  1.00  0.00    -0.075 N 
ATOM     13  H13 UNL     1      -7.323   2.762  -9.005  1.00  0.00     0.274 HD
ATOM     14  H12 UNL     1      -6.568   2.015  -7.881  1.00  0.00     0.274 HD
ATOM     15  H11 UNL     1      -8.109   2.608  -7.515  1.00  0.00     0.274 HD
ENDBRANCH   1  12
TORSDOF 1
ENDMDL
MODEL 5
REMARK VINA RESULT: -2.797570959      8.537      9.645
REMARK  1 active torsions:
REMARK  status: ('A' for Active; 'I' for Inactive)
REMARK    1  A    between atoms: N1_1  and  C1_5 
ROOT
HETATM    1  C1  UNL     1      -5.090   6.312  -5.482  1.00  0.00     0.189 C 
HETATM    2  C2  UNL     1      -4.265   5.117  -5.226  1.00  0.00     0.040 C 
HETATM    3  C3  UNL     1      -4.636   3.850  -5.885  1.00  0.00     0.015 C 
HETATM    4  C4  UNL     1      -5.334   2.897  -4.934  1.00  0.00     0.198 C 
HETATM    5  O1  UNL     1      -6.683   2.780  -5.174  1.00  0.00    -0.303 OA
HETATM    6  N2  UNL     1      -7.262   3.884  -5.632  1.00  0.00    -0.192 NA
HETATM    7  C5  UNL     1      -7.088   5.014  -4.788  1.00  0.00     0.128 C 
HETATM    8  C6  UNL     1      -6.543   6.129  -5.621  1.00  0.00     0.033 C 
HETATM    9  C7  UNL     1      -7.009   5.766  -7.008  1.00  0.00     0.030 C 
HETATM   10  C8  UNL     1      -6.826   4.243  -6.969  1.00  0.00     0.087 C 
HETATM   11  C9  UNL     1      -5.371   3.999  -7.189  1.00  0.00     0.029 C 
ENDROOT
BRANCH   1  12
HETATM   12  N1  UNL     1      -4.538   7.083  -6.607  1.00  0.00    -0.075 N 
ATOM     13  H13 UNL     1      -5.083   6.954  -7.460  1.00  0.00     0.274 HD
ATOM     14  H12 UNL     1      -4.682   8.086  -6.487  1.00  0.00     0.274 HD
ATOM     15  H11 UNL     1      -3.553   6.854  -6.745  1.00  0.00     0.274 HD
ENDBRANCH   1  12
TORSDOF 1
ENDMDL
