MODEL 1
REMARK VINA RESULT: -6.095518768      0.000      0.000
REMARK  2 active torsions:
REMARK  status: ('A' for Active; 'I' for Inactive)
REMARK    1  A    between atoms: N1_1  and  N2_4 
REMARK    2  A    between atoms: N2_4  and  C1_6 
ROOT
HETATM    1  C1  UNL     1      -0.488   5.493 -11.632  1.00  0.00     0.075 A 
HETATM    2  C2  UNL     1      -1.036   4.279 -11.299  1.00  0.00     0.041 A 
HETATM    3  C3  UNL     1      -0.382   3.078 -11.210  1.00  0.00     0.071 A 
HETATM    4  S1  UNL     1       1.298   3.196 -11.570  1.00  0.00    -0.019 SA
HETATM    5  N3  UNL     1       1.776   4.762 -11.953  1.00  0.00    -0.291 N 
HETATM    6  C4  UNL     1       2.985   5.248 -12.286  1.00  0.00     0.105 A 
HETATM    7  C5  UNL     1       2.844   6.595 -12.505  1.00  0.00     0.021 A 
HETATM    8  C6  UNL     1       1.494   6.873 -12.284  1.00  0.00     0.034 A 
HETATM    9  C7  UNL     1       0.840   5.708 -11.938  1.00  0.00     0.073 A 
ENDROOT
BRANCH   1  10
HETATM   10  N2  UNL     1      -1.267   6.529 -11.666  1.00  0.00    -0.305 N 
ATOM     11  H2  UNL     1      -0.992   7.362 -12.186  1.00  0.00     0.186 HD
BRANCH  10  12
HETATM   12  N1  UNL     1      -2.473   6.495 -10.989  1.00  0.00    -0.345 N 
ATOM     13  H12 UNL     1      -2.889   7.368 -10.666  1.00  0.00     0.176 HD
ATOM     14  H11 UNL     1      -2.929   5.597 -10.824  1.00  0.00     0.176 HD
ENDBRANCH  10  12
ENDBRANCH   1  10
TORSDOF 2
ENDMDL
MODEL 2
REMARK VINA RESULT: -6.092174303      1.742      3.447
REMARK  2 active torsions:
REMARK  status: ('A' for Active; 'I' for Inactive)
REMARK    1  A    between atoms: N1_1  and  N2_4 
REMARK    2  A    between atoms: N2_4  and  C1_6 
ROOT
HETATM    1  C1  UNL     1       0.846   5.907 -11.932  1.00  0.00     0.075 A 
HETATM    2  C2  UNL     1       1.931   5.081 -12.089  1.00  0.00     0.041 A 
HETATM    3  C3  UNL     1       1.954   3.718 -11.950  1.00  0.00     0.071 A 
HETATM    4  S1  UNL     1       0.417   3.056 -11.537  1.00  0.00    -0.019 SA
HETATM    5  N3  UNL     1      -0.780   4.226 -11.393  1.00  0.00    -0.291 N 
HETATM    6  C4  UNL     1      -2.085   4.106 -11.089  1.00  0.00     0.105 A 
HETATM    7  C5  UNL     1      -2.631   5.365 -11.099  1.00  0.00     0.021 A 
HETATM    8  C6  UNL     1      -1.582   6.227 -11.423  1.00  0.00     0.034 A 
HETATM    9  C7  UNL     1      -0.428   5.492 -11.605  1.00  0.00     0.073 A 
ENDROOT
BRANCH   1  10
HETATM   10  N2  UNL     1       1.015   7.181 -12.104  1.00  0.00    -0.305 N 
ATOM     11  H2  UNL     1       0.594   7.848 -11.458  1.00  0.00     0.186 HD
BRANCH  10  12
HETATM   12  N1  UNL     1       1.774   7.628 -13.171  1.00  0.00    -0.345 N 
ATOM     13  H12 UNL     1       2.460   7.002 -13.593  1.00  0.00     0.176 HD
ATOM     14  H11 UNL     1       1.637   8.577 -13.521  1.00  0.00     0.176 HD
ENDBRANCH  10  12
ENDBRANCH   1  10
TORSDOF 2
ENDMDL
MODEL 3
REMARK VINA RESULT: -5.953133288      1.756      4.404
REMARK  2 active torsions:
REMARK  status: ('A' for Active; 'I' for Inactive)
REMARK    1  A    between atoms: N1_1  and  N2_4 
REMARK    2  A    between atoms: N2_4  and  C1_6 
ROOT
HETATM    1  C1  UNL     1       1.909   4.444 -12.218  1.00  0.00     0.075 A 
HETATM    2  C2  UNL     1       2.296   5.737 -12.467  1.00  0.00     0.041 A 
HETATM    3  C3  UNL     1       1.536   6.867 -12.314  1.00  0.00     0.071 A 
HETATM    4  S1  UNL     1      -0.057   6.537 -11.746  1.00  0.00    -0.019 SA
HETATM    5  N3  UNL     1      -0.337   4.898 -11.501  1.00  0.00    -0.291 N 
HETATM    6  C4  UNL     1      -1.437   4.256 -11.070  1.00  0.00     0.105 A 
HETATM    7  C5  UNL     1      -1.151   2.914 -11.044  1.00  0.00     0.021 A 
HETATM    8  C6  UNL     1       0.171   2.803 -11.480  1.00  0.00     0.034 A 
HETATM    9  C7  UNL     1       0.664   4.061 -11.762  1.00  0.00     0.073 A 
ENDROOT
BRANCH   1  10
HETATM   10  N2  UNL     1       2.770   3.496 -12.421  1.00  0.00    -0.305 N 
ATOM     11  H2  UNL     1       2.492   2.519 -12.324  1.00  0.00     0.186 HD
BRANCH  10  12
HETATM   12  N1  UNL     1       4.068   3.821 -12.773  1.00  0.00    -0.345 N 
ATOM     13  H12 UNL     1       4.241   4.665 -13.318  1.00  0.00     0.176 HD
ATOM     14  H11 UNL     1       4.833   3.212 -12.482  1.00  0.00     0.176 HD
ENDBRANCH  10  12
ENDBRANCH   1  10
TORSDOF 2
ENDMDL
MODEL 4
REMARK VINA RESULT: -5.565916585      1.692      3.197
REMARK  2 active torsions:
REMARK  status: ('A' for Active; 'I' for Inactive)
REMARK    1  A    between atoms: N1_1  and  N2_4 
REMARK    2  A    between atoms: N2_4  and  C1_6 
ROOT
HETATM    1  C1  UNL     1       1.414   3.578 -11.633  1.00  0.00     0.075 A 
HETATM    2  C2  UNL     1       0.342   2.787 -11.301  1.00  0.00     0.041 A 
HETATM    3  C3  UNL     1      -0.955   3.192 -11.123  1.00  0.00     0.071 A 
HETATM    4  S1  UNL     1      -1.172   4.885 -11.360  1.00  0.00    -0.019 SA
HETATM    5  N3  UNL     1       0.255   5.677 -11.760  1.00  0.00    -0.291 N 
HETATM    6  C4  UNL     1       0.489   6.976 -12.018  1.00  0.00     0.105 A 
HETATM    7  C5  UNL     1       1.827   7.110 -12.292  1.00  0.00     0.021 A 
HETATM    8  C6  UNL     1       2.364   5.826 -12.182  1.00  0.00     0.034 A 
HETATM    9  C7  UNL     1       1.360   4.940 -11.847  1.00  0.00     0.073 A 
ENDROOT
BRANCH   1  10
HETATM   10  N2  UNL     1       2.575   3.016 -11.760  1.00  0.00    -0.305 N 
ATOM     11  H2  UNL     1       2.973   2.477 -10.990  1.00  0.00     0.186 HD
BRANCH  10  12
HETATM   12  N1  UNL     1       3.270   3.151 -12.948  1.00  0.00    -0.345 N 
ATOM     13  H12 UNL     1       3.451   4.085 -13.316  1.00  0.00     0.176 HD
ATOM     14  H11 UNL     1       3.591   2.317 -13.439  1.00  0.00     0.176 HD
ENDBRANCH  10  12
ENDBRANCH   1  10
TORSDOF 2
ENDMDL
MODEL 5
REMARK VINA RESULT: -5.205045192      2.369      2.925
REMARK  2 active torsions:
REMARK  status: ('A' for Active; 'I' for Inactive)
REMARK    1  A    between atoms: N1_1  and  N2_4 
REMARK    2  A    between atoms: N2_4  and  C1_6 
ROOT
HETATM    1  C1  UNL     1      -0.745   3.776 -11.275  1.00  0.00     0.075 A 
HETATM    2  C2  UNL     1      -2.063   4.113 -11.092  1.00  0.00     0.041 A 
HETATM    3  C3  UNL     1      -2.610   5.367 -11.169  1.00  0.00     0.071 A 
HETATM    4  S1  UNL     1      -1.451   6.588 -11.536  1.00  0.00    -0.019 SA
HETATM    5  N3  UNL     1       0.104   5.977 -11.723  1.00  0.00    -0.291 N 
HETATM    6  C4  UNL     1       1.259   6.604 -12.009  1.00  0.00     0.105 A 
HETATM    7  C5  UNL     1       2.248   5.654 -12.051  1.00  0.00     0.021 A 
HETATM    8  C6  UNL     1       1.615   4.440 -11.775  1.00  0.00     0.034 A 
HETATM    9  C7  UNL     1       0.268   4.665 -11.573  1.00  0.00     0.073 A 
ENDROOT
BRANCH   1  10
HETATM   10  N2  UNL     1      -0.409   2.529 -11.163  1.00  0.00    -0.305 N 
ATOM     11  H2  UNL     1       0.391   2.163 -11.680  1.00  0.00     0.186 HD
BRANCH  10  12
HETATM   12  N1  UNL     1      -1.144   1.699 -10.337  1.00  0.00    -0.345 N 
ATOM     13  H12 UNL     1      -1.730   2.110  -9.610  1.00  0.00     0.176 HD
ATOM     14  H11 UNL     1      -1.091   0.688 -10.466  1.00  0.00     0.176 HD
ENDBRANCH  10  12
ENDBRANCH   1  10
TORSDOF 2
ENDMDL
