MODEL 1
REMARK VINA RESULT: -4.907902345      0.000      0.000
REMARK  3 active torsions:
REMARK  status: ('A' for Active; 'I' for Inactive)
REMARK    1  A    between atoms: O1_2  and  C2_3 
REMARK    2  A    between atoms: N1_5  and  N2_7 
REMARK    3  A    between atoms: N2_7  and  C4_9 
ROOT
HETATM    1  N2  UNL     1      -1.395   3.209 -10.884  1.00  0.00    -0.278 N 
ATOM      2  H2  UNL     1      -2.343   3.585 -10.858  1.00  0.00     0.189 HD
ENDROOT
BRANCH   1   3
HETATM    3  N1  UNL     1      -1.130   1.890 -10.459  1.00  0.00    -0.282 N 
HETATM    4  C2  UNL     1      -1.960   1.243  -9.713  1.00  0.00     0.127 C 
HETATM    5  C3  UNL     1      -3.241   1.890  -9.278  1.00  0.00     0.099 C 
ATOM      6  H1  UNL     1      -0.263   1.438 -10.749  1.00  0.00     0.189 HD
BRANCH   4   7
HETATM    7  O1  UNL     1      -1.613  -0.048  -9.345  1.00  0.00    -0.343 OA
HETATM    8  C1  UNL     1      -1.657  -0.485  -7.996  1.00  0.00     0.211 C 
ENDBRANCH   4   7
ENDBRANCH   1   3
BRANCH   1   9
HETATM    9  C4  UNL     1      -0.389   3.946 -11.315  1.00  0.00     0.163 A 
HETATM   10  N3  UNL     1      -0.389   5.265 -11.514  1.00  0.00    -0.345 N 
HETATM   11  C5  UNL     1       0.711   5.825 -11.949  1.00  0.00     0.097 A 
ATOM     12  H3  UNL     1      -1.224   5.822 -11.332  1.00  0.00     0.167 HD
HETATM   13  C6  UNL     1       1.795   5.025 -12.173  1.00  0.00     0.070 A 
HETATM   14  S1  UNL     1       1.193   3.487 -11.750  1.00  0.00    -0.063 SA
ENDBRANCH   1   9
TORSDOF 3
ENDMDL
MODEL 2
REMARK VINA RESULT: -4.781518087      1.072      1.223
REMARK  3 active torsions:
REMARK  status: ('A' for Active; 'I' for Inactive)
REMARK    1  A    between atoms: O1_2  and  C2_3 
REMARK    2  A    between atoms: N1_5  and  N2_7 
REMARK    3  A    between atoms: N2_7  and  C4_9 
ROOT
HETATM    1  N2  UNL     1      -1.231   3.141 -10.857  1.00  0.00    -0.278 N 
ATOM      2  H2  UNL     1      -2.115   3.634 -10.736  1.00  0.00     0.189 HD
ENDROOT
BRANCH   1   3
HETATM    3  N1  UNL     1      -1.099   1.792 -10.466  1.00  0.00    -0.282 N 
HETATM    4  C2  UNL     1      -1.987   1.213  -9.731  1.00  0.00     0.127 C 
HETATM    5  C3  UNL     1      -3.195   1.974  -9.273  1.00  0.00     0.099 C 
ATOM      6  H1  UNL     1      -0.282   1.262 -10.772  1.00  0.00     0.189 HD
BRANCH   4   7
HETATM    7  O1  UNL     1      -1.770  -0.116  -9.398  1.00  0.00    -0.343 OA
HETATM    8  C1  UNL     1      -1.609  -0.538  -8.053  1.00  0.00     0.211 C 
ENDBRANCH   4   7
ENDBRANCH   1   3
BRANCH   1   9
HETATM    9  C4  UNL     1      -0.185   3.750 -11.382  1.00  0.00     0.163 A 
HETATM   10  N3  UNL     1       0.969   3.192 -11.748  1.00  0.00    -0.345 N 
HETATM   11  C5  UNL     1       1.898   3.964 -12.253  1.00  0.00     0.097 A 
ATOM     12  H3  UNL     1       1.124   2.189 -11.637  1.00  0.00     0.167 HD
HETATM   13  C6  UNL     1       1.630   5.297 -12.376  1.00  0.00     0.070 A 
HETATM   14  S1  UNL     1       0.044   5.397 -11.757  1.00  0.00    -0.063 SA
ENDBRANCH   1   9
TORSDOF 3
ENDMDL
MODEL 3
REMARK VINA RESULT: -4.756957021      2.739      5.519
REMARK  3 active torsions:
REMARK  status: ('A' for Active; 'I' for Inactive)
REMARK    1  A    between atoms: O1_2  and  C2_3 
REMARK    2  A    between atoms: N1_5  and  N2_7 
REMARK    3  A    between atoms: N2_7  and  C4_9 
ROOT
HETATM    1  N2  UNL     1      -2.121   1.713  -9.817  1.00  0.00    -0.278 N 
ATOM      2  H2  UNL     1      -2.917   2.316 -10.022  1.00  0.00     0.189 HD
ENDROOT
BRANCH   1   3
HETATM    3  N1  UNL     1      -0.918   1.836 -10.544  1.00  0.00    -0.282 N 
HETATM    4  C2  UNL     1      -0.621   2.920 -11.177  1.00  0.00     0.127 C 
HETATM    5  C3  UNL     1      -1.560   4.088 -11.149  1.00  0.00     0.099 C 
ATOM      6  H1  UNL     1      -0.269   1.049 -10.570  1.00  0.00     0.189 HD
BRANCH   4   7
HETATM    7  O1  UNL     1       0.584   2.946 -11.864  1.00  0.00    -0.343 OA
HETATM    8  C1  UNL     1       1.162   4.158 -12.324  1.00  0.00     0.211 C 
ENDBRANCH   4   7
ENDBRANCH   1   3
BRANCH   1   9
HETATM    9  C4  UNL     1      -2.193   0.800  -8.867  1.00  0.00     0.163 A 
HETATM   10  N3  UNL     1      -2.474   1.003  -7.580  1.00  0.00    -0.345 N 
HETATM   11  C5  UNL     1      -2.500  -0.034  -6.781  1.00  0.00     0.097 A 
ATOM     12  H3  UNL     1      -2.665   1.941  -7.227  1.00  0.00     0.167 HD
HETATM   13  C6  UNL     1      -2.237  -1.263  -7.314  1.00  0.00     0.070 A 
HETATM   14  S1  UNL     1      -1.959  -0.886  -8.953  1.00  0.00    -0.063 SA
ENDBRANCH   1   9
TORSDOF 3
ENDMDL
MODEL 4
REMARK VINA RESULT: -4.674556265      2.034      2.713
REMARK  3 active torsions:
REMARK  status: ('A' for Active; 'I' for Inactive)
REMARK    1  A    between atoms: O1_2  and  C2_3 
REMARK    2  A    between atoms: N1_5  and  N2_7 
REMARK    3  A    between atoms: N2_7  and  C4_9 
ROOT
HETATM    1  N2  UNL     1       0.447   3.972 -12.714  1.00  0.00    -0.278 N 
ATOM      2  H2  UNL     1      -0.214   4.237 -13.444  1.00  0.00     0.189 HD
ENDROOT
BRANCH   1   3
HETATM    3  N1  UNL     1       0.182   2.876 -11.865  1.00  0.00    -0.282 N 
HETATM    4  C2  UNL     1      -0.841   2.864 -11.081  1.00  0.00     0.127 C 
HETATM    5  C3  UNL     1      -1.784   4.030 -11.057  1.00  0.00     0.099 C 
ATOM      6  H1  UNL     1       0.815   2.076 -11.873  1.00  0.00     0.189 HD
BRANCH   4   7
HETATM    7  O1  UNL     1      -1.018   1.744 -10.283  1.00  0.00    -0.343 OA
HETATM    8  C1  UNL     1      -2.270   1.430  -9.692  1.00  0.00     0.211 C 
ENDBRANCH   4   7
ENDBRANCH   1   3
BRANCH   1   9
HETATM    9  C4  UNL     1       1.569   4.645 -12.543  1.00  0.00     0.163 A 
HETATM   10  N3  UNL     1       2.811   4.164 -12.608  1.00  0.00    -0.345 N 
HETATM   11  C5  UNL     1       3.806   4.991 -12.409  1.00  0.00     0.097 A 
ATOM     12  H3  UNL     1       2.981   3.178 -12.808  1.00  0.00     0.167 HD
HETATM   13  C6  UNL     1       3.514   6.298 -12.146  1.00  0.00     0.070 A 
HETATM   14  S1  UNL     1       1.810   6.296 -12.194  1.00  0.00    -0.063 SA
ENDBRANCH   1   9
TORSDOF 3
ENDMDL
MODEL 5
REMARK VINA RESULT: -4.549635087      2.578      3.654
REMARK  3 active torsions:
REMARK  status: ('A' for Active; 'I' for Inactive)
REMARK    1  A    between atoms: O1_2  and  C2_3 
REMARK    2  A    between atoms: N1_5  and  N2_7 
REMARK    3  A    between atoms: N2_7  and  C4_9 
ROOT
HETATM    1  N2  UNL     1       0.909   3.525 -12.277  1.00  0.00    -0.278 N 
ATOM      2  H2  UNL     1       0.984   2.532 -12.498  1.00  0.00     0.189 HD
ENDROOT
BRANCH   1   3
HETATM    3  N1  UNL     1      -0.340   4.101 -11.962  1.00  0.00    -0.282 N 
HETATM    4  C2  UNL     1      -1.198   3.487 -11.221  1.00  0.00     0.127 C 
HETATM    5  C3  UNL     1      -0.879   2.129 -10.669  1.00  0.00     0.099 C 
ATOM      6  H1  UNL     1      -0.569   5.025 -12.330  1.00  0.00     0.189 HD
BRANCH   4   7
HETATM    7  O1  UNL     1      -2.398   4.133 -10.966  1.00  0.00    -0.343 OA
HETATM    8  C1  UNL     1      -2.598   5.502 -11.282  1.00  0.00     0.211 C 
ENDBRANCH   4   7
ENDBRANCH   1   3
BRANCH   1   9
HETATM    9  C4  UNL     1       1.977   4.298 -12.280  1.00  0.00     0.163 A 
HETATM   10  N3  UNL     1       3.224   3.944 -12.595  1.00  0.00    -0.345 N 
HETATM   11  C5  UNL     1       4.160   4.857 -12.538  1.00  0.00     0.097 A 
ATOM     12  H3  UNL     1       3.441   2.987 -12.873  1.00  0.00     0.167 HD
HETATM   13  C6  UNL     1       3.805   6.120 -12.160  1.00  0.00     0.070 A 
HETATM   14  S1  UNL     1       2.129   5.952 -11.896  1.00  0.00    -0.063 SA
ENDBRANCH   1   9
TORSDOF 3
ENDMDL
