MODEL 1
REMARK VINA RESULT: -7.691544780      0.000      0.000
REMARK  1 active torsions:
REMARK  status: ('A' for Active; 'I' for Inactive)
REMARK    1  A    between atoms: N1_1  and  N2_4 
ROOT
HETATM    1  N2  UNL     1      23.398  33.348  48.338  1.00  0.00    -0.298 N 
ATOM      2  H2  UNL     1      22.514  33.594  47.893  1.00  0.00     0.187 HD
HETATM    3  C1  UNL     1      24.488  33.521  47.685  1.00  0.00     0.127 C 
HETATM    4  S1  UNL     1      24.636  34.171  46.019  1.00  0.00    -0.076 SA
HETATM    5  C2  UNL     1      26.443  34.478  46.171  1.00  0.00     0.086 C 
HETATM    6  C3  UNL     1      27.118  33.930  44.982  1.00  0.00     0.043 C 
HETATM    7  C4  UNL     1      27.268  34.857  43.824  1.00  0.00     0.003 C 
HETATM    8  C5  UNL     1      28.189  36.021  44.156  1.00  0.00     0.000 C 
HETATM    9  C6  UNL     1      27.353  37.214  44.484  1.00  0.00     0.000 C 
HETATM   10  C7  UNL     1      26.173  36.826  45.316  1.00  0.00     0.003 C 
HETATM   11  C8  UNL     1      26.653  35.933  46.436  1.00  0.00     0.043 C 
HETATM   12  N3  UNL     1      26.754  33.729  47.324  1.00  0.00    -0.357 N 
ATOM     13  H3  UNL     1      27.733  33.565  47.561  1.00  0.00     0.162 HD
HETATM   14  C9  UNL     1      25.868  33.266  48.058  1.00  0.00     0.148 C 
HETATM   15  N4  UNL     1      26.209  32.494  49.247  1.00  0.00    -0.080 NA
ENDROOT
BRANCH   1  16
HETATM   16  N1  UNL     1      23.379  32.843  49.615  1.00  0.00    -0.344 N 
ATOM     17  H12 UNL     1      24.135  32.215  49.889  1.00  0.00     0.176 HD
ATOM     18  H11 UNL     1      22.643  33.074  50.282  1.00  0.00     0.176 HD
ENDBRANCH   1  16
TORSDOF 1
ENDMDL
MODEL 2
REMARK VINA RESULT: -6.791364340      1.433      2.524
REMARK  1 active torsions:
REMARK  status: ('A' for Active; 'I' for Inactive)
REMARK    1  A    between atoms: N1_1  and  N2_4 
ROOT
HETATM    1  N2  UNL     1      24.221  33.058  48.682  1.00  0.00    -0.298 N 
ATOM      2  H2  UNL     1      24.957  32.758  49.322  1.00  0.00     0.187 HD
HETATM    3  C1  UNL     1      24.523  33.853  47.722  1.00  0.00     0.127 C 
HETATM    4  S1  UNL     1      26.152  34.517  47.366  1.00  0.00    -0.076 SA
HETATM    5  C2  UNL     1      25.686  35.071  45.675  1.00  0.00     0.086 C 
HETATM    6  C3  UNL     1      26.137  36.461  45.491  1.00  0.00     0.043 C 
HETATM    7  C4  UNL     1      27.514  36.641  44.947  1.00  0.00     0.003 C 
HETATM    8  C5  UNL     1      27.623  36.121  43.522  1.00  0.00     0.000 C 
HETATM    9  C6  UNL     1      28.249  34.765  43.553  1.00  0.00     0.000 C 
HETATM   10  C7  UNL     1      27.714  33.958  44.693  1.00  0.00     0.003 C 
HETATM   11  C8  UNL     1      26.209  34.074  44.693  1.00  0.00     0.043 C 
HETATM   12  N3  UNL     1      24.280  34.996  45.736  1.00  0.00    -0.357 N 
ATOM     13  H3  UNL     1      23.727  35.414  44.988  1.00  0.00     0.162 HD
HETATM   14  C9  UNL     1      23.699  34.434  46.677  1.00  0.00     0.148 C 
HETATM   15  N4  UNL     1      22.244  34.365  46.723  1.00  0.00    -0.080 NA
ENDROOT
BRANCH   1  16
HETATM   16  N1  UNL     1      22.943  32.597  48.879  1.00  0.00    -0.344 N 
ATOM     17  H12 UNL     1      22.529  32.723  49.803  1.00  0.00     0.176 HD
ATOM     18  H11 UNL     1      22.408  32.140  48.141  1.00  0.00     0.176 HD
ENDBRANCH   1  16
TORSDOF 1
ENDMDL
MODEL 3
REMARK VINA RESULT: -6.437779799      1.082      1.159
REMARK  1 active torsions:
REMARK  status: ('A' for Active; 'I' for Inactive)
REMARK    1  A    between atoms: N1_1  and  N2_4 
ROOT
HETATM    1  N2  UNL     1      22.138  33.373  48.033  1.00  0.00    -0.298 N 
ATOM      2  H2  UNL     1      21.379  33.589  47.386  1.00  0.00     0.187 HD
HETATM    3  C1  UNL     1      23.344  33.381  47.595  1.00  0.00     0.127 C 
HETATM    4  S1  UNL     1      23.861  33.744  45.915  1.00  0.00    -0.076 SA
HETATM    5  C2  UNL     1      25.624  33.976  46.383  1.00  0.00     0.086 C 
HETATM    6  C3  UNL     1      26.467  33.208  45.450  1.00  0.00     0.043 C 
HETATM    7  C4  UNL     1      26.913  33.926  44.221  1.00  0.00     0.003 C 
HETATM    8  C5  UNL     1      27.846  35.079  44.556  1.00  0.00     0.000 C 
HETATM    9  C6  UNL     1      27.065  36.352  44.526  1.00  0.00     0.000 C 
HETATM   10  C7  UNL     1      25.719  36.165  45.150  1.00  0.00     0.003 C 
HETATM   11  C8  UNL     1      25.900  35.443  46.464  1.00  0.00     0.043 C 
HETATM   12  N3  UNL     1      25.646  33.411  47.673  1.00  0.00    -0.357 N 
ATOM     13  H3  UNL     1      26.544  33.237  48.125  1.00  0.00     0.162 HD
HETATM   14  C9  UNL     1      24.601  33.119  48.273  1.00  0.00     0.148 C 
HETATM   15  N4  UNL     1      24.642  32.534  49.608  1.00  0.00    -0.080 NA
ENDROOT
BRANCH   1  16
HETATM   16  N1  UNL     1      21.833  33.084  49.340  1.00  0.00    -0.344 N 
ATOM     17  H12 UNL     1      22.328  32.311  49.784  1.00  0.00     0.176 HD
ATOM     18  H11 UNL     1      21.137  33.612  49.867  1.00  0.00     0.176 HD
ENDBRANCH   1  16
TORSDOF 1
ENDMDL
MODEL 4
REMARK VINA RESULT: -6.411112703      3.141      4.512
REMARK  1 active torsions:
REMARK  status: ('A' for Active; 'I' for Inactive)
REMARK    1  A    between atoms: N1_1  and  N2_4 
ROOT
HETATM    1  N2  UNL     1      29.632  30.485  45.413  1.00  0.00    -0.298 N 
ATOM      2  H2  UNL     1      30.144  30.807  44.592  1.00  0.00     0.187 HD
HETATM    3  C1  UNL     1      28.642  31.181  45.837  1.00  0.00     0.127 C 
HETATM    4  S1  UNL     1      28.037  32.711  45.122  1.00  0.00    -0.076 SA
HETATM    5  C2  UNL     1      26.446  32.651  46.043  1.00  0.00     0.086 C 
HETATM    6  C3  UNL     1      26.203  33.968  46.656  1.00  0.00     0.043 C 
HETATM    7  C4  UNL     1      25.448  34.951  45.827  1.00  0.00     0.003 C 
HETATM    8  C5  UNL     1      24.020  34.492  45.578  1.00  0.00     0.000 C 
HETATM    9  C6  UNL     1      23.940  33.891  44.213  1.00  0.00     0.000 C 
HETATM   10  C7  UNL     1      25.145  33.051  43.929  1.00  0.00     0.003 C 
HETATM   11  C8  UNL     1      25.385  32.149  45.117  1.00  0.00     0.043 C 
HETATM   12  N3  UNL     1      26.730  31.678  47.021  1.00  0.00    -0.357 N 
ATOM     13  H3  UNL     1      26.082  31.552  47.800  1.00  0.00     0.162 HD
HETATM   14  C9  UNL     1      27.746  30.970  46.960  1.00  0.00     0.148 C 
HETATM   15  N4  UNL     1      28.023  29.968  47.982  1.00  0.00    -0.080 NA
ENDROOT
BRANCH   1  16
HETATM   16  N1  UNL     1      30.027  29.321  46.025  1.00  0.00    -0.344 N 
ATOM     17  H12 UNL     1      29.968  29.274  47.042  1.00  0.00     0.176 HD
ATOM     18  H11 UNL     1      30.371  28.518  45.499  1.00  0.00     0.176 HD
ENDBRANCH   1  16
TORSDOF 1
ENDMDL
MODEL 5
REMARK VINA RESULT: -6.242012277      2.103      3.253
REMARK  1 active torsions:
REMARK  status: ('A' for Active; 'I' for Inactive)
REMARK    1  A    between atoms: N1_1  and  N2_4 
ROOT
HETATM    1  N2  UNL     1      22.418  32.484  49.448  1.00  0.00    -0.298 N 
ATOM      2  H2  UNL     1      22.956  32.147  50.247  1.00  0.00     0.187 HD
HETATM    3  C1  UNL     1      23.032  33.096  48.503  1.00  0.00     0.127 C 
HETATM    4  S1  UNL     1      24.792  33.438  48.427  1.00  0.00    -0.076 SA
HETATM    5  C2  UNL     1      24.755  33.851  46.635  1.00  0.00     0.086 C 
HETATM    6  C3  UNL     1      25.480  35.117  46.426  1.00  0.00     0.043 C 
HETATM    7  C4  UNL     1      26.942  35.002  46.158  1.00  0.00     0.003 C 
HETATM    8  C5  UNL     1      27.214  34.302  44.835  1.00  0.00     0.000 C 
HETATM    9  C6  UNL     1      27.563  32.876  45.110  1.00  0.00     0.000 C 
HETATM   10  C7  UNL     1      26.690  32.311  46.184  1.00  0.00     0.003 C 
HETATM   11  C8  UNL     1      25.257  32.670  45.869  1.00  0.00     0.043 C 
HETATM   12  N3  UNL     1      23.372  34.014  46.417  1.00  0.00    -0.357 N 
ATOM     13  H3  UNL     1      23.052  34.423  45.539  1.00  0.00     0.162 HD
HETATM   14  C9  UNL     1      22.535  33.673  47.266  1.00  0.00     0.148 C 
HETATM   15  N4  UNL     1      21.109  33.848  47.023  1.00  0.00    -0.080 NA
ENDROOT
BRANCH   1  16
HETATM   16  N1  UNL     1      21.063  32.265  49.422  1.00  0.00    -0.344 N 
ATOM     17  H12 UNL     1      20.706  31.566  48.770  1.00  0.00     0.176 HD
ATOM     18  H11 UNL     1      20.417  32.773  50.026  1.00  0.00     0.176 HD
ENDBRANCH   1  16
TORSDOF 1
ENDMDL
