MODEL 1
REMARK VINA RESULT: -5.139030862      0.000      0.000
REMARK  3 active torsions:
REMARK  status: ('A' for Active; 'I' for Inactive)
REMARK    1  A    between atoms: C3_3  and  N1_4 
REMARK    2  A    between atoms: N1_4  and  C5_6 
REMARK    3  A    between atoms: C5_6  and  C6_7 
ROOT
HETATM    1  C1  UNL     1       9.473 105.095 160.372  1.00  0.00     0.013 C 
HETATM    2  C2  UNL     1      10.237 104.599 159.578  1.00  0.00    -0.087 C 
HETATM    3  C3  UNL     1      11.168 103.970 158.623  1.00  0.00     0.364 C 
ENDROOT
BRANCH   3   4
HETATM    4  N1  UNL     1      11.644 102.728 159.204  1.00  0.00     0.095 N 
HETATM    5  C4  UNL     1      10.487 101.820 159.150  1.00  0.00     0.310 C 
BRANCH   4   6
HETATM    6  C5  UNL     1      12.663 102.097 158.430  1.00  0.00     0.282 C 
BRANCH   6   7
HETATM    7  C6  UNL     1      12.521 100.589 158.317  1.00  0.00     0.053 C 
HETATM    8  C7  UNL     1      13.561 100.004 159.246  1.00  0.00     0.016 C 
HETATM    9  C8  UNL     1      14.883 100.054 158.529  1.00  0.00     0.045 C 
HETATM   10  C9  UNL     1      14.770  99.164 157.325  1.00  0.00     0.060 C 
HETATM   11  N2  UNL     1      13.671  99.372 156.491  1.00  0.00    -0.382 N 
HETATM   12  C10 UNL     1      12.548 100.077 156.944  1.00  0.00     0.066 C 
ATOM     13  H2  UNL     1      13.685  99.007 155.539  1.00  0.00     0.164 HD
ENDBRANCH   6   7
ENDBRANCH   4   6
ENDBRANCH   3   4
TORSDOF 3
ENDMDL
MODEL 2
REMARK VINA RESULT: -5.099931116      1.034      1.289
REMARK  3 active torsions:
REMARK  status: ('A' for Active; 'I' for Inactive)
REMARK    1  A    between atoms: C3_3  and  N1_4 
REMARK    2  A    between atoms: N1_4  and  C5_6 
REMARK    3  A    between atoms: C5_6  and  C6_7 
ROOT
HETATM    1  C1  UNL     1      12.217 105.594 157.806  1.00  0.00     0.013 C 
HETATM    2  C2  UNL     1      11.600 104.603 158.118  1.00  0.00    -0.087 C 
HETATM    3  C3  UNL     1      10.865 103.390 158.519  1.00  0.00     0.364 C 
ENDROOT
BRANCH   3   4
HETATM    4  N1  UNL     1      11.743 102.579 159.343  1.00  0.00     0.095 N 
HETATM    5  C4  UNL     1      10.894 101.476 159.822  1.00  0.00     0.310 C 
BRANCH   4   6
HETATM    6  C5  UNL     1      12.796 101.959 158.606  1.00  0.00     0.282 C 
BRANCH   6   7
HETATM    7  C6  UNL     1      12.597 100.474 158.355  1.00  0.00     0.053 C 
HETATM    8  C7  UNL     1      13.677  99.772 159.148  1.00  0.00     0.016 C 
HETATM    9  C8  UNL     1      14.949  99.859 158.348  1.00  0.00     0.045 C 
HETATM   10  C9  UNL     1      14.727  99.097 157.073  1.00  0.00     0.060 C 
HETATM   11  N2  UNL     1      13.581  99.417 156.343  1.00  0.00    -0.382 N 
HETATM   12  C10 UNL     1      12.515 100.102 156.941  1.00  0.00     0.066 C 
ATOM     13  H2  UNL     1      13.520  99.149 155.361  1.00  0.00     0.164 HD
ENDBRANCH   6   7
ENDBRANCH   4   6
ENDBRANCH   3   4
TORSDOF 3
ENDMDL
MODEL 3
REMARK VINA RESULT: -5.099732765      1.282      1.712
REMARK  3 active torsions:
REMARK  status: ('A' for Active; 'I' for Inactive)
REMARK    1  A    between atoms: C3_3  and  N1_4 
REMARK    2  A    between atoms: N1_4  and  C5_6 
REMARK    3  A    between atoms: C5_6  and  C6_7 
ROOT
HETATM    1  C1  UNL     1      10.652 105.441 159.599  1.00  0.00     0.013 C 
HETATM    2  C2  UNL     1      10.697 104.339 159.106  1.00  0.00    -0.087 C 
HETATM    3  C3  UNL     1      10.751 102.983 158.530  1.00  0.00     0.364 C 
ENDROOT
BRANCH   3   4
HETATM    4  N1  UNL     1      11.141 102.059 159.579  1.00  0.00     0.095 N 
HETATM    5  C4  UNL     1       9.871 101.603 160.169  1.00  0.00     0.310 C 
BRANCH   4   6
HETATM    6  C5  UNL     1      11.779 100.882 159.087  1.00  0.00     0.282 C 
BRANCH   6   7
HETATM    7  C6  UNL     1      12.953 101.146 158.160  1.00  0.00     0.053 C 
HETATM    8  C7  UNL     1      12.921 100.043 157.125  1.00  0.00     0.016 C 
HETATM    9  C8  UNL     1      13.534  98.821 157.751  1.00  0.00     0.045 C 
HETATM   10  C9  UNL     1      14.970  99.147 158.050  1.00  0.00     0.060 C 
HETATM   11  N2  UNL     1      15.211 100.323 158.761  1.00  0.00    -0.382 N 
HETATM   12  C10 UNL     1      14.237 101.327 158.842  1.00  0.00     0.066 C 
ATOM     13  H2  UNL     1      16.109 100.454 159.228  1.00  0.00     0.164 HD
ENDBRANCH   6   7
ENDBRANCH   4   6
ENDBRANCH   3   4
TORSDOF 3
ENDMDL
MODEL 4
REMARK VINA RESULT: -5.037379084      0.870      1.209
REMARK  3 active torsions:
REMARK  status: ('A' for Active; 'I' for Inactive)
REMARK    1  A    between atoms: C3_3  and  N1_4 
REMARK    2  A    between atoms: N1_4  and  C5_6 
REMARK    3  A    between atoms: C5_6  and  C6_7 
ROOT
HETATM    1  C1  UNL     1       8.534 103.912 159.282  1.00  0.00     0.013 C 
HETATM    2  C2  UNL     1       9.660 103.532 159.498  1.00  0.00    -0.087 C 
HETATM    3  C3  UNL     1      11.042 103.076 159.736  1.00  0.00     0.364 C 
ENDROOT
BRANCH   3   4
HETATM    4  N1  UNL     1      11.688 102.892 158.449  1.00  0.00     0.095 N 
HETATM    5  C4  UNL     1      12.157 104.235 158.069  1.00  0.00     0.310 C 
BRANCH   4   6
HETATM    6  C5  UNL     1      12.860 102.081 158.515  1.00  0.00     0.282 C 
BRANCH   6   7
HETATM    7  C6  UNL     1      12.603 100.594 158.343  1.00  0.00     0.053 C 
HETATM    8  C7  UNL     1      13.625  99.894 159.212  1.00  0.00     0.016 C 
HETATM    9  C8  UNL     1      14.925  99.881 158.455  1.00  0.00     0.045 C 
HETATM   10  C9  UNL     1      14.712  99.055 157.219  1.00  0.00     0.060 C 
HETATM   11  N2  UNL     1      13.607  99.380 156.431  1.00  0.00    -0.382 N 
HETATM   12  C10 UNL     1      12.553 100.143 156.950  1.00  0.00     0.066 C 
ATOM     13  H2  UNL     1      13.566  99.058 155.464  1.00  0.00     0.164 HD
ENDBRANCH   6   7
ENDBRANCH   4   6
ENDBRANCH   3   4
TORSDOF 3
ENDMDL
MODEL 5
REMARK VINA RESULT: -5.007801237      1.156      1.209
REMARK  3 active torsions:
REMARK  status: ('A' for Active; 'I' for Inactive)
REMARK    1  A    between atoms: C3_3  and  N1_4 
REMARK    2  A    between atoms: N1_4  and  C5_6 
REMARK    3  A    between atoms: C5_6  and  C6_7 
ROOT
HETATM    1  C1  UNL     1       8.905 104.616 157.766  1.00  0.00     0.013 C 
HETATM    2  C2  UNL     1       9.601 103.644 157.936  1.00  0.00    -0.087 C 
HETATM    3  C3  UNL     1      10.465 102.470 158.161  1.00  0.00     0.364 C 
ENDROOT
BRANCH   3   4
HETATM    4  N1  UNL     1      11.684 102.921 158.807  1.00  0.00     0.095 N 
HETATM    5  C4  UNL     1      11.453 102.695 160.243  1.00  0.00     0.310 C 
BRANCH   4   6
HETATM    6  C5  UNL     1      12.825 102.132 158.473  1.00  0.00     0.282 C 
BRANCH   6   7
HETATM    7  C6  UNL     1      12.536 100.650 158.305  1.00  0.00     0.053 C 
HETATM    8  C7  UNL     1      13.477  99.935 159.250  1.00  0.00     0.016 C 
HETATM    9  C8  UNL     1      14.822  99.872 158.580  1.00  0.00     0.045 C 
HETATM   10  C9  UNL     1      14.666  99.033 157.344  1.00  0.00     0.060 C 
HETATM   11  N2  UNL     1      13.625  99.378 156.480  1.00  0.00    -0.382 N 
HETATM   12  C10 UNL     1      12.563 100.179 156.918  1.00  0.00     0.066 C 
ATOM     13  H2  UNL     1      13.638  99.042 155.517  1.00  0.00     0.164 HD
ENDBRANCH   6   7
ENDBRANCH   4   6
ENDBRANCH   3   4
TORSDOF 3
ENDMDL
