MODEL 1
REMARK VINA RESULT: -4.979959754      0.000      0.000
REMARK  4 active torsions:
REMARK  status: ('A' for Active; 'I' for Inactive)
REMARK    1  A    between atoms: C3_3  and  C4_4 
REMARK    2  A    between atoms: C5_5  and  C6_6 
REMARK    3  A    between atoms: C6_6  and  C7_7 
REMARK    4  A    between atoms: C8_9  and  C9_10 
ROOT
HETATM    1  C1  UNL     1      14.857  98.672 157.445  1.00  0.00     0.112 C 
HETATM    2  C2  UNL     1      13.764  99.560 157.842  1.00  0.00    -0.106 C 
HETATM    3  C3  UNL     1      12.878 100.294 158.178  1.00  0.00    -0.079 C 
ENDROOT
BRANCH   3   4
HETATM    4  C4  UNL     1      11.809 101.172 158.582  1.00  0.00     0.060 C 
HETATM    5  C5  UNL     1      11.066 100.894 159.622  1.00  0.00    -0.015 C 
BRANCH   5   6
HETATM    6  C6  UNL     1       9.963 101.800 160.037  1.00  0.00     0.062 C 
BRANCH   6   7
HETATM    7  C7  UNL     1      10.440 103.137 160.481  1.00  0.00     0.154 A 
HETATM    8  O1  UNL     1       9.563 104.051 161.048  1.00  0.00    -0.375 OA
HETATM    9  C8  UNL     1       9.849 104.309 159.729  1.00  0.00     0.154 A 
BRANCH   9  10
HETATM   10  C9  UNL     1      10.777 105.406 159.323  1.00  0.00     0.009 C 
HETATM   11  C10 UNL     1      11.210 105.312 157.879  1.00  0.00     0.012 C 
HETATM   12  C11 UNL     1      10.149 106.777 159.593  1.00  0.00     0.012 C 
ENDBRANCH   9  10
ENDBRANCH   6   7
ENDBRANCH   5   6
ENDBRANCH   3   4
TORSDOF 4
ENDMDL
MODEL 2
REMARK VINA RESULT: -4.785018399      2.044      6.304
REMARK  4 active torsions:
REMARK  status: ('A' for Active; 'I' for Inactive)
REMARK    1  A    between atoms: C3_3  and  C4_4 
REMARK    2  A    between atoms: C5_5  and  C6_6 
REMARK    3  A    between atoms: C6_6  and  C7_7 
REMARK    4  A    between atoms: C8_9  and  C9_10 
ROOT
HETATM    1  C1  UNL     1       8.363 106.539 160.810  1.00  0.00     0.112 C 
HETATM    2  C2  UNL     1       9.201 105.354 160.624  1.00  0.00    -0.106 C 
HETATM    3  C3  UNL     1       9.894 104.390 160.462  1.00  0.00    -0.079 C 
ENDROOT
BRANCH   3   4
HETATM    4  C4  UNL     1      10.723 103.228 160.266  1.00  0.00     0.060 C 
HETATM    5  C5  UNL     1      10.204 102.084 159.903  1.00  0.00    -0.015 C 
BRANCH   5   6
HETATM    6  C6  UNL     1      11.061 100.885 159.702  1.00  0.00     0.062 C 
BRANCH   6   7
HETATM    7  C7  UNL     1      12.136 101.096 158.696  1.00  0.00     0.154 A 
HETATM    8  O1  UNL     1      12.055 100.518 157.438  1.00  0.00    -0.375 OA
HETATM    9  C8  UNL     1      12.892  99.849 158.297  1.00  0.00     0.154 A 
BRANCH   9  10
HETATM   10  C9  UNL     1      14.378  99.948 158.186  1.00  0.00     0.009 C 
HETATM   11  C10 UNL     1      15.089  99.677 159.492  1.00  0.00     0.012 C 
HETATM   12  C11 UNL     1      14.906  99.009 157.097  1.00  0.00     0.012 C 
ENDBRANCH   9  10
ENDBRANCH   6   7
ENDBRANCH   5   6
ENDBRANCH   3   4
TORSDOF 4
ENDMDL
MODEL 3
REMARK VINA RESULT: -4.742609977      1.066      1.181
REMARK  4 active torsions:
REMARK  status: ('A' for Active; 'I' for Inactive)
REMARK    1  A    between atoms: C3_3  and  C4_4 
REMARK    2  A    between atoms: C5_5  and  C6_6 
REMARK    3  A    between atoms: C6_6  and  C7_7 
REMARK    4  A    between atoms: C8_9  and  C9_10 
ROOT
HETATM    1  C1  UNL     1      15.014  98.664 157.548  1.00  0.00     0.112 C 
HETATM    2  C2  UNL     1      13.977  99.342 158.326  1.00  0.00    -0.106 C 
HETATM    3  C3  UNL     1      13.119  99.886 158.962  1.00  0.00    -0.079 C 
ENDROOT
BRANCH   3   4
HETATM    4  C4  UNL     1      12.087 100.544 159.722  1.00  0.00     0.060 C 
HETATM    5  C5  UNL     1      11.084 101.136 159.126  1.00  0.00    -0.015 C 
BRANCH   5   6
HETATM    6  C6  UNL     1      10.021 101.816 159.912  1.00  0.00     0.062 C 
BRANCH   6   7
HETATM    7  C7  UNL     1      10.295 103.260 160.143  1.00  0.00     0.154 A 
HETATM    8  O1  UNL     1       9.740 103.923 161.227  1.00  0.00    -0.375 OA
HETATM    9  C8  UNL     1       9.087 104.164 160.042  1.00  0.00     0.154 A 
BRANCH   9  10
HETATM   10  C9  UNL     1       9.248 105.450 159.301  1.00  0.00     0.009 C 
HETATM   11  C10 UNL     1       8.305 105.579 158.127  1.00  0.00     0.012 C 
HETATM   12  C11 UNL     1       9.079 106.646 160.243  1.00  0.00     0.012 C 
ENDBRANCH   9  10
ENDBRANCH   6   7
ENDBRANCH   5   6
ENDBRANCH   3   4
TORSDOF 4
ENDMDL
MODEL 4
REMARK VINA RESULT: -4.628197991      2.146      6.188
REMARK  4 active torsions:
REMARK  status: ('A' for Active; 'I' for Inactive)
REMARK    1  A    between atoms: C3_3  and  C4_4 
REMARK    2  A    between atoms: C5_5  and  C6_6 
REMARK    3  A    between atoms: C6_6  and  C7_7 
REMARK    4  A    between atoms: C8_9  and  C9_10 
ROOT
HETATM    1  C1  UNL     1      10.855 107.759 159.551  1.00  0.00     0.112 C 
HETATM    2  C2  UNL     1      11.065 106.360 159.178  1.00  0.00    -0.106 C 
HETATM    3  C3  UNL     1      11.248 105.213 158.882  1.00  0.00    -0.079 C 
ENDROOT
BRANCH   3   4
HETATM    4  C4  UNL     1      11.469 103.836 158.521  1.00  0.00     0.060 C 
HETATM    5  C5  UNL     1      10.660 102.894 158.930  1.00  0.00    -0.015 C 
BRANCH   5   6
HETATM    6  C6  UNL     1      10.890 101.473 158.558  1.00  0.00     0.062 C 
BRANCH   6   7
HETATM    7  C7  UNL     1      12.151 101.264 157.797  1.00  0.00     0.154 A 
HETATM    8  O1  UNL     1      12.291 100.184 156.937  1.00  0.00    -0.375 OA
HETATM    9  C8  UNL     1      12.910 100.004 158.150  1.00  0.00     0.154 A 
BRANCH   9  10
HETATM   10  C9  UNL     1      14.391 100.111 158.303  1.00  0.00     0.009 C 
HETATM   11  C10 UNL     1      14.843 100.055 159.744  1.00  0.00     0.012 C 
HETATM   12  C11 UNL     1      15.102  99.027 157.488  1.00  0.00     0.012 C 
ENDBRANCH   9  10
ENDBRANCH   6   7
ENDBRANCH   5   6
ENDBRANCH   3   4
TORSDOF 4
ENDMDL
MODEL 5
REMARK VINA RESULT: -4.623006833      1.806      6.177
REMARK  4 active torsions:
REMARK  status: ('A' for Active; 'I' for Inactive)
REMARK    1  A    between atoms: C3_3  and  C4_4 
REMARK    2  A    between atoms: C5_5  and  C6_6 
REMARK    3  A    between atoms: C6_6  and  C7_7 
REMARK    4  A    between atoms: C8_9  and  C9_10 
ROOT
HETATM    1  C1  UNL     1       8.463 106.971 161.359  1.00  0.00     0.112 C 
HETATM    2  C2  UNL     1       8.877 105.757 160.655  1.00  0.00    -0.106 C 
HETATM    3  C3  UNL     1       9.227 104.771 160.071  1.00  0.00    -0.079 C 
ENDROOT
BRANCH   3   4
HETATM    4  C4  UNL     1       9.642 103.584 159.367  1.00  0.00     0.060 C 
HETATM    5  C5  UNL     1       9.938 102.486 160.013  1.00  0.00    -0.015 C 
BRANCH   5   6
HETATM    6  C6  UNL     1      10.367 101.263 159.286  1.00  0.00     0.062 C 
BRANCH   6   7
HETATM    7  C7  UNL     1      11.715 100.781 159.693  1.00  0.00     0.154 A 
HETATM    8  O1  UNL     1      12.811 101.631 159.663  1.00  0.00    -0.375 OA
HETATM    9  C8  UNL     1      12.751 100.775 158.591  1.00  0.00     0.154 A 
BRANCH   9  10
HETATM   10  C9  UNL     1      13.639  99.579 158.487  1.00  0.00     0.009 C 
HETATM   11  C10 UNL     1      13.691  99.000 157.092  1.00  0.00     0.012 C 
HETATM   12  C11 UNL     1      15.054  99.908 158.970  1.00  0.00     0.012 C 
ENDBRANCH   9  10
ENDBRANCH   6   7
ENDBRANCH   5   6
ENDBRANCH   3   4
TORSDOF 4
ENDMDL
