MODEL 1
REMARK VINA RESULT: -4.976517498      0.000      0.000
REMARK  3 active torsions:
REMARK  status: ('A' for Active; 'I' for Inactive)
REMARK    1  A    between atoms: C3_3  and  O1_4 
REMARK    2  A    between atoms: O1_4  and  C4_5 
REMARK    3  A    between atoms: C4_5  and  C5_6 
ROOT
HETATM    1  C1  UNL     1      10.072 104.328 160.380  1.00  0.00     0.014 C 
HETATM    2  C2  UNL     1      10.022 103.118 160.380  1.00  0.00    -0.091 C 
HETATM    3  C3  UNL     1       9.965 101.651 160.380  1.00  0.00     0.260 C 
ENDROOT
BRANCH   3   4
HETATM    4  O1  UNL     1      11.153 101.064 160.014  1.00  0.00    -0.377 OA
BRANCH   4   5
HETATM    5  C4  UNL     1      11.229 100.901 158.614  1.00  0.00     0.193 C 
BRANCH   5   6
HETATM    6  C5  UNL     1      12.636 101.259 158.127  1.00  0.00     0.100 C 
HETATM    7  C6  UNL     1      13.059 100.151 157.181  1.00  0.00     0.027 C 
HETATM    8  C7  UNL     1      13.570  99.021 158.047  1.00  0.00     0.004 C 
HETATM    9  C8  UNL     1      14.971  99.457 158.506  1.00  0.00     0.019 C 
HETATM   10  C9  UNL     1      14.842 100.865 159.030  1.00  0.00     0.114 C 
HETATM   11  N1  UNL     1      13.496 101.276 159.234  1.00  0.00    -0.415 N 
ATOM     12  H1  UNL     1      13.168 101.573 160.153  1.00  0.00     0.153 HD
ENDBRANCH   5   6
ENDBRANCH   4   5
ENDBRANCH   3   4
TORSDOF 3
ENDMDL
MODEL 2
REMARK VINA RESULT: -4.964495819      1.236      1.636
REMARK  3 active torsions:
REMARK  status: ('A' for Active; 'I' for Inactive)
REMARK    1  A    between atoms: C3_3  and  O1_4 
REMARK    2  A    between atoms: O1_4  and  C4_5 
REMARK    3  A    between atoms: C4_5  and  C5_6 
ROOT
HETATM    1  C1  UNL     1       9.990 104.278 160.704  1.00  0.00     0.014 C 
HETATM    2  C2  UNL     1      10.021 103.135 160.303  1.00  0.00    -0.091 C 
HETATM    3  C3  UNL     1      10.061 101.752 159.814  1.00  0.00     0.260 C 
ENDROOT
BRANCH   3   4
HETATM    4  O1  UNL     1      10.428 101.655 158.493  1.00  0.00    -0.377 OA
BRANCH   4   5
HETATM    5  C4  UNL     1      11.832 101.666 158.353  1.00  0.00     0.193 C 
BRANCH   5   6
HETATM    6  C5  UNL     1      12.357 100.228 158.291  1.00  0.00     0.100 C 
HETATM    7  C6  UNL     1      13.332 100.076 159.443  1.00  0.00     0.027 C 
HETATM    8  C7  UNL     1      14.648 100.652 158.968  1.00  0.00     0.004 C 
HETATM    9  C8  UNL     1      15.250  99.588 158.037  1.00  0.00     0.019 C 
HETATM   10  C9  UNL     1      14.164  99.186 157.071  1.00  0.00     0.114 C 
HETATM   11  N1  UNL     1      13.042 100.060 157.079  1.00  0.00    -0.415 N 
ATOM     12  H1  UNL     1      12.746 100.547 156.233  1.00  0.00     0.153 HD
ENDBRANCH   5   6
ENDBRANCH   4   5
ENDBRANCH   3   4
TORSDOF 3
ENDMDL
MODEL 3
REMARK VINA RESULT: -4.943408539      1.236      1.685
REMARK  3 active torsions:
REMARK  status: ('A' for Active; 'I' for Inactive)
REMARK    1  A    between atoms: C3_3  and  O1_4 
REMARK    2  A    between atoms: O1_4  and  C4_5 
REMARK    3  A    between atoms: C4_5  and  C5_6 
ROOT
HETATM    1  C1  UNL     1       9.397 105.183 160.341  1.00  0.00     0.014 C 
HETATM    2  C2  UNL     1       9.704 104.011 160.319  1.00  0.00    -0.091 C 
HETATM    3  C3  UNL     1      10.078 102.592 160.295  1.00  0.00     0.260 C 
ENDROOT
BRANCH   3   4
HETATM    4  O1  UNL     1      11.437 102.391 160.357  1.00  0.00    -0.377 OA
BRANCH   4   5
HETATM    5  C4  UNL     1      11.997 102.301 159.066  1.00  0.00     0.193 C 
BRANCH   5   6
HETATM    6  C5  UNL     1      11.963 100.847 158.586  1.00  0.00     0.100 C 
HETATM    7  C6  UNL     1      12.816 100.053 159.556  1.00  0.00     0.027 C 
HETATM    8  C7  UNL     1      14.252 100.239 159.114  1.00  0.00     0.004 C 
HETATM    9  C8  UNL     1      14.423  99.331 157.886  1.00  0.00     0.019 C 
HETATM   10  C9  UNL     1      13.265  99.617 156.964  1.00  0.00     0.114 C 
HETATM   11  N1  UNL     1      12.538 100.790 157.308  1.00  0.00    -0.415 N 
ATOM     12  H1  UNL     1      12.439 101.562 156.650  1.00  0.00     0.153 HD
ENDBRANCH   5   6
ENDBRANCH   4   5
ENDBRANCH   3   4
TORSDOF 3
ENDMDL
MODEL 4
REMARK VINA RESULT: -4.866598108      1.850      4.763
REMARK  3 active torsions:
REMARK  status: ('A' for Active; 'I' for Inactive)
REMARK    1  A    between atoms: C3_3  and  O1_4 
REMARK    2  A    between atoms: O1_4  and  C4_5 
REMARK    3  A    between atoms: C4_5  and  C5_6 
ROOT
HETATM    1  C1  UNL     1      15.530  99.220 159.161  1.00  0.00     0.014 C 
HETATM    2  C2  UNL     1      14.861  99.140 158.154  1.00  0.00    -0.091 C 
HETATM    3  C3  UNL     1      14.051  99.048 156.934  1.00  0.00     0.260 C 
ENDROOT
BRANCH   3   4
HETATM    4  O1  UNL     1      13.333 100.191 156.674  1.00  0.00    -0.377 OA
BRANCH   4   5
HETATM    5  C4  UNL     1      12.177 100.260 157.480  1.00  0.00     0.193 C 
BRANCH   5   6
HETATM    6  C5  UNL     1      12.197 101.551 158.304  1.00  0.00     0.100 C 
HETATM    7  C6  UNL     1      12.087 101.136 159.758  1.00  0.00     0.027 C 
HETATM    8  C7  UNL     1      10.616 100.903 160.026  1.00  0.00     0.004 C 
HETATM    9  C8  UNL     1       9.996 102.304 160.157  1.00  0.00     0.019 C 
HETATM   10  C9  UNL     1      10.471 103.105 158.971  1.00  0.00     0.114 C 
HETATM   11  N1  UNL     1      11.074 102.315 157.954  1.00  0.00    -0.415 N 
ATOM     12  H1  UNL     1      10.704 102.305 157.004  1.00  0.00     0.153 HD
ENDBRANCH   5   6
ENDBRANCH   4   5
ENDBRANCH   3   4
TORSDOF 3
ENDMDL
MODEL 5
REMARK VINA RESULT: -4.829530729      1.026      1.156
REMARK  3 active torsions:
REMARK  status: ('A' for Active; 'I' for Inactive)
REMARK    1  A    between atoms: C3_3  and  O1_4 
REMARK    2  A    between atoms: O1_4  and  C4_5 
REMARK    3  A    between atoms: C4_5  and  C5_6 
ROOT
HETATM    1  C1  UNL     1       9.992 105.021 160.044  1.00  0.00     0.014 C 
HETATM    2  C2  UNL     1       9.729 103.838 160.019  1.00  0.00    -0.091 C 
HETATM    3  C3  UNL     1       9.413 102.405 159.991  1.00  0.00     0.260 C 
ENDROOT
BRANCH   3   4
HETATM    4  O1  UNL     1      10.275 101.647 160.747  1.00  0.00    -0.377 OA
BRANCH   4   5
HETATM    5  C4  UNL     1      11.012 100.756 159.938  1.00  0.00     0.193 C 
BRANCH   5   6
HETATM    6  C5  UNL     1      12.412 101.322 159.687  1.00  0.00     0.100 C 
HETATM    7  C6  UNL     1      12.635 101.273 158.188  1.00  0.00     0.027 C 
HETATM    8  C7  UNL     1      13.071  99.860 157.866  1.00  0.00     0.004 C 
HETATM    9  C8  UNL     1      14.542  99.776 158.303  1.00  0.00     0.019 C 
HETATM   10  C9  UNL     1      14.616 100.331 159.703  1.00  0.00     0.114 C 
HETATM   11  N1  UNL     1      13.345 100.489 160.321  1.00  0.00    -0.415 N 
ATOM     12  H1  UNL     1      13.120 100.014 161.195  1.00  0.00     0.153 HD
ENDBRANCH   5   6
ENDBRANCH   4   5
ENDBRANCH   3   4
TORSDOF 3
ENDMDL
