MODEL 1
REMARK VINA RESULT: -4.922717120      0.000      0.000
REMARK  4 active torsions:
REMARK  status: ('A' for Active; 'I' for Inactive)
REMARK    1  A    between atoms: N1_2  and  C3_4 
REMARK    2  A    between atoms: C3_4  and  C4_5 
REMARK    3  A    between atoms: C8_9  and  C9_10 
REMARK    4  A    between atoms: C9_10  and  N2_11 
ROOT
HETATM    1  C4  UNL     1      12.196 100.714 159.372  1.00  0.00     0.019 C 
HETATM    2  C5  UNL     1      12.961 100.149 160.497  1.00  0.00     0.007 C 
HETATM    3  C6  UNL     1      14.406 100.466 160.173  1.00  0.00     0.001 C 
HETATM    4  C7  UNL     1      14.428 100.079 158.688  1.00  0.00     0.007 C 
HETATM    5  C8  UNL     1      13.180 100.792 158.218  1.00  0.00     0.017 C 
ENDROOT
BRANCH   5   6
HETATM    6  C9  UNL     1      12.620 100.180 156.961  1.00  0.00     0.234 C 
BRANCH   6   7
HETATM    7  N2  UNL     1      13.495  99.222 156.352  1.00  0.00    -0.079 N 
ATOM      8  H23 UNL     1      14.315  99.059 156.937  1.00  0.00     0.274 HD
ATOM      9  H22 UNL     1      13.082  98.290 156.377  1.00  0.00     0.274 HD
ATOM     10  H21 UNL     1      13.772  99.469 155.402  1.00  0.00     0.274 HD
ENDBRANCH   6   7
ENDBRANCH   5   6
BRANCH   1  11
HETATM   11  C3  UNL     1      11.623 102.074 159.578  1.00  0.00     0.276 C 
BRANCH  11  12
HETATM   12  N1  UNL     1      10.345 102.303 158.991  1.00  0.00     0.080 N 
HETATM   13  C1  UNL     1       9.378 102.386 160.100  1.00  0.00     0.309 C 
HETATM   14  C2  UNL     1      10.226 103.538 158.267  1.00  0.00     0.309 C 
ENDBRANCH  11  12
ENDBRANCH   1  11
TORSDOF 4
ENDMDL
MODEL 2
REMARK VINA RESULT: -4.695405538      1.033      1.151
REMARK  4 active torsions:
REMARK  status: ('A' for Active; 'I' for Inactive)
REMARK    1  A    between atoms: N1_2  and  C3_4 
REMARK    2  A    between atoms: C3_4  and  C4_5 
REMARK    3  A    between atoms: C8_9  and  C9_10 
REMARK    4  A    between atoms: C9_10  and  N2_11 
ROOT
HETATM    1  C4  UNL     1      11.397 101.087 158.702  1.00  0.00     0.019 C 
HETATM    2  C5  UNL     1      11.369 100.496 160.051  1.00  0.00     0.007 C 
HETATM    3  C6  UNL     1      12.828 100.317 160.418  1.00  0.00     0.001 C 
HETATM    4  C7  UNL     1      13.354  99.723 159.104  1.00  0.00     0.007 C 
HETATM    5  C8  UNL     1      12.744 100.695 158.120  1.00  0.00     0.017 C 
ENDROOT
BRANCH   5   6
HETATM    6  C9  UNL     1      12.609 100.096 156.746  1.00  0.00     0.234 C 
BRANCH   6   7
HETATM    7  N2  UNL     1      13.722  99.276 156.367  1.00  0.00    -0.079 N 
ATOM      8  H23 UNL     1      13.541  98.296 156.587  1.00  0.00     0.274 HD
ATOM      9  H22 UNL     1      13.794  99.211 155.352  1.00  0.00     0.274 HD
ATOM     10  H21 UNL     1      14.608  99.579 156.773  1.00  0.00     0.274 HD
ENDBRANCH   6   7
ENDBRANCH   5   6
BRANCH   1  11
HETATM   11  C3  UNL     1      11.279 102.570 158.627  1.00  0.00     0.276 C 
BRANCH  11  12
HETATM   12  N1  UNL     1       9.975 103.100 158.846  1.00  0.00     0.080 N 
HETATM   13  C1  UNL     1      10.074 104.005 160.004  1.00  0.00     0.309 C 
HETATM   14  C2  UNL     1       9.455 103.891 157.765  1.00  0.00     0.309 C 
ENDBRANCH  11  12
ENDBRANCH   1  11
TORSDOF 4
ENDMDL
MODEL 3
REMARK VINA RESULT: -4.562763057      0.999      1.369
REMARK  4 active torsions:
REMARK  status: ('A' for Active; 'I' for Inactive)
REMARK    1  A    between atoms: N1_2  and  C3_4 
REMARK    2  A    between atoms: C3_4  and  C4_5 
REMARK    3  A    between atoms: C8_9  and  C9_10 
REMARK    4  A    between atoms: C9_10  and  N2_11 
ROOT
HETATM    1  C4  UNL     1      12.905 100.583 159.300  1.00  0.00     0.019 C 
HETATM    2  C5  UNL     1      13.529 100.162 160.566  1.00  0.00     0.007 C 
HETATM    3  C6  UNL     1      15.017 100.177 160.280  1.00  0.00     0.001 C 
HETATM    4  C7  UNL     1      15.023  99.482 158.912  1.00  0.00     0.007 C 
HETATM    5  C8  UNL     1      13.925 100.260 158.223  1.00  0.00     0.017 C 
ENDROOT
BRANCH   5   6
HETATM    6  C9  UNL     1      13.314  99.485 157.085  1.00  0.00     0.234 C 
BRANCH   6   7
HETATM    7  N2  UNL     1      12.235 100.173 156.439  1.00  0.00    -0.079 N 
ATOM      8  H23 UNL     1      12.528 100.529 155.529  1.00  0.00     0.274 HD
ATOM      9  H22 UNL     1      11.515  99.514 156.140  1.00  0.00     0.274 HD
ATOM     10  H21 UNL     1      11.830 100.918 157.005  1.00  0.00     0.274 HD
ENDBRANCH   6   7
ENDBRANCH   5   6
BRANCH   1  11
HETATM   11  C3  UNL     1      12.555 102.026 159.182  1.00  0.00     0.276 C 
BRANCH  11  12
HETATM   12  N1  UNL     1      11.235 102.380 159.586  1.00  0.00     0.080 N 
HETATM   13  C1  UNL     1      10.698 103.274 158.546  1.00  0.00     0.309 C 
HETATM   14  C2  UNL     1      10.317 101.279 159.677  1.00  0.00     0.309 C 
ENDBRANCH  11  12
ENDBRANCH   1  11
TORSDOF 4
ENDMDL
MODEL 4
REMARK VINA RESULT: -4.496453004      1.587      2.471
REMARK  4 active torsions:
REMARK  status: ('A' for Active; 'I' for Inactive)
REMARK    1  A    between atoms: N1_2  and  C3_4 
REMARK    2  A    between atoms: C3_4  and  C4_5 
REMARK    3  A    between atoms: C8_9  and  C9_10 
REMARK    4  A    between atoms: C9_10  and  N2_11 
ROOT
HETATM    1  C4  UNL     1      12.528 100.777 158.136  1.00  0.00     0.019 C 
HETATM    2  C5  UNL     1      12.835 100.218 156.808  1.00  0.00     0.007 C 
HETATM    3  C6  UNL     1      13.308  98.807 157.089  1.00  0.00     0.001 C 
HETATM    4  C7  UNL     1      14.246  99.080 158.272  1.00  0.00     0.007 C 
HETATM    5  C8  UNL     1      13.349  99.957 159.115  1.00  0.00     0.017 C 
ENDROOT
BRANCH   5   6
HETATM    6  C9  UNL     1      14.137 100.829 160.056  1.00  0.00     0.234 C 
BRANCH   6   7
HETATM    7  N2  UNL     1      15.045 101.716 159.390  1.00  0.00    -0.079 N 
ATOM      8  H23 UNL     1      14.973 102.660 159.771  1.00  0.00     0.274 HD
ATOM      9  H22 UNL     1      16.009 101.503 159.644  1.00  0.00     0.274 HD
ATOM     10  H21 UNL     1      14.933 101.727 158.376  1.00  0.00     0.274 HD
ENDBRANCH   6   7
ENDBRANCH   5   6
BRANCH   1  11
HETATM   11  C3  UNL     1      11.104 100.716 158.567  1.00  0.00     0.276 C 
BRANCH  11  12
HETATM   12  N1  UNL     1      10.471 101.972 158.796  1.00  0.00     0.080 N 
HETATM   13  C1  UNL     1       9.868 101.904 160.138  1.00  0.00     0.309 C 
HETATM   14  C2  UNL     1      11.359 103.100 158.815  1.00  0.00     0.309 C 
ENDBRANCH  11  12
ENDBRANCH   1  11
TORSDOF 4
ENDMDL
MODEL 5
REMARK VINA RESULT: -4.370293456      1.596      2.682
REMARK  4 active torsions:
REMARK  status: ('A' for Active; 'I' for Inactive)
REMARK    1  A    between atoms: N1_2  and  C3_4 
REMARK    2  A    between atoms: C3_4  and  C4_5 
REMARK    3  A    between atoms: C8_9  and  C9_10 
REMARK    4  A    between atoms: C9_10  and  N2_11 
ROOT
HETATM    1  C4  UNL     1      12.704 100.754 158.212  1.00  0.00     0.019 C 
HETATM    2  C5  UNL     1      12.824 100.247 156.834  1.00  0.00     0.007 C 
HETATM    3  C6  UNL     1      13.243  98.800 156.996  1.00  0.00     0.001 C 
HETATM    4  C7  UNL     1      14.326  98.965 158.071  1.00  0.00     0.007 C 
HETATM    5  C8  UNL     1      13.583  99.844 159.051  1.00  0.00     0.017 C 
ENDROOT
BRANCH   5   6
HETATM    6  C9  UNL     1      14.522 100.627 159.931  1.00  0.00     0.234 C 
BRANCH   6   7
HETATM    7  N2  UNL     1      15.043 101.806 159.305  1.00  0.00    -0.079 N 
ATOM      8  H23 UNL     1      14.727 102.644 159.793  1.00  0.00     0.274 HD
ATOM      9  H22 UNL     1      16.048 101.885 159.465  1.00  0.00     0.274 HD
ATOM     10  H21 UNL     1      14.831 101.866 158.309  1.00  0.00     0.274 HD
ENDBRANCH   6   7
ENDBRANCH   5   6
BRANCH   1  11
HETATM   11  C3  UNL     1      11.337 100.745 158.804  1.00  0.00     0.276 C 
BRANCH  11  12
HETATM   12  N1  UNL     1      11.069 101.768 159.759  1.00  0.00     0.080 N 
HETATM   13  C1  UNL     1      11.397 103.050 159.111  1.00  0.00     0.309 C 
HETATM   14  C2  UNL     1       9.695 101.868 160.167  1.00  0.00     0.309 C 
ENDBRANCH  11  12
ENDBRANCH   1  11
TORSDOF 4
ENDMDL
