MODEL 1
REMARK VINA RESULT: -5.334207339      0.000      0.000
REMARK  4 active torsions:
REMARK  status: ('A' for Active; 'I' for Inactive)
REMARK    1  A    between atoms: N1_2  and  C3_4 
REMARK    2  A    between atoms: C3_4  and  C4_5 
REMARK    3  A    between atoms: C6_7  and  C7_8 
REMARK    4  A    between atoms: C10_11  and  N2_12 
ROOT
HETATM    1  C4  UNL     1      11.489 101.242 159.890  1.00  0.00     0.045 C 
HETATM    2  C5  UNL     1      12.163  99.965 160.253  1.00  0.00     0.015 C 
HETATM    3  C6  UNL     1      13.075 100.272 159.039  1.00  0.00     0.021 C 
HETATM    4  C10 UNL     1      11.763 100.801 158.430  1.00  0.00     0.193 C 
ENDROOT
BRANCH   1   5
HETATM    5  C3  UNL     1      10.100 101.554 160.196  1.00  0.00     0.278 C 
BRANCH   5   6
HETATM    6  N1  UNL     1       9.703 102.886 160.476  1.00  0.00     0.080 N 
HETATM    7  C1  UNL     1       9.131 103.415 159.212  1.00  0.00     0.309 C 
HETATM    8  C2  UNL     1      10.935 103.683 160.695  1.00  0.00     0.309 C 
ENDBRANCH   5   6
ENDBRANCH   1   5
BRANCH   4   9
HETATM    9  N2  UNL     1      11.929 101.872 157.510  1.00  0.00    -0.074 N 
ATOM     10  H23 UNL     1      11.603 101.596 156.583  1.00  0.00     0.274 HD
ATOM     11  H22 UNL     1      11.267 102.621 157.714  1.00  0.00     0.274 HD
ATOM     12  H21 UNL     1      12.878 102.243 157.456  1.00  0.00     0.274 HD
ENDBRANCH   4   9
BRANCH   3  13
HETATM   13  C7  UNL     1      13.670  99.111 158.356  1.00  0.00    -0.008 A 
HETATM   14  C8  UNL     1      15.129  98.937 158.184  1.00  0.00     0.005 A 
HETATM   15  C9  UNL     1      14.318  99.240 156.969  1.00  0.00     0.005 A 
ENDBRANCH   3  13
TORSDOF 4
ENDMDL
MODEL 2
REMARK VINA RESULT: -5.019367822      1.483      1.907
REMARK  4 active torsions:
REMARK  status: ('A' for Active; 'I' for Inactive)
REMARK    1  A    between atoms: N1_2  and  C3_4 
REMARK    2  A    between atoms: C3_4  and  C4_5 
REMARK    3  A    between atoms: C6_7  and  C7_8 
REMARK    4  A    between atoms: C10_11  and  N2_12 
ROOT
HETATM    1  C4  UNL     1      11.383 101.007 159.055  1.00  0.00     0.045 C 
HETATM    2  C5  UNL     1      11.893 100.713 157.688  1.00  0.00     0.015 C 
HETATM    3  C6  UNL     1      13.051 100.004 158.432  1.00  0.00     0.021 C 
HETATM    4  C10 UNL     1      12.879 101.175 159.419  1.00  0.00     0.193 C 
ENDROOT
BRANCH   1   5
HETATM    5  C3  UNL     1      10.530 102.141 159.389  1.00  0.00     0.278 C 
BRANCH   5   6
HETATM    6  N1  UNL     1      11.092 103.418 159.641  1.00  0.00     0.080 N 
HETATM    7  C1  UNL     1      10.262 104.023 160.713  1.00  0.00     0.309 C 
HETATM    8  C2  UNL     1      10.838 104.261 158.447  1.00  0.00     0.309 C 
ENDBRANCH   5   6
ENDBRANCH   1   5
BRANCH   4   9
HETATM    9  N2  UNL     1      13.199 100.861 160.768  1.00  0.00    -0.074 N 
ATOM     10  H23 UNL     1      12.370 100.939 161.356  1.00  0.00     0.274 HD
ATOM     11  H22 UNL     1      13.390  99.864 160.864  1.00  0.00     0.274 HD
ATOM     12  H21 UNL     1      13.966 101.408 161.161  1.00  0.00     0.274 HD
ENDBRANCH   4   9
BRANCH   3  13
HETATM   13  C7  UNL     1      14.345  99.950 157.730  1.00  0.00    -0.008 A 
HETATM   14  C8  UNL     1      14.795  98.770 156.959  1.00  0.00     0.005 A 
HETATM   15  C9  UNL     1      15.499  99.073 158.240  1.00  0.00     0.005 A 
ENDBRANCH   3  13
TORSDOF 4
ENDMDL
MODEL 3
REMARK VINA RESULT: -4.880175830      0.470      1.042
REMARK  4 active torsions:
REMARK  status: ('A' for Active; 'I' for Inactive)
REMARK    1  A    between atoms: N1_2  and  C3_4 
REMARK    2  A    between atoms: C3_4  and  C4_5 
REMARK    3  A    between atoms: C6_7  and  C7_8 
REMARK    4  A    between atoms: C10_11  and  N2_12 
ROOT
HETATM    1  C4  UNL     1      11.642 101.316 159.895  1.00  0.00     0.045 C 
HETATM    2  C5  UNL     1      12.107  99.930 160.176  1.00  0.00     0.015 C 
HETATM    3  C6  UNL     1      13.176 100.226 159.096  1.00  0.00     0.021 C 
HETATM    4  C10 UNL     1      12.015 100.987 158.428  1.00  0.00     0.193 C 
ENDROOT
BRANCH   1   5
HETATM    5  C3  UNL     1      10.278 101.783 160.102  1.00  0.00     0.278 C 
BRANCH   5   6
HETATM    6  N1  UNL     1       9.881 103.071 159.660  1.00  0.00     0.080 N 
HETATM    7  C1  UNL     1      10.343 104.020 160.705  1.00  0.00     0.309 C 
HETATM    8  C2  UNL     1       8.401 103.129 159.725  1.00  0.00     0.309 C 
ENDBRANCH   5   6
ENDBRANCH   1   5
BRANCH   4   9
HETATM    9  N2  UNL     1      12.413 102.109 157.652  1.00  0.00    -0.074 N 
ATOM     10  H23 UNL     1      12.798 102.837 158.254  1.00  0.00     0.274 HD
ATOM     11  H22 UNL     1      13.239 101.883 157.099  1.00  0.00     0.274 HD
ATOM     12  H21 UNL     1      11.681 102.494 157.054  1.00  0.00     0.274 HD
ENDBRANCH   4   9
BRANCH   3  13
HETATM   13  C7  UNL     1      13.691  99.067 158.346  1.00  0.00    -0.008 A 
HETATM   14  C8  UNL     1      15.133  98.836 158.111  1.00  0.00     0.005 A 
HETATM   15  C9  UNL     1      14.291  99.222 156.941  1.00  0.00     0.005 A 
ENDBRANCH   3  13
TORSDOF 4
ENDMDL
MODEL 4
REMARK VINA RESULT: -4.864226632      1.415      1.999
REMARK  4 active torsions:
REMARK  status: ('A' for Active; 'I' for Inactive)
REMARK    1  A    between atoms: N1_2  and  C3_4 
REMARK    2  A    between atoms: C3_4  and  C4_5 
REMARK    3  A    between atoms: C6_7  and  C7_8 
REMARK    4  A    between atoms: C10_11  and  N2_12 
ROOT
HETATM    1  C4  UNL     1      11.949 101.515 159.503  1.00  0.00     0.045 C 
HETATM    2  C5  UNL     1      12.321 101.373 158.070  1.00  0.00     0.015 C 
HETATM    3  C6  UNL     1      13.199 100.197 158.565  1.00  0.00     0.021 C 
HETATM    4  C10 UNL     1      13.425 101.126 159.774  1.00  0.00     0.193 C 
ENDROOT
BRANCH   1   5
HETATM    5  C3  UNL     1      11.511 102.760 160.120  1.00  0.00     0.278 C 
BRANCH   5   6
HETATM    6  N1  UNL     1      10.134 103.008 160.347  1.00  0.00     0.080 N 
HETATM    7  C1  UNL     1       9.473 101.678 160.335  1.00  0.00     0.309 C 
HETATM    8  C2  UNL     1       9.602 103.704 159.150  1.00  0.00     0.309 C 
ENDBRANCH   5   6
ENDBRANCH   1   5
BRANCH   4   9
HETATM    9  N2  UNL     1      13.643 100.450 161.005  1.00  0.00    -0.074 N 
ATOM     10  H23 UNL     1      13.263 100.994 161.780  1.00  0.00     0.274 HD
ATOM     11  H22 UNL     1      13.051  99.621 161.064  1.00  0.00     0.274 HD
ATOM     12  H21 UNL     1      14.616 100.204 161.188  1.00  0.00     0.274 HD
ENDBRANCH   4   9
BRANCH   3  13
HETATM   13  C7  UNL     1      14.398  99.892 157.766  1.00  0.00    -0.008 A 
HETATM   14  C8  UNL     1      14.382  98.970 156.609  1.00  0.00     0.005 A 
HETATM   15  C9  UNL     1      15.088  98.521 157.845  1.00  0.00     0.005 A 
ENDBRANCH   3  13
TORSDOF 4
ENDMDL
MODEL 5
REMARK VINA RESULT: -4.506024601      1.738      2.125
REMARK  4 active torsions:
REMARK  status: ('A' for Active; 'I' for Inactive)
REMARK    1  A    between atoms: N1_2  and  C3_4 
REMARK    2  A    between atoms: C3_4  and  C4_5 
REMARK    3  A    between atoms: C6_7  and  C7_8 
REMARK    4  A    between atoms: C10_11  and  N2_12 
ROOT
HETATM    1  C4  UNL     1      11.567 102.476 158.765  1.00  0.00     0.045 C 
HETATM    2  C5  UNL     1      12.954 102.186 158.309  1.00  0.00     0.015 C 
HETATM    3  C6  UNL     1      12.557 100.704 158.521  1.00  0.00     0.021 C 
HETATM    4  C10 UNL     1      11.789 101.281 159.726  1.00  0.00     0.193 C 
ENDROOT
BRANCH   1   5
HETATM    5  C3  UNL     1      11.154 103.719 159.403  1.00  0.00     0.278 C 
BRANCH   5   6
HETATM    6  N1  UNL     1      10.325 104.643 158.717  1.00  0.00     0.080 N 
HETATM    7  C1  UNL     1       9.499 103.834 157.785  1.00  0.00     0.309 C 
HETATM    8  C2  UNL     1      11.197 105.458 157.837  1.00  0.00     0.309 C 
ENDBRANCH   5   6
ENDBRANCH   1   5
BRANCH   4   9
HETATM    9  N2  UNL     1      10.608 100.569 160.068  1.00  0.00    -0.074 N 
ATOM     10  H23 UNL     1       9.902 101.209 160.433  1.00  0.00     0.274 HD
ATOM     11  H22 UNL     1      10.133 100.244 159.226  1.00  0.00     0.274 HD
ATOM     12  H21 UNL     1      10.751  99.794 160.715  1.00  0.00     0.274 HD
ENDBRANCH   4   9
BRANCH   3  13
HETATM   13  C7  UNL     1      13.650  99.773 158.850  1.00  0.00    -0.008 A 
HETATM   14  C8  UNL     1      14.974  99.819 158.190  1.00  0.00     0.005 A 
HETATM   15  C9  UNL     1      14.080  98.664 157.879  1.00  0.00     0.005 A 
ENDBRANCH   3  13
TORSDOF 4
ENDMDL
