MODEL 1
REMARK VINA RESULT: -6.195121455      0.000      0.000
REMARK  3 active torsions:
REMARK  status: ('A' for Active; 'I' for Inactive)
REMARK    1  A    between atoms: C2_2  and  C5_5 
REMARK    2  A    between atoms: C7_9  and  N2_10 
REMARK    3  A    between atoms: N2_10  and  C8_12 
ROOT
HETATM    1  C5  UNL     1      11.705  19.269 -14.315  1.00  0.00     0.018 C 
HETATM    2  C6  UNL     1      11.914  18.210 -13.290  1.00  0.00     0.126 C 
HETATM    3  N1  UNL     1      12.401  18.947 -12.141  1.00  0.00    -0.380 N 
ATOM      4  H1  UNL     1      12.924  18.534 -11.368  1.00  0.00     0.160 HD
HETATM    5  C7  UNL     1      12.086  20.194 -12.227  1.00  0.00     0.073 C 
HETATM    6  C14 UNL     1      11.326  20.467 -13.477  1.00  0.00     0.082 C 
ENDROOT
BRANCH   5   7
HETATM    7  N2  UNL     1      12.438  21.149 -11.235  1.00  0.00    -0.374 N 
ATOM      8  H2  UNL     1      12.711  20.811 -10.313  1.00  0.00     0.161 HD
BRANCH   7   9
HETATM    9  C8  UNL     1      12.428  22.573 -11.466  1.00  0.00     0.101 C 
HETATM   10  C9  UNL     1      13.824  23.088 -11.565  1.00  0.00     0.026 C 
HETATM   11  C10 UNL     1      14.038  24.359 -10.759  1.00  0.00     0.002 C 
HETATM   12  C11 UNL     1      13.671  24.017  -9.329  1.00  0.00     0.002 C 
HETATM   13  C12 UNL     1      12.219  23.638  -9.200  1.00  0.00     0.022 C 
HETATM   14  C13 UNL     1      11.562  23.322 -10.496  1.00  0.00     0.105 C 
HETATM   15 CL1  UNL     1      10.859  24.779 -11.255  1.00  0.00    -0.123 Cl
ENDBRANCH   7   9
ENDBRANCH   5   7
BRANCH   1  16
HETATM   16  C2  UNL     1      10.695  18.936 -15.365  1.00  0.00    -0.046 C 
HETATM   17  C1  UNL     1      11.239  18.864 -16.748  1.00  0.00     0.015 C 
HETATM   18  C3  UNL     1      10.074  17.603 -15.012  1.00  0.00     0.015 C 
HETATM   19  C4  UNL     1       9.606  19.974 -15.324  1.00  0.00     0.015 C 
ENDBRANCH   1  16
TORSDOF 3
ENDMDL
MODEL 2
REMARK VINA RESULT: -6.171271362      0.264      1.055
REMARK  3 active torsions:
REMARK  status: ('A' for Active; 'I' for Inactive)
REMARK    1  A    between atoms: C2_2  and  C5_5 
REMARK    2  A    between atoms: C7_9  and  N2_10 
REMARK    3  A    between atoms: N2_10  and  C8_12 
ROOT
HETATM    1  C5  UNL     1      11.676  19.267 -14.219  1.00  0.00     0.018 C 
HETATM    2  C6  UNL     1      11.957  18.231 -13.189  1.00  0.00     0.126 C 
HETATM    3  N1  UNL     1      12.518  18.992 -12.091  1.00  0.00    -0.380 N 
ATOM      4  H1  UNL     1      13.093  18.596 -11.346  1.00  0.00     0.160 HD
HETATM    5  C7  UNL     1      12.194  20.237 -12.181  1.00  0.00     0.073 C 
HETATM    6  C14 UNL     1      11.351  20.482 -13.382  1.00  0.00     0.082 C 
ENDROOT
BRANCH   5   7
HETATM    7  N2  UNL     1      12.610  21.214 -11.235  1.00  0.00    -0.374 N 
ATOM      8  H2  UNL     1      13.041  20.894 -10.368  1.00  0.00     0.161 HD
BRANCH   7   9
HETATM    9  C8  UNL     1      12.452  22.632 -11.439  1.00  0.00     0.101 C 
HETATM   10  C9  UNL     1      13.752  23.243 -11.837  1.00  0.00     0.026 C 
HETATM   11  C10 UNL     1      14.053  24.528 -11.081  1.00  0.00     0.002 C 
HETATM   12  C11 UNL     1      14.035  24.163  -9.609  1.00  0.00     0.002 C 
HETATM   13  C12 UNL     1      12.676  23.684  -9.168  1.00  0.00     0.022 C 
HETATM   14  C13 UNL     1      11.773  23.321 -10.291  1.00  0.00     0.105 C 
HETATM   15 CL1  UNL     1      10.821  24.724 -10.857  1.00  0.00    -0.123 Cl
ENDBRANCH   7   9
ENDBRANCH   5   7
BRANCH   1  16
HETATM   16  C2  UNL     1      10.599  18.912 -15.191  1.00  0.00    -0.046 C 
HETATM   17  C1  UNL     1       9.473  19.882 -15.251  1.00  0.00     0.015 C 
HETATM   18  C3  UNL     1      11.224  18.801 -16.563  1.00  0.00     0.015 C 
HETATM   19  C4  UNL     1      10.054  17.557 -14.825  1.00  0.00     0.015 C 
ENDBRANCH   1  16
TORSDOF 3
ENDMDL
MODEL 3
REMARK VINA RESULT: -5.838518867      1.864      6.231
REMARK  3 active torsions:
REMARK  status: ('A' for Active; 'I' for Inactive)
REMARK    1  A    between atoms: C2_2  and  C5_5 
REMARK    2  A    between atoms: C7_9  and  N2_10 
REMARK    3  A    between atoms: N2_10  and  C8_12 
ROOT
HETATM    1  C5  UNL     1      12.486  23.977 -11.327  1.00  0.00     0.018 C 
HETATM    2  C6  UNL     1      11.967  23.401 -10.057  1.00  0.00     0.126 C 
HETATM    3  N1  UNL     1      11.960  21.975 -10.314  1.00  0.00    -0.380 N 
ATOM      4  H1  UNL     1      11.400  21.297  -9.796  1.00  0.00     0.160 HD
HETATM    5  C7  UNL     1      12.756  21.678 -11.284  1.00  0.00     0.073 C 
HETATM    6  C14 UNL     1      13.419  22.896 -11.821  1.00  0.00     0.082 C 
ENDROOT
BRANCH   5   7
HETATM    7  N2  UNL     1      12.945  20.348 -11.748  1.00  0.00    -0.374 N 
ATOM      8  H2  UNL     1      13.899  20.003 -11.853  1.00  0.00     0.161 HD
BRANCH   7   9
HETATM    9  C8  UNL     1      11.857  19.460 -12.077  1.00  0.00     0.101 C 
HETATM   10  C9  UNL     1      12.382  18.204 -12.683  1.00  0.00     0.026 C 
HETATM   11  C10 UNL     1      11.610  17.784 -13.925  1.00  0.00     0.002 C 
HETATM   12  C11 UNL     1      11.701  18.950 -14.890  1.00  0.00     0.002 C 
HETATM   13  C12 UNL     1      11.037  20.185 -14.339  1.00  0.00     0.022 C 
HETATM   14  C13 UNL     1      10.775  20.126 -12.877  1.00  0.00     0.105 C 
HETATM   15 CL1  UNL     1       9.178  19.408 -12.518  1.00  0.00    -0.123 Cl
ENDBRANCH   7   9
ENDBRANCH   5   7
BRANCH   1  16
HETATM   16  C2  UNL     1      13.144  25.311 -11.190  1.00  0.00    -0.046 C 
HETATM   17  C1  UNL     1      12.260  26.388 -10.667  1.00  0.00     0.015 C 
HETATM   18  C3  UNL     1      14.328  25.156 -10.262  1.00  0.00     0.015 C 
HETATM   19  C4  UNL     1      13.669  25.726 -12.538  1.00  0.00     0.015 C 
ENDBRANCH   1  16
TORSDOF 3
ENDMDL
MODEL 4
REMARK VINA RESULT: -5.830644316      5.275      6.730
REMARK  3 active torsions:
REMARK  status: ('A' for Active; 'I' for Inactive)
REMARK    1  A    between atoms: C2_2  and  C5_5 
REMARK    2  A    between atoms: C7_9  and  N2_10 
REMARK    3  A    between atoms: N2_10  and  C8_12 
ROOT
HETATM    1  C5  UNL     1      10.537  20.010 -15.747  1.00  0.00     0.018 C 
HETATM    2  C6  UNL     1      11.530  18.915 -15.579  1.00  0.00     0.126 C 
HETATM    3  N1  UNL     1      11.005  18.155 -14.462  1.00  0.00    -0.380 N 
ATOM      4  H1  UNL     1      11.557  17.523 -13.882  1.00  0.00     0.160 HD
HETATM    5  C7  UNL     1       9.747  18.386 -14.299  1.00  0.00     0.073 C 
HETATM    6  C14 UNL     1       9.248  19.355 -15.311  1.00  0.00     0.082 C 
ENDROOT
BRANCH   5   7
HETATM    7  N2  UNL     1       8.976  17.772 -13.275  1.00  0.00    -0.374 N 
ATOM      8  H2  UNL     1       9.292  17.865 -12.310  1.00  0.00     0.161 HD
BRANCH   7   9
HETATM    9  C8  UNL     1       7.769  17.025 -13.530  1.00  0.00     0.101 C 
HETATM   10  C9  UNL     1       6.597  17.944 -13.589  1.00  0.00     0.026 C 
HETATM   11  C10 UNL     1       5.406  17.427 -12.798  1.00  0.00     0.002 C 
HETATM   12  C11 UNL     1       5.896  17.240 -11.376  1.00  0.00     0.002 C 
HETATM   13  C12 UNL     1       6.982  16.199 -11.291  1.00  0.00     0.022 C 
HETATM   14  C13 UNL     1       7.591  15.858 -12.603  1.00  0.00     0.105 C 
HETATM   15 CL1  UNL     1       6.718  14.523 -13.412  1.00  0.00    -0.123 Cl
ENDBRANCH   7   9
ENDBRANCH   5   7
BRANCH   1  16
HETATM   16  C2  UNL     1      10.471  20.593 -17.121  1.00  0.00    -0.046 C 
HETATM   17  C1  UNL     1      11.061  19.738 -18.187  1.00  0.00     0.015 C 
HETATM   18  C3  UNL     1       9.018  20.853 -17.450  1.00  0.00     0.015 C 
HETATM   19  C4  UNL     1      11.184  21.918 -17.112  1.00  0.00     0.015 C 
ENDBRANCH   1  16
TORSDOF 3
ENDMDL
MODEL 5
REMARK VINA RESULT: -5.829022683      4.355      6.213
REMARK  3 active torsions:
REMARK  status: ('A' for Active; 'I' for Inactive)
REMARK    1  A    between atoms: C2_2  and  C5_5 
REMARK    2  A    between atoms: C7_9  and  N2_10 
REMARK    3  A    between atoms: N2_10  and  C8_12 
ROOT
HETATM    1  C5  UNL     1       5.527  17.494 -12.864  1.00  0.00     0.018 C 
HETATM    2  C6  UNL     1       5.928  17.818 -11.468  1.00  0.00     0.126 C 
HETATM    3  N1  UNL     1       7.374  17.732 -11.507  1.00  0.00    -0.380 N 
ATOM      4  H1  UNL     1       7.968  17.599 -10.688  1.00  0.00     0.160 HD
HETATM    5  C7  UNL     1       7.810  17.847 -12.716  1.00  0.00     0.073 C 
HETATM    6  C14 UNL     1       6.685  18.029 -13.672  1.00  0.00     0.082 C 
ENDROOT
BRANCH   5   7
HETATM    7  N2  UNL     1       9.192  17.800 -13.046  1.00  0.00    -0.374 N 
ATOM      8  H2  UNL     1       9.574  16.924 -13.402  1.00  0.00     0.161 HD
BRANCH   7   9
HETATM    9  C8  UNL     1      10.080  18.927 -12.903  1.00  0.00     0.101 C 
HETATM   10  C9  UNL     1       9.551  20.098 -13.660  1.00  0.00     0.026 C 
HETATM   11  C10 UNL     1      10.621  20.797 -14.483  1.00  0.00     0.002 C 
HETATM   12  C11 UNL     1      11.190  19.744 -15.413  1.00  0.00     0.002 C 
HETATM   13  C12 UNL     1      11.859  18.629 -14.652  1.00  0.00     0.022 C 
HETATM   14  C13 UNL     1      11.511  18.592 -13.207  1.00  0.00     0.105 C 
HETATM   15 CL1  UNL     1      12.625  19.594 -12.232  1.00  0.00    -0.123 Cl
ENDBRANCH   7   9
ENDBRANCH   5   7
BRANCH   1  16
HETATM   16  C2  UNL     1       4.205  18.050 -13.283  1.00  0.00    -0.046 C 
HETATM   17  C1  UNL     1       3.328  17.089 -14.005  1.00  0.00     0.015 C 
HETATM   18  C3  UNL     1       3.486  18.533 -12.043  1.00  0.00     0.015 C 
HETATM   19  C4  UNL     1       4.448  19.244 -14.166  1.00  0.00     0.015 C 
ENDBRANCH   1  16
TORSDOF 3
ENDMDL
