MODEL 1
REMARK VINA RESULT: -5.785256601      0.000      0.000
REMARK  3 active torsions:
REMARK  status: ('A' for Active; 'I' for Inactive)
REMARK    1  A    between atoms: C5_5  and  O1_6 
REMARK    2  A    between atoms: C8_10  and  C9_11 
REMARK    3  A    between atoms: C12_14  and  O2_15 
ROOT
HETATM    1  C1  UNL     1      10.197  21.606  -9.791  1.00  0.00     0.015 C 
HETATM    2  C2  UNL     1      11.163  22.335 -10.311  1.00  0.00    -0.084 C 
HETATM    3  C3  UNL     1      11.227  23.792 -10.111  1.00  0.00     0.036 C 
HETATM    4  C4  UNL     1      12.602  24.143  -9.663  1.00  0.00     0.036 C 
HETATM    5  C5  UNL     1      13.703  23.262 -10.094  1.00  0.00     0.122 C 
HETATM    6  C6  UNL     1      13.413  22.448 -11.362  1.00  0.00     0.019 C 
HETATM    7  C7  UNL     1      13.497  23.380 -12.494  1.00  0.00     0.013 C 
HETATM    8  C8  UNL     1      12.209  21.651 -11.117  1.00  0.00     0.025 C 
ENDROOT
BRANCH   8   9
HETATM    9  C9  UNL     1      11.539  20.980 -12.264  1.00  0.00     0.013 C 
HETATM   10  C10 UNL     1      10.898  21.881 -13.265  1.00  0.00     0.009 C 
HETATM   11  C11 UNL     1      11.072  21.413 -14.693  1.00  0.00     0.032 C 
HETATM   12  C12 UNL     1      10.814  19.932 -14.794  1.00  0.00     0.119 C 
HETATM   13  C13 UNL     1      11.766  19.142 -13.947  1.00  0.00     0.052 C 
HETATM   14  C14 UNL     1      12.439  19.929 -12.877  1.00  0.00     0.089 C 
HETATM   15 CL1  UNL     1      12.808  18.787 -11.543  1.00  0.00    -0.124 Cl
BRANCH  12  16
HETATM   16  O2  UNL     1       9.487  19.726 -14.370  1.00  0.00    -0.396 OA
ATOM     17  H2  UNL     1       8.940  19.807 -15.143  1.00  0.00     0.210 HD
ENDBRANCH  12  16
ENDBRANCH   8   9
BRANCH   5  18
HETATM   18  O1  UNL     1      14.860  24.013 -10.303  1.00  0.00    -0.395 OA
ATOM     19  H1  UNL     1      14.807  24.468 -11.135  1.00  0.00     0.210 HD
ENDBRANCH   5  18
TORSDOF 3
ENDMDL
MODEL 2
REMARK VINA RESULT: -5.724587163      4.177      5.894
REMARK  3 active torsions:
REMARK  status: ('A' for Active; 'I' for Inactive)
REMARK    1  A    between atoms: C5_5  and  O1_6 
REMARK    2  A    between atoms: C8_10  and  C9_11 
REMARK    3  A    between atoms: C12_14  and  O2_15 
ROOT
HETATM    1  C1  UNL     1      11.522  18.987 -12.633  1.00  0.00     0.015 C 
HETATM    2  C2  UNL     1      10.786  19.480 -13.606  1.00  0.00    -0.084 C 
HETATM    3  C3  UNL     1      10.855  20.901 -13.986  1.00  0.00     0.036 C 
HETATM    4  C4  UNL     1      11.026  20.982 -15.463  1.00  0.00     0.036 C 
HETATM    5  C5  UNL     1      10.482  19.877 -16.272  1.00  0.00     0.122 C 
HETATM    6  C6  UNL     1       9.353  19.085 -15.599  1.00  0.00     0.019 C 
HETATM    7  C7  UNL     1       8.153  19.930 -15.649  1.00  0.00     0.013 C 
HETATM    8  C8  UNL     1       9.866  18.563 -14.332  1.00  0.00     0.025 C 
ENDROOT
BRANCH   8   9
HETATM    9  C9  UNL     1       8.912  17.994 -13.343  1.00  0.00     0.013 C 
HETATM   10  C10 UNL     1       8.029  18.974 -12.647  1.00  0.00     0.009 C 
HETATM   11  C11 UNL     1       6.616  18.473 -12.443  1.00  0.00     0.032 C 
HETATM   12  C12 UNL     1       6.631  17.048 -11.953  1.00  0.00     0.119 C 
HETATM   13  C13 UNL     1       7.294  16.128 -12.933  1.00  0.00     0.052 C 
HETATM   14  C14 UNL     1       8.169  16.811 -13.926  1.00  0.00     0.089 C 
HETATM   15 CL1  UNL     1       9.443  15.636 -14.394  1.00  0.00    -0.124 Cl
BRANCH  12  16
HETATM   16  O2  UNL     1       7.329  17.053 -10.729  1.00  0.00    -0.396 OA
ATOM     17  H2  UNL     1       7.954  16.337 -10.771  1.00  0.00     0.210 HD
ENDBRANCH  12  16
ENDBRANCH   8   9
BRANCH   5  18
HETATM   18  O1  UNL     1      10.015  20.366 -17.493  1.00  0.00    -0.395 OA
ATOM     19  H1  UNL     1      10.748  20.609 -18.047  1.00  0.00     0.210 HD
ENDBRANCH   5  18
TORSDOF 3
ENDMDL
MODEL 3
REMARK VINA RESULT: -5.698550559      3.688      5.679
REMARK  3 active torsions:
REMARK  status: ('A' for Active; 'I' for Inactive)
REMARK    1  A    between atoms: C5_5  and  O1_6 
REMARK    2  A    between atoms: C8_10  and  C9_11 
REMARK    3  A    between atoms: C12_14  and  O2_15 
ROOT
HETATM    1  C1  UNL     1      14.419  24.010 -10.163  1.00  0.00     0.015 C 
HETATM    2  C2  UNL     1      13.192  23.764 -10.572  1.00  0.00    -0.084 C 
HETATM    3  C3  UNL     1      12.710  22.391 -10.795  1.00  0.00     0.036 C 
HETATM    4  C4  UNL     1      11.407  22.233 -10.094  1.00  0.00     0.036 C 
HETATM    5  C5  UNL     1      10.580  23.441  -9.916  1.00  0.00     0.122 C 
HETATM    6  C6  UNL     1      10.865  24.566 -10.920  1.00  0.00     0.019 C 
HETATM    7  C7  UNL     1      10.275  24.153 -12.200  1.00  0.00     0.013 C 
HETATM    8  C8  UNL     1      12.282  24.917 -10.810  1.00  0.00     0.025 C 
ENDROOT
BRANCH   8   9
HETATM    9  C9  UNL     1      12.898  25.780 -11.853  1.00  0.00     0.013 C 
HETATM   10  C10 UNL     1      13.063  25.162 -13.201  1.00  0.00     0.009 C 
HETATM   11  C11 UNL     1      12.776  26.115 -14.340  1.00  0.00     0.032 C 
HETATM   12  C12 UNL     1      13.424  27.451 -14.081  1.00  0.00     0.119 C 
HETATM   13  C13 UNL     1      12.907  28.087 -12.826  1.00  0.00     0.052 C 
HETATM   14  C14 UNL     1      12.241  27.143 -11.885  1.00  0.00     0.089 C 
HETATM   15 CL1  UNL     1      12.462  27.812 -10.233  1.00  0.00    -0.124 Cl
BRANCH  12  16
HETATM   16  O2  UNL     1      14.809  27.211 -13.980  1.00  0.00    -0.396 OA
ATOM     17  H2  UNL     1      15.236  28.056 -14.063  1.00  0.00     0.210 HD
ENDBRANCH  12  16
ENDBRANCH   8   9
BRANCH   5  18
HETATM   18  O1  UNL     1       9.227  23.109  -9.993  1.00  0.00    -0.395 OA
ATOM     19  H1  UNL     1       8.997  22.890 -10.889  1.00  0.00     0.210 HD
ENDBRANCH   5  18
TORSDOF 3
ENDMDL
MODEL 4
REMARK VINA RESULT: -5.649120610      3.789      5.284
REMARK  3 active torsions:
REMARK  status: ('A' for Active; 'I' for Inactive)
REMARK    1  A    between atoms: C5_5  and  O1_6 
REMARK    2  A    between atoms: C8_10  and  C9_11 
REMARK    3  A    between atoms: C12_14  and  O2_15 
ROOT
HETATM    1  C1  UNL     1       9.901  21.878 -12.978  1.00  0.00     0.015 C 
HETATM    2  C2  UNL     1      10.576  20.861 -13.471  1.00  0.00    -0.084 C 
HETATM    3  C3  UNL     1      11.877  20.453 -12.916  1.00  0.00     0.036 C 
HETATM    4  C4  UNL     1      11.843  18.985 -12.674  1.00  0.00     0.036 C 
HETATM    5  C5  UNL     1      10.955  18.176 -13.528  1.00  0.00     0.122 C 
HETATM    6  C6  UNL     1      10.610  18.813 -14.880  1.00  0.00     0.019 C 
HETATM    7  C7  UNL     1      11.806  18.689 -15.725  1.00  0.00     0.013 C 
HETATM    8  C8  UNL     1       9.993  20.114 -14.618  1.00  0.00     0.025 C 
ENDROOT
BRANCH   8   9
HETATM    9  C9  UNL     1       9.812  21.070 -15.743  1.00  0.00     0.013 C 
HETATM   10  C10 UNL     1      11.056  21.694 -16.279  1.00  0.00     0.009 C 
HETATM   11  C11 UNL     1      11.057  21.841 -17.784  1.00  0.00     0.032 C 
HETATM   12  C12 UNL     1       9.729  22.372 -18.259  1.00  0.00     0.119 C 
HETATM   13  C13 UNL     1       8.601  21.452 -17.901  1.00  0.00     0.052 C 
HETATM   14  C14 UNL     1       8.915  20.484 -16.812  1.00  0.00     0.089 C 
HETATM   15 CL1  UNL     1       7.368  20.113 -15.981  1.00  0.00    -0.124 Cl
BRANCH  12  16
HETATM   16  O2  UNL     1       9.557  23.628 -17.644  1.00  0.00    -0.396 OA
ATOM     17  H2  UNL     1       8.644  23.678 -17.383  1.00  0.00     0.210 HD
ENDBRANCH  12  16
ENDBRANCH   8   9
BRANCH   5  18
HETATM   18  O1  UNL     1      11.526  16.924 -13.759  1.00  0.00    -0.395 OA
ATOM     19  H1  UNL     1      11.508  16.406 -12.962  1.00  0.00     0.210 HD
ENDBRANCH   5  18
TORSDOF 3
ENDMDL
MODEL 5
REMARK VINA RESULT: -5.633590089      2.775      5.215
REMARK  3 active torsions:
REMARK  status: ('A' for Active; 'I' for Inactive)
REMARK    1  A    between atoms: C5_5  and  O1_6 
REMARK    2  A    between atoms: C8_10  and  C9_11 
REMARK    3  A    between atoms: C12_14  and  O2_15 
ROOT
HETATM    1  C1  UNL     1      13.142  21.285 -11.503  1.00  0.00     0.015 C 
HETATM    2  C2  UNL     1      11.915  21.640 -11.185  1.00  0.00    -0.084 C 
HETATM    3  C3  UNL     1      10.740  20.959 -11.753  1.00  0.00     0.036 C 
HETATM    4  C4  UNL     1       9.823  20.598 -10.637  1.00  0.00     0.036 C 
HETATM    5  C5  UNL     1       9.855  21.444  -9.430  1.00  0.00     0.122 C 
HETATM    6  C6  UNL     1      10.383  22.866  -9.658  1.00  0.00     0.019 C 
HETATM    7  C7  UNL     1       9.320  23.608 -10.349  1.00  0.00     0.013 C 
HETATM    8  C8  UNL     1      11.729  22.760 -10.223  1.00  0.00     0.025 C 
ENDROOT
BRANCH   8   9
HETATM    9  C9  UNL     1      12.371  23.971 -10.801  1.00  0.00     0.013 C 
HETATM   10  C10 UNL     1      11.685  24.575 -11.980  1.00  0.00     0.009 C 
HETATM   11  C11 UNL     1      11.695  26.088 -11.973  1.00  0.00     0.032 C 
HETATM   12  C12 UNL     1      13.062  26.601 -11.599  1.00  0.00     0.119 C 
HETATM   13  C13 UNL     1      13.472  26.146 -10.231  1.00  0.00     0.052 C 
HETATM   14  C14 UNL     1      12.713  24.971  -9.718  1.00  0.00     0.089 C 
HETATM   15 CL1  UNL     1      13.805  24.095  -8.594  1.00  0.00    -0.124 Cl
BRANCH  12  16
HETATM   16  O2  UNL     1      13.954  26.111 -12.572  1.00  0.00    -0.396 OA
ATOM     17  H2  UNL     1      13.897  25.162 -12.538  1.00  0.00     0.210 HD
ENDBRANCH  12  16
ENDBRANCH   8   9
BRANCH   5  18
HETATM   18  O1  UNL     1       8.579  21.527  -8.872  1.00  0.00    -0.395 OA
ATOM     19  H1  UNL     1       8.546  21.033  -8.061  1.00  0.00     0.210 HD
ENDBRANCH   5  18
TORSDOF 3
ENDMDL
