MODEL 1
REMARK VINA RESULT: -6.349897606      0.000      0.000
REMARK  1 active torsions:
REMARK  status: ('A' for Active; 'I' for Inactive)
REMARK    1  A    between atoms: C13_14  and  C14_16 
ROOT
HETATM    1  C1  UNL     1      11.168  20.433 -13.814  1.00  0.00     0.021 C 
HETATM    2  C2  UNL     1      11.773  21.347 -13.107  1.00  0.00    -0.042 C 
HETATM    3  C3  UNL     1      12.633  20.998 -11.917  1.00  0.00     0.042 C 
HETATM    4  C4  UNL     1      12.143  21.743 -10.702  1.00  0.00     0.034 C 
HETATM    5  C5  UNL     1      11.828  23.182 -10.943  1.00  0.00     0.136 C 
HETATM    6  N1  UNL     1      12.112  23.649 -12.290  1.00  0.00    -0.364 N 
HETATM    7  C6  UNL     1      11.708  22.794 -13.353  1.00  0.00     0.027 C 
HETATM    8  C7  UNL     1      11.291  23.209 -14.521  1.00  0.00     0.043 C 
HETATM    9  C8  UNL     1      12.752  24.894 -12.627  1.00  0.00     0.026 C 
HETATM   10  C9  UNL     1      13.678  24.796 -13.817  1.00  0.00     0.038 C 
HETATM   11  C10 UNL     1      11.762  26.036 -12.832  1.00  0.00     0.038 C 
HETATM   12  C11 UNL     1      13.647  25.334 -11.457  1.00  0.00     0.034 C 
HETATM   13  C12 UNL     1      12.739  25.394 -10.237  1.00  0.00     0.060 C 
HETATM   14  C13 UNL     1      12.497  23.959  -9.855  1.00  0.00     0.211 C 
HETATM   15  F1  UNL     1      13.753  23.409  -9.556  1.00  0.00    -0.229 F 
ENDROOT
BRANCH  14  16
HETATM   16  C14 UNL     1      11.661  23.857  -8.622  1.00  0.00     0.216 C 
HETATM   17  O1  UNL     1      10.450  23.521  -8.680  1.00  0.00    -0.645 OA
HETATM   18  O2  UNL     1      12.304  24.156  -7.416  1.00  0.00    -0.645 OA
ENDBRANCH  14  16
TORSDOF 1
ENDMDL
MODEL 2
REMARK VINA RESULT: -6.319457197      1.659      2.067
REMARK  1 active torsions:
REMARK  status: ('A' for Active; 'I' for Inactive)
REMARK    1  A    between atoms: C13_14  and  C14_16 
ROOT
HETATM    1  C1  UNL     1      11.510  18.975 -14.290  1.00  0.00     0.021 C 
HETATM    2  C2  UNL     1      11.671  20.027 -13.535  1.00  0.00    -0.042 C 
HETATM    3  C3  UNL     1      12.287  19.938 -12.161  1.00  0.00     0.042 C 
HETATM    4  C4  UNL     1      11.348  20.534 -11.145  1.00  0.00     0.034 C 
HETATM    5  C5  UNL     1      10.734  21.832 -11.555  1.00  0.00     0.136 C 
HETATM    6  N1  UNL     1      11.195  22.343 -12.836  1.00  0.00    -0.364 N 
HETATM    7  C6  UNL     1      11.290  21.399 -13.895  1.00  0.00     0.027 C 
HETATM    8  C7  UNL     1      11.066  21.673 -15.154  1.00  0.00     0.043 C 
HETATM    9  C8  UNL     1      11.548  23.711 -13.112  1.00  0.00     0.026 C 
HETATM   10  C9  UNL     1      12.721  23.855 -14.054  1.00  0.00     0.038 C 
HETATM   11  C10 UNL     1      10.371  24.539 -13.617  1.00  0.00     0.038 C 
HETATM   12  C11 UNL     1      11.996  24.391 -11.808  1.00  0.00     0.034 C 
HETATM   13  C12 UNL     1      10.843  24.215 -10.830  1.00  0.00     0.060 C 
HETATM   14  C13 UNL     1      10.901  22.773 -10.406  1.00  0.00     0.211 C 
HETATM   15  F1  UNL     1      12.150  22.587  -9.793  1.00  0.00    -0.229 F 
ENDROOT
BRANCH  14  16
HETATM   16  C14 UNL     1       9.854  22.461  -9.387  1.00  0.00     0.216 C 
HETATM   17  O1  UNL     1      10.144  22.340  -8.170  1.00  0.00    -0.645 OA
HETATM   18  O2  UNL     1       8.549  22.315  -9.871  1.00  0.00    -0.645 OA
ENDBRANCH  14  16
TORSDOF 1
ENDMDL
MODEL 3
REMARK VINA RESULT: -6.258584838      2.231      4.103
REMARK  1 active torsions:
REMARK  status: ('A' for Active; 'I' for Inactive)
REMARK    1  A    between atoms: C13_14  and  C14_16 
ROOT
HETATM    1  C1  UNL     1       9.785  28.040 -10.908  1.00  0.00     0.021 C 
HETATM    2  C2  UNL     1      10.210  26.831 -11.155  1.00  0.00    -0.042 C 
HETATM    3  C3  UNL     1       9.301  25.761 -11.706  1.00  0.00     0.042 C 
HETATM    4  C4  UNL     1       9.328  24.557 -10.799  1.00  0.00     0.034 C 
HETATM    5  C5  UNL     1      10.693  24.154 -10.346  1.00  0.00     0.136 C 
HETATM    6  N1  UNL     1      11.777  24.943 -10.908  1.00  0.00    -0.364 N 
HETATM    7  C6  UNL     1      11.582  26.352 -10.940  1.00  0.00     0.027 C 
HETATM    8  C7  UNL     1      12.535  27.235 -10.794  1.00  0.00     0.043 C 
HETATM    9  C8  UNL     1      13.016  24.418 -11.418  1.00  0.00     0.026 C 
HETATM   10  C9  UNL     1      13.531  25.153 -12.634  1.00  0.00     0.038 C 
HETATM   11  C10 UNL     1      14.110  24.338 -10.358  1.00  0.00     0.038 C 
HETATM   12  C11 UNL     1      12.797  22.970 -11.888  1.00  0.00     0.034 C 
HETATM   13  C12 UNL     1      12.234  22.223 -10.687  1.00  0.00     0.060 C 
HETATM   14  C13 UNL     1      10.806  22.680 -10.571  1.00  0.00     0.211 C 
HETATM   15  F1  UNL     1      10.172  22.314 -11.769  1.00  0.00    -0.229 F 
ENDROOT
BRANCH  14  16
HETATM   16  C14 UNL     1      10.097  21.979  -9.460  1.00  0.00     0.216 C 
HETATM   17  O1  UNL     1      10.156  22.402  -8.277  1.00  0.00    -0.645 OA
HETATM   18  O2  UNL     1       9.373  20.836  -9.817  1.00  0.00    -0.645 OA
ENDBRANCH  14  16
TORSDOF 1
ENDMDL
MODEL 4
REMARK VINA RESULT: -6.160440321      5.398      7.053
REMARK  1 active torsions:
REMARK  status: ('A' for Active; 'I' for Inactive)
REMARK    1  A    between atoms: C13_14  and  C14_16 
ROOT
HETATM    1  C1  UNL     1      11.911  17.863 -13.439  1.00  0.00     0.021 C 
HETATM    2  C2  UNL     1      11.299  18.712 -14.219  1.00  0.00    -0.042 C 
HETATM    3  C3  UNL     1      10.411  18.259 -15.351  1.00  0.00     0.042 C 
HETATM    4  C4  UNL     1      10.883  18.878 -16.642  1.00  0.00     0.034 C 
HETATM    5  C5  UNL     1      11.215  20.330 -16.549  1.00  0.00     0.136 C 
HETATM    6  N1  UNL     1      10.965  20.927 -15.247  1.00  0.00    -0.364 N 
HETATM    7  C6  UNL     1      11.383  20.174 -14.115  1.00  0.00     0.027 C 
HETATM    8  C7  UNL     1      11.829  20.696 -13.002  1.00  0.00     0.043 C 
HETATM    9  C8  UNL     1      10.344  22.206 -15.020  1.00  0.00     0.026 C 
HETATM   10  C9  UNL     1       9.442  22.234 -13.807  1.00  0.00     0.038 C 
HETATM   11  C10 UNL     1      11.348  23.351 -14.947  1.00  0.00     0.038 C 
HETATM   12  C11 UNL     1       9.428  22.542 -16.208  1.00  0.00     0.034 C 
HETATM   13  C12 UNL     1      10.310  22.473 -17.446  1.00  0.00     0.060 C 
HETATM   14  C13 UNL     1      10.531  21.006 -17.693  1.00  0.00     0.211 C 
HETATM   15  F1  UNL     1       9.264  20.444 -17.912  1.00  0.00    -0.229 F 
ENDROOT
BRANCH  14  16
HETATM   16  C14 UNL     1      11.340  20.776 -18.927  1.00  0.00     0.216 C 
HETATM   17  O1  UNL     1      10.884  20.113 -19.893  1.00  0.00    -0.645 OA
HETATM   18  O2  UNL     1      12.621  21.339 -18.936  1.00  0.00    -0.645 OA
ENDBRANCH  14  16
TORSDOF 1
ENDMDL
MODEL 5
REMARK VINA RESULT: -6.144849207      3.774      5.145
REMARK  1 active torsions:
REMARK  status: ('A' for Active; 'I' for Inactive)
REMARK    1  A    between atoms: C13_14  and  C14_16 
ROOT
HETATM    1  C1  UNL     1      13.684  22.359 -11.478  1.00  0.00     0.021 C 
HETATM    2  C2  UNL     1      13.219  23.452 -12.018  1.00  0.00    -0.042 C 
HETATM    3  C3  UNL     1      13.001  23.578 -13.506  1.00  0.00     0.042 C 
HETATM    4  C4  UNL     1      13.751  24.776 -14.028  1.00  0.00     0.034 C 
HETATM    5  C5  UNL     1      13.614  26.005 -13.191  1.00  0.00     0.136 C 
HETATM    6  N1  UNL     1      12.725  25.867 -12.050  1.00  0.00    -0.364 N 
HETATM    7  C6  UNL     1      12.856  24.673 -11.288  1.00  0.00     0.027 C 
HETATM    8  C7  UNL     1      12.674  24.596  -9.995  1.00  0.00     0.043 C 
HETATM    9  C8  UNL     1      11.743  26.834 -11.633  1.00  0.00     0.026 C 
HETATM   10  C9  UNL     1      10.469  26.214 -11.104  1.00  0.00     0.038 C 
HETATM   11  C10 UNL     1      12.288  27.839 -10.624  1.00  0.00     0.038 C 
HETATM   12  C11 UNL     1      11.309  27.670 -12.847  1.00  0.00     0.034 C 
HETATM   13  C12 UNL     1      12.586  28.266 -13.421  1.00  0.00     0.060 C 
HETATM   14  C13 UNL     1      13.274  27.126 -14.121  1.00  0.00     0.211 C 
HETATM   15  F1  UNL     1      12.396  26.686 -15.124  1.00  0.00    -0.229 F 
ENDROOT
BRANCH  14  16
HETATM   16  C14 UNL     1      14.529  27.576 -14.793  1.00  0.00     0.216 C 
HETATM   17  O1  UNL     1      15.637  27.538 -14.201  1.00  0.00    -0.645 OA
HETATM   18  O2  UNL     1      14.391  28.037 -16.108  1.00  0.00    -0.645 OA
ENDBRANCH  14  16
TORSDOF 1
ENDMDL
