MODEL 1
REMARK VINA RESULT: -5.726988500      0.000      0.000
REMARK  7 active torsions:
REMARK  status: ('A' for Active; 'I' for Inactive)
REMARK    1  A    between atoms: C2_2  and  C4_4 
REMARK    2  A    between atoms: C4_4  and  N1_5 
REMARK    3  A    between atoms: N1_5  and  C5_6 
REMARK    4  A    between atoms: N1_5  and  C14_21 
REMARK    5  A    between atoms: C7_10  and  C8_11 
REMARK    6  A    between atoms: C8_11  and  N3_12 
REMARK    7  A    between atoms: N3_12  and  C9_14 
ROOT
HETATM    1  C5  UNL     1     -10.384  31.617  75.345  1.00  0.00     0.680 A 
HETATM    2  N2  UNL     1      -9.881  32.741  74.849  1.00  0.00    -0.201 N 
ATOM      3  H2  UNL     1      -9.944  32.900  73.844  1.00  0.00     0.183 HD
HETATM    4  C6  UNL     1      -9.303  33.663  75.596  1.00  0.00     0.116 A 
HETATM    5  C7  UNL     1      -9.210  33.460  76.949  1.00  0.00    -0.009 A 
HETATM    6  C13 UNL     1      -9.731  32.298  77.477  1.00  0.00     0.116 A 
HETATM    7  N4  UNL     1     -10.309  31.392  76.668  1.00  0.00    -0.201 N 
ATOM      8  H4  UNL     1     -10.692  30.532  77.060  1.00  0.00     0.183 HD
ENDROOT
BRANCH   1   9
HETATM    9  N1  UNL     1     -11.019  30.689  74.468  1.00  0.00    -0.212 N 
BRANCH   9  10
HETATM   10  C4  UNL     1     -10.219  29.995  73.488  1.00  0.00     0.145 C 
BRANCH  10  11
HETATM   11  C2  UNL     1      -9.069  29.249  74.075  1.00  0.00    -0.004 C 
HETATM   12  C1  UNL     1      -8.195  28.765  72.938  1.00  0.00     0.011 C 
HETATM   13  C3  UNL     1      -9.392  28.119  74.979  1.00  0.00     0.011 C 
ENDBRANCH  10  11
ENDBRANCH   9  10
BRANCH   9  14
HETATM   14  C14 UNL     1     -12.410  30.426  74.616  1.00  0.00     0.105 C 
HETATM   15  C15 UNL     1     -13.160  31.405  75.481  1.00  0.00     0.053 C 
HETATM   16  C16 UNL     1     -14.642  31.215  75.110  1.00  0.00     0.234 C 
HETATM   17  N5  UNL     1     -14.945  31.848  73.862  1.00  0.00    -0.075 N 
HETATM   18  C17 UNL     1     -13.825  31.655  72.954  1.00  0.00     0.234 C 
ATOM     19  H52 UNL     1     -15.828  31.525  73.465  1.00  0.00     0.277 HD
ATOM     20  H51 UNL     1     -15.190  32.831  73.974  1.00  0.00     0.277 HD
HETATM   21  C18 UNL     1     -13.096  30.367  73.274  1.00  0.00     0.053 C 
ENDBRANCH   9  14
ENDBRANCH   1   9
BRANCH   5  22
HETATM   22  C8  UNL     1      -8.529  34.463  77.811  1.00  0.00     0.156 C 
BRANCH  22  23
HETATM   23  N3  UNL     1      -9.035  34.273  79.130  1.00  0.00    -0.410 N 
ATOM     24  H3  UNL     1      -9.613  33.464  79.358  1.00  0.00     0.154 HD
BRANCH  23  25
HETATM   25  C9  UNL     1      -8.712  35.236  80.118  1.00  0.00     0.015 C 
HETATM   26  C10 UNL     1      -9.315  36.564  79.768  1.00  0.00     0.037 C 
HETATM   27  C11 UNL     1      -9.230  34.797  81.484  1.00  0.00     0.037 C 
HETATM   28  C12 UNL     1      -7.222  35.467  80.273  1.00  0.00     0.037 C 
ENDBRANCH  23  25
ENDBRANCH  22  23
ENDBRANCH   5  22
TORSDOF 7
ENDMDL
MODEL 2
REMARK VINA RESULT: -5.702929738      0.791      1.412
REMARK  7 active torsions:
REMARK  status: ('A' for Active; 'I' for Inactive)
REMARK    1  A    between atoms: C2_2  and  C4_4 
REMARK    2  A    between atoms: C4_4  and  N1_5 
REMARK    3  A    between atoms: N1_5  and  C5_6 
REMARK    4  A    between atoms: N1_5  and  C14_21 
REMARK    5  A    between atoms: C7_10  and  C8_11 
REMARK    6  A    between atoms: C8_11  and  N3_12 
REMARK    7  A    between atoms: N3_12  and  C9_14 
ROOT
HETATM    1  C5  UNL     1     -10.477  31.212  75.477  1.00  0.00     0.680 A 
HETATM    2  N2  UNL     1     -10.360  31.214  76.799  1.00  0.00    -0.201 N 
ATOM      3  H2  UNL     1     -10.725  30.418  77.321  1.00  0.00     0.183 HD
HETATM    4  C6  UNL     1      -9.792  32.198  77.471  1.00  0.00     0.116 A 
HETATM    5  C7  UNL     1      -9.298  33.276  76.781  1.00  0.00    -0.009 A 
HETATM    6  C13 UNL     1      -9.411  33.285  75.408  1.00  0.00     0.116 A 
HETATM    7  N4  UNL     1     -10.000  32.254  74.774  1.00  0.00    -0.201 N 
ATOM      8  H4  UNL     1     -10.085  32.264  73.758  1.00  0.00     0.183 HD
ENDROOT
BRANCH   1   9
HETATM    9  N1  UNL     1     -11.078  30.093  74.830  1.00  0.00    -0.212 N 
BRANCH   9  10
HETATM   10  C4  UNL     1     -10.249  28.970  74.465  1.00  0.00     0.145 C 
BRANCH  10  11
HETATM   11  C2  UNL     1     -10.176  27.914  75.517  1.00  0.00    -0.004 C 
HETATM   12  C1  UNL     1      -8.759  27.384  75.550  1.00  0.00     0.011 C 
HETATM   13  C3  UNL     1     -11.133  26.787  75.406  1.00  0.00     0.011 C 
ENDBRANCH  10  11
ENDBRANCH   9  10
BRANCH   9  14
HETATM   14  C14 UNL     1     -12.484  30.083  74.611  1.00  0.00     0.105 C 
HETATM   15  C15 UNL     1     -13.265  31.092  75.412  1.00  0.00     0.053 C 
HETATM   16  C16 UNL     1     -14.615  31.224  74.685  1.00  0.00     0.234 C 
HETATM   17  N5  UNL     1     -14.487  32.029  73.507  1.00  0.00    -0.075 N 
HETATM   18  C17 UNL     1     -13.218  31.723  72.865  1.00  0.00     0.234 C 
ATOM     19  H52 UNL     1     -15.280  31.921  72.873  1.00  0.00     0.277 HD
ATOM     20  H51 UNL     1     -14.595  33.024  73.702  1.00  0.00     0.277 HD
HETATM   21  C18 UNL     1     -12.806  30.294  73.153  1.00  0.00     0.053 C 
ENDBRANCH   9  14
ENDBRANCH   1   9
BRANCH   5  22
HETATM   22  C8  UNL     1      -8.689  34.418  77.514  1.00  0.00     0.156 C 
BRANCH  22  23
HETATM   23  N3  UNL     1      -9.024  34.242  78.889  1.00  0.00    -0.410 N 
ATOM     24  H3  UNL     1      -9.533  33.416  79.202  1.00  0.00     0.154 HD
BRANCH  23  25
HETATM   25  C9  UNL     1      -8.632  35.247  79.809  1.00  0.00     0.015 C 
HETATM   26  C10 UNL     1      -9.246  36.563  79.436  1.00  0.00     0.037 C 
HETATM   27  C11 UNL     1      -9.066  34.876  81.223  1.00  0.00     0.037 C 
HETATM   28  C12 UNL     1      -7.134  35.468  79.859  1.00  0.00     0.037 C 
ENDBRANCH  23  25
ENDBRANCH  22  23
ENDBRANCH   5  22
TORSDOF 7
ENDMDL
MODEL 3
REMARK VINA RESULT: -5.654377891      0.922      1.440
REMARK  7 active torsions:
REMARK  status: ('A' for Active; 'I' for Inactive)
REMARK    1  A    between atoms: C2_2  and  C4_4 
REMARK    2  A    between atoms: C4_4  and  N1_5 
REMARK    3  A    between atoms: N1_5  and  C5_6 
REMARK    4  A    between atoms: N1_5  and  C14_21 
REMARK    5  A    between atoms: C7_10  and  C8_11 
REMARK    6  A    between atoms: C8_11  and  N3_12 
REMARK    7  A    between atoms: N3_12  and  C9_14 
ROOT
HETATM    1  C5  UNL     1     -10.652  31.151  75.511  1.00  0.00     0.680 A 
HETATM    2  N2  UNL     1     -10.676  31.275  76.832  1.00  0.00    -0.201 N 
ATOM      3  H2  UNL     1     -11.179  30.574  77.376  1.00  0.00     0.183 HD
HETATM    4  C6  UNL     1     -10.080  32.261  77.474  1.00  0.00     0.116 A 
HETATM    5  C7  UNL     1      -9.403  33.210  76.754  1.00  0.00    -0.009 A 
HETATM    6  C13 UNL     1      -9.368  33.093  75.381  1.00  0.00     0.116 A 
HETATM    7  N4  UNL     1      -9.994  32.066  74.777  1.00  0.00    -0.201 N 
ATOM      8  H4  UNL     1      -9.970  31.982  73.762  1.00  0.00     0.183 HD
ENDROOT
BRANCH   1   9
HETATM    9  N1  UNL     1     -11.299  30.036  74.901  1.00  0.00    -0.212 N 
BRANCH   9  10
HETATM   10  C4  UNL     1     -10.758  28.715  75.110  1.00  0.00     0.145 C 
BRANCH  10  11
HETATM   11  C2  UNL     1      -9.271  28.655  75.005  1.00  0.00    -0.004 C 
HETATM   12  C1  UNL     1      -8.903  28.716  73.539  1.00  0.00     0.011 C 
HETATM   13  C3  UNL     1      -8.599  27.498  75.646  1.00  0.00     0.011 C 
ENDBRANCH  10  11
ENDBRANCH   9  10
BRANCH   9  14
HETATM   14  C14 UNL     1     -12.490  30.243  74.149  1.00  0.00     0.105 C 
HETATM   15  C15 UNL     1     -13.249  31.501  74.483  1.00  0.00     0.053 C 
HETATM   16  C16 UNL     1     -14.171  31.746  73.275  1.00  0.00     0.234 C 
HETATM   17  N5  UNL     1     -13.439  32.296  72.173  1.00  0.00    -0.075 N 
HETATM   18  C17 UNL     1     -12.134  31.658  72.112  1.00  0.00     0.234 C 
ATOM     19  H52 UNL     1     -13.949  32.224  71.292  1.00  0.00     0.277 HD
ATOM     20  H51 UNL     1     -13.374  33.312  72.218  1.00  0.00     0.277 HD
HETATM   21  C18 UNL     1     -12.202  30.251  72.669  1.00  0.00     0.053 C 
ENDBRANCH   9  14
ENDBRANCH   1   9
BRANCH   5  22
HETATM   22  C8  UNL     1      -8.755  34.356  77.448  1.00  0.00     0.156 C 
BRANCH  22  23
HETATM   23  N3  UNL     1      -9.013  34.184  78.839  1.00  0.00    -0.410 N 
ATOM     24  H3  UNL     1      -9.478  33.346  79.186  1.00  0.00     0.154 HD
BRANCH  23  25
HETATM   25  C9  UNL     1      -8.604  35.210  79.729  1.00  0.00     0.015 C 
HETATM   26  C10 UNL     1      -9.215  36.520  79.329  1.00  0.00     0.037 C 
HETATM   27  C11 UNL     1      -9.024  34.878  81.157  1.00  0.00     0.037 C 
HETATM   28  C12 UNL     1      -7.105  35.423  79.757  1.00  0.00     0.037 C 
ENDBRANCH  23  25
ENDBRANCH  22  23
ENDBRANCH   5  22
TORSDOF 7
ENDMDL
MODEL 4
REMARK VINA RESULT: -5.621529506      1.322      3.668
REMARK  7 active torsions:
REMARK  status: ('A' for Active; 'I' for Inactive)
REMARK    1  A    between atoms: C2_2  and  C4_4 
REMARK    2  A    between atoms: C4_4  and  N1_5 
REMARK    3  A    between atoms: N1_5  and  C5_6 
REMARK    4  A    between atoms: N1_5  and  C14_21 
REMARK    5  A    between atoms: C7_10  and  C8_11 
REMARK    6  A    between atoms: C8_11  and  N3_12 
REMARK    7  A    between atoms: N3_12  and  C9_14 
ROOT
HETATM    1  C5  UNL     1      -9.975  31.347  75.414  1.00  0.00     0.680 A 
HETATM    2  N2  UNL     1     -10.045  31.326  76.740  1.00  0.00    -0.201 N 
ATOM      3  H2  UNL     1     -10.362  30.471  77.196  1.00  0.00     0.183 HD
HETATM    4  C6  UNL     1      -9.722  32.359  77.494  1.00  0.00     0.116 A 
HETATM    5  C7  UNL     1      -9.296  33.515  76.893  1.00  0.00    -0.009 A 
HETATM    6  C13 UNL     1      -9.217  33.549  75.517  1.00  0.00     0.116 A 
HETATM    7  N4  UNL     1      -9.559  32.466  74.796  1.00  0.00    -0.201 N 
ATOM      8  H4  UNL     1      -9.501  32.494  73.779  1.00  0.00     0.183 HD
ENDROOT
BRANCH   1   9
HETATM    9  N1  UNL     1     -10.314  30.174  74.678  1.00  0.00    -0.212 N 
BRANCH   9  10
HETATM   10  C4  UNL     1     -11.666  30.017  74.199  1.00  0.00     0.145 C 
BRANCH  10  11
HETATM   11  C2  UNL     1     -12.177  31.202  73.452  1.00  0.00    -0.004 C 
HETATM   12  C1  UNL     1     -13.679  31.258  73.633  1.00  0.00     0.011 C 
HETATM   13  C3  UNL     1     -11.840  31.285  72.010  1.00  0.00     0.011 C 
ENDBRANCH  10  11
ENDBRANCH   9  10
BRANCH   9  14
HETATM   14  C14 UNL     1      -9.303  29.216  74.383  1.00  0.00     0.105 C 
HETATM   15  C15 UNL     1      -9.786  27.797  74.242  1.00  0.00     0.053 C 
HETATM   16  C16 UNL     1      -8.666  27.066  73.480  1.00  0.00     0.234 C 
HETATM   17  N5  UNL     1      -8.705  27.381  72.083  1.00  0.00    -0.075 N 
HETATM   18  C17 UNL     1      -9.041  28.788  71.929  1.00  0.00     0.234 C 
ATOM     19  H52 UNL     1      -7.840  27.132  71.603  1.00  0.00     0.277 HD
ATOM     20  H51 UNL     1      -9.337  26.771  71.564  1.00  0.00     0.277 HD
HETATM   21  C18 UNL     1      -8.560  29.584  73.123  1.00  0.00     0.053 C 
ENDBRANCH   9  14
ENDBRANCH   1   9
BRANCH   5  22
HETATM   22  C8  UNL     1      -8.964  34.709  77.716  1.00  0.00     0.156 C 
BRANCH  22  23
HETATM   23  N3  UNL     1      -8.963  34.277  79.074  1.00  0.00    -0.410 N 
ATOM     24  H3  UNL     1      -9.155  33.304  79.314  1.00  0.00     0.154 HD
BRANCH  23  25
HETATM   25  C9  UNL     1      -8.686  35.233  80.083  1.00  0.00     0.015 C 
HETATM   26  C10 UNL     1      -9.322  36.548  79.742  1.00  0.00     0.037 C 
HETATM   27  C11 UNL     1      -9.216  34.757  81.432  1.00  0.00     0.037 C 
HETATM   28  C12 UNL     1      -7.207  35.505  80.269  1.00  0.00     0.037 C 
ENDBRANCH  23  25
ENDBRANCH  22  23
ENDBRANCH   5  22
TORSDOF 7
ENDMDL
MODEL 5
REMARK VINA RESULT: -5.585165111      1.332      3.644
REMARK  7 active torsions:
REMARK  status: ('A' for Active; 'I' for Inactive)
REMARK    1  A    between atoms: C2_2  and  C4_4 
REMARK    2  A    between atoms: C4_4  and  N1_5 
REMARK    3  A    between atoms: N1_5  and  C5_6 
REMARK    4  A    between atoms: N1_5  and  C14_21 
REMARK    5  A    between atoms: C7_10  and  C8_11 
REMARK    6  A    between atoms: C8_11  and  N3_12 
REMARK    7  A    between atoms: N3_12  and  C9_14 
ROOT
HETATM    1  C5  UNL     1      -9.944  31.278  75.497  1.00  0.00     0.680 A 
HETATM    2  N2  UNL     1      -9.606  32.419  74.910  1.00  0.00    -0.201 N 
ATOM      3  H2  UNL     1      -9.576  32.452  73.892  1.00  0.00     0.183 HD
HETATM    4  C6  UNL     1      -9.308  33.514  75.584  1.00  0.00     0.116 A 
HETATM    5  C7  UNL     1      -9.343  33.483  76.953  1.00  0.00    -0.009 A 
HETATM    6  C13 UNL     1      -9.695  32.304  77.575  1.00  0.00     0.116 A 
HETATM    7  N4  UNL     1      -9.990  31.217  76.839  1.00  0.00    -0.201 N 
ATOM      8  H4  UNL     1     -10.248  30.345  77.300  1.00  0.00     0.183 HD
ENDROOT
BRANCH   1   9
HETATM    9  N1  UNL     1     -10.281  30.150  74.691  1.00  0.00    -0.212 N 
BRANCH   9  10
HETATM   10  C4  UNL     1     -11.630  30.026  74.193  1.00  0.00     0.145 C 
BRANCH  10  11
HETATM   11  C2  UNL     1     -12.122  31.247  73.491  1.00  0.00    -0.004 C 
HETATM   12  C1  UNL     1     -13.620  31.328  73.689  1.00  0.00     0.011 C 
HETATM   13  C3  UNL     1     -11.797  31.371  72.049  1.00  0.00     0.011 C 
ENDBRANCH  10  11
ENDBRANCH   9  10
BRANCH   9  14
HETATM   14  C14 UNL     1      -9.271  29.207  74.350  1.00  0.00     0.105 C 
HETATM   15  C15 UNL     1      -9.743  27.783  74.214  1.00  0.00     0.053 C 
HETATM   16  C16 UNL     1      -8.643  27.072  73.404  1.00  0.00     0.234 C 
HETATM   17  N5  UNL     1      -8.738  27.400  72.012  1.00  0.00    -0.075 N 
HETATM   18  C17 UNL     1      -9.095  28.804  71.884  1.00  0.00     0.234 C 
ATOM     19  H52 UNL     1      -7.888  27.165  71.498  1.00  0.00     0.277 HD
ATOM     20  H51 UNL     1      -9.381  26.787  71.511  1.00  0.00     0.277 HD
HETATM   21  C18 UNL     1      -8.579  29.595  73.068  1.00  0.00     0.053 C 
ENDBRANCH   9  14
ENDBRANCH   1   9
BRANCH   5  22
HETATM   22  C8  UNL     1      -8.973  34.690  77.740  1.00  0.00     0.156 C 
BRANCH  22  23
HETATM   23  N3  UNL     1      -8.936  34.287  79.107  1.00  0.00    -0.410 N 
ATOM     24  H3  UNL     1      -9.087  33.314  79.370  1.00  0.00     0.154 HD
BRANCH  23  25
HETATM   25  C9  UNL     1      -8.683  35.275  80.091  1.00  0.00     0.015 C 
HETATM   26  C10 UNL     1      -7.209  35.519  80.218  1.00  0.00     0.037 C 
HETATM   27  C11 UNL     1      -9.376  36.584  79.726  1.00  0.00     0.037 C 
HETATM   28  C12 UNL     1      -9.178  34.894  81.471  1.00  0.00     0.037 C 
ENDBRANCH  23  25
ENDBRANCH  22  23
ENDBRANCH   5  22
TORSDOF 7
ENDMDL
