MODEL 1
REMARK VINA RESULT: -7.068697179      0.000      0.000
REMARK  8 active torsions:
REMARK  status: ('A' for Active; 'I' for Inactive)
REMARK    1  A    between atoms: C2_2  and  C3_3 
REMARK    2  A    between atoms: C3_3  and  C4_4 
REMARK    3  A    between atoms: C4_4  and  C5_5 
REMARK    4  A    between atoms: C5_5  and  S1_7 
REMARK    5  A    between atoms: S1_7  and  C7_8 
REMARK    6  A    between atoms: C8_11  and  N2_12 
REMARK    7  A    between atoms: N2_12  and  C9_14 
REMARK    8  A    between atoms: C12_20  and  N4_21 
ROOT
HETATM    1  C7  UNL     1      -6.493  35.495  80.038  1.00  0.00     0.174 A 
HETATM    2  N1  UNL     1      -7.252  35.236  78.960  1.00  0.00    -0.169 N 
ATOM      3  H1  UNL     1      -6.793  35.145  78.054  1.00  0.00     0.186 HD
HETATM    4  C8  UNL     1      -8.605  35.091  79.019  1.00  0.00     0.695 A 
HETATM    5  N3  UNL     1      -9.222  35.208  80.208  1.00  0.00    -0.022 N 
ATOM      6  H3  UNL     1     -10.234  35.104  80.281  1.00  0.00     0.203 HD
HETATM    7  C12 UNL     1      -8.479  35.467  81.299  1.00  0.00     0.694 A 
HETATM    8  N5  UNL     1      -7.145  35.607  81.214  1.00  0.00    -0.169 N 
ATOM      9  H5  UNL     1      -6.611  35.803  82.062  1.00  0.00     0.186 HD
ENDROOT
BRANCH   1  10
HETATM   10  S1  UNL     1      -4.718  35.682  79.927  1.00  0.00    -0.088 SA
BRANCH  10  11
HETATM   11  C5  UNL     1      -3.962  34.076  80.399  1.00  0.00     0.051 C 
HETATM   12  C6  UNL     1      -2.909  34.271  81.434  1.00  0.00     0.022 C 
BRANCH  11  13
HETATM   13  C4  UNL     1      -3.437  33.454  79.126  1.00  0.00     0.015 C 
BRANCH  13  14
HETATM   14  C3  UNL     1      -1.953  33.203  79.178  1.00  0.00     0.001 C 
BRANCH  14  15
HETATM   15  C2  UNL     1      -1.332  34.066  78.075  1.00  0.00    -0.005 C 
HETATM   16  C1  UNL     1      -2.357  34.568  77.106  1.00  0.00     0.005 C 
ENDBRANCH  14  15
ENDBRANCH  13  14
ENDBRANCH  11  13
ENDBRANCH  10  11
ENDBRANCH   1  10
BRANCH   4  17
HETATM   17  N2  UNL     1      -9.278  34.841  77.941  1.00  0.00    -0.212 N 
ATOM     18  H2  UNL     1     -10.082  35.426  77.716  1.00  0.00     0.179 HD
BRANCH  17  19
HETATM   19  C9  UNL     1      -8.929  33.762  77.045  1.00  0.00     0.162 C 
HETATM   20  C10 UNL     1      -9.582  33.805  75.684  1.00  0.00     0.047 C 
HETATM   21  C11 UNL     1      -9.418  32.281  75.619  1.00  0.00     0.079 C 
HETATM   22  S2  UNL     1      -9.889  32.245  77.369  1.00  0.00    -0.143 SA
ENDBRANCH  17  19
ENDBRANCH   4  17
BRANCH   7  23
HETATM   23  N4  UNL     1      -9.078  35.577  82.431  1.00  0.00    -0.230 N 
HETATM   24  C13 UNL     1      -9.108  34.459  83.338  1.00  0.00     0.165 C 
ATOM     25  H4  UNL     1      -9.530  36.455  82.686  1.00  0.00     0.177 HD
ENDBRANCH   7  23
TORSDOF 8
ENDMDL
MODEL 2
REMARK VINA RESULT: -6.950730043      1.325      2.193
REMARK  8 active torsions:
REMARK  status: ('A' for Active; 'I' for Inactive)
REMARK    1  A    between atoms: C2_2  and  C3_3 
REMARK    2  A    between atoms: C3_3  and  C4_4 
REMARK    3  A    between atoms: C4_4  and  C5_5 
REMARK    4  A    between atoms: C5_5  and  S1_7 
REMARK    5  A    between atoms: S1_7  and  C7_8 
REMARK    6  A    between atoms: C8_11  and  N2_12 
REMARK    7  A    between atoms: N2_12  and  C9_14 
REMARK    8  A    between atoms: C12_20  and  N4_21 
ROOT
HETATM    1  C7  UNL     1      -5.348  35.178  78.892  1.00  0.00     0.174 A 
HETATM    2  N1  UNL     1      -6.508  34.835  78.309  1.00  0.00    -0.169 N 
ATOM      3  H1  UNL     1      -6.495  34.558  77.327  1.00  0.00     0.186 HD
HETATM    4  C8  UNL     1      -7.702  34.837  78.966  1.00  0.00     0.695 A 
HETATM    5  N3  UNL     1      -7.733  35.199  80.260  1.00  0.00    -0.022 N 
ATOM      6  H3  UNL     1      -8.612  35.210  80.776  1.00  0.00     0.203 HD
HETATM    7  C12 UNL     1      -6.581  35.547  80.862  1.00  0.00     0.694 A 
HETATM    8  N5  UNL     1      -5.416  35.536  80.192  1.00  0.00    -0.169 N 
ATOM      9  H5  UNL     1      -4.560  35.805  80.679  1.00  0.00     0.186 HD
ENDROOT
BRANCH   1  10
HETATM   10  S1  UNL     1      -3.797  35.165  78.002  1.00  0.00    -0.088 SA
BRANCH  10  11
HETATM   11  C5  UNL     1      -2.599  34.187  78.992  1.00  0.00     0.051 C 
HETATM   12  C6  UNL     1      -1.330  33.985  78.240  1.00  0.00     0.022 C 
BRANCH  11  13
HETATM   13  C4  UNL     1      -3.291  32.892  79.351  1.00  0.00     0.015 C 
BRANCH  13  14
HETATM   14  C3  UNL     1      -2.591  32.155  80.463  1.00  0.00     0.001 C 
BRANCH  14  15
HETATM   15  C2  UNL     1      -2.306  33.193  81.553  1.00  0.00    -0.005 C 
HETATM   16  C1  UNL     1      -3.486  33.410  82.450  1.00  0.00     0.005 C 
ENDBRANCH  14  15
ENDBRANCH  13  14
ENDBRANCH  11  13
ENDBRANCH  10  11
ENDBRANCH   1  10
BRANCH   4  17
HETATM   17  N2  UNL     1      -8.784  34.493  78.344  1.00  0.00    -0.212 N 
ATOM     18  H2  UNL     1      -9.683  34.799  78.715  1.00  0.00     0.179 HD
BRANCH  17  19
HETATM   19  C9  UNL     1      -8.763  33.692  77.141  1.00  0.00     0.162 C 
HETATM   20  C10 UNL     1      -9.730  34.111  76.059  1.00  0.00     0.047 C 
HETATM   21  C11 UNL     1      -9.717  32.659  75.563  1.00  0.00     0.079 C 
HETATM   22  S2  UNL     1      -9.737  32.159  77.305  1.00  0.00    -0.143 SA
ENDBRANCH  17  19
ENDBRANCH   4  17
BRANCH   7  23
HETATM   23  N4  UNL     1      -6.621  35.890  82.100  1.00  0.00    -0.230 N 
HETATM   24  C13 UNL     1      -7.188  34.994  83.075  1.00  0.00     0.165 C 
ATOM     25  H4  UNL     1      -6.252  36.795  82.391  1.00  0.00     0.177 HD
ENDBRANCH   7  23
TORSDOF 8
ENDMDL
MODEL 3
REMARK VINA RESULT: -6.863537081      1.016      1.910
REMARK  8 active torsions:
REMARK  status: ('A' for Active; 'I' for Inactive)
REMARK    1  A    between atoms: C2_2  and  C3_3 
REMARK    2  A    between atoms: C3_3  and  C4_4 
REMARK    3  A    between atoms: C4_4  and  C5_5 
REMARK    4  A    between atoms: C5_5  and  S1_7 
REMARK    5  A    between atoms: S1_7  and  C7_8 
REMARK    6  A    between atoms: C8_11  and  N2_12 
REMARK    7  A    between atoms: N2_12  and  C9_14 
REMARK    8  A    between atoms: C12_20  and  N4_21 
ROOT
HETATM    1  C7  UNL     1      -6.379  35.886  79.764  1.00  0.00     0.174 A 
HETATM    2  N1  UNL     1      -7.308  35.355  78.953  1.00  0.00    -0.169 N 
ATOM      3  H1  UNL     1      -7.112  35.313  77.952  1.00  0.00     0.186 HD
HETATM    4  C8  UNL     1      -8.499  34.869  79.401  1.00  0.00     0.695 A 
HETATM    5  N3  UNL     1      -8.768  34.917  80.717  1.00  0.00    -0.022 N 
ATOM      6  H3  UNL     1      -9.652  34.560  81.080  1.00  0.00     0.203 HD
HETATM    7  C12 UNL     1      -7.851  35.446  81.546  1.00  0.00     0.694 A 
HETATM    8  N5  UNL     1      -6.682  35.919  81.079  1.00  0.00    -0.169 N 
ATOM      9  H5  UNL     1      -6.008  36.314  81.735  1.00  0.00     0.186 HD
ENDROOT
BRANCH   1  10
HETATM   10  S1  UNL     1      -4.824  36.517  79.144  1.00  0.00    -0.088 SA
BRANCH  10  11
HETATM   11  C5  UNL     1      -3.648  35.110  79.067  1.00  0.00     0.051 C 
HETATM   12  C6  UNL     1      -3.706  34.443  77.737  1.00  0.00     0.022 C 
BRANCH  11  13
HETATM   13  C4  UNL     1      -4.000  34.188  80.212  1.00  0.00     0.015 C 
BRANCH  13  14
HETATM   14  C3  UNL     1      -3.182  34.464  81.446  1.00  0.00     0.001 C 
BRANCH  14  15
HETATM   15  C2  UNL     1      -2.813  33.097  82.031  1.00  0.00    -0.005 C 
HETATM   16  C1  UNL     1      -2.534  32.083  80.966  1.00  0.00     0.005 C 
ENDBRANCH  14  15
ENDBRANCH  13  14
ENDBRANCH  11  13
ENDBRANCH  10  11
ENDBRANCH   1  10
BRANCH   4  17
HETATM   17  N2  UNL     1      -9.351  34.368  78.564  1.00  0.00    -0.212 N 
ATOM     18  H2  UNL     1     -10.347  34.450  78.768  1.00  0.00     0.179 HD
BRANCH  17  19
HETATM   19  C9  UNL     1      -8.940  33.698  77.351  1.00  0.00     0.162 C 
HETATM   20  C10 UNL     1      -9.668  34.114  76.095  1.00  0.00     0.047 C 
HETATM   21  C11 UNL     1      -9.348  32.729  75.517  1.00  0.00     0.079 C 
HETATM   22  S2  UNL     1      -9.717  32.058  77.161  1.00  0.00    -0.143 SA
ENDBRANCH  17  19
ENDBRANCH   4  17
BRANCH   7  23
HETATM   23  N4  UNL     1      -8.117  35.487  82.803  1.00  0.00    -0.230 N 
HETATM   24  C13 UNL     1      -9.036  34.535  83.373  1.00  0.00     0.165 C 
ATOM     25  H4  UNL     1      -7.679  36.192  83.395  1.00  0.00     0.177 HD
ENDBRANCH   7  23
TORSDOF 8
ENDMDL
MODEL 4
REMARK VINA RESULT: -6.828786798      1.365      2.204
REMARK  8 active torsions:
REMARK  status: ('A' for Active; 'I' for Inactive)
REMARK    1  A    between atoms: C2_2  and  C3_3 
REMARK    2  A    between atoms: C3_3  and  C4_4 
REMARK    3  A    between atoms: C4_4  and  C5_5 
REMARK    4  A    between atoms: C5_5  and  S1_7 
REMARK    5  A    between atoms: S1_7  and  C7_8 
REMARK    6  A    between atoms: C8_11  and  N2_12 
REMARK    7  A    between atoms: N2_12  and  C9_14 
REMARK    8  A    between atoms: C12_20  and  N4_21 
ROOT
HETATM    1  C7  UNL     1      -6.539  35.788  79.288  1.00  0.00     0.174 A 
HETATM    2  N1  UNL     1      -6.876  35.042  78.223  1.00  0.00    -0.169 N 
ATOM      3  H1  UNL     1      -6.207  34.956  77.458  1.00  0.00     0.186 HD
HETATM    4  C8  UNL     1      -8.070  34.393  78.116  1.00  0.00     0.695 A 
HETATM    5  N3  UNL     1      -8.960  34.496  79.118  1.00  0.00    -0.022 N 
ATOM      6  H3  UNL     1      -9.861  34.021  79.064  1.00  0.00     0.203 HD
HETATM    7  C12 UNL     1      -8.641  35.240  80.192  1.00  0.00     0.694 A 
HETATM    8  N5  UNL     1      -7.456  35.871  80.274  1.00  0.00    -0.169 N 
ATOM      9  H5  UNL     1      -7.246  36.426  81.103  1.00  0.00     0.186 HD
ENDROOT
BRANCH   1  10
HETATM   10  S1  UNL     1      -4.964  36.629  79.398  1.00  0.00    -0.088 SA
BRANCH  10  11
HETATM   11  C5  UNL     1      -3.653  35.344  79.435  1.00  0.00     0.051 C 
HETATM   12  C6  UNL     1      -3.437  34.768  78.080  1.00  0.00     0.022 C 
BRANCH  11  13
HETATM   13  C4  UNL     1      -4.083  34.316  80.457  1.00  0.00     0.015 C 
BRANCH  13  14
HETATM   14  C3  UNL     1      -3.286  34.403  81.731  1.00  0.00     0.001 C 
BRANCH  14  15
HETATM   15  C2  UNL     1      -2.897  32.966  82.093  1.00  0.00    -0.005 C 
HETATM   16  C1  UNL     1      -2.533  32.158  80.887  1.00  0.00     0.005 C 
ENDBRANCH  14  15
ENDBRANCH  13  14
ENDBRANCH  11  13
ENDBRANCH  10  11
ENDBRANCH   1  10
BRANCH   4  17
HETATM   17  N2  UNL     1      -8.331  33.688  77.062  1.00  0.00    -0.212 N 
ATOM     18  H2  UNL     1      -7.570  33.455  76.424  1.00  0.00     0.179 HD
BRANCH  17  19
HETATM   19  C9  UNL     1      -9.664  33.218  76.757  1.00  0.00     0.162 C 
HETATM   20  C10 UNL     1      -9.982  31.814  77.209  1.00  0.00     0.047 C 
HETATM   21  C11 UNL     1     -11.022  31.746  76.082  1.00  0.00     0.079 C 
HETATM   22  S2  UNL     1      -9.818  32.615  75.042  1.00  0.00    -0.143 SA
ENDBRANCH  17  19
ENDBRANCH   4  17
BRANCH   7  23
HETATM   23  N4  UNL     1      -9.499  35.332  81.145  1.00  0.00    -0.230 N 
HETATM   24  C13 UNL     1      -9.248  34.675  82.402  1.00  0.00     0.165 C 
ATOM     25  H4  UNL     1     -10.354  35.870  81.011  1.00  0.00     0.177 HD
ENDBRANCH   7  23
TORSDOF 8
ENDMDL
MODEL 5
REMARK VINA RESULT: -6.711026752      1.073      1.128
REMARK  8 active torsions:
REMARK  status: ('A' for Active; 'I' for Inactive)
REMARK    1  A    between atoms: C2_2  and  C3_3 
REMARK    2  A    between atoms: C3_3  and  C4_4 
REMARK    3  A    between atoms: C4_4  and  C5_5 
REMARK    4  A    between atoms: C5_5  and  S1_7 
REMARK    5  A    between atoms: S1_7  and  C7_8 
REMARK    6  A    between atoms: C8_11  and  N2_12 
REMARK    7  A    between atoms: N2_12  and  C9_14 
REMARK    8  A    between atoms: C12_20  and  N4_21 
ROOT
HETATM    1  C7  UNL     1      -6.289  35.496  80.185  1.00  0.00     0.174 A 
HETATM    2  N1  UNL     1      -6.605  34.962  78.993  1.00  0.00    -0.169 N 
ATOM      3  H1  UNL     1      -5.849  34.723  78.352  1.00  0.00     0.186 HD
HETATM    4  C8  UNL     1      -7.888  34.725  78.600  1.00  0.00     0.695 A 
HETATM    5  N3  UNL     1      -8.894  35.035  79.436  1.00  0.00    -0.022 N 
ATOM      6  H3  UNL     1      -9.864  34.868  79.168  1.00  0.00     0.203 HD
HETATM    7  C12 UNL     1      -8.597  35.571  80.634  1.00  0.00     0.694 A 
HETATM    8  N5  UNL     1      -7.323  35.796  80.998  1.00  0.00    -0.169 N 
ATOM      9  H5  UNL     1      -7.133  36.204  81.914  1.00  0.00     0.186 HD
ENDROOT
BRANCH   1  10
HETATM   10  S1  UNL     1      -4.594  35.797  80.671  1.00  0.00    -0.088 SA
BRANCH  10  11
HETATM   11  C5  UNL     1      -3.718  34.183  80.646  1.00  0.00     0.051 C 
HETATM   12  C6  UNL     1      -3.222  33.829  82.005  1.00  0.00     0.022 C 
BRANCH  11  13
HETATM   13  C4  UNL     1      -2.612  34.308  79.623  1.00  0.00     0.015 C 
BRANCH  13  14
HETATM   14  C3  UNL     1      -2.262  32.986  78.991  1.00  0.00     0.001 C 
BRANCH  14  15
HETATM   15  C2  UNL     1      -2.255  33.223  77.477  1.00  0.00    -0.005 C 
HETATM   16  C1  UNL     1      -2.522  34.654  77.127  1.00  0.00     0.005 C 
ENDBRANCH  14  15
ENDBRANCH  13  14
ENDBRANCH  11  13
ENDBRANCH  10  11
ENDBRANCH   1  10
BRANCH   4  17
HETATM   17  N2  UNL     1      -8.124  34.206  77.437  1.00  0.00    -0.212 N 
ATOM     18  H2  UNL     1      -7.360  34.137  76.766  1.00  0.00     0.179 HD
BRANCH  17  19
HETATM   19  C9  UNL     1      -9.432  33.721  77.058  1.00  0.00     0.162 C 
HETATM   20  C10 UNL     1      -9.732  32.290  77.432  1.00  0.00     0.047 C 
HETATM   21  C11 UNL     1     -10.725  32.250  76.263  1.00  0.00     0.079 C 
HETATM   22  S2  UNL     1      -9.504  33.195  75.313  1.00  0.00    -0.143 SA
ENDBRANCH  17  19
ENDBRANCH   4  17
BRANCH   7  23
HETATM   23  N4  UNL     1      -9.566  35.864  81.426  1.00  0.00    -0.230 N 
HETATM   24  C13 UNL     1      -9.652  35.232  82.718  1.00  0.00     0.165 C 
ATOM     25  H4  UNL     1     -10.271  36.543  81.142  1.00  0.00     0.177 HD
ENDBRANCH   7  23
TORSDOF 8
ENDMDL
