MODEL 1
REMARK VINA RESULT: -5.863394299      0.000      0.000
REMARK  11 active torsions:
REMARK  status: ('A' for Active; 'I' for Inactive)
REMARK    1  A    between atoms: C2_2  and  O1_5 
REMARK    2  A    between atoms: O1_5  and  C5_6 
REMARK       I    between atoms: C5_6  and  N1_8 
REMARK    3  A    between atoms: N1_8  and  C6_10 
REMARK    4  A    between atoms: C6_10  and  C7_11 
REMARK    5  A    between atoms: C6_10  and  C31_39 
REMARK    6  A    between atoms: C7_11  and  C8_12 
REMARK    7  A    between atoms: C8_12  and  O4_14 
REMARK    8  A    between atoms: O4_14  and  C9_15 
REMARK    9  A    between atoms: C9_15  and  C10_16 
REMARK   10  A    between atoms: C12_18  and  C13_19 
REMARK   11  A    between atoms: C28_34  and  C30_36 
ROOT
HETATM    1  C10 UNL     1      29.609  31.053  11.402  1.00  0.00    -0.042 C 
HETATM    2  C11 UNL     1      29.307  30.788  12.693  1.00  0.00    -0.015 C 
HETATM    3  C12 UNL     1      29.541  29.386  13.212  1.00  0.00     0.013 C 
HETATM    4  C26 UNL     1      30.921  29.081  12.674  1.00  0.00     0.010 C 
HETATM    5  C27 UNL     1      30.833  28.863  11.209  1.00  0.00     0.024 C 
HETATM    6  C28 UNL     1      30.185  30.030  10.506  1.00  0.00     0.060 C 
HETATM    7  C29 UNL     1      31.340  30.694   9.717  1.00  0.00     0.030 C 
ENDROOT
BRANCH   1   8
HETATM    8  C9  UNL     1      29.387  32.435  10.874  1.00  0.00     0.214 C 
BRANCH   8   9
HETATM    9  O4  UNL     1      28.173  33.026  11.184  1.00  0.00    -0.317 OA
BRANCH   9  10
HETATM   10  C8  UNL     1      28.024  34.398  11.120  1.00  0.00     0.261 C 
HETATM   11  O3  UNL     1      26.851  34.861  11.090  1.00  0.00    -0.265 OA
BRANCH  10  12
HETATM   12  C7  UNL     1      29.217  35.239  11.090  1.00  0.00     0.145 C 
BRANCH  12  13
HETATM   13  C6  UNL     1      29.484  35.869  12.412  1.00  0.00     0.185 C 
BRANCH  13  14
HETATM   14  N1  UNL     1      29.738  34.815  13.403  1.00  0.00    -0.324 N 
HETATM   15  C5  UNL     1      28.943  34.749  14.561  1.00  0.00     0.362 C 
HETATM   16  O2  UNL     1      28.026  35.555  14.780  1.00  0.00    -0.238 OA
ATOM     17  H1  UNL     1      30.484  34.136  13.252  1.00  0.00     0.165 HD
BRANCH  15  18
HETATM   18  O1  UNL     1      29.170  33.763  15.502  1.00  0.00    -0.294 OA
BRANCH  18  19
HETATM   19  C2  UNL     1      30.347  33.619  16.251  1.00  0.00     0.061 C 
HETATM   20  C1  UNL     1      31.407  32.838  15.498  1.00  0.00     0.046 C 
HETATM   21  C3  UNL     1      30.024  32.823  17.497  1.00  0.00     0.046 C 
HETATM   22  C4  UNL     1      30.956  34.927  16.695  1.00  0.00     0.046 C 
ENDBRANCH  18  19
ENDBRANCH  15  18
ENDBRANCH  13  14
BRANCH  13  23
HETATM   23  C31 UNL     1      30.683  36.731  12.344  1.00  0.00     0.254 C 
HETATM   24  N3  UNL     1      30.622  38.050  11.831  1.00  0.00    -0.060 NA
HETATM   25  O6  UNL     1      31.786  36.260  12.764  1.00  0.00    -0.275 OA
ENDBRANCH  13  23
ENDBRANCH  12  13
ENDBRANCH  10  12
ENDBRANCH   9  10
ENDBRANCH   8   9
ENDBRANCH   1   8
BRANCH   6  26
HETATM   26  C30 UNL     1      29.222  29.528   9.471  1.00  0.00     0.243 C 
HETATM   27  N2  UNL     1      29.531  29.649   8.089  1.00  0.00    -0.061 NA
HETATM   28  O5  UNL     1      28.130  28.994   9.791  1.00  0.00    -0.276 OA
ENDBRANCH   6  26
BRANCH   3  29
HETATM   29  C13 UNL     1      29.485  29.535  14.709  1.00  0.00     0.002 C 
HETATM   30  C14 UNL     1      28.475  30.674  14.931  1.00  0.00     0.006 C 
HETATM   31  C15 UNL     1      27.694  30.319  16.145  1.00  0.00     0.006 C 
HETATM   32  C16 UNL     1      27.737  28.830  16.231  1.00  0.00     0.003 C 
HETATM   33  C17 UNL     1      27.812  28.319  17.622  1.00  0.00    -0.043 C 
HETATM   34  C24 UNL     1      29.004  28.370  15.490  1.00  0.00    -0.029 C 
HETATM   35  C18 UNL     1      26.702  27.323  17.955  1.00  0.00     0.015 C 
HETATM   36  C19 UNL     1      27.700  29.423  18.669  1.00  0.00     0.015 C 
HETATM   37  C20 UNL     1      29.110  27.622  17.810  1.00  0.00     0.018 C 
HETATM   38  C21 UNL     1      29.945  28.018  16.587  1.00  0.00    -0.039 C 
HETATM   39  C22 UNL     1      30.828  29.157  17.047  1.00  0.00     0.015 C 
HETATM   40  C23 UNL     1      30.844  26.846  16.332  1.00  0.00     0.015 C 
HETATM   41  C25 UNL     1      28.594  27.169  14.701  1.00  0.00     0.016 C 
ENDBRANCH   3  29
TORSDOF 11
ENDMDL
MODEL 2
REMARK VINA RESULT: -5.818754297      1.842      5.101
REMARK  11 active torsions:
REMARK  status: ('A' for Active; 'I' for Inactive)
REMARK    1  A    between atoms: C2_2  and  O1_5 
REMARK    2  A    between atoms: O1_5  and  C5_6 
REMARK       I    between atoms: C5_6  and  N1_8 
REMARK    3  A    between atoms: N1_8  and  C6_10 
REMARK    4  A    between atoms: C6_10  and  C7_11 
REMARK    5  A    between atoms: C6_10  and  C31_39 
REMARK    6  A    between atoms: C7_11  and  C8_12 
REMARK    7  A    between atoms: C8_12  and  O4_14 
REMARK    8  A    between atoms: O4_14  and  C9_15 
REMARK    9  A    between atoms: C9_15  and  C10_16 
REMARK   10  A    between atoms: C12_18  and  C13_19 
REMARK   11  A    between atoms: C28_34  and  C30_36 
ROOT
HETATM    1  C10 UNL     1      30.217  33.489  16.775  1.00  0.00    -0.042 C 
HETATM    2  C11 UNL     1      29.718  32.232  16.752  1.00  0.00    -0.015 C 
HETATM    3  C12 UNL     1      30.578  31.108  17.286  1.00  0.00     0.013 C 
HETATM    4  C26 UNL     1      31.096  31.698  18.578  1.00  0.00     0.010 C 
HETATM    5  C27 UNL     1      32.102  32.742  18.266  1.00  0.00     0.024 C 
HETATM    6  C28 UNL     1      31.551  33.792  17.333  1.00  0.00     0.060 C 
HETATM    7  C29 UNL     1      31.414  35.058  18.214  1.00  0.00     0.030 C 
ENDROOT
BRANCH   1   8
HETATM    8  C9  UNL     1      29.378  34.613  16.256  1.00  0.00     0.214 C 
BRANCH   8   9
HETATM    9  O4  UNL     1      28.692  34.375  15.074  1.00  0.00    -0.317 OA
BRANCH   9  10
HETATM   10  C8  UNL     1      29.169  34.869  13.876  1.00  0.00     0.261 C 
HETATM   11  O3  UNL     1      30.398  34.725  13.628  1.00  0.00    -0.265 OA
BRANCH  10  12
HETATM   12  C7  UNL     1      28.241  35.528  12.962  1.00  0.00     0.145 C 
BRANCH  12  13
HETATM   13  C6  UNL     1      28.468  35.116  11.549  1.00  0.00     0.185 C 
BRANCH  13  14
HETATM   14  N1  UNL     1      28.218  33.674  11.424  1.00  0.00    -0.324 N 
HETATM   15  C5  UNL     1      29.220  32.843  10.891  1.00  0.00     0.362 C 
HETATM   16  O2  UNL     1      30.318  33.286  10.519  1.00  0.00    -0.238 OA
ATOM     17  H1  UNL     1      27.326  33.279  11.722  1.00  0.00     0.165 HD
BRANCH  15  18
HETATM   18  O1  UNL     1      29.000  31.485  10.768  1.00  0.00    -0.294 OA
BRANCH  18  19
HETATM   19  C2  UNL     1      29.293  30.529  11.751  1.00  0.00     0.061 C 
HETATM   20  C1  UNL     1      30.742  30.080  11.692  1.00  0.00     0.046 C 
HETATM   21  C3  UNL     1      28.448  29.301  11.488  1.00  0.00     0.046 C 
HETATM   22  C4  UNL     1      29.001  30.987  13.160  1.00  0.00     0.046 C 
ENDBRANCH  18  19
ENDBRANCH  15  18
ENDBRANCH  13  14
BRANCH  13  23
HETATM   23  C31 UNL     1      27.534  35.823  10.646  1.00  0.00     0.254 C 
HETATM   24  N3  UNL     1      27.889  36.144   9.314  1.00  0.00    -0.060 NA
HETATM   25  O6  UNL     1      26.387  36.137  11.095  1.00  0.00    -0.275 OA
ENDBRANCH  13  23
ENDBRANCH  12  13
ENDBRANCH  10  12
ENDBRANCH   9  10
ENDBRANCH   8   9
ENDBRANCH   1   8
BRANCH   6  26
HETATM   26  C30 UNL     1      32.574  34.132  16.290  1.00  0.00     0.243 C 
HETATM   27  N2  UNL     1      33.121  35.442  16.226  1.00  0.00    -0.061 NA
HETATM   28  O5  UNL     1      32.971  33.281  15.455  1.00  0.00    -0.276 OA
ENDBRANCH   6  26
BRANCH   3  29
HETATM   29  C13 UNL     1      29.616  29.966  17.474  1.00  0.00     0.002 C 
HETATM   30  C14 UNL     1      28.252  30.564  17.085  1.00  0.00     0.006 C 
HETATM   31  C15 UNL     1      27.506  29.492  16.375  1.00  0.00     0.006 C 
HETATM   32  C16 UNL     1      28.545  28.600  15.784  1.00  0.00     0.003 C 
HETATM   33  C17 UNL     1      28.170  27.164  15.794  1.00  0.00    -0.043 C 
HETATM   34  C24 UNL     1      29.817  28.762  16.634  1.00  0.00    -0.029 C 
HETATM   35  C18 UNL     1      28.237  26.518  14.411  1.00  0.00     0.015 C 
HETATM   36  C19 UNL     1      26.748  26.925  16.290  1.00  0.00     0.015 C 
HETATM   37  C20 UNL     1      29.107  26.427  16.679  1.00  0.00     0.018 C 
HETATM   38  C21 UNL     1      29.852  27.521  17.454  1.00  0.00    -0.039 C 
HETATM   39  C22 UNL     1      29.146  27.628  18.788  1.00  0.00     0.015 C 
HETATM   40  C23 UNL     1      31.211  26.949  17.726  1.00  0.00     0.015 C 
HETATM   41  C25 UNL     1      30.948  28.817  15.658  1.00  0.00     0.016 C 
ENDBRANCH   3  29
TORSDOF 11
ENDMDL
MODEL 3
REMARK VINA RESULT: -5.555946107      1.510      2.034
REMARK  11 active torsions:
REMARK  status: ('A' for Active; 'I' for Inactive)
REMARK    1  A    between atoms: C2_2  and  O1_5 
REMARK    2  A    between atoms: O1_5  and  C5_6 
REMARK       I    between atoms: C5_6  and  N1_8 
REMARK    3  A    between atoms: N1_8  and  C6_10 
REMARK    4  A    between atoms: C6_10  and  C7_11 
REMARK    5  A    between atoms: C6_10  and  C31_39 
REMARK    6  A    between atoms: C7_11  and  C8_12 
REMARK    7  A    between atoms: C8_12  and  O4_14 
REMARK    8  A    between atoms: O4_14  and  C9_15 
REMARK    9  A    between atoms: C9_15  and  C10_16 
REMARK   10  A    between atoms: C12_18  and  C13_19 
REMARK   11  A    between atoms: C28_34  and  C30_36 
ROOT
HETATM    1  C10 UNL     1      29.629  30.036  12.828  1.00  0.00    -0.042 C 
HETATM    2  C11 UNL     1      29.229  29.591  14.041  1.00  0.00    -0.015 C 
HETATM    3  C12 UNL     1      29.101  28.098  14.252  1.00  0.00     0.013 C 
HETATM    4  C26 UNL     1      30.383  27.585  13.636  1.00  0.00     0.010 C 
HETATM    5  C27 UNL     1      30.294  27.702  12.161  1.00  0.00     0.024 C 
HETATM    6  C28 UNL     1      29.970  29.110  11.727  1.00  0.00     0.060 C 
HETATM    7  C29 UNL     1      31.277  29.622  11.073  1.00  0.00     0.030 C 
ENDROOT
BRANCH   1   8
HETATM    8  C9  UNL     1      29.766  31.508  12.603  1.00  0.00     0.214 C 
BRANCH   8   9
HETATM    9  O4  UNL     1      28.585  32.225  12.483  1.00  0.00    -0.317 OA
BRANCH   9  10
HETATM   10  C8  UNL     1      28.396  33.092  11.425  1.00  0.00     0.261 C 
HETATM   11  O3  UNL     1      29.126  32.942  10.406  1.00  0.00    -0.265 OA
BRANCH  10  12
HETATM   12  C7  UNL     1      27.375  34.129  11.532  1.00  0.00     0.145 C 
BRANCH  12  13
HETATM   13  C6  UNL     1      27.936  35.407  12.054  1.00  0.00     0.185 C 
BRANCH  13  14
HETATM   14  N1  UNL     1      29.094  35.109  12.906  1.00  0.00    -0.324 N 
HETATM   15  C5  UNL     1      28.979  35.246  14.301  1.00  0.00     0.362 C 
HETATM   16  O2  UNL     1      27.926  35.611  14.845  1.00  0.00    -0.238 OA
ATOM     17  H1  UNL     1      29.975  34.806  12.490  1.00  0.00     0.165 HD
BRANCH  15  18
HETATM   18  O1  UNL     1      30.060  34.969  15.115  1.00  0.00    -0.294 OA
BRANCH  18  19
HETATM   19  C2  UNL     1      30.181  33.840  15.938  1.00  0.00     0.061 C 
HETATM   20  C1  UNL     1      30.346  34.216  17.399  1.00  0.00     0.046 C 
HETATM   21  C3  UNL     1      31.436  33.093  15.539  1.00  0.00     0.046 C 
HETATM   22  C4  UNL     1      29.026  32.874  15.830  1.00  0.00     0.046 C 
ENDBRANCH  18  19
ENDBRANCH  15  18
ENDBRANCH  13  14
BRANCH  13  23
HETATM   23  C31 UNL     1      28.394  36.266  10.941  1.00  0.00     0.254 C 
HETATM   24  N3  UNL     1      27.770  36.231   9.671  1.00  0.00    -0.060 NA
HETATM   25  O6  UNL     1      29.372  37.050  11.152  1.00  0.00    -0.275 OA
ENDBRANCH  13  23
ENDBRANCH  12  13
ENDBRANCH  10  12
ENDBRANCH   9  10
ENDBRANCH   8   9
ENDBRANCH   1   8
BRANCH   6  26
HETATM   26  C30 UNL     1      28.949  29.083  10.629  1.00  0.00     0.243 C 
HETATM   27  N2  UNL     1      29.231  29.691   9.376  1.00  0.00    -0.061 NA
HETATM   28  O5  UNL     1      27.832  28.528  10.783  1.00  0.00    -0.276 OA
ENDBRANCH   6  26
BRANCH   3  29
HETATM   29  C13 UNL     1      29.033  27.944  15.748  1.00  0.00     0.002 C 
HETATM   30  C14 UNL     1      28.378  29.251  16.226  1.00  0.00     0.006 C 
HETATM   31  C15 UNL     1      27.484  28.889  17.357  1.00  0.00     0.006 C 
HETATM   32  C16 UNL     1      27.101  27.466  17.130  1.00  0.00     0.003 C 
HETATM   33  C17 UNL     1      26.977  26.678  18.381  1.00  0.00    -0.043 C 
HETATM   34  C24 UNL     1      28.214  26.829  16.279  1.00  0.00    -0.029 C 
HETATM   35  C18 UNL     1      25.619  25.992  18.524  1.00  0.00     0.015 C 
HETATM   36  C19 UNL     1      27.142  27.527  19.637  1.00  0.00     0.015 C 
HETATM   37  C20 UNL     1      28.017  25.618  18.389  1.00  0.00     0.018 C 
HETATM   38  C21 UNL     1      28.976  26.005  17.256  1.00  0.00    -0.039 C 
HETATM   39  C22 UNL     1      30.126  26.726  17.924  1.00  0.00     0.015 C 
HETATM   40  C23 UNL     1      29.516  24.705  16.742  1.00  0.00     0.015 C 
HETATM   41  C25 UNL     1      27.511  25.983  15.266  1.00  0.00     0.016 C 
ENDBRANCH   3  29
TORSDOF 11
ENDMDL
MODEL 4
REMARK VINA RESULT: -5.443409247      2.118      3.564
REMARK  11 active torsions:
REMARK  status: ('A' for Active; 'I' for Inactive)
REMARK    1  A    between atoms: C2_2  and  O1_5 
REMARK    2  A    between atoms: O1_5  and  C5_6 
REMARK       I    between atoms: C5_6  and  N1_8 
REMARK    3  A    between atoms: N1_8  and  C6_10 
REMARK    4  A    between atoms: C6_10  and  C7_11 
REMARK    5  A    between atoms: C6_10  and  C31_39 
REMARK    6  A    between atoms: C7_11  and  C8_12 
REMARK    7  A    between atoms: C8_12  and  O4_14 
REMARK    8  A    between atoms: O4_14  and  C9_15 
REMARK    9  A    between atoms: C9_15  and  C10_16 
REMARK   10  A    between atoms: C12_18  and  C13_19 
REMARK   11  A    between atoms: C28_34  and  C30_36 
ROOT
HETATM    1  C10 UNL     1      29.236  31.481  11.877  1.00  0.00    -0.042 C 
HETATM    2  C11 UNL     1      29.022  31.021  13.130  1.00  0.00    -0.015 C 
HETATM    3  C12 UNL     1      29.670  29.715  13.537  1.00  0.00     0.013 C 
HETATM    4  C26 UNL     1      31.081  29.895  13.022  1.00  0.00     0.010 C 
HETATM    5  C27 UNL     1      31.073  29.793  11.542  1.00  0.00     0.024 C 
HETATM    6  C28 UNL     1      30.104  30.767  10.918  1.00  0.00     0.060 C 
HETATM    7  C29 UNL     1      31.005  31.819  10.227  1.00  0.00     0.030 C 
ENDROOT
BRANCH   1   8
HETATM    8  C9  UNL     1      28.607  32.772  11.460  1.00  0.00     0.214 C 
BRANCH   8   9
HETATM    9  O4  UNL     1      28.909  33.883  12.231  1.00  0.00    -0.317 OA
BRANCH   9  10
HETATM   10  C8  UNL     1      28.020  34.936  12.323  1.00  0.00     0.261 C 
HETATM   11  O3  UNL     1      28.079  35.666  13.351  1.00  0.00    -0.265 OA
BRANCH  10  12
HETATM   12  C7  UNL     1      27.063  35.152  11.243  1.00  0.00     0.145 C 
BRANCH  12  13
HETATM   13  C6  UNL     1      27.450  36.305  10.383  1.00  0.00     0.185 C 
BRANCH  13  14
HETATM   14  N1  UNL     1      28.681  35.969   9.655  1.00  0.00    -0.324 N 
HETATM   15  C5  UNL     1      29.785  36.838   9.726  1.00  0.00     0.362 C 
HETATM   16  O2  UNL     1      29.759  37.887  10.388  1.00  0.00    -0.238 OA
ATOM     17  H1  UNL     1      28.735  35.113   9.103  1.00  0.00     0.165 HD
BRANCH  15  18
HETATM   18  O1  UNL     1      30.949  36.534   9.047  1.00  0.00    -0.294 OA
BRANCH  18  19
HETATM   19  C2  UNL     1      32.110  36.009   9.633  1.00  0.00     0.061 C 
HETATM   20  C1  UNL     1      33.180  37.068   9.820  1.00  0.00     0.046 C 
HETATM   21  C3  UNL     1      32.687  34.970   8.696  1.00  0.00     0.046 C 
HETATM   22  C4  UNL     1      31.876  35.338  10.965  1.00  0.00     0.046 C 
ENDBRANCH  18  19
ENDBRANCH  15  18
ENDBRANCH  13  14
BRANCH  13  23
HETATM   23  C31 UNL     1      26.393  36.589   9.389  1.00  0.00     0.254 C 
HETATM   24  N3  UNL     1      25.071  36.911   9.782  1.00  0.00    -0.060 NA
HETATM   25  O6  UNL     1      26.700  36.542   8.157  1.00  0.00    -0.275 OA
ENDBRANCH  13  23
ENDBRANCH  12  13
ENDBRANCH  10  12
ENDBRANCH   9  10
ENDBRANCH   8   9
ENDBRANCH   1   8
BRANCH   6  26
HETATM   26  C30 UNL     1      29.347  30.091   9.812  1.00  0.00     0.243 C 
HETATM   27  N2  UNL     1      28.256  29.233  10.115  1.00  0.00    -0.061 NA
HETATM   28  O5  UNL     1      29.651  30.263   8.606  1.00  0.00    -0.276 OA
ENDBRANCH   6  26
BRANCH   3  29
HETATM   29  C13 UNL     1      29.562  29.704  15.038  1.00  0.00     0.002 C 
HETATM   30  C14 UNL     1      28.564  30.834  15.347  1.00  0.00     0.006 C 
HETATM   31  C15 UNL     1      27.733  30.366  16.488  1.00  0.00     0.006 C 
HETATM   32  C16 UNL     1      27.748  28.877  16.415  1.00  0.00     0.003 C 
HETATM   33  C17 UNL     1      27.764  28.218  17.744  1.00  0.00    -0.043 C 
HETATM   34  C24 UNL     1      29.033  28.473  15.672  1.00  0.00    -0.029 C 
HETATM   35  C18 UNL     1      26.625  27.215  17.929  1.00  0.00     0.015 C 
HETATM   36  C19 UNL     1      27.632  29.205  18.899  1.00  0.00     0.015 C 
HETATM   37  C20 UNL     1      29.042  27.478  17.900  1.00  0.00     0.018 C 
HETATM   38  C21 UNL     1      29.928  27.986  16.757  1.00  0.00    -0.039 C 
HETATM   39  C22 UNL     1      30.812  29.051  17.367  1.00  0.00     0.015 C 
HETATM   40  C23 UNL     1      30.816  26.829  16.408  1.00  0.00     0.015 C 
HETATM   41  C25 UNL     1      28.632  27.371  14.744  1.00  0.00     0.016 C 
ENDBRANCH   3  29
TORSDOF 11
ENDMDL
MODEL 5
REMARK VINA RESULT: -5.428452295      2.582      5.728
REMARK  11 active torsions:
REMARK  status: ('A' for Active; 'I' for Inactive)
REMARK    1  A    between atoms: C2_2  and  O1_5 
REMARK    2  A    between atoms: O1_5  and  C5_6 
REMARK       I    between atoms: C5_6  and  N1_8 
REMARK    3  A    between atoms: N1_8  and  C6_10 
REMARK    4  A    between atoms: C6_10  and  C7_11 
REMARK    5  A    between atoms: C6_10  and  C31_39 
REMARK    6  A    between atoms: C7_11  and  C8_12 
REMARK    7  A    between atoms: C8_12  and  O4_14 
REMARK    8  A    between atoms: O4_14  and  C9_15 
REMARK    9  A    between atoms: C9_15  and  C10_16 
REMARK   10  A    between atoms: C12_18  and  C13_19 
REMARK   11  A    between atoms: C28_34  and  C30_36 
ROOT
HETATM    1  C10 UNL     1      29.412  33.953  14.063  1.00  0.00    -0.042 C 
HETATM    2  C11 UNL     1      29.395  32.744  13.457  1.00  0.00    -0.015 C 
HETATM    3  C12 UNL     1      29.640  31.513  14.301  1.00  0.00     0.013 C 
HETATM    4  C26 UNL     1      28.758  31.776  15.500  1.00  0.00     0.010 C 
HETATM    5  C27 UNL     1      29.367  32.848  16.325  1.00  0.00     0.024 C 
HETATM    6  C28 UNL     1      29.630  34.096  15.518  1.00  0.00     0.060 C 
HETATM    7  C29 UNL     1      28.599  35.122  16.048  1.00  0.00     0.030 C 
ENDROOT
BRANCH   1   8
HETATM    8  C9  UNL     1      29.167  35.180  13.245  1.00  0.00     0.214 C 
BRANCH   8   9
HETATM    9  O4  UNL     1      27.863  35.388  12.821  1.00  0.00    -0.317 OA
BRANCH   9  10
HETATM   10  C8  UNL     1      27.508  35.158  11.506  1.00  0.00     0.261 C 
HETATM   11  O3  UNL     1      27.113  34.000  11.199  1.00  0.00    -0.265 OA
BRANCH  10  12
HETATM   12  C7  UNL     1      27.606  36.251  10.544  1.00  0.00     0.145 C 
BRANCH  12  13
HETATM   13  C6  UNL     1      28.870  36.187   9.759  1.00  0.00     0.185 C 
BRANCH  13  14
HETATM   14  N1  UNL     1      29.406  34.821   9.824  1.00  0.00    -0.324 N 
HETATM   15  C5  UNL     1      30.743  34.621  10.212  1.00  0.00     0.362 C 
HETATM   16  O2  UNL     1      31.494  35.564  10.505  1.00  0.00    -0.238 OA
ATOM     17  H1  UNL     1      28.813  34.024   9.590  1.00  0.00     0.165 HD
BRANCH  15  18
HETATM   18  O1  UNL     1      31.261  33.342  10.278  1.00  0.00    -0.294 OA
BRANCH  18  19
HETATM   19  C2  UNL     1      31.865  32.662   9.210  1.00  0.00     0.061 C 
HETATM   20  C1  UNL     1      30.863  31.841   8.420  1.00  0.00     0.046 C 
HETATM   21  C3  UNL     1      32.873  31.686   9.778  1.00  0.00     0.046 C 
HETATM   22  C4  UNL     1      32.600  33.561   8.245  1.00  0.00     0.046 C 
ENDBRANCH  18  19
ENDBRANCH  15  18
ENDBRANCH  13  14
BRANCH  13  23
HETATM   23  C31 UNL     1      28.617  36.513   8.340  1.00  0.00     0.254 C 
HETATM   24  N3  UNL     1      27.308  36.514   7.800  1.00  0.00    -0.060 NA
HETATM   25  O6  UNL     1      29.612  36.800   7.603  1.00  0.00    -0.275 OA
ENDBRANCH  13  23
ENDBRANCH  12  13
ENDBRANCH  10  12
ENDBRANCH   9  10
ENDBRANCH   8   9
ENDBRANCH   1   8
BRANCH   6  26
HETATM   26  C30 UNL     1      30.977  34.654  15.870  1.00  0.00     0.243 C 
HETATM   27  N2  UNL     1      32.106  34.358  15.061  1.00  0.00    -0.061 NA
HETATM   28  O5  UNL     1      31.142  35.389  16.876  1.00  0.00    -0.276 OA
ENDBRANCH   6  26
BRANCH   3  29
HETATM   29  C13 UNL     1      29.174  30.374  13.434  1.00  0.00     0.002 C 
HETATM   30  C14 UNL     1      28.343  31.061  12.336  1.00  0.00     0.006 C 
HETATM   31  C15 UNL     1      28.613  30.323  11.074  1.00  0.00     0.006 C 
HETATM   32  C16 UNL     1      29.969  29.724  11.239  1.00  0.00     0.003 C 
HETATM   33  C17 UNL     1      30.106  28.384  10.617  1.00  0.00    -0.043 C 
HETATM   34  C24 UNL     1      30.215  29.570  12.750  1.00  0.00    -0.029 C 
HETATM   35  C18 UNL     1      31.268  28.299   9.628  1.00  0.00     0.015 C 
HETATM   36  C19 UNL     1      28.868  27.964   9.831  1.00  0.00     0.015 C 
HETATM   37  C20 UNL     1      30.350  27.380  11.683  1.00  0.00     0.018 C 
HETATM   38  C21 UNL     1      30.028  28.113  12.990  1.00  0.00    -0.039 C 
HETATM   39  C22 UNL     1      28.614  27.711  13.346  1.00  0.00     0.015 C 
HETATM   40  C23 UNL     1      30.928  27.495  14.017  1.00  0.00     0.015 C 
HETATM   41  C25 UNL     1      31.631  29.994  12.973  1.00  0.00     0.016 C 
ENDBRANCH   3  29
TORSDOF 11
ENDMDL
