MODEL 1
REMARK VINA RESULT: -6.770211156      0.000      0.000
REMARK  10 active torsions:
REMARK  status: ('A' for Active; 'I' for Inactive)
REMARK    1  A    between atoms: C3_3  and  C4_4 
REMARK       I    between atoms: C4_4  and  N1_6 
REMARK    2  A    between atoms: C17_19  and  C18_20 
REMARK    3  A    between atoms: C18_20  and  C19_22 
REMARK    4  A    between atoms: C19_22  and  O3_23 
REMARK    5  A    between atoms: C19_22  and  C20_25 
REMARK    6  A    between atoms: C21_26  and  C22_27 
REMARK    7  A    between atoms: C22_27  and  O4_28 
REMARK    8  A    between atoms: C22_27  and  C23_30 
REMARK    9  A    between atoms: C23_30  and  C25_32 
REMARK   10  A    between atoms: C29_36  and  O5_37 
ROOT
HETATM    1  C1  UNL     1      27.584  29.836  16.335  1.00  0.00     0.015 C 
HETATM    2  C2  UNL     1      28.634  30.402  16.915  1.00  0.00    -0.072 C 
HETATM    3  C3  UNL     1      29.196  29.798  18.149  1.00  0.00     0.106 C 
HETATM    4  C7  UNL     1      29.728  31.031  18.931  1.00  0.00     0.019 C 
HETATM    5  C8  UNL     1      30.900  31.542  18.180  1.00  0.00     0.006 C 
HETATM    6  C9  UNL     1      30.627  31.881  16.761  1.00  0.00    -0.006 C 
HETATM    7  C10 UNL     1      31.079  33.259  16.450  1.00  0.00     0.006 C 
HETATM    8  C11 UNL     1      30.240  34.042  15.510  1.00  0.00     0.015 C 
HETATM    9  C12 UNL     1      30.077  33.520  14.142  1.00  0.00    -0.007 C 
HETATM   10  C13 UNL     1      31.299  32.888  13.546  1.00  0.00     0.021 C 
HETATM   11  C14 UNL     1      29.626  34.562  13.180  1.00  0.00    -0.033 C 
HETATM   12  C15 UNL     1      29.863  35.829  12.936  1.00  0.00    -0.019 C 
HETATM   13  C16 UNL     1      29.140  36.489  11.812  1.00  0.00     0.040 C 
HETATM   14  C17 UNL     1      29.226  35.652  10.584  1.00  0.00     0.065 C 
HETATM   15  C28 UNL     1      29.061  34.163  10.822  1.00  0.00     0.063 C 
HETATM   16  C29 UNL     1      28.627  33.914  12.241  1.00  0.00     0.143 C 
HETATM   17  C30 UNL     1      28.684  32.471  12.634  1.00  0.00     0.170 C 
HETATM   18  O6  UNL     1      28.598  31.522  11.909  1.00  0.00    -0.294 OA
HETATM   19  C31 UNL     1      28.870  32.571  14.122  1.00  0.00     0.072 C 
HETATM   20  C32 UNL     1      29.301  31.314  14.779  1.00  0.00     0.023 C 
HETATM   21  C33 UNL     1      29.218  31.595  16.289  1.00  0.00     0.019 C 
ENDROOT
BRANCH  14  22
HETATM   22  C18 UNL     1      28.253  36.141   9.574  1.00  0.00     0.163 C 
HETATM   23  O2  UNL     1      27.073  36.091   9.874  1.00  0.00    -0.294 OA
BRANCH  22  24
HETATM   24  C19 UNL     1      28.682  36.661   8.266  1.00  0.00     0.210 C 
BRANCH  24  25
HETATM   25  O3  UNL     1      27.606  36.451   7.362  1.00  0.00    -0.384 OA
ATOM     26  H3  UNL     1      27.698  37.092   6.666  1.00  0.00     0.211 HD
ENDBRANCH  24  25
BRANCH  24  27
HETATM   27  C20 UNL     1      28.935  38.125   8.230  1.00  0.00     0.011 C 
HETATM   28  C21 UNL     1      30.188  38.615   8.221  1.00  0.00     0.004 C 
BRANCH  28  29
HETATM   29  C22 UNL     1      30.437  40.084   8.185  1.00  0.00     0.144 C 
BRANCH  29  30
HETATM   30  O4  UNL     1      29.280  40.711   7.793  1.00  0.00    -0.391 OA
ATOM     31  H4  UNL     1      29.380  41.645   7.938  1.00  0.00     0.210 HD
ENDBRANCH  29  30
BRANCH  29  32
HETATM   32  C23 UNL     1      31.600  40.347   7.257  1.00  0.00     0.017 C 
HETATM   33  C24 UNL     1      32.433  39.076   7.232  1.00  0.00     0.013 C 
BRANCH  32  34
HETATM   34  C25 UNL     1      32.500  41.443   7.777  1.00  0.00    -0.016 C 
HETATM   35  C26 UNL     1      32.349  41.639   9.270  1.00  0.00     0.010 C 
HETATM   36  C27 UNL     1      32.088  42.729   7.092  1.00  0.00     0.010 C 
ENDBRANCH  32  34
ENDBRANCH  29  32
ENDBRANCH  28  29
ENDBRANCH  24  27
ENDBRANCH  22  24
ENDBRANCH  14  22
BRANCH  16  37
HETATM   37  O5  UNL     1      27.336  34.361  12.505  1.00  0.00    -0.377 OA
ATOM     38  H5  UNL     1      26.723  34.023  11.863  1.00  0.00     0.211 HD
ENDBRANCH  16  37
BRANCH   3  39
HETATM   39  C4  UNL     1      28.195  29.117  19.010  1.00  0.00     0.227 C 
HETATM   40  O1  UNL     1      27.433  29.790  19.717  1.00  0.00    -0.273 OA
HETATM   41  N1  UNL     1      28.146  27.687  19.001  1.00  0.00    -0.360 N 
HETATM   42  C5  UNL     1      29.028  26.894  18.179  1.00  0.00     0.152 C 
HETATM   43  C6  UNL     1      27.169  27.010  19.847  1.00  0.00     0.152 C 
ENDBRANCH   3  39
TORSDOF 10
ENDMDL
MODEL 2
REMARK VINA RESULT: -6.714927538      0.948      1.311
REMARK  10 active torsions:
REMARK  status: ('A' for Active; 'I' for Inactive)
REMARK    1  A    between atoms: C3_3  and  C4_4 
REMARK       I    between atoms: C4_4  and  N1_6 
REMARK    2  A    between atoms: C17_19  and  C18_20 
REMARK    3  A    between atoms: C18_20  and  C19_22 
REMARK    4  A    between atoms: C19_22  and  O3_23 
REMARK    5  A    between atoms: C19_22  and  C20_25 
REMARK    6  A    between atoms: C21_26  and  C22_27 
REMARK    7  A    between atoms: C22_27  and  O4_28 
REMARK    8  A    between atoms: C22_27  and  C23_30 
REMARK    9  A    between atoms: C23_30  and  C25_32 
REMARK   10  A    between atoms: C29_36  and  O5_37 
ROOT
HETATM    1  C1  UNL     1      27.869  29.938  16.060  1.00  0.00     0.015 C 
HETATM    2  C2  UNL     1      28.916  30.557  16.590  1.00  0.00    -0.072 C 
HETATM    3  C3  UNL     1      29.584  29.968  17.778  1.00  0.00     0.106 C 
HETATM    4  C7  UNL     1      30.087  31.220  18.551  1.00  0.00     0.019 C 
HETATM    5  C8  UNL     1      31.181  31.812  17.744  1.00  0.00     0.006 C 
HETATM    6  C9  UNL     1      30.806  32.156  16.349  1.00  0.00    -0.006 C 
HETATM    7  C10 UNL     1      31.156  33.563  16.039  1.00  0.00     0.006 C 
HETATM    8  C11 UNL     1      30.219  34.309  15.165  1.00  0.00     0.015 C 
HETATM    9  C12 UNL     1      30.006  33.800  13.798  1.00  0.00    -0.007 C 
HETATM   10  C13 UNL     1      31.227  33.252  13.122  1.00  0.00     0.021 C 
HETATM   11  C14 UNL     1      29.439  34.827  12.884  1.00  0.00    -0.033 C 
HETATM   12  C15 UNL     1      29.586  36.111  12.652  1.00  0.00    -0.019 C 
HETATM   13  C16 UNL     1      28.761  36.743  11.584  1.00  0.00     0.040 C 
HETATM   14  C17 UNL     1      28.823  35.932  10.337  1.00  0.00     0.065 C 
HETATM   15  C28 UNL     1      28.761  34.432  10.556  1.00  0.00     0.063 C 
HETATM   16  C29 UNL     1      28.427  34.135  11.993  1.00  0.00     0.143 C 
HETATM   17  C30 UNL     1      28.592  32.692  12.354  1.00  0.00     0.170 C 
HETATM   18  O6  UNL     1      28.521  31.751  11.617  1.00  0.00    -0.294 OA
HETATM   19  C31 UNL     1      28.859  32.780  13.830  1.00  0.00     0.072 C 
HETATM   20  C32 UNL     1      29.401  31.541  14.437  1.00  0.00     0.023 C 
HETATM   21  C33 UNL     1      29.391  31.792  15.954  1.00  0.00     0.019 C 
ENDROOT
BRANCH  14  22
HETATM   22  C18 UNL     1      27.766  36.377   9.395  1.00  0.00     0.163 C 
HETATM   23  O2  UNL     1      26.610  36.197   9.737  1.00  0.00    -0.294 OA
BRANCH  22  24
HETATM   24  C19 UNL     1      28.086  37.005   8.103  1.00  0.00     0.210 C 
BRANCH  24  25
HETATM   25  O3  UNL     1      26.859  37.173   7.406  1.00  0.00    -0.384 OA
ATOM     26  H3  UNL     1      26.488  37.999   7.694  1.00  0.00     0.211 HD
ENDBRANCH  24  25
BRANCH  24  27
HETATM   27  C20 UNL     1      28.665  38.370   8.200  1.00  0.00     0.011 C 
HETATM   28  C21 UNL     1      29.952  38.604   7.888  1.00  0.00     0.004 C 
BRANCH  28  29
HETATM   29  C22 UNL     1      30.529  39.975   7.987  1.00  0.00     0.144 C 
BRANCH  29  30
HETATM   30  O4  UNL     1      31.033  40.323   6.756  1.00  0.00    -0.391 OA
ATOM     31  H4  UNL     1      31.525  39.586   6.414  1.00  0.00     0.210 HD
ENDBRANCH  29  30
BRANCH  29  32
HETATM   32  C23 UNL     1      31.574  39.975   9.078  1.00  0.00     0.017 C 
HETATM   33  C24 UNL     1      32.692  40.892   8.610  1.00  0.00     0.013 C 
BRANCH  32  34
HETATM   34  C25 UNL     1      32.188  38.607   9.270  1.00  0.00    -0.016 C 
HETATM   35  C26 UNL     1      32.172  38.180  10.722  1.00  0.00     0.010 C 
HETATM   36  C27 UNL     1      33.632  38.694   8.824  1.00  0.00     0.010 C 
ENDBRANCH  32  34
ENDBRANCH  29  32
ENDBRANCH  28  29
ENDBRANCH  24  27
ENDBRANCH  22  24
ENDBRANCH  14  22
BRANCH  16  37
HETATM   37  O5  UNL     1      27.130  34.499  12.339  1.00  0.00    -0.377 OA
ATOM     38  H5  UNL     1      26.881  34.116  13.172  1.00  0.00     0.211 HD
ENDBRANCH  16  37
BRANCH   3  39
HETATM   39  C4  UNL     1      28.678  29.216  18.682  1.00  0.00     0.227 C 
HETATM   40  O1  UNL     1      27.896  29.830  19.420  1.00  0.00    -0.273 OA
HETATM   41  N1  UNL     1      28.741  27.786  18.677  1.00  0.00    -0.360 N 
HETATM   42  C5  UNL     1      29.647  27.061  17.820  1.00  0.00     0.152 C 
HETATM   43  C6  UNL     1      27.857  27.038  19.565  1.00  0.00     0.152 C 
ENDBRANCH   3  39
TORSDOF 10
ENDMDL
MODEL 3
REMARK VINA RESULT: -6.693026203      1.488      2.045
REMARK  10 active torsions:
REMARK  status: ('A' for Active; 'I' for Inactive)
REMARK    1  A    between atoms: C3_3  and  C4_4 
REMARK       I    between atoms: C4_4  and  N1_6 
REMARK    2  A    between atoms: C17_19  and  C18_20 
REMARK    3  A    between atoms: C18_20  and  C19_22 
REMARK    4  A    between atoms: C19_22  and  O3_23 
REMARK    5  A    between atoms: C19_22  and  C20_25 
REMARK    6  A    between atoms: C21_26  and  C22_27 
REMARK    7  A    between atoms: C22_27  and  O4_28 
REMARK    8  A    between atoms: C22_27  and  C23_30 
REMARK    9  A    between atoms: C23_30  and  C25_32 
REMARK   10  A    between atoms: C29_36  and  O5_37 
ROOT
HETATM    1  C1  UNL     1      27.489  29.945  16.045  1.00  0.00     0.015 C 
HETATM    2  C2  UNL     1      28.575  30.468  16.597  1.00  0.00    -0.072 C 
HETATM    3  C3  UNL     1      29.183  29.803  17.778  1.00  0.00     0.106 C 
HETATM    4  C7  UNL     1      29.775  30.994  18.583  1.00  0.00     0.019 C 
HETATM    5  C8  UNL     1      30.920  31.515  17.798  1.00  0.00     0.006 C 
HETATM    6  C9  UNL     1      30.588  31.917  16.409  1.00  0.00    -0.006 C 
HETATM    7  C10 UNL     1      31.052  33.298  16.132  1.00  0.00     0.006 C 
HETATM    8  C11 UNL     1      30.186  34.133  15.266  1.00  0.00     0.015 C 
HETATM    9  C12 UNL     1      29.949  33.672  13.887  1.00  0.00    -0.007 C 
HETATM   10  C13 UNL     1      31.129  33.044  13.209  1.00  0.00     0.021 C 
HETATM   11  C14 UNL     1      29.474  34.760  12.990  1.00  0.00    -0.033 C 
HETATM   12  C15 UNL     1      29.724  36.033  12.787  1.00  0.00    -0.019 C 
HETATM   13  C16 UNL     1      28.964  36.751  11.726  1.00  0.00     0.040 C 
HETATM   14  C17 UNL     1      28.975  35.964  10.463  1.00  0.00     0.065 C 
HETATM   15  C28 UNL     1      28.792  34.469  10.648  1.00  0.00     0.063 C 
HETATM   16  C29 UNL     1      28.420  34.170  12.075  1.00  0.00     0.143 C 
HETATM   17  C30 UNL     1      28.467  32.711  12.406  1.00  0.00     0.170 C 
HETATM   18  O6  UNL     1      28.329  31.794  11.648  1.00  0.00    -0.294 OA
HETATM   19  C31 UNL     1      28.724  32.746  13.887  1.00  0.00     0.072 C 
HETATM   20  C32 UNL     1      29.160  31.456  14.470  1.00  0.00     0.023 C 
HETATM   21  C33 UNL     1      29.153  31.675  15.993  1.00  0.00     0.019 C 
ENDROOT
BRANCH  14  22
HETATM   22  C18 UNL     1      27.966  36.511   9.521  1.00  0.00     0.163 C 
HETATM   23  O2  UNL     1      26.815  36.139   9.666  1.00  0.00    -0.294 OA
BRANCH  22  24
HETATM   24  C19 UNL     1      28.328  37.459   8.454  1.00  0.00     0.210 C 
BRANCH  24  25
HETATM   25  O3  UNL     1      28.239  38.763   9.009  1.00  0.00    -0.384 OA
ATOM     26  H3  UNL     1      27.456  39.165   8.650  1.00  0.00     0.211 HD
ENDBRANCH  24  25
BRANCH  24  27
HETATM   27  C20 UNL     1      29.727  37.342   7.966  1.00  0.00     0.011 C 
HETATM   28  C21 UNL     1      30.698  38.144   8.437  1.00  0.00     0.004 C 
BRANCH  28  29
HETATM   29  C22 UNL     1      32.099  38.025   7.945  1.00  0.00     0.144 C 
BRANCH  29  30
HETATM   30  O4  UNL     1      32.174  36.935   7.110  1.00  0.00    -0.391 OA
ATOM     31  H4  UNL     1      32.426  36.178   7.626  1.00  0.00     0.210 HD
ENDBRANCH  29  30
BRANCH  29  32
HETATM   32  C23 UNL     1      33.017  37.921   9.140  1.00  0.00     0.017 C 
HETATM   33  C24 UNL     1      34.126  36.956   8.755  1.00  0.00     0.013 C 
BRANCH  32  34
HETATM   34  C25 UNL     1      32.318  37.321  10.338  1.00  0.00    -0.016 C 
HETATM   35  C26 UNL     1      32.707  38.013  11.625  1.00  0.00     0.010 C 
HETATM   36  C27 UNL     1      32.750  35.874  10.435  1.00  0.00     0.010 C 
ENDBRANCH  32  34
ENDBRANCH  29  32
ENDBRANCH  28  29
ENDBRANCH  24  27
ENDBRANCH  22  24
ENDBRANCH  14  22
BRANCH  16  37
HETATM   37  O5  UNL     1      27.152  34.628  12.418  1.00  0.00    -0.377 OA
ATOM     38  H5  UNL     1      26.832  35.250  11.776  1.00  0.00     0.211 HD
ENDBRANCH  16  37
BRANCH   3  39
HETATM   39  C4  UNL     1      28.210  29.106  18.658  1.00  0.00     0.227 C 
HETATM   40  O1  UNL     1      27.488  29.763  19.419  1.00  0.00    -0.273 OA
HETATM   41  N1  UNL     1      28.140  27.678  18.601  1.00  0.00    -0.360 N 
HETATM   42  C5  UNL     1      28.975  26.903  17.716  1.00  0.00     0.152 C 
HETATM   43  C6  UNL     1      27.190  26.984  19.465  1.00  0.00     0.152 C 
ENDBRANCH   3  39
TORSDOF 10
ENDMDL
MODEL 4
REMARK VINA RESULT: -6.561386812      2.422      3.287
REMARK  10 active torsions:
REMARK  status: ('A' for Active; 'I' for Inactive)
REMARK    1  A    between atoms: C3_3  and  C4_4 
REMARK       I    between atoms: C4_4  and  N1_6 
REMARK    2  A    between atoms: C17_19  and  C18_20 
REMARK    3  A    between atoms: C18_20  and  C19_22 
REMARK    4  A    between atoms: C19_22  and  O3_23 
REMARK    5  A    between atoms: C19_22  and  C20_25 
REMARK    6  A    between atoms: C21_26  and  C22_27 
REMARK    7  A    between atoms: C22_27  and  O4_28 
REMARK    8  A    between atoms: C22_27  and  C23_30 
REMARK    9  A    between atoms: C23_30  and  C25_32 
REMARK   10  A    between atoms: C29_36  and  O5_37 
ROOT
HETATM    1  C1  UNL     1      27.728  30.000  15.918  1.00  0.00     0.015 C 
HETATM    2  C2  UNL     1      28.786  30.559  16.488  1.00  0.00    -0.072 C 
HETATM    3  C3  UNL     1      29.386  29.924  17.689  1.00  0.00     0.106 C 
HETATM    4  C7  UNL     1      29.925  31.139  18.494  1.00  0.00     0.019 C 
HETATM    5  C8  UNL     1      31.073  31.685  17.730  1.00  0.00     0.006 C 
HETATM    6  C9  UNL     1      30.760  32.064  16.329  1.00  0.00    -0.006 C 
HETATM    7  C10 UNL     1      31.190  33.455  16.049  1.00  0.00     0.006 C 
HETATM    8  C11 UNL     1      30.320  34.257  15.156  1.00  0.00     0.015 C 
HETATM    9  C12 UNL     1      30.126  33.775  13.776  1.00  0.00    -0.007 C 
HETATM   10  C13 UNL     1      31.340  33.175  13.131  1.00  0.00     0.021 C 
HETATM   11  C14 UNL     1      29.641  34.841  12.858  1.00  0.00    -0.033 C 
HETATM   12  C15 UNL     1      29.858  36.118  12.648  1.00  0.00    -0.019 C 
HETATM   13  C16 UNL     1      29.101  36.804  11.563  1.00  0.00     0.040 C 
HETATM   14  C17 UNL     1      29.163  36.005  10.308  1.00  0.00     0.065 C 
HETATM   15  C28 UNL     1      29.019  34.508  10.505  1.00  0.00     0.063 C 
HETATM   16  C29 UNL     1      28.625  34.211  11.926  1.00  0.00     0.143 C 
HETATM   17  C30 UNL     1      28.706  32.758  12.273  1.00  0.00     0.170 C 
HETATM   18  O6  UNL     1      28.611  31.830  11.522  1.00  0.00    -0.294 OA
HETATM   19  C31 UNL     1      28.929  32.815  13.759  1.00  0.00     0.072 C 
HETATM   20  C32 UNL     1      29.389  31.543  14.365  1.00  0.00     0.023 C 
HETATM   21  C33 UNL     1      29.342  31.776  15.885  1.00  0.00     0.019 C 
ENDROOT
BRANCH  14  22
HETATM   22  C18 UNL     1      28.160  36.514   9.339  1.00  0.00     0.163 C 
HETATM   23  O2  UNL     1      26.994  36.229   9.550  1.00  0.00    -0.294 OA
BRANCH  22  24
HETATM   24  C19 UNL     1      28.544  37.323   8.171  1.00  0.00     0.210 C 
BRANCH  24  25
HETATM   25  O3  UNL     1      29.358  36.502   7.346  1.00  0.00    -0.384 OA
ATOM     26  H3  UNL     1      28.773  35.970   6.819  1.00  0.00     0.211 HD
ENDBRANCH  24  25
BRANCH  24  27
HETATM   27  C20 UNL     1      27.412  37.741   7.303  1.00  0.00     0.011 C 
HETATM   28  C21 UNL     1      27.628  38.293   6.096  1.00  0.00     0.004 C 
BRANCH  28  29
HETATM   29  C22 UNL     1      26.491  38.710   5.228  1.00  0.00     0.144 C 
BRANCH  29  30
HETATM   30  O4  UNL     1      25.324  38.547   5.934  1.00  0.00    -0.391 OA
ATOM     31  H4  UNL     1      24.619  38.389   5.317  1.00  0.00     0.210 HD
ENDBRANCH  29  30
BRANCH  29  32
HETATM   32  C23 UNL     1      26.536  37.894   3.958  1.00  0.00     0.017 C 
HETATM   33  C24 UNL     1      27.978  37.915   3.478  1.00  0.00     0.013 C 
BRANCH  32  34
HETATM   34  C25 UNL     1      25.705  38.514   2.859  1.00  0.00    -0.016 C 
HETATM   35  C26 UNL     1      24.456  37.711   2.573  1.00  0.00     0.010 C 
HETATM   36  C27 UNL     1      26.553  38.526   1.604  1.00  0.00     0.010 C 
ENDBRANCH  32  34
ENDBRANCH  29  32
ENDBRANCH  28  29
ENDBRANCH  24  27
ENDBRANCH  22  24
ENDBRANCH  14  22
BRANCH  16  37
HETATM   37  O5  UNL     1      27.337  34.636  12.236  1.00  0.00    -0.377 OA
ATOM     38  H5  UNL     1      26.698  34.226  11.665  1.00  0.00     0.211 HD
ENDBRANCH  16  37
BRANCH   3  39
HETATM   39  C4  UNL     1      28.415  29.207  18.554  1.00  0.00     0.227 C 
HETATM   40  O1  UNL     1      27.658  29.850  19.293  1.00  0.00    -0.273 OA
HETATM   41  N1  UNL     1      28.387  27.777  18.510  1.00  0.00    -0.360 N 
HETATM   42  C5  UNL     1      29.264  27.018  17.651  1.00  0.00     0.152 C 
HETATM   43  C6  UNL     1      27.439  27.064  19.360  1.00  0.00     0.152 C 
ENDBRANCH   3  39
TORSDOF 10
ENDMDL
MODEL 5
REMARK VINA RESULT: -6.554769934      1.111      1.423
REMARK  10 active torsions:
REMARK  status: ('A' for Active; 'I' for Inactive)
REMARK    1  A    between atoms: C3_3  and  C4_4 
REMARK       I    between atoms: C4_4  and  N1_6 
REMARK    2  A    between atoms: C17_19  and  C18_20 
REMARK    3  A    between atoms: C18_20  and  C19_22 
REMARK    4  A    between atoms: C19_22  and  O3_23 
REMARK    5  A    between atoms: C19_22  and  C20_25 
REMARK    6  A    between atoms: C21_26  and  C22_27 
REMARK    7  A    between atoms: C22_27  and  O4_28 
REMARK    8  A    between atoms: C22_27  and  C23_30 
REMARK    9  A    between atoms: C23_30  and  C25_32 
REMARK   10  A    between atoms: C29_36  and  O5_37 
ROOT
HETATM    1  C1  UNL     1      28.217  28.639  15.377  1.00  0.00     0.015 C 
HETATM    2  C2  UNL     1      28.692  29.427  16.333  1.00  0.00    -0.072 C 
HETATM    3  C3  UNL     1      29.027  28.843  17.656  1.00  0.00     0.106 C 
HETATM    4  C7  UNL     1      28.719  30.006  18.640  1.00  0.00     0.019 C 
HETATM    5  C8  UNL     1      29.746  31.050  18.404  1.00  0.00     0.006 C 
HETATM    6  C9  UNL     1      29.826  31.536  17.004  1.00  0.00    -0.006 C 
HETATM    7  C10 UNL     1      29.739  33.015  16.952  1.00  0.00     0.006 C 
HETATM    8  C11 UNL     1      29.001  33.602  15.808  1.00  0.00     0.015 C 
HETATM    9  C12 UNL     1      29.515  33.336  14.453  1.00  0.00    -0.007 C 
HETATM   10  C13 UNL     1      31.009  33.330  14.324  1.00  0.00     0.021 C 
HETATM   11  C14 UNL     1      29.007  34.305  13.445  1.00  0.00    -0.033 C 
HETATM   12  C15 UNL     1      28.760  35.592  13.370  1.00  0.00    -0.019 C 
HETATM   13  C16 UNL     1      28.231  36.146  12.092  1.00  0.00     0.040 C 
HETATM   14  C17 UNL     1      29.043  35.658  10.944  1.00  0.00     0.065 C 
HETATM   15  C28 UNL     1      29.444  34.197  11.030  1.00  0.00     0.063 C 
HETATM   16  C29 UNL     1      28.724  33.533  12.172  1.00  0.00     0.143 C 
HETATM   17  C30 UNL     1      29.245  32.166  12.486  1.00  0.00     0.170 C 
HETATM   18  O6  UNL     1      29.797  31.414  11.735  1.00  0.00    -0.294 OA
HETATM   19  C31 UNL     1      28.887  32.033  13.939  1.00  0.00     0.072 C 
HETATM   20  C32 UNL     1      29.565  30.921  14.646  1.00  0.00     0.023 C 
HETATM   21  C33 UNL     1      28.895  30.849  16.029  1.00  0.00     0.019 C 
ENDROOT
BRANCH  14  22
HETATM   22  C18 UNL     1      28.334  35.942   9.670  1.00  0.00     0.163 C 
HETATM   23  O2  UNL     1      27.119  36.022   9.720  1.00  0.00    -0.294 OA
BRANCH  22  24
HETATM   24  C19 UNL     1      29.055  36.118   8.399  1.00  0.00     0.210 C 
BRANCH  24  25
HETATM   25  O3  UNL     1      28.074  36.222   7.376  1.00  0.00    -0.384 OA
ATOM     26  H3  UNL     1      28.324  36.954   6.825  1.00  0.00     0.211 HD
ENDBRANCH  24  25
BRANCH  24  27
HETATM   27  C20 UNL     1      29.849  37.370   8.301  1.00  0.00     0.011 C 
HETATM   28  C21 UNL     1      29.321  38.558   8.646  1.00  0.00     0.004 C 
BRANCH  28  29
HETATM   29  C22 UNL     1      30.121  39.811   8.547  1.00  0.00     0.144 C 
BRANCH  29  30
HETATM   30  O4  UNL     1      29.413  40.719   7.795  1.00  0.00    -0.391 OA
ATOM     31  H4  UNL     1      30.019  41.372   7.465  1.00  0.00     0.210 HD
ENDBRANCH  29  30
BRANCH  29  32
HETATM   32  C23 UNL     1      31.468  39.471   7.953  1.00  0.00     0.017 C 
HETATM   33  C24 UNL     1      32.515  40.050   8.891  1.00  0.00     0.013 C 
BRANCH  32  34
HETATM   34  C25 UNL     1      31.676  40.133   6.611  1.00  0.00    -0.016 C 
HETATM   35  C26 UNL     1      31.647  39.132   5.477  1.00  0.00     0.010 C 
HETATM   36  C27 UNL     1      33.047  40.775   6.632  1.00  0.00     0.010 C 
ENDBRANCH  32  34
ENDBRANCH  29  32
ENDBRANCH  28  29
ENDBRANCH  24  27
ENDBRANCH  22  24
ENDBRANCH  14  22
BRANCH  16  37
HETATM   37  O5  UNL     1      27.355  33.411  11.958  1.00  0.00    -0.377 OA
ATOM     38  H5  UNL     1      26.941  34.265  11.919  1.00  0.00     0.211 HD
ENDBRANCH  16  37
BRANCH   3  39
HETATM   39  C4  UNL     1      28.181  27.687  18.049  1.00  0.00     0.227 C 
HETATM   40  O1  UNL     1      27.025  27.879  18.450  1.00  0.00    -0.273 OA
HETATM   41  N1  UNL     1      28.737  26.372  17.956  1.00  0.00    -0.360 N 
HETATM   42  C5  UNL     1      30.081  26.137  17.488  1.00  0.00     0.152 C 
HETATM   43  C6  UNL     1      27.914  25.230  18.344  1.00  0.00     0.152 C 
ENDBRANCH   3  39
TORSDOF 10
ENDMDL
