MODEL 1
REMARK VINA RESULT: -6.027995192      0.000      0.000
REMARK  7 active torsions:
REMARK  status: ('A' for Active; 'I' for Inactive)
REMARK       I    between atoms: N1_2  and  C2_4 
REMARK    1  A    between atoms: C2_4  and  C3_6 
REMARK    2  A    between atoms: C3_6  and  C4_7 
REMARK    3  A    between atoms: C18_24  and  O2_25 
REMARK    4  A    between atoms: O2_25  and  S1_26 
REMARK    5  A    between atoms: S1_26  and  C19_29 
REMARK    6  A    between atoms: C19_29  and  C20_30 
REMARK    7  A    between atoms: C20_30  and  O5_33 
ROOT
HETATM    1  C4  UNL     1      28.667  34.645  10.850  1.00  0.00     0.200 C 
HETATM    2  N2  UNL     1      27.506  34.115  11.645  1.00  0.00    -0.070 N 
ATOM      3  H21 UNL     1      27.397  33.101  11.671  1.00  0.00     0.277 HD
ATOM      4  H22 UNL     1      26.577  34.276  11.255  1.00  0.00     0.277 HD
HETATM    5  C5  UNL     1      27.793  34.755  12.892  1.00  0.00     0.238 C 
HETATM    6  C6  UNL     1      29.339  34.755  13.051  1.00  0.00     0.023 C 
HETATM    7  C7  UNL     1      29.528  34.196  14.458  1.00  0.00    -0.004 C 
HETATM    8  C8  UNL     1      30.698  34.795  15.207  1.00  0.00     0.006 C 
HETATM    9  C9  UNL     1      31.921  33.970  15.274  1.00  0.00     0.006 C 
HETATM   10  C10 UNL     1      31.960  32.735  14.351  1.00  0.00    -0.006 C 
HETATM   11  C11 UNL     1      32.664  33.164  13.144  1.00  0.00     0.006 C 
HETATM   12  C12 UNL     1      32.165  34.282  12.339  1.00  0.00     0.014 C 
HETATM   13  C13 UNL     1      31.085  33.950  11.321  1.00  0.00    -0.015 C 
HETATM   14  C14 UNL     1      31.225  35.153  10.327  1.00  0.00     0.020 C 
HETATM   15  C15 UNL     1      31.549  32.711  10.643  1.00  0.00    -0.076 C 
HETATM   16  C16 UNL     1      32.618  33.110   9.587  1.00  0.00     0.044 C 
HETATM   17  C17 UNL     1      31.319  31.457  10.689  1.00  0.00     0.009 C 
HETATM   18  C18 UNL     1      30.490  30.461  11.396  1.00  0.00     0.165 C 
HETATM   19  C23 UNL     1      30.917  30.059  12.789  1.00  0.00     0.043 C 
HETATM   20  C24 UNL     1      30.235  30.899  13.814  1.00  0.00    -0.003 C 
HETATM   21  C25 UNL     1      28.985  30.705  14.281  1.00  0.00     0.006 C 
HETATM   22  C26 UNL     1      28.685  31.829  15.301  1.00  0.00     0.006 C 
HETATM   23  C27 UNL     1      29.453  32.801  14.508  1.00  0.00    -0.001 C 
HETATM   24  C28 UNL     1      30.773  32.012  14.538  1.00  0.00    -0.033 C 
HETATM   25  C29 UNL     1      30.920  31.460  15.997  1.00  0.00     0.016 C 
HETATM   26  C30 UNL     1      29.716  34.071  11.829  1.00  0.00     0.035 C 
ENDROOT
BRANCH  18  27
HETATM   27  O2  UNL     1      30.336  29.260  10.651  1.00  0.00    -0.266 OA
BRANCH  27  28
HETATM   28  S1  UNL     1      28.932  28.492  10.682  1.00  0.00     0.268 S 
HETATM   29  O3  UNL     1      27.822  29.545  10.746  1.00  0.00    -0.199 OA
HETATM   30  O4  UNL     1      28.667  27.591  11.842  1.00  0.00    -0.199 OA
BRANCH  28  31
HETATM   31  C19 UNL     1      28.606  27.562   9.208  1.00  0.00     0.207 C 
BRANCH  31  32
HETATM   32  C20 UNL     1      28.976  28.315   7.944  1.00  0.00     0.066 C 
HETATM   33  C21 UNL     1      30.320  27.955   7.411  1.00  0.00     0.046 C 
HETATM   34  C22 UNL     1      27.877  28.215   6.924  1.00  0.00     0.046 C 
BRANCH  32  35
HETATM   35  O5  UNL     1      29.014  29.673   8.336  1.00  0.00    -0.390 OA
ATOM     36  H5  UNL     1      28.271  30.071   7.897  1.00  0.00     0.210 HD
ENDBRANCH  32  35
ENDBRANCH  31  32
ENDBRANCH  28  31
ENDBRANCH  27  28
ENDBRANCH  18  27
BRANCH   1  37
HETATM   37  C3  UNL     1      28.401  36.081  10.826  1.00  0.00     0.136 C 
BRANCH  37  38
HETATM   38  C2  UNL     1      27.247  36.416   9.887  1.00  0.00     0.219 C 
HETATM   39  N1  UNL     1      25.984  36.794  10.390  1.00  0.00    -0.365 N 
HETATM   40  C1  UNL     1      24.907  37.104   9.471  1.00  0.00     0.149 C 
ATOM     41  H1  UNL     1      25.828  36.848  11.396  1.00  0.00     0.161 HD
HETATM   42  O1  UNL     1      27.389  36.364   8.648  1.00  0.00    -0.274 OA
ENDBRANCH  37  38
ENDBRANCH   1  37
TORSDOF 7
ENDMDL
MODEL 2
REMARK VINA RESULT: -6.001870042      2.928      5.154
REMARK  7 active torsions:
REMARK  status: ('A' for Active; 'I' for Inactive)
REMARK       I    between atoms: N1_2  and  C2_4 
REMARK    1  A    between atoms: C2_4  and  C3_6 
REMARK    2  A    between atoms: C3_6  and  C4_7 
REMARK    3  A    between atoms: C18_24  and  O2_25 
REMARK    4  A    between atoms: O2_25  and  S1_26 
REMARK    5  A    between atoms: S1_26  and  C19_29 
REMARK    6  A    between atoms: C19_29  and  C20_30 
REMARK    7  A    between atoms: C20_30  and  O5_33 
ROOT
HETATM    1  C4  UNL     1      28.386  34.264  12.183  1.00  0.00     0.200 C 
HETATM    2  N2  UNL     1      28.153  35.248  13.296  1.00  0.00    -0.070 N 
ATOM      3  H21 UNL     1      27.785  34.868  14.168  1.00  0.00     0.277 HD
ATOM      4  H22 UNL     1      27.380  35.901  13.171  1.00  0.00     0.277 HD
HETATM    5  C5  UNL     1      29.463  35.817  13.355  1.00  0.00     0.238 C 
HETATM    6  C6  UNL     1      30.467  34.661  13.087  1.00  0.00     0.023 C 
HETATM    7  C7  UNL     1      31.459  34.808  14.238  1.00  0.00    -0.004 C 
HETATM    8  C8  UNL     1      32.885  34.465  13.870  1.00  0.00     0.006 C 
HETATM    9  C9  UNL     1      33.370  33.140  14.307  1.00  0.00     0.006 C 
HETATM   10  C10 UNL     1      32.298  32.163  14.833  1.00  0.00    -0.006 C 
HETATM   11  C11 UNL     1      31.927  31.329  13.691  1.00  0.00     0.006 C 
HETATM   12  C12 UNL     1      31.393  31.927  12.465  1.00  0.00     0.014 C 
HETATM   13  C13 UNL     1      29.900  32.219  12.452  1.00  0.00    -0.015 C 
HETATM   14  C14 UNL     1      29.616  32.278  10.912  1.00  0.00     0.020 C 
HETATM   15  C15 UNL     1      29.256  31.002  13.013  1.00  0.00    -0.076 C 
HETATM   16  C16 UNL     1      29.198  29.926  11.891  1.00  0.00     0.044 C 
HETATM   17  C17 UNL     1      28.756  30.613  14.120  1.00  0.00     0.009 C 
HETATM   18  C18 UNL     1      28.497  31.081  15.497  1.00  0.00     0.165 C 
HETATM   19  C23 UNL     1      29.664  31.109  16.456  1.00  0.00     0.043 C 
HETATM   20  C24 UNL     1      30.318  32.449  16.455  1.00  0.00    -0.003 C 
HETATM   21  C25 UNL     1      29.893  33.529  17.141  1.00  0.00     0.006 C 
HETATM   22  C26 UNL     1      30.854  34.699  16.816  1.00  0.00     0.006 C 
HETATM   23  C27 UNL     1      31.006  34.233  15.428  1.00  0.00    -0.001 C 
HETATM   24  C28 UNL     1      31.529  32.835  15.795  1.00  0.00    -0.033 C 
HETATM   25  C29 UNL     1      32.537  33.039  16.976  1.00  0.00     0.016 C 
HETATM   26  C30 UNL     1      29.540  33.557  12.928  1.00  0.00     0.035 C 
ENDROOT
BRANCH  18  27
HETATM   27  O2  UNL     1      27.461  30.343  16.131  1.00  0.00    -0.266 OA
BRANCH  27  28
HETATM   28  S1  UNL     1      27.702  28.802  16.491  1.00  0.00     0.268 S 
HETATM   29  O3  UNL     1      28.490  28.168  15.342  1.00  0.00    -0.199 OA
HETATM   30  O4  UNL     1      26.496  27.936  16.648  1.00  0.00    -0.199 OA
BRANCH  28  31
HETATM   31  C19 UNL     1      28.710  28.566  17.931  1.00  0.00     0.207 C 
BRANCH  31  32
HETATM   32  C20 UNL     1      28.050  29.070  19.200  1.00  0.00     0.066 C 
HETATM   33  C21 UNL     1      27.493  27.982  20.053  1.00  0.00     0.046 C 
HETATM   34  C22 UNL     1      28.964  30.006  19.939  1.00  0.00     0.046 C 
BRANCH  32  35
HETATM   35  O5  UNL     1      26.970  29.864  18.749  1.00  0.00    -0.390 OA
ATOM     36  H5  UNL     1      26.211  29.296  18.812  1.00  0.00     0.210 HD
ENDBRANCH  32  35
ENDBRANCH  31  32
ENDBRANCH  28  31
ENDBRANCH  27  28
ENDBRANCH  18  27
BRANCH   1  37
HETATM   37  C3  UNL     1      28.677  35.139  11.049  1.00  0.00     0.136 C 
BRANCH  37  38
HETATM   38  C2  UNL     1      27.421  35.854  10.564  1.00  0.00     0.219 C 
HETATM   39  N1  UNL     1      27.420  36.586   9.357  1.00  0.00    -0.365 N 
HETATM   40  C1  UNL     1      26.211  37.256   8.923  1.00  0.00     0.149 C 
ATOM     41  H1  UNL     1      28.267  36.644   8.792  1.00  0.00     0.161 HD
HETATM   42  O1  UNL     1      26.360  35.812  11.220  1.00  0.00    -0.274 OA
ENDBRANCH  37  38
ENDBRANCH   1  37
TORSDOF 7
ENDMDL
MODEL 3
REMARK VINA RESULT: -5.964828606      2.714      6.531
REMARK  7 active torsions:
REMARK  status: ('A' for Active; 'I' for Inactive)
REMARK       I    between atoms: N1_2  and  C2_4 
REMARK    1  A    between atoms: C2_4  and  C3_6 
REMARK    2  A    between atoms: C3_6  and  C4_7 
REMARK    3  A    between atoms: C18_24  and  O2_25 
REMARK    4  A    between atoms: O2_25  and  S1_26 
REMARK    5  A    between atoms: S1_26  and  C19_29 
REMARK    6  A    between atoms: C19_29  and  C20_30 
REMARK    7  A    between atoms: C20_30  and  O5_33 
ROOT
HETATM    1  C4  UNL     1      30.114  31.922  10.186  1.00  0.00     0.200 C 
HETATM    2  N2  UNL     1      31.569  31.998   9.813  1.00  0.00    -0.070 N 
ATOM      3  H21 UNL     1      31.906  32.902   9.483  1.00  0.00     0.277 HD
ATOM      4  H22 UNL     1      31.847  31.505   8.965  1.00  0.00     0.277 HD
HETATM    5  C5  UNL     1      32.128  31.521  11.040  1.00  0.00     0.238 C 
HETATM    6  C6  UNL     1      31.244  32.087  12.186  1.00  0.00     0.023 C 
HETATM    7  C7  UNL     1      32.277  32.692  13.134  1.00  0.00    -0.004 C 
HETATM    8  C8  UNL     1      31.916  32.569  14.597  1.00  0.00     0.006 C 
HETATM    9  C9  UNL     1      31.377  33.786  15.240  1.00  0.00     0.006 C 
HETATM   10  C10 UNL     1      30.988  34.939  14.293  1.00  0.00    -0.006 C 
HETATM   11  C11 UNL     1      29.555  34.785  14.048  1.00  0.00     0.006 C 
HETATM   12  C12 UNL     1      29.021  33.554  13.461  1.00  0.00     0.014 C 
HETATM   13  C13 UNL     1      29.064  33.457  11.944  1.00  0.00    -0.015 C 
HETATM   14  C14 UNL     1      27.959  32.378  11.677  1.00  0.00     0.020 C 
HETATM   15  C15 UNL     1      28.579  34.773  11.451  1.00  0.00    -0.076 C 
HETATM   16  C16 UNL     1      27.027  34.781  11.546  1.00  0.00     0.044 C 
HETATM   17  C17 UNL     1      29.068  35.857  10.988  1.00  0.00     0.009 C 
HETATM   18  C18 UNL     1      30.359  36.488  10.651  1.00  0.00     0.165 C 
HETATM   19  C23 UNL     1      31.189  37.032  11.791  1.00  0.00     0.043 C 
HETATM   20  C24 UNL     1      32.165  36.012  12.269  1.00  0.00    -0.003 C 
HETATM   21  C25 UNL     1      33.358  35.740  11.700  1.00  0.00     0.006 C 
HETATM   22  C26 UNL     1      34.013  34.595  12.509  1.00  0.00     0.006 C 
HETATM   23  C27 UNL     1      32.704  33.963  12.739  1.00  0.00    -0.001 C 
HETATM   24  C28 UNL     1      32.068  35.181  13.431  1.00  0.00    -0.033 C 
HETATM   25  C29 UNL     1      33.163  35.763  14.387  1.00  0.00     0.016 C 
HETATM   26  C30 UNL     1      30.285  32.849  11.410  1.00  0.00     0.035 C 
ENDROOT
BRANCH  18  27
HETATM   27  O2  UNL     1      30.215  37.541   9.708  1.00  0.00    -0.266 OA
BRANCH  27  28
HETATM   28  S1  UNL     1      29.916  37.187   8.175  1.00  0.00     0.268 S 
HETATM   29  O3  UNL     1      30.767  35.971   7.799  1.00  0.00    -0.199 OA
HETATM   30  O4  UNL     1      30.258  38.219   7.152  1.00  0.00    -0.199 OA
BRANCH  28  31
HETATM   31  C19 UNL     1      28.239  36.690   7.882  1.00  0.00     0.207 C 
BRANCH  31  32
HETATM   32  C20 UNL     1      27.246  37.815   8.104  1.00  0.00     0.066 C 
HETATM   33  C21 UNL     1      26.851  38.514   6.848  1.00  0.00     0.046 C 
HETATM   34  C22 UNL     1      26.078  37.339   8.920  1.00  0.00     0.046 C 
BRANCH  32  35
HETATM   35  O5  UNL     1      27.933  38.743   8.920  1.00  0.00    -0.390 OA
ATOM     36  H5  UNL     1      27.515  39.576   8.740  1.00  0.00     0.210 HD
ENDBRANCH  32  35
ENDBRANCH  31  32
ENDBRANCH  28  31
ENDBRANCH  27  28
ENDBRANCH  18  27
BRANCH   1  37
HETATM   37  C3  UNL     1      29.916  30.487  10.380  1.00  0.00     0.136 C 
BRANCH  37  38
HETATM   38  C2  UNL     1      29.449  29.813   9.095  1.00  0.00     0.219 C 
HETATM   39  N1  UNL     1      28.666  28.638   9.132  1.00  0.00    -0.365 N 
HETATM   40  C1  UNL     1      28.239  28.019   7.893  1.00  0.00     0.149 C 
ATOM     41  H1  UNL     1      28.403  28.226  10.027  1.00  0.00     0.161 HD
HETATM   42  O1  UNL     1      29.745  30.280   7.977  1.00  0.00    -0.274 OA
ENDBRANCH  37  38
ENDBRANCH   1  37
TORSDOF 7
ENDMDL
MODEL 4
REMARK VINA RESULT: -5.927953184      1.866      2.240
REMARK  7 active torsions:
REMARK  status: ('A' for Active; 'I' for Inactive)
REMARK       I    between atoms: N1_2  and  C2_4 
REMARK    1  A    between atoms: C2_4  and  C3_6 
REMARK    2  A    between atoms: C3_6  and  C4_7 
REMARK    3  A    between atoms: C18_24  and  O2_25 
REMARK    4  A    between atoms: O2_25  and  S1_26 
REMARK    5  A    between atoms: S1_26  and  C19_29 
REMARK    6  A    between atoms: C19_29  and  C20_30 
REMARK    7  A    between atoms: C20_30  and  O5_33 
ROOT
HETATM    1  C4  UNL     1      29.519  35.119  11.234  1.00  0.00     0.200 C 
HETATM    2  N2  UNL     1      28.268  34.304  11.410  1.00  0.00    -0.070 N 
ATOM      3  H21 UNL     1      28.371  33.292  11.334  1.00  0.00     0.277 HD
ATOM      4  H22 UNL     1      27.580  34.362  10.659  1.00  0.00     0.277 HD
HETATM    5  C5  UNL     1      27.864  34.809  12.685  1.00  0.00     0.238 C 
HETATM    6  C6  UNL     1      29.161  35.041  13.508  1.00  0.00     0.023 C 
HETATM    7  C7  UNL     1      28.851  34.336  14.825  1.00  0.00    -0.004 C 
HETATM    8  C8  UNL     1      29.443  35.014  16.041  1.00  0.00     0.006 C 
HETATM    9  C9  UNL     1      30.666  34.399  16.599  1.00  0.00     0.006 C 
HETATM   10  C10 UNL     1      31.344  33.322  15.727  1.00  0.00    -0.006 C 
HETATM   11  C11 UNL     1      32.387  34.020  14.976  1.00  0.00     0.006 C 
HETATM   12  C12 UNL     1      32.054  35.139  14.090  1.00  0.00     0.014 C 
HETATM   13  C13 UNL     1      31.599  34.774  12.685  1.00  0.00    -0.015 C 
HETATM   14  C14 UNL     1      31.894  36.106  11.915  1.00  0.00     0.020 C 
HETATM   15  C15 UNL     1      32.550  33.730  12.221  1.00  0.00    -0.076 C 
HETATM   16  C16 UNL     1      33.857  34.438  11.764  1.00  0.00     0.044 C 
HETATM   17  C17 UNL     1      32.587  32.461  12.098  1.00  0.00     0.009 C 
HETATM   18  C18 UNL     1      31.762  31.256  12.318  1.00  0.00     0.165 C 
HETATM   19  C23 UNL     1      31.634  30.747  13.736  1.00  0.00     0.043 C 
HETATM   20  C24 UNL     1      30.426  31.317  14.396  1.00  0.00    -0.003 C 
HETATM   21  C25 UNL     1      29.165  30.860  14.255  1.00  0.00     0.006 C 
HETATM   22  C26 UNL     1      28.238  31.772  15.093  1.00  0.00     0.006 C 
HETATM   23  C27 UNL     1      29.051  32.955  14.768  1.00  0.00    -0.001 C 
HETATM   24  C28 UNL     1      30.366  32.395  15.337  1.00  0.00    -0.033 C 
HETATM   25  C29 UNL     1      29.995  31.684  16.682  1.00  0.00     0.016 C 
HETATM   26  C30 UNL     1      30.151  34.599  12.544  1.00  0.00     0.035 C 
ENDROOT
BRANCH  18  27
HETATM   27  O2  UNL     1      32.188  30.158  11.523  1.00  0.00    -0.266 OA
BRANCH  27  28
HETATM   28  S1  UNL     1      31.127  29.406  10.590  1.00  0.00     0.268 S 
HETATM   29  O3  UNL     1      30.154  28.650  11.499  1.00  0.00    -0.199 OA
HETATM   30  O4  UNL     1      31.650  28.372   9.649  1.00  0.00    -0.199 OA
BRANCH  28  31
HETATM   31  C19 UNL     1      30.114  30.513   9.644  1.00  0.00     0.207 C 
BRANCH  31  32
HETATM   32  C20 UNL     1      30.894  31.260   8.580  1.00  0.00     0.066 C 
HETATM   33  C21 UNL     1      30.507  30.889   7.190  1.00  0.00     0.046 C 
HETATM   34  C22 UNL     1      30.864  32.740   8.838  1.00  0.00     0.046 C 
BRANCH  32  35
HETATM   35  O5  UNL     1      32.237  30.863   8.777  1.00  0.00    -0.390 OA
ATOM     36  H5  UNL     1      32.627  30.899   7.912  1.00  0.00     0.210 HD
ENDBRANCH  32  35
ENDBRANCH  31  32
ENDBRANCH  28  31
ENDBRANCH  27  28
ENDBRANCH  18  27
BRANCH   1  37
HETATM   37  C3  UNL     1      28.998  36.482  11.166  1.00  0.00     0.136 C 
BRANCH  37  38
HETATM   38  C2  UNL     1      28.591  36.851   9.744  1.00  0.00     0.219 C 
HETATM   39  N1  UNL     1      28.600  38.193   9.308  1.00  0.00    -0.365 N 
HETATM   40  C1  UNL     1      28.205  38.511   7.950  1.00  0.00     0.149 C 
ATOM     41  H1  UNL     1      28.882  38.937   9.946  1.00  0.00     0.161 HD
HETATM   42  O1  UNL     1      28.239  35.976   8.927  1.00  0.00    -0.274 OA
ENDBRANCH  37  38
ENDBRANCH   1  37
TORSDOF 7
ENDMDL
MODEL 5
REMARK VINA RESULT: -5.871570741      1.140      1.863
REMARK  7 active torsions:
REMARK  status: ('A' for Active; 'I' for Inactive)
REMARK       I    between atoms: N1_2  and  C2_4 
REMARK    1  A    between atoms: C2_4  and  C3_6 
REMARK    2  A    between atoms: C3_6  and  C4_7 
REMARK    3  A    between atoms: C18_24  and  O2_25 
REMARK    4  A    between atoms: O2_25  and  S1_26 
REMARK    5  A    between atoms: S1_26  and  C19_29 
REMARK    6  A    between atoms: C19_29  and  C20_30 
REMARK    7  A    between atoms: C20_30  and  O5_33 
ROOT
HETATM    1  C4  UNL     1      28.935  34.770  11.105  1.00  0.00     0.200 C 
HETATM    2  N2  UNL     1      27.721  34.246  11.820  1.00  0.00    -0.070 N 
ATOM      3  H21 UNL     1      27.588  33.235  11.808  1.00  0.00     0.277 HD
ATOM      4  H22 UNL     1      26.819  34.442  11.387  1.00  0.00     0.277 HD
HETATM    5  C5  UNL     1      27.955  34.840  13.099  1.00  0.00     0.238 C 
HETATM    6  C6  UNL     1      29.490  34.797  13.340  1.00  0.00     0.023 C 
HETATM    7  C7  UNL     1      29.591  34.191  14.737  1.00  0.00    -0.004 C 
HETATM    8  C8  UNL     1      30.732  34.739  15.565  1.00  0.00     0.006 C 
HETATM    9  C9  UNL     1      31.931  33.882  15.670  1.00  0.00     0.006 C 
HETATM   10  C10 UNL     1      31.990  32.674  14.712  1.00  0.00    -0.006 C 
HETATM   11  C11 UNL     1      32.768  33.122  13.558  1.00  0.00     0.006 C 
HETATM   12  C12 UNL     1      32.339  34.276  12.764  1.00  0.00     0.014 C 
HETATM   13  C13 UNL     1      31.307  34.002  11.680  1.00  0.00    -0.015 C 
HETATM   14  C14 UNL     1      31.528  35.230  10.733  1.00  0.00     0.020 C 
HETATM   15  C15 UNL     1      31.778  32.772  10.989  1.00  0.00    -0.076 C 
HETATM   16  C16 UNL     1      32.911  33.177  10.004  1.00  0.00     0.044 C 
HETATM   17  C17 UNL     1      31.517  31.524  10.983  1.00  0.00     0.009 C 
HETATM   18  C18 UNL     1      30.628  30.527  11.614  1.00  0.00     0.165 C 
HETATM   19  C23 UNL     1      30.971  30.074  13.015  1.00  0.00     0.043 C 
HETATM   20  C24 UNL     1      30.254  30.899  14.028  1.00  0.00    -0.003 C 
HETATM   21  C25 UNL     1      28.976  30.722  14.422  1.00  0.00     0.006 C 
HETATM   22  C26 UNL     1      28.649  31.822  15.459  1.00  0.00     0.006 C 
HETATM   23  C27 UNL     1      29.481  32.798  14.739  1.00  0.00    -0.001 C 
HETATM   24  C28 UNL     1      30.778  31.975  14.814  1.00  0.00    -0.033 C 
HETATM   25  C29 UNL     1      30.834  31.376  16.260  1.00  0.00     0.016 C 
HETATM   26  C30 UNL     1      29.916  34.141  12.118  1.00  0.00     0.035 C 
ENDROOT
BRANCH  18  27
HETATM   27  O2  UNL     1      30.487  29.354  10.825  1.00  0.00    -0.266 OA
BRANCH  27  28
HETATM   28  S1  UNL     1      29.066  29.017  10.167  1.00  0.00     0.268 S 
HETATM   29  O3  UNL     1      29.090  29.510   8.718  1.00  0.00    -0.199 OA
HETATM   30  O4  UNL     1      27.861  29.662  10.767  1.00  0.00    -0.199 OA
BRANCH  28  31
HETATM   31  C19 UNL     1      28.734  27.278  10.062  1.00  0.00     0.207 C 
BRANCH  31  32
HETATM   32  C20 UNL     1      28.775  26.589  11.412  1.00  0.00     0.066 C 
HETATM   33  C21 UNL     1      27.615  25.685  11.652  1.00  0.00     0.046 C 
HETATM   34  C22 UNL     1      30.107  25.931  11.634  1.00  0.00     0.046 C 
BRANCH  32  35
HETATM   35  O5  UNL     1      28.706  27.643  12.353  1.00  0.00    -0.390 OA
ATOM     36  H5  UNL     1      28.808  27.218  13.197  1.00  0.00     0.210 HD
ENDBRANCH  32  35
ENDBRANCH  31  32
ENDBRANCH  28  31
ENDBRANCH  27  28
ENDBRANCH  18  27
BRANCH   1  37
HETATM   37  C3  UNL     1      28.704  36.212  11.112  1.00  0.00     0.136 C 
BRANCH  37  38
HETATM   38  C2  UNL     1      27.785  36.633   9.970  1.00  0.00     0.219 C 
HETATM   39  N1  UNL     1      28.103  37.734   9.146  1.00  0.00    -0.365 N 
HETATM   40  C1  UNL     1      27.208  38.110   8.070  1.00  0.00     0.149 C 
ATOM     41  H1  UNL     1      28.960  38.263   9.307  1.00  0.00     0.161 HD
HETATM   42  O1  UNL     1      26.726  36.016   9.734  1.00  0.00    -0.274 OA
ENDBRANCH  37  38
ENDBRANCH   1  37
TORSDOF 7
ENDMDL
