MODEL 1
REMARK VINA RESULT: -6.153959058      0.000      0.000
REMARK  3 active torsions:
REMARK  status: ('A' for Active; 'I' for Inactive)
REMARK    1  A    between atoms: C2_5  and  O2_6 
REMARK    2  A    between atoms: C3_8  and  S1_9 
REMARK    3  A    between atoms: S1_9  and  C4_10 
ROOT
HETATM    1  O1  UNL     1      -4.945  -5.345   0.106  1.00  0.00    -0.260 OA
HETATM    2  C1  UNL     1      -3.812  -4.897  -0.298  1.00  0.00     0.291 A 
HETATM    3  N1  UNL     1      -3.503  -3.649  -0.657  1.00  0.00    -0.296 N 
ATOM      4  H1  UNL     1      -4.203  -2.907  -0.632  1.00  0.00     0.171 HD
HETATM    5  C2  UNL     1      -2.279  -3.404  -1.041  1.00  0.00     0.167 A 
HETATM    6  C3  UNL     1      -1.389  -4.439  -1.054  1.00  0.00     0.097 A 
HETATM    7  S2  UNL     1      -2.349  -5.740  -0.507  1.00  0.00    -0.018 SA
ENDROOT
BRANCH   6   8
HETATM    8  S1  UNL     1       0.353  -4.397  -1.543  1.00  0.00    -0.111 SA
BRANCH   8   9
HETATM    9  C4  UNL     1       1.255  -3.491  -0.260  1.00  0.00     0.087 C 
HETATM   10  C5  UNL     1       2.712  -3.873  -0.362  1.00  0.00     0.018 C 
HETATM   11  C6  UNL     1       2.770  -5.341   0.023  1.00  0.00     0.001 C 
HETATM   12  C7  UNL     1       2.318  -5.577   1.411  1.00  0.00     0.003 C 
HETATM   13  C8  UNL     1       1.320  -4.657   1.973  1.00  0.00     0.038 C 
HETATM   14  C9  UNL     1       0.644  -3.714   1.073  1.00  0.00     0.184 C 
HETATM   15  F1  UNL     1       0.530  -2.452   1.680  1.00  0.00    -0.248 F 
ENDBRANCH   8   9
ENDBRANCH   6   8
BRANCH   5  16
HETATM   16  O2  UNL     1      -1.856  -2.109  -1.440  1.00  0.00    -0.345 OA
ATOM     17  H2  UNL     1      -1.029  -1.738  -1.157  1.00  0.00     0.219 HD
ENDBRANCH   5  16
TORSDOF 3
ENDMDL
MODEL 2
REMARK VINA RESULT: -6.009414246      3.252      5.149
REMARK  3 active torsions:
REMARK  status: ('A' for Active; 'I' for Inactive)
REMARK    1  A    between atoms: C2_5  and  O2_6 
REMARK    2  A    between atoms: C3_8  and  S1_9 
REMARK    3  A    between atoms: S1_9  and  C4_10 
ROOT
HETATM    1  O1  UNL     1       3.522  -1.500  -1.307  1.00  0.00    -0.260 OA
HETATM    2  C1  UNL     1       2.699  -2.144  -0.561  1.00  0.00     0.291 A 
HETATM    3  N1  UNL     1       2.321  -1.853   0.685  1.00  0.00    -0.296 N 
ATOM      4  H1  UNL     1       2.690  -1.033   1.168  1.00  0.00     0.171 HD
HETATM    5  C2  UNL     1       1.466  -2.648   1.271  1.00  0.00     0.167 A 
HETATM    6  C3  UNL     1       1.010  -3.729   0.573  1.00  0.00     0.097 A 
HETATM    7  S2  UNL     1       1.833  -3.565  -0.913  1.00  0.00    -0.018 SA
ENDROOT
BRANCH   6   8
HETATM    8  S1  UNL     1      -0.160  -4.994   1.128  1.00  0.00    -0.111 SA
BRANCH   8   9
HETATM    9  C4  UNL     1      -1.829  -4.374   0.789  1.00  0.00     0.087 C 
HETATM   10  C5  UNL     1      -2.487  -5.326  -0.180  1.00  0.00     0.018 C 
HETATM   11  C6  UNL     1      -1.703  -5.187  -1.474  1.00  0.00     0.001 C 
HETATM   12  C7  UNL     1      -1.777  -3.820  -2.033  1.00  0.00     0.003 C 
HETATM   13  C8  UNL     1      -1.945  -2.703  -1.093  1.00  0.00     0.038 C 
HETATM   14  C9  UNL     1      -1.787  -2.960   0.344  1.00  0.00     0.184 C 
HETATM   15  F1  UNL     1      -2.773  -2.278   1.076  1.00  0.00    -0.248 F 
ENDBRANCH   8   9
ENDBRANCH   6   8
BRANCH   5  16
HETATM   16  O2  UNL     1       1.004  -2.420   2.593  1.00  0.00    -0.345 OA
ATOM     17  H2  UNL     1       1.137  -3.050   3.291  1.00  0.00     0.219 HD
ENDBRANCH   5  16
TORSDOF 3
ENDMDL
MODEL 3
REMARK VINA RESULT: -5.962645263      2.756      3.661
REMARK  3 active torsions:
REMARK  status: ('A' for Active; 'I' for Inactive)
REMARK    1  A    between atoms: C2_5  and  O2_6 
REMARK    2  A    between atoms: C3_8  and  S1_9 
REMARK    3  A    between atoms: S1_9  and  C4_10 
ROOT
HETATM    1  O1  UNL     1      -2.856  -2.472  -0.087  1.00  0.00    -0.260 OA
HETATM    2  C1  UNL     1      -1.607  -2.700   0.104  1.00  0.00     0.291 A 
HETATM    3  N1  UNL     1      -0.863  -2.368   1.160  1.00  0.00    -0.296 N 
ATOM      4  H1  UNL     1      -1.269  -1.869   1.952  1.00  0.00     0.171 HD
HETATM    5  C2  UNL     1       0.400  -2.699   1.152  1.00  0.00     0.167 A 
HETATM    6  C3  UNL     1       0.885  -3.365   0.063  1.00  0.00     0.097 A 
HETATM    7  S2  UNL     1      -0.504  -3.494  -0.920  1.00  0.00    -0.018 SA
ENDROOT
BRANCH   6   8
HETATM    8  S1  UNL     1       2.578  -3.935  -0.225  1.00  0.00    -0.111 SA
BRANCH   8   9
HETATM    9  C4  UNL     1       2.478  -5.621  -0.882  1.00  0.00     0.087 C 
HETATM   10  C5  UNL     1       1.545  -6.407   0.007  1.00  0.00     0.018 C 
HETATM   11  C6  UNL     1       2.255  -6.507   1.346  1.00  0.00     0.001 C 
HETATM   12  C7  UNL     1       3.539  -7.234   1.250  1.00  0.00     0.003 C 
HETATM   13  C8  UNL     1       4.270  -7.171  -0.023  1.00  0.00     0.038 C 
HETATM   14  C9  UNL     1       3.830  -6.207  -1.041  1.00  0.00     0.184 C 
HETATM   15  F1  UNL     1       3.868  -6.792  -2.318  1.00  0.00    -0.248 F 
ENDBRANCH   8   9
ENDBRANCH   6   8
BRANCH   5  16
HETATM   16  O2  UNL     1       1.270  -2.390   2.230  1.00  0.00    -0.345 OA
ATOM     17  H2  UNL     1       1.233  -1.559   2.688  1.00  0.00     0.219 HD
ENDBRANCH   5  16
TORSDOF 3
ENDMDL
MODEL 4
REMARK VINA RESULT: -5.932460444      3.403      5.570
REMARK  3 active torsions:
REMARK  status: ('A' for Active; 'I' for Inactive)
REMARK    1  A    between atoms: C2_5  and  O2_6 
REMARK    2  A    between atoms: C3_8  and  S1_9 
REMARK    3  A    between atoms: S1_9  and  C4_10 
ROOT
HETATM    1  O1  UNL     1       3.899  -1.660  -1.070  1.00  0.00    -0.260 OA
HETATM    2  C1  UNL     1       2.891  -2.197  -0.484  1.00  0.00     0.291 A 
HETATM    3  N1  UNL     1       2.302  -1.816   0.651  1.00  0.00    -0.296 N 
ATOM      4  H1  UNL     1       2.642  -1.008   1.173  1.00  0.00     0.171 HD
HETATM    5  C2  UNL     1       1.280  -2.508   1.077  1.00  0.00     0.167 A 
HETATM    6  C3  UNL     1       0.873  -3.579   0.335  1.00  0.00     0.097 A 
HETATM    7  S2  UNL     1       1.984  -3.556  -0.960  1.00  0.00    -0.018 SA
ENDROOT
BRANCH   6   8
HETATM    8  S1  UNL     1      -0.494  -4.714   0.683  1.00  0.00    -0.111 SA
BRANCH   8   9
HETATM    9  C4  UNL     1      -1.810  -4.357  -0.510  1.00  0.00     0.087 C 
HETATM   10  C5  UNL     1      -2.282  -2.944  -0.267  1.00  0.00     0.018 C 
HETATM   11  C6  UNL     1      -2.935  -2.968   1.105  1.00  0.00     0.001 C 
HETATM   12  C7  UNL     1      -4.105  -3.870   1.154  1.00  0.00     0.003 C 
HETATM   13  C8  UNL     1      -4.111  -5.036   0.261  1.00  0.00     0.038 C 
HETATM   14  C9  UNL     1      -2.874  -5.388  -0.447  1.00  0.00     0.184 C 
HETATM   15  F1  UNL     1      -3.155  -5.756  -1.774  1.00  0.00    -0.248 F 
ENDBRANCH   8   9
ENDBRANCH   6   8
BRANCH   5  16
HETATM   16  O2  UNL     1       0.589  -2.179   2.273  1.00  0.00    -0.345 OA
ATOM     17  H2  UNL     1       0.306  -2.841   2.892  1.00  0.00     0.219 HD
ENDBRANCH   5  16
TORSDOF 3
ENDMDL
MODEL 5
REMARK VINA RESULT: -5.926356123      3.566      5.352
REMARK  3 active torsions:
REMARK  status: ('A' for Active; 'I' for Inactive)
REMARK    1  A    between atoms: C2_5  and  O2_6 
REMARK    2  A    between atoms: C3_8  and  S1_9 
REMARK    3  A    between atoms: S1_9  and  C4_10 
ROOT
HETATM    1  O1  UNL     1       4.166  -6.742  -0.159  1.00  0.00    -0.260 OA
HETATM    2  C1  UNL     1       3.348  -5.753  -0.131  1.00  0.00     0.291 A 
HETATM    3  N1  UNL     1       3.405  -4.620  -0.835  1.00  0.00    -0.296 N 
ATOM      4  H1  UNL     1       4.164  -4.450  -1.495  1.00  0.00     0.171 HD
HETATM    5  C2  UNL     1       2.462  -3.735  -0.654  1.00  0.00     0.167 A 
HETATM    6  C3  UNL     1       1.474  -4.021   0.244  1.00  0.00     0.097 A 
HETATM    7  S2  UNL     1       1.938  -5.565   0.802  1.00  0.00    -0.018 SA
ENDROOT
BRANCH   6   8
HETATM    8  S1  UNL     1       0.059  -2.989   0.702  1.00  0.00    -0.111 SA
BRANCH   8   9
HETATM    9  C4  UNL     1      -1.012  -2.862  -0.754  1.00  0.00     0.087 C 
HETATM   10  C5  UNL     1      -2.286  -2.172  -0.331  1.00  0.00     0.018 C 
HETATM   11  C6  UNL     1      -2.967  -3.137   0.625  1.00  0.00     0.001 C 
HETATM   12  C7  UNL     1      -3.319  -4.418  -0.025  1.00  0.00     0.003 C 
HETATM   13  C8  UNL     1      -2.475  -4.878  -1.136  1.00  0.00     0.038 C 
HETATM   14  C9  UNL     1      -1.202  -4.189  -1.387  1.00  0.00     0.184 C 
HETATM   15  F1  UNL     1      -1.006  -4.009  -2.767  1.00  0.00    -0.248 F 
ENDBRANCH   8   9
ENDBRANCH   6   8
BRANCH   5  16
HETATM   16  O2  UNL     1       2.437  -2.502  -1.356  1.00  0.00    -0.345 OA
ATOM     17  H2  UNL     1       1.972  -1.742  -1.028  1.00  0.00     0.219 HD
ENDBRANCH   5  16
TORSDOF 3
ENDMDL
