MODEL 1
REMARK VINA RESULT: -6.406198306      0.000      0.000
REMARK  5 active torsions:
REMARK  status: ('A' for Active; 'I' for Inactive)
REMARK    1  A    between atoms: C2_2  and  C8_17 
REMARK    2  A    between atoms: N1_3  and  N2_5 
REMARK    3  A    between atoms: N2_5  and  C3_7 
REMARK    4  A    between atoms: C3_7  and  C4_12 
REMARK    5  A    between atoms: N3_8  and  O1_10 
ROOT
HETATM    1  N2  UNL     1       1.521  -3.024   0.018  1.00  0.00    -0.282 N 
ATOM      2  H2  UNL     1       1.894  -2.374  -0.675  1.00  0.00     0.188 HD
ENDROOT
BRANCH   1   3
HETATM    3  N1  UNL     1       2.158  -4.217   0.264  1.00  0.00    -0.307 N 
HETATM    4  C2  UNL     1       2.071  -5.279  -0.453  1.00  0.00     0.007 C 
HETATM    5  C1  UNL     1       1.214  -5.231  -1.652  1.00  0.00     0.066 C 
ATOM      6  H1  UNL     1       2.753  -4.263   1.091  1.00  0.00     0.186 HD
BRANCH   4   7
HETATM    7  C8  UNL     1       2.839  -6.460  -0.015  1.00  0.00    -0.012 C 
HETATM    8  C9  UNL     1       4.193  -6.379  -0.685  1.00  0.00     0.021 C 
HETATM    9  C10 UNL     1       2.943  -6.584   1.476  1.00  0.00     0.021 C 
HETATM   10  C11 UNL     1       2.155  -7.705  -0.524  1.00  0.00     0.021 C 
ENDBRANCH   4   7
ENDBRANCH   1   3
BRANCH   1  11
HETATM   11  C3  UNL     1       0.339  -2.705   0.737  1.00  0.00     0.174 C 
HETATM   12  N3  UNL     1       0.392  -2.251   1.965  1.00  0.00    -0.249 N 
ATOM     13  H3  UNL     1      -0.476  -2.030   2.453  1.00  0.00     0.196 HD
BRANCH  12  14
HETATM   14  O1  UNL     1       1.580  -2.065   2.607  1.00  0.00    -0.288 OA
ATOM     15  H1  UNL     1       1.745  -2.434   3.467  1.00  0.00     0.244 HD
ENDBRANCH  12  14
BRANCH  11  16
HETATM   16  C4  UNL     1      -0.948  -2.893   0.077  1.00  0.00     0.121 A 
HETATM   17  C5  UNL     1      -2.114  -3.327   0.695  1.00  0.00     0.043 A 
HETATM   18  C6  UNL     1      -3.084  -3.361  -0.303  1.00  0.00     0.027 A 
HETATM   19  C7  UNL     1      -2.451  -2.947  -1.465  1.00  0.00     0.142 A 
HETATM   20  O2  UNL     1      -1.196  -2.687  -1.177  1.00  0.00    -0.319 OA
ENDBRANCH  11  16
ENDBRANCH   1  11
TORSDOF 5
ENDMDL
MODEL 2
REMARK VINA RESULT: -6.403154974      2.209      3.230
REMARK  5 active torsions:
REMARK  status: ('A' for Active; 'I' for Inactive)
REMARK    1  A    between atoms: C2_2  and  C8_17 
REMARK    2  A    between atoms: N1_3  and  N2_5 
REMARK    3  A    between atoms: N2_5  and  C3_7 
REMARK    4  A    between atoms: C3_7  and  C4_12 
REMARK    5  A    between atoms: N3_8  and  O1_10 
ROOT
HETATM    1  N2  UNL     1      -0.524  -4.535   1.507  1.00  0.00    -0.282 N 
ATOM      2  H2  UNL     1      -1.308  -4.782   2.111  1.00  0.00     0.188 HD
ENDROOT
BRANCH   1   3
HETATM    3  N1  UNL     1       0.418  -5.478   1.169  1.00  0.00    -0.307 N 
HETATM    4  C2  UNL     1       1.286  -5.993   1.964  1.00  0.00     0.007 C 
HETATM    5  C1  UNL     1       1.288  -5.540   3.367  1.00  0.00     0.066 C 
ATOM      6  H1  UNL     1       0.427  -5.799   0.201  1.00  0.00     0.186 HD
BRANCH   4   7
HETATM    7  C8  UNL     1       2.211  -6.997   1.402  1.00  0.00    -0.012 C 
HETATM    8  C9  UNL     1       3.157  -6.258   0.483  1.00  0.00     0.021 C 
HETATM    9  C10 UNL     1       2.932  -7.793   2.449  1.00  0.00     0.021 C 
HETATM   10  C11 UNL     1       1.424  -7.969   0.558  1.00  0.00     0.021 C 
ENDBRANCH   4   7
ENDBRANCH   1   3
BRANCH   1  11
HETATM   11  C3  UNL     1      -0.393  -3.212   1.005  1.00  0.00     0.174 C 
HETATM   12  N3  UNL     1      -1.372  -2.347   1.107  1.00  0.00    -0.249 N 
ATOM     13  H3  UNL     1      -1.245  -1.405   0.737  1.00  0.00     0.196 HD
BRANCH  12  14
HETATM   14  O1  UNL     1      -2.557  -2.676   1.694  1.00  0.00    -0.288 OA
ATOM     15  H1  UNL     1      -3.377  -2.285   1.414  1.00  0.00     0.244 HD
ENDBRANCH  12  14
BRANCH  11  16
HETATM   16  C4  UNL     1       0.864  -2.830   0.371  1.00  0.00     0.121 A 
HETATM   17  C5  UNL     1       1.930  -2.209   1.008  1.00  0.00     0.043 A 
HETATM   18  C6  UNL     1       2.908  -2.034   0.031  1.00  0.00     0.027 A 
HETATM   19  C7  UNL     1       2.376  -2.558  -1.137  1.00  0.00     0.142 A 
HETATM   20  O2  UNL     1       1.172  -3.011  -0.873  1.00  0.00    -0.319 OA
ENDBRANCH  11  16
ENDBRANCH   1  11
TORSDOF 5
ENDMDL
MODEL 3
REMARK VINA RESULT: -6.367693450      3.282      5.891
REMARK  5 active torsions:
REMARK  status: ('A' for Active; 'I' for Inactive)
REMARK    1  A    between atoms: C2_2  and  C8_17 
REMARK    2  A    between atoms: N1_3  and  N2_5 
REMARK    3  A    between atoms: N2_5  and  C3_7 
REMARK    4  A    between atoms: C3_7  and  C4_12 
REMARK    5  A    between atoms: N3_8  and  O1_10 
ROOT
HETATM    1  N2  UNL     1      -2.565  -2.875  -0.800  1.00  0.00    -0.282 N 
ATOM      2  H2  UNL     1      -2.799  -1.921  -0.525  1.00  0.00     0.188 HD
ENDROOT
BRANCH   1   3
HETATM    3  N1  UNL     1      -3.492  -3.883  -0.668  1.00  0.00    -0.307 N 
HETATM    4  C2  UNL     1      -4.067  -4.237   0.424  1.00  0.00     0.007 C 
HETATM    5  C1  UNL     1      -3.712  -3.511   1.657  1.00  0.00     0.066 C 
ATOM      6  H1  UNL     1      -3.745  -4.394  -1.513  1.00  0.00     0.186 HD
BRANCH   4   7
HETATM    7  C8  UNL     1      -5.038  -5.347   0.352  1.00  0.00    -0.012 C 
HETATM    8  C9  UNL     1      -4.584  -6.257  -0.767  1.00  0.00     0.021 C 
HETATM    9  C10 UNL     1      -5.207  -6.075   1.652  1.00  0.00     0.021 C 
HETATM   10  C11 UNL     1      -6.388  -4.792  -0.033  1.00  0.00     0.021 C 
ENDBRANCH   4   7
ENDBRANCH   1   3
BRANCH   1  11
HETATM   11  C3  UNL     1      -1.279  -3.177  -1.322  1.00  0.00     0.174 C 
HETATM   12  N3  UNL     1      -1.132  -3.643  -2.538  1.00  0.00    -0.249 N 
ATOM     13  H3  UNL     1      -0.194  -3.848  -2.882  1.00  0.00     0.196 HD
BRANCH  12  14
HETATM   14  O1  UNL     1      -2.201  -3.861  -3.354  1.00  0.00    -0.288 OA
ATOM     15  H1  UNL     1      -2.546  -4.734  -3.501  1.00  0.00     0.244 HD
ENDBRANCH  12  14
BRANCH  11  16
HETATM   16  C4  UNL     1      -0.115  -2.955  -0.472  1.00  0.00     0.121 A 
HETATM   17  C5  UNL     1      -0.137  -2.856   0.913  1.00  0.00     0.043 A 
HETATM   18  C6  UNL     1       1.184  -2.645   1.301  1.00  0.00     0.027 A 
HETATM   19  C7  UNL     1       1.927  -2.630   0.131  1.00  0.00     0.142 A 
HETATM   20  O2  UNL     1       1.107  -2.817  -0.878  1.00  0.00    -0.319 OA
ENDBRANCH  11  16
ENDBRANCH   1  11
TORSDOF 5
ENDMDL
MODEL 4
REMARK VINA RESULT: -6.340934682      2.223      3.385
REMARK  5 active torsions:
REMARK  status: ('A' for Active; 'I' for Inactive)
REMARK    1  A    between atoms: C2_2  and  C8_17 
REMARK    2  A    between atoms: N1_3  and  N2_5 
REMARK    3  A    between atoms: N2_5  and  C3_7 
REMARK    4  A    between atoms: C3_7  and  C4_12 
REMARK    5  A    between atoms: N3_8  and  O1_10 
ROOT
HETATM    1  N2  UNL     1      -0.512  -4.537   1.518  1.00  0.00    -0.282 N 
ATOM      2  H2  UNL     1      -1.287  -4.782   2.136  1.00  0.00     0.188 HD
ENDROOT
BRANCH   1   3
HETATM    3  N1  UNL     1       0.418  -5.484   1.162  1.00  0.00    -0.307 N 
HETATM    4  C2  UNL     1       1.296  -6.007   1.939  1.00  0.00     0.007 C 
HETATM    5  C1  UNL     1       1.325  -5.560   3.344  1.00  0.00     0.066 C 
ATOM      6  H1  UNL     1       0.409  -5.801   0.192  1.00  0.00     0.186 HD
BRANCH   4   7
HETATM    7  C8  UNL     1       2.206  -7.014   1.359  1.00  0.00    -0.012 C 
HETATM    8  C9  UNL     1       1.343  -8.014   0.622  1.00  0.00     0.021 C 
HETATM    9  C10 UNL     1       3.271  -6.420   0.485  1.00  0.00     0.021 C 
HETATM   10  C11 UNL     1       2.900  -7.750   2.478  1.00  0.00     0.021 C 
ENDBRANCH   4   7
ENDBRANCH   1   3
BRANCH   1  11
HETATM   11  C3  UNL     1      -0.384  -3.213   1.019  1.00  0.00     0.174 C 
HETATM   12  N3  UNL     1      -1.364  -2.350   1.121  1.00  0.00    -0.249 N 
ATOM     13  H3  UNL     1      -1.238  -1.408   0.752  1.00  0.00     0.196 HD
BRANCH  12  14
HETATM   14  O1  UNL     1      -2.549  -2.682   1.707  1.00  0.00    -0.288 OA
ATOM     15  H1  UNL     1      -2.890  -2.196   2.449  1.00  0.00     0.244 HD
ENDBRANCH  12  14
BRANCH  11  16
HETATM   16  C4  UNL     1       0.873  -2.829   0.385  1.00  0.00     0.121 A 
HETATM   17  C5  UNL     1       1.944  -2.221   1.026  1.00  0.00     0.043 A 
HETATM   18  C6  UNL     1       2.919  -2.037   0.048  1.00  0.00     0.027 A 
HETATM   19  C7  UNL     1       2.381  -2.544  -1.125  1.00  0.00     0.142 A 
HETATM   20  O2  UNL     1       1.176  -2.994  -0.863  1.00  0.00    -0.319 OA
ENDBRANCH  11  16
ENDBRANCH   1  11
TORSDOF 5
ENDMDL
MODEL 5
REMARK VINA RESULT: -6.260024261      1.998      2.693
REMARK  5 active torsions:
REMARK  status: ('A' for Active; 'I' for Inactive)
REMARK    1  A    between atoms: C2_2  and  C8_17 
REMARK    2  A    between atoms: N1_3  and  N2_5 
REMARK    3  A    between atoms: N2_5  and  C3_7 
REMARK    4  A    between atoms: C3_7  and  C4_12 
REMARK    5  A    between atoms: N3_8  and  O1_10 
ROOT
HETATM    1  N2  UNL     1       3.194  -4.138  -0.777  1.00  0.00    -0.282 N 
ATOM      2  H2  UNL     1       3.913  -4.277  -1.488  1.00  0.00     0.188 HD
ENDROOT
BRANCH   1   3
HETATM    3  N1  UNL     1       2.851  -5.162   0.073  1.00  0.00    -0.307 N 
HETATM    4  C2  UNL     1       3.377  -6.334   0.091  1.00  0.00     0.007 C 
HETATM    5  C1  UNL     1       4.445  -6.624  -0.883  1.00  0.00     0.066 C 
ATOM      6  H1  UNL     1       2.112  -4.975   0.751  1.00  0.00     0.186 HD
BRANCH   4   7
HETATM    7  C8  UNL     1       2.865  -7.294   1.089  1.00  0.00    -0.012 C 
HETATM    8  C9  UNL     1       1.739  -8.056   0.428  1.00  0.00     0.021 C 
HETATM    9  C10 UNL     1       3.925  -8.199   1.642  1.00  0.00     0.021 C 
HETATM   10  C11 UNL     1       2.276  -6.528   2.248  1.00  0.00     0.021 C 
ENDBRANCH   4   7
ENDBRANCH   1   3
BRANCH   1  11
HETATM   11  C3  UNL     1       2.537  -2.884  -0.657  1.00  0.00     0.174 C 
HETATM   12  N3  UNL     1       3.185  -1.759  -0.833  1.00  0.00    -0.249 N 
ATOM     13  H3  UNL     1       2.682  -0.876  -0.740  1.00  0.00     0.196 HD
BRANCH  12  14
HETATM   14  O1  UNL     1       4.513  -1.739  -1.136  1.00  0.00    -0.288 OA
ATOM     15  H1  UNL     1       5.031  -0.947  -1.053  1.00  0.00     0.244 HD
ENDBRANCH  12  14
BRANCH  11  16
HETATM   16  C4  UNL     1       1.116  -2.873  -0.332  1.00  0.00     0.121 A 
HETATM   17  C5  UNL     1       0.580  -2.652   0.930  1.00  0.00     0.043 A 
HETATM   18  C6  UNL     1      -0.802  -2.732   0.777  1.00  0.00     0.027 A 
HETATM   19  C7  UNL     1      -1.022  -2.996  -0.566  1.00  0.00     0.142 A 
HETATM   20  O2  UNL     1       0.145  -3.069  -1.166  1.00  0.00    -0.319 OA
ENDBRANCH  11  16
ENDBRANCH   1  11
TORSDOF 5
ENDMDL
