MODEL 1
REMARK VINA RESULT: -6.522811104      0.000      0.000
REMARK  2 active torsions:
REMARK  status: ('A' for Active; 'I' for Inactive)
REMARK    1  A    between atoms: C2_2  and  C3_3 
REMARK    2  A    between atoms: C2_2  and  C6_10 
ROOT
HETATM    1  C6  UNL     1       0.528  -3.064   0.026  1.00  0.00     0.093 C 
HETATM    2  C7  UNL     1       0.285  -3.796  -1.253  1.00  0.00     0.036 C 
HETATM    3  C8  UNL     1      -1.092  -3.715  -1.817  1.00  0.00     0.084 C 
HETATM    4  S2  UNL     1      -2.176  -2.612  -0.841  1.00  0.00    -0.095 SA
HETATM    5  C9  UNL     1      -1.740  -2.936   0.857  1.00  0.00     0.134 C 
HETATM    6  N2  UNL     1      -2.600  -2.865   1.766  1.00  0.00    -0.380 N 
ATOM      7  H21 UNL     1      -2.352  -3.050   2.738  1.00  0.00     0.158 HD
ATOM      8  H22 UNL     1      -3.576  -2.620   1.596  1.00  0.00     0.158 HD
HETATM    9  N3  UNL     1      -0.369  -3.280   1.096  1.00  0.00    -0.366 N 
ATOM     10  H3  UNL     1      -0.058  -3.660   1.990  1.00  0.00     0.162 HD
ENDROOT
BRANCH   1  11
HETATM   11  C2  UNL     1       2.010  -3.115   0.344  1.00  0.00     0.058 C 
HETATM   12  C1  UNL     1       2.732  -2.298  -0.775  1.00  0.00     0.018 C 
BRANCH  11  13
HETATM   13  C3  UNL     1       2.565  -4.523   0.267  1.00  0.00     0.061 A 
HETATM   14  N1  UNL     1       3.248  -4.908  -0.779  1.00  0.00    -0.360 N 
HETATM   15  C4  UNL     1       3.699  -6.123  -0.885  1.00  0.00     0.141 A 
ATOM     16  H1  UNL     1       3.433  -4.241  -1.528  1.00  0.00     0.165 HD
HETATM   17  S1  UNL     1       3.161  -6.841   0.559  1.00  0.00    -0.053 SA
HETATM   18  C5  UNL     1       2.353  -5.462   1.236  1.00  0.00     0.181 A 
HETATM   19  F1  UNL     1       1.713  -5.395   2.444  1.00  0.00    -0.196 F 
ENDBRANCH  11  13
ENDBRANCH   1  11
TORSDOF 2
ENDMDL
MODEL 2
REMARK VINA RESULT: -6.330175248      2.952      4.375
REMARK  2 active torsions:
REMARK  status: ('A' for Active; 'I' for Inactive)
REMARK    1  A    between atoms: C2_2  and  C3_3 
REMARK    2  A    between atoms: C2_2  and  C6_10 
ROOT
HETATM    1  C6  UNL     1      -3.130  -3.642   0.755  1.00  0.00     0.093 C 
HETATM    2  C7  UNL     1      -3.834  -3.288   2.024  1.00  0.00     0.036 C 
HETATM    3  C8  UNL     1      -4.783  -4.301   2.565  1.00  0.00     0.084 C 
HETATM    4  S2  UNL     1      -4.788  -5.841   1.579  1.00  0.00    -0.095 SA
HETATM    5  C9  UNL     1      -4.666  -5.296  -0.114  1.00  0.00     0.134 C 
HETATM    6  N2  UNL     1      -5.223  -5.936  -1.036  1.00  0.00    -0.380 N 
ATOM      7  H21 UNL     1      -5.153  -5.625  -2.005  1.00  0.00     0.158 HD
ATOM      8  H22 UNL     1      -5.762  -6.788  -0.881  1.00  0.00     0.158 HD
HETATM    9  N3  UNL     1      -3.908  -4.099  -0.332  1.00  0.00    -0.366 N 
ATOM     10  H3  UNL     1      -3.929  -3.604  -1.223  1.00  0.00     0.162 HD
ENDROOT
BRANCH   1  11
HETATM   11  C2  UNL     1      -2.087  -2.580   0.463  1.00  0.00     0.058 C 
HETATM   12  C1  UNL     1      -2.116  -2.344  -1.081  1.00  0.00     0.018 C 
BRANCH  11  13
HETATM   13  C3  UNL     1      -0.684  -3.048   0.795  1.00  0.00     0.061 A 
HETATM   14  N1  UNL     1       0.091  -2.324   1.559  1.00  0.00    -0.360 N 
HETATM   15  C4  UNL     1       1.311  -2.685   1.824  1.00  0.00     0.141 A 
ATOM     16  H1  UNL     1      -0.270  -1.457   1.957  1.00  0.00     0.165 HD
HETATM   17  S1  UNL     1       1.455  -4.147   0.969  1.00  0.00    -0.053 SA
HETATM   18  C5  UNL     1      -0.144  -4.199   0.294  1.00  0.00     0.181 A 
HETATM   19  F1  UNL     1      -0.669  -5.180  -0.502  1.00  0.00    -0.196 F 
ENDBRANCH  11  13
ENDBRANCH   1  11
TORSDOF 2
ENDMDL
MODEL 3
REMARK VINA RESULT: -6.324432700      2.888      3.983
REMARK  2 active torsions:
REMARK  status: ('A' for Active; 'I' for Inactive)
REMARK    1  A    between atoms: C2_2  and  C3_3 
REMARK    2  A    between atoms: C2_2  and  C6_10 
ROOT
HETATM    1  C6  UNL     1      -3.144  -3.309   0.905  1.00  0.00     0.093 C 
HETATM    2  C7  UNL     1      -3.810  -4.006  -0.235  1.00  0.00     0.036 C 
HETATM    3  C8  UNL     1      -5.069  -4.740   0.076  1.00  0.00     0.084 C 
HETATM    4  S2  UNL     1      -5.585  -4.523   1.817  1.00  0.00    -0.095 SA
HETATM    5  C9  UNL     1      -4.067  -4.573   2.750  1.00  0.00     0.134 C 
HETATM    6  N2  UNL     1      -4.040  -5.051   3.907  1.00  0.00    -0.380 N 
ATOM      7  H21 UNL     1      -3.171  -5.080   4.442  1.00  0.00     0.158 HD
ATOM      8  H22 UNL     1      -4.863  -5.427   4.378  1.00  0.00     0.158 HD
HETATM    9  N3  UNL     1      -2.910  -4.044   2.088  1.00  0.00    -0.366 N 
ATOM     10  H3  UNL     1      -1.968  -4.191   2.453  1.00  0.00     0.162 HD
ENDROOT
BRANCH   1  11
HETATM   11  C2  UNL     1      -1.993  -2.481   0.366  1.00  0.00     0.058 C 
HETATM   12  C1  UNL     1      -2.042  -2.613  -1.190  1.00  0.00     0.018 C 
BRANCH  11  13
HETATM   13  C3  UNL     1      -0.645  -3.024   0.796  1.00  0.00     0.061 A 
HETATM   14  N1  UNL     1       0.138  -2.316   1.568  1.00  0.00    -0.360 N 
HETATM   15  C4  UNL     1       1.315  -2.744   1.916  1.00  0.00     0.141 A 
ATOM     16  H1  UNL     1      -0.182  -1.407   1.904  1.00  0.00     0.165 HD
HETATM   17  S1  UNL     1       1.401  -4.253   1.139  1.00  0.00    -0.053 SA
HETATM   18  C5  UNL     1      -0.161  -4.232   0.381  1.00  0.00     0.181 A 
HETATM   19  F1  UNL     1      -0.711  -5.215  -0.397  1.00  0.00    -0.196 F 
ENDBRANCH  11  13
ENDBRANCH   1  11
TORSDOF 2
ENDMDL
MODEL 4
REMARK VINA RESULT: -6.270612264      1.456      1.976
REMARK  2 active torsions:
REMARK  status: ('A' for Active; 'I' for Inactive)
REMARK    1  A    between atoms: C2_2  and  C3_3 
REMARK    2  A    between atoms: C2_2  and  C6_10 
ROOT
HETATM    1  C6  UNL     1       0.401  -3.584  -0.133  1.00  0.00     0.093 C 
HETATM    2  C7  UNL     1      -0.403  -2.823   0.869  1.00  0.00     0.036 C 
HETATM    3  C8  UNL     1      -1.884  -2.948   0.770  1.00  0.00     0.084 C 
HETATM    4  S2  UNL     1      -2.393  -4.129  -0.531  1.00  0.00    -0.095 SA
HETATM    5  C9  UNL     1      -1.259  -3.841  -1.874  1.00  0.00     0.134 C 
HETATM    6  N2  UNL     1      -1.624  -3.979  -3.065  1.00  0.00    -0.380 N 
ATOM      7  H21 UNL     1      -0.975  -3.815  -3.834  1.00  0.00     0.158 HD
ATOM      8  H22 UNL     1      -2.567  -4.262  -3.332  1.00  0.00     0.158 HD
HETATM    9  N3  UNL     1       0.067  -3.444  -1.498  1.00  0.00    -0.366 N 
ATOM     10  H3  UNL     1       0.732  -3.079  -2.180  1.00  0.00     0.162 HD
ENDROOT
BRANCH   1  11
HETATM   11  C2  UNL     1       1.868  -3.478   0.235  1.00  0.00     0.058 C 
HETATM   12  C1  UNL     1       2.529  -2.553  -0.836  1.00  0.00     0.018 C 
BRANCH  11  13
HETATM   13  C3  UNL     1       2.581  -4.812   0.141  1.00  0.00     0.061 A 
HETATM   14  N1  UNL     1       3.223  -5.144  -0.948  1.00  0.00    -0.360 N 
HETATM   15  C4  UNL     1       3.806  -6.300  -1.067  1.00  0.00     0.141 A 
ATOM     16  H1  UNL     1       3.267  -4.481  -1.723  1.00  0.00     0.165 HD
HETATM   17  S1  UNL     1       3.473  -7.034   0.429  1.00  0.00    -0.053 SA
HETATM   18  C5  UNL     1       2.560  -5.741   1.143  1.00  0.00     0.181 A 
HETATM   19  F1  UNL     1       2.012  -5.716   2.396  1.00  0.00    -0.196 F 
ENDBRANCH  11  13
ENDBRANCH   1  11
TORSDOF 2
ENDMDL
MODEL 5
REMARK VINA RESULT: -6.175026241      3.729      5.861
REMARK  2 active torsions:
REMARK  status: ('A' for Active; 'I' for Inactive)
REMARK    1  A    between atoms: C2_2  and  C3_3 
REMARK    2  A    between atoms: C2_2  and  C6_10 
ROOT
HETATM    1  C6  UNL     1      -2.425  -3.515   0.412  1.00  0.00     0.093 C 
HETATM    2  C7  UNL     1      -2.325  -3.411  -1.074  1.00  0.00     0.036 C 
HETATM    3  C8  UNL     1      -0.953  -3.439  -1.654  1.00  0.00     0.084 C 
HETATM    4  S2  UNL     1       0.331  -3.713  -0.381  1.00  0.00    -0.095 SA
HETATM    5  C9  UNL     1      -0.211  -2.757   1.022  1.00  0.00     0.134 C 
HETATM    6  N2  UNL     1       0.619  -2.219   1.791  1.00  0.00    -0.380 N 
ATOM      7  H21 UNL     1       0.310  -1.672   2.595  1.00  0.00     0.158 HD
ATOM      8  H22 UNL     1       1.629  -2.296   1.669  1.00  0.00     0.158 HD
HETATM    9  N3  UNL     1      -1.630  -2.649   1.194  1.00  0.00    -0.366 N 
ATOM     10  H3  UNL     1      -2.043  -1.981   1.846  1.00  0.00     0.162 HD
ENDROOT
BRANCH   1  11
HETATM   11  C2  UNL     1      -3.886  -3.648   0.795  1.00  0.00     0.058 C 
HETATM   12  C1  UNL     1      -3.976  -3.327   2.321  1.00  0.00     0.018 C 
BRANCH  11  13
HETATM   13  C3  UNL     1      -4.395  -5.067   0.629  1.00  0.00     0.061 A 
HETATM   14  N1  UNL     1      -3.692  -6.077   1.068  1.00  0.00    -0.360 N 
HETATM   15  C4  UNL     1      -4.089  -7.304   0.901  1.00  0.00     0.141 A 
ATOM     16  H1  UNL     1      -2.812  -5.900   1.553  1.00  0.00     0.165 HD
HETATM   17  S1  UNL     1      -5.558  -7.104   0.071  1.00  0.00    -0.053 SA
HETATM   18  C5  UNL     1      -5.565  -5.369  -0.009  1.00  0.00     0.181 A 
HETATM   19  F1  UNL     1      -6.533  -4.575  -0.561  1.00  0.00    -0.196 F 
ENDBRANCH  11  13
ENDBRANCH   1  11
TORSDOF 2
ENDMDL
