MODEL 1
REMARK VINA RESULT: -6.912415325      0.000      0.000
REMARK  4 active torsions:
REMARK  status: ('A' for Active; 'I' for Inactive)
REMARK    1  A    between atoms: C2_2  and  C3_3 
REMARK    2  A    between atoms: C4_4  and  C5_5 
REMARK    3  A    between atoms: C10_11  and  O1_12 
REMARK    4  A    between atoms: N1_18  and  O3_20 
ROOT
HETATM    1  C5  UNL     1      -1.999  -3.917   0.223  1.00  0.00     0.003 A 
HETATM    2  C6  UNL     1      -2.338  -4.891  -0.725  1.00  0.00     0.057 A 
HETATM    3  C7  UNL     1      -3.607  -5.407  -0.823  1.00  0.00     0.126 A 
HETATM    4  F1  UNL     1      -3.910  -6.354  -1.752  1.00  0.00    -0.205 F 
HETATM    5  C8  UNL     1      -4.592  -4.956   0.039  1.00  0.00     0.017 A 
HETATM    6  C9  UNL     1      -4.307  -3.999   0.986  1.00  0.00     0.112 A 
HETATM    7  C10 UNL     1      -3.000  -3.493   1.060  1.00  0.00     0.110 A 
HETATM    8  O2  UNL     1      -5.320  -3.585   1.818  1.00  0.00    -0.348 OA
HETATM    9  C11 UNL     1      -6.435  -4.386   2.192  1.00  0.00     0.176 C 
HETATM   10  C12 UNL     1      -6.608  -5.595   1.342  1.00  0.00     0.031 C 
HETATM   11  C13 UNL     1      -5.979  -5.474  -0.022  1.00  0.00     0.047 C 
ENDROOT
BRANCH   1  12
HETATM   12  C4  UNL     1      -0.654  -3.435   0.256  1.00  0.00     0.016 C 
HETATM   13  C3  UNL     1       0.243  -3.547  -0.666  1.00  0.00     0.027 C 
BRANCH  13  14
HETATM   14  C2  UNL     1       1.588  -2.964  -0.411  1.00  0.00     0.028 C 
HETATM   15  C1  UNL     1       1.894  -2.350   0.892  1.00  0.00     0.070 C 
HETATM   16  N1  UNL     1       2.493  -2.990  -1.322  1.00  0.00    -0.274 N 
ATOM     17  H1  UNL     1       2.291  -3.413  -2.228  1.00  0.00     0.193 HD
BRANCH  16  18
HETATM   18  O3  UNL     1       3.725  -2.453  -1.080  1.00  0.00    -0.290 OA
ATOM     19  H3  UNL     1       4.409  -2.510  -1.738  1.00  0.00     0.244 HD
ENDBRANCH  16  18
ENDBRANCH  13  14
ENDBRANCH   1  12
BRANCH   7  20
HETATM   20  O1  UNL     1      -2.796  -2.547   2.025  1.00  0.00    -0.357 OA
ATOM     21  H1  UNL     1      -3.057  -2.677   2.930  1.00  0.00     0.217 HD
ENDBRANCH   7  20
TORSDOF 4
ENDMDL
MODEL 2
REMARK VINA RESULT: -6.876816694      5.759      8.039
REMARK  4 active torsions:
REMARK  status: ('A' for Active; 'I' for Inactive)
REMARK    1  A    between atoms: C2_2  and  C3_3 
REMARK    2  A    between atoms: C4_4  and  C5_5 
REMARK    3  A    between atoms: C10_11  and  O1_12 
REMARK    4  A    between atoms: N1_18  and  O3_20 
ROOT
HETATM    1  C5  UNL     1       4.192  -7.188   0.424  1.00  0.00     0.003 A 
HETATM    2  C6  UNL     1       3.396  -7.256   1.575  1.00  0.00     0.057 A 
HETATM    3  C7  UNL     1       2.394  -6.352   1.827  1.00  0.00     0.126 A 
HETATM    4  F1  UNL     1       1.635  -6.440   2.953  1.00  0.00    -0.205 F 
HETATM    5  C8  UNL     1       2.154  -5.333   0.920  1.00  0.00     0.017 A 
HETATM    6  C9  UNL     1       2.910  -5.226  -0.225  1.00  0.00     0.112 A 
HETATM    7  C10 UNL     1       3.926  -6.166  -0.453  1.00  0.00     0.110 A 
HETATM    8  O2  UNL     1       2.633  -4.196  -1.093  1.00  0.00    -0.348 OA
HETATM    9  C11 UNL     1       2.069  -2.947  -0.709  1.00  0.00     0.176 C 
HETATM   10  C12 UNL     1       1.479  -2.957   0.656  1.00  0.00     0.031 C 
HETATM   11  C13 UNL     1       1.086  -4.329   1.138  1.00  0.00     0.047 C 
ENDROOT
BRANCH   1  12
HETATM   12  C4  UNL     1       5.213  -8.171   0.241  1.00  0.00     0.016 C 
HETATM   13  C3  UNL     1       6.352  -8.241   0.843  1.00  0.00     0.027 C 
BRANCH  13  14
HETATM   14  C2  UNL     1       7.266  -9.361   0.489  1.00  0.00     0.028 C 
HETATM   15  C1  UNL     1       6.789 -10.753   0.552  1.00  0.00     0.070 C 
HETATM   16  N1  UNL     1       8.475  -9.127   0.127  1.00  0.00    -0.274 N 
ATOM     17  H1  UNL     1       8.815  -8.166   0.081  1.00  0.00     0.193 HD
BRANCH  16  18
HETATM   18  O3  UNL     1       9.307 -10.161  -0.196  1.00  0.00    -0.290 OA
ATOM     19  H3  UNL     1       9.836 -10.576   0.476  1.00  0.00     0.244 HD
ENDBRANCH  16  18
ENDBRANCH  13  14
ENDBRANCH   1  12
BRANCH   7  20
HETATM   20  O1  UNL     1       4.632  -5.992  -1.610  1.00  0.00    -0.357 OA
ATOM     21  H1  UNL     1       5.548  -5.736  -1.615  1.00  0.00     0.217 HD
ENDBRANCH   7  20
TORSDOF 4
ENDMDL
MODEL 3
REMARK VINA RESULT: -6.631346529      5.481      7.391
REMARK  4 active torsions:
REMARK  status: ('A' for Active; 'I' for Inactive)
REMARK    1  A    between atoms: C2_2  and  C3_3 
REMARK    2  A    between atoms: C4_4  and  C5_5 
REMARK    3  A    between atoms: C10_11  and  O1_12 
REMARK    4  A    between atoms: N1_18  and  O3_20 
ROOT
HETATM    1  C5  UNL     1       3.784  -6.956  -0.039  1.00  0.00     0.003 A 
HETATM    2  C6  UNL     1       3.161  -6.625   1.171  1.00  0.00     0.057 A 
HETATM    3  C7  UNL     1       1.937  -6.003   1.220  1.00  0.00     0.126 A 
HETATM    4  F1  UNL     1       1.354  -5.692   2.409  1.00  0.00    -0.205 F 
HETATM    5  C8  UNL     1       1.289  -5.688   0.037  1.00  0.00     0.017 A 
HETATM    6  C9  UNL     1       1.861  -5.994  -1.176  1.00  0.00     0.112 A 
HETATM    7  C10 UNL     1       3.112  -6.629  -1.191  1.00  0.00     0.110 A 
HETATM    8  O2  UNL     1       1.177  -5.659  -2.321  1.00  0.00    -0.348 OA
HETATM    9  C11 UNL     1       0.258  -4.577  -2.424  1.00  0.00     0.176 C 
HETATM   10  C12 UNL     1      -0.173  -4.037  -1.107  1.00  0.00     0.031 C 
HETATM   11  C13 UNL     1      -0.034  -5.018   0.028  1.00  0.00     0.047 C 
ENDROOT
BRANCH   1  12
HETATM   12  C4  UNL     1       5.057  -7.601   0.003  1.00  0.00     0.016 C 
HETATM   13  C3  UNL     1       5.446  -8.519   0.823  1.00  0.00     0.027 C 
BRANCH  13  14
HETATM   14  C2  UNL     1       6.829  -9.050   0.679  1.00  0.00     0.028 C 
HETATM   15  C1  UNL     1       7.062 -10.503   0.624  1.00  0.00     0.070 C 
HETATM   16  N1  UNL     1       7.830  -8.249   0.603  1.00  0.00    -0.274 N 
ATOM     17  H1  UNL     1       7.678  -7.241   0.641  1.00  0.00     0.193 HD
BRANCH  16  18
HETATM   18  O3  UNL     1       9.096  -8.744   0.471  1.00  0.00    -0.290 OA
ATOM     19  H3  UNL     1       9.378  -9.121  -0.354  1.00  0.00     0.244 HD
ENDBRANCH  16  18
ENDBRANCH  13  14
ENDBRANCH   1  12
BRANCH   7  20
HETATM   20  O1  UNL     1       3.614  -6.899  -2.433  1.00  0.00    -0.357 OA
ATOM     21  H1  UNL     1       3.726  -6.226  -3.094  1.00  0.00     0.217 HD
ENDBRANCH   7  20
TORSDOF 4
ENDMDL
MODEL 4
REMARK VINA RESULT: -6.574049462      5.037      7.696
REMARK  4 active torsions:
REMARK  status: ('A' for Active; 'I' for Inactive)
REMARK    1  A    between atoms: C2_2  and  C3_3 
REMARK    2  A    between atoms: C4_4  and  C5_5 
REMARK    3  A    between atoms: C10_11  and  O1_12 
REMARK    4  A    between atoms: N1_18  and  O3_20 
ROOT
HETATM    1  C5  UNL     1       1.882  -5.695   0.807  1.00  0.00     0.003 A 
HETATM    2  C6  UNL     1       2.775  -5.444  -0.242  1.00  0.00     0.057 A 
HETATM    3  C7  UNL     1       3.873  -6.235  -0.475  1.00  0.00     0.126 A 
HETATM    4  F1  UNL     1       4.726  -5.968  -1.501  1.00  0.00    -0.205 F 
HETATM    5  C8  UNL     1       4.116  -7.320   0.351  1.00  0.00     0.017 A 
HETATM    6  C9  UNL     1       3.266  -7.607   1.394  1.00  0.00     0.112 A 
HETATM    7  C10 UNL     1       2.153  -6.779   1.605  1.00  0.00     0.110 A 
HETATM    8  O2  UNL     1       3.551  -8.695   2.185  1.00  0.00    -0.348 OA
HETATM    9  C11 UNL     1       4.859  -9.210   2.408  1.00  0.00     0.176 C 
HETATM   10  C12 UNL     1       5.871  -8.693   1.448  1.00  0.00     0.031 C 
HETATM   11  C13 UNL     1       5.284  -8.209   0.147  1.00  0.00     0.047 C 
ENDROOT
BRANCH   1  12
HETATM   12  C4  UNL     1       0.764  -4.821   0.977  1.00  0.00     0.016 C 
HETATM   13  C3  UNL     1      -0.031  -4.376   0.063  1.00  0.00     0.027 C 
BRANCH  13  14
HETATM   14  C2  UNL     1      -1.136  -3.469   0.474  1.00  0.00     0.028 C 
HETATM   15  C1  UNL     1      -1.651  -2.457  -0.463  1.00  0.00     0.070 C 
HETATM   16  N1  UNL     1      -1.650  -3.557   1.648  1.00  0.00    -0.274 N 
ATOM     17  H1  UNL     1      -1.300  -4.255   2.305  1.00  0.00     0.193 HD
BRANCH  16  18
HETATM   18  O3  UNL     1      -2.664  -2.720   2.018  1.00  0.00    -0.290 OA
ATOM     19  H3  UNL     1      -3.567  -2.953   1.834  1.00  0.00     0.244 HD
ENDBRANCH  16  18
ENDBRANCH  13  14
ENDBRANCH   1  12
BRANCH   7  20
HETATM   20  O1  UNL     1       1.357  -7.129   2.660  1.00  0.00    -0.357 OA
ATOM     21  H1  UNL     1       0.487  -7.493   2.543  1.00  0.00     0.217 HD
ENDBRANCH   7  20
TORSDOF 4
ENDMDL
MODEL 5
REMARK VINA RESULT: -6.513801608      5.786      7.928
REMARK  4 active torsions:
REMARK  status: ('A' for Active; 'I' for Inactive)
REMARK    1  A    between atoms: C2_2  and  C3_3 
REMARK    2  A    between atoms: C4_4  and  C5_5 
REMARK    3  A    between atoms: C10_11  and  O1_12 
REMARK    4  A    between atoms: N1_18  and  O3_20 
ROOT
HETATM    1  C5  UNL     1       3.044  -7.159   1.503  1.00  0.00     0.003 A 
HETATM    2  C6  UNL     1       2.219  -6.722   2.548  1.00  0.00     0.057 A 
HETATM    3  C7  UNL     1       1.587  -5.503   2.521  1.00  0.00     0.126 A 
HETATM    4  F1  UNL     1       0.791  -5.101   3.549  1.00  0.00    -0.205 F 
HETATM    5  C8  UNL     1       1.766  -4.669   1.429  1.00  0.00     0.017 A 
HETATM    6  C9  UNL     1       2.567  -5.056   0.380  1.00  0.00     0.112 A 
HETATM    7  C10 UNL     1       3.198  -6.308   0.438  1.00  0.00     0.110 A 
HETATM    8  O2  UNL     1       2.712  -4.192  -0.680  1.00  0.00    -0.348 OA
HETATM    9  C11 UNL     1       2.605  -2.776  -0.587  1.00  0.00     0.176 C 
HETATM   10  C12 UNL     1       1.983  -2.310   0.681  1.00  0.00     0.031 C 
HETATM   11  C13 UNL     1       1.109  -3.343   1.345  1.00  0.00     0.047 C 
ENDROOT
BRANCH   1  12
HETATM   12  C4  UNL     1       3.662  -8.442   1.614  1.00  0.00     0.016 C 
HETATM   13  C3  UNL     1       4.176  -8.979   2.670  1.00  0.00     0.027 C 
BRANCH  13  14
HETATM   14  C2  UNL     1       4.771 -10.337   2.549  1.00  0.00     0.028 C 
HETATM   15  C1  UNL     1       3.903 -11.511   2.360  1.00  0.00     0.070 C 
HETATM   16  N1  UNL     1       6.043 -10.499   2.608  1.00  0.00    -0.274 N 
ATOM     17  H1  UNL     1       6.654  -9.692   2.738  1.00  0.00     0.193 HD
BRANCH  16  18
HETATM   18  O3  UNL     1       6.582 -11.750   2.496  1.00  0.00    -0.290 OA
ATOM     19  H3  UNL     1       7.013 -12.014   1.691  1.00  0.00     0.244 HD
ENDBRANCH  16  18
ENDBRANCH  13  14
ENDBRANCH   1  12
BRANCH   7  20
HETATM   20  O1  UNL     1       3.976  -6.619  -0.642  1.00  0.00    -0.357 OA
ATOM     21  H1  UNL     1       4.044  -7.504  -0.982  1.00  0.00     0.217 HD
ENDBRANCH   7  20
TORSDOF 4
ENDMDL
