MODEL 1
REMARK VINA RESULT: -5.751792645      0.000      0.000
REMARK  6 active torsions:
REMARK  status: ('A' for Active; 'I' for Inactive)
REMARK    1  A    between atoms: N1_4  and  C4_5 
REMARK    2  A    between atoms: C4_5  and  C5_6 
REMARK    3  A    between atoms: C5_6  and  C6_7 
REMARK    4  A    between atoms: C6_7  and  N3_12 
REMARK    5  A    between atoms: N2_8  and  O1_10 
REMARK    6  A    between atoms: N4_17  and  C9_18 
ROOT
HETATM    1  C1  UNL     1      12.255  -2.027  20.389  1.00  0.00     0.038 C 
HETATM    2  C2  UNL     1      13.652  -2.236  19.836  1.00  0.00     0.120 C 
HETATM    3  C3  UNL     1      14.293  -0.989  19.376  1.00  0.00     0.088 C 
HETATM    4  N1  UNL     1      15.143  -0.352  20.258  1.00  0.00    -0.370 N 
HETATM    5  C7  UNL     1      15.459  -0.890  21.504  1.00  0.00     0.083 C 
HETATM    6  C8  UNL     1      15.298  -2.360  21.681  1.00  0.00     0.169 C 
HETATM    7  N4  UNL     1      14.381  -2.988  20.807  1.00  0.00    -0.356 N 
ENDROOT
BRANCH   4   8
HETATM    8  C4  UNL     1      15.727   0.870  19.890  1.00  0.00     0.134 C 
BRANCH   8   9
HETATM    9  C5  UNL     1      14.718   2.020  19.768  1.00  0.00     0.099 C 
BRANCH   9  10
HETATM   10  C6  UNL     1      14.901   2.933  20.921  1.00  0.00     0.110 C 
HETATM   11  N2  UNL     1      13.967   3.664  21.374  1.00  0.00    -0.240 N 
ATOM     12  H2  UNL     1      14.206   4.254  22.171  1.00  0.00     0.197 HD
BRANCH  11  13
HETATM   13  O1  UNL     1      12.693   3.756  20.929  1.00  0.00    -0.189 OA
HETATM   14  S1  UNL     1      12.066   5.133  20.095  1.00  0.00     0.125 SA
ENDBRANCH  11  13
BRANCH  10  15
HETATM   15  N3  UNL     1      16.176   2.976  21.545  1.00  0.00    -0.308 N 
HETATM   16  S2  UNL     1      17.447   4.038  20.954  1.00  0.00     0.043 SA
ATOM     17  H3  UNL     1      16.358   2.379  22.352  1.00  0.00     0.176 HD
ENDBRANCH  10  15
ENDBRANCH   9  10
ENDBRANCH   8   9
ENDBRANCH   4   8
BRANCH   7  18
HETATM   18  C9  UNL     1      14.165  -4.385  20.886  1.00  0.00     0.094 A 
HETATM   19  N5  UNL     1      13.665  -5.317  21.781  1.00  0.00    -0.371 N 
HETATM   20  C10 UNL     1      14.129  -5.796  20.534  1.00  0.00     0.197 A 
ATOM     21  H5  UNL     1      13.253  -5.517  22.692  1.00  0.00     0.161 HD
ENDBRANCH   7  18
TORSDOF 6
ENDMDL
MODEL 2
REMARK VINA RESULT: -5.689413104      1.117      1.762
REMARK  6 active torsions:
REMARK  status: ('A' for Active; 'I' for Inactive)
REMARK    1  A    between atoms: N1_4  and  C4_5 
REMARK    2  A    between atoms: C4_5  and  C5_6 
REMARK    3  A    between atoms: C5_6  and  C6_7 
REMARK    4  A    between atoms: C6_7  and  N3_12 
REMARK    5  A    between atoms: N2_8  and  O1_10 
REMARK    6  A    between atoms: N4_17  and  C9_18 
ROOT
HETATM    1  C1  UNL     1      15.177  -3.727  20.053  1.00  0.00     0.038 C 
HETATM    2  C2  UNL     1      14.677  -2.645  20.991  1.00  0.00     0.120 C 
HETATM    3  C3  UNL     1      15.429  -1.380  20.882  1.00  0.00     0.088 C 
HETATM    4  N1  UNL     1      14.899  -0.397  20.070  1.00  0.00    -0.370 N 
HETATM    5  C7  UNL     1      13.666  -0.542  19.436  1.00  0.00     0.083 C 
HETATM    6  C8  UNL     1      12.700  -1.513  20.023  1.00  0.00     0.169 C 
HETATM    7  N4  UNL     1      13.265  -2.546  20.805  1.00  0.00    -0.356 N 
ENDROOT
BRANCH   4   8
HETATM    8  C4  UNL     1      15.609   0.799  19.885  1.00  0.00     0.134 C 
BRANCH   8   9
HETATM    9  C5  UNL     1      14.706   2.030  19.725  1.00  0.00     0.099 C 
BRANCH   9  10
HETATM   10  C6  UNL     1      14.881   2.901  20.911  1.00  0.00     0.110 C 
HETATM   11  N2  UNL     1      13.947   3.625  21.377  1.00  0.00    -0.240 N 
ATOM     12  H2  UNL     1      14.181   4.185  22.197  1.00  0.00     0.197 HD
BRANCH  11  13
HETATM   13  O1  UNL     1      12.680   3.744  20.918  1.00  0.00    -0.189 OA
HETATM   14  S1  UNL     1      12.100   5.124  20.054  1.00  0.00     0.125 SA
ENDBRANCH  11  13
BRANCH  10  15
HETATM   15  N3  UNL     1      16.148   2.910  21.553  1.00  0.00    -0.308 N 
HETATM   16  S2  UNL     1      17.427   3.999  21.035  1.00  0.00     0.043 SA
ATOM     17  H3  UNL     1      16.318   2.272  22.331  1.00  0.00     0.176 HD
ENDBRANCH  10  15
ENDBRANCH   9  10
ENDBRANCH   8   9
ENDBRANCH   4   8
BRANCH   7  18
HETATM   18  C9  UNL     1      12.430  -3.513  21.417  1.00  0.00     0.094 A 
HETATM   19  N5  UNL     1      12.177  -4.029  22.677  1.00  0.00    -0.371 N 
HETATM   20  C10 UNL     1      11.431  -4.556  21.597  1.00  0.00     0.197 A 
ATOM     21  H5  UNL     1      12.382  -4.029  23.676  1.00  0.00     0.161 HD
ENDBRANCH   7  18
TORSDOF 6
ENDMDL
MODEL 3
REMARK VINA RESULT: -5.661900472      3.955      6.708
REMARK  6 active torsions:
REMARK  status: ('A' for Active; 'I' for Inactive)
REMARK    1  A    between atoms: N1_4  and  C4_5 
REMARK    2  A    between atoms: C4_5  and  C5_6 
REMARK    3  A    between atoms: C5_6  and  C6_7 
REMARK    4  A    between atoms: C6_7  and  N3_12 
REMARK    5  A    between atoms: N2_8  and  O1_10 
REMARK    6  A    between atoms: N4_17  and  C9_18 
ROOT
HETATM    1  C1  UNL     1      15.463  -0.653  22.469  1.00  0.00     0.038 C 
HETATM    2  C2  UNL     1      15.608  -1.364  21.137  1.00  0.00     0.120 C 
HETATM    3  C3  UNL     1      15.118  -2.755  21.159  1.00  0.00     0.088 C 
HETATM    4  N1  UNL     1      13.830  -2.980  20.713  1.00  0.00    -0.370 N 
HETATM    5  C7  UNL     1      13.039  -1.961  20.186  1.00  0.00     0.083 C 
HETATM    6  C8  UNL     1      13.734  -0.764  19.635  1.00  0.00     0.169 C 
HETATM    7  N4  UNL     1      15.029  -0.516  20.144  1.00  0.00    -0.356 N 
ENDROOT
BRANCH   4   8
HETATM    8  C4  UNL     1      13.298  -4.277  20.773  1.00  0.00     0.134 C 
BRANCH   8   9
HETATM    9  C5  UNL     1      12.134  -4.417  21.764  1.00  0.00     0.099 C 
BRANCH   9  10
HETATM   10  C6  UNL     1      10.879  -4.593  20.996  1.00  0.00     0.110 C 
HETATM   11  N2  UNL     1       9.880  -3.819  21.123  1.00  0.00    -0.240 N 
ATOM     12  H2  UNL     1       9.068  -4.037  20.544  1.00  0.00     0.197 HD
BRANCH  11  13
HETATM   13  O1  UNL     1       9.761  -2.742  21.932  1.00  0.00    -0.189 OA
HETATM   14  S1  UNL     1       8.635  -1.460  21.661  1.00  0.00     0.125 SA
ENDBRANCH  11  13
BRANCH  10  15
HETATM   15  N3  UNL     1      10.805  -5.671  20.074  1.00  0.00    -0.308 N 
HETATM   16  S2  UNL     1      10.208  -5.433  18.437  1.00  0.00     0.043 SA
ATOM     17  H3  UNL     1      11.104  -6.601  20.367  1.00  0.00     0.176 HD
ENDBRANCH  10  15
ENDBRANCH   9  10
ENDBRANCH   8   9
ENDBRANCH   4   8
BRANCH   7  18
HETATM   18  C9  UNL     1      15.778   0.590  19.675  1.00  0.00     0.094 A 
HETATM   19  N5  UNL     1      16.502   0.965  18.555  1.00  0.00    -0.371 N 
HETATM   20  C10 UNL     1      16.421   1.895  19.617  1.00  0.00     0.197 A 
ATOM     21  H5  UNL     1      16.847   0.734  17.623  1.00  0.00     0.161 HD
ENDBRANCH   7  18
TORSDOF 6
ENDMDL
MODEL 4
REMARK VINA RESULT: -5.659463773      3.675      6.724
REMARK  6 active torsions:
REMARK  status: ('A' for Active; 'I' for Inactive)
REMARK    1  A    between atoms: N1_4  and  C4_5 
REMARK    2  A    between atoms: C4_5  and  C5_6 
REMARK    3  A    between atoms: C5_6  and  C6_7 
REMARK    4  A    between atoms: C6_7  and  N3_12 
REMARK    5  A    between atoms: N2_8  and  O1_10 
REMARK    6  A    between atoms: N4_17  and  C9_18 
ROOT
HETATM    1  C1  UNL     1      14.362   3.420  21.145  1.00  0.00     0.038 C 
HETATM    2  C2  UNL     1      15.515   2.479  21.437  1.00  0.00     0.120 C 
HETATM    3  C3  UNL     1      15.140   1.053  21.373  1.00  0.00     0.088 C 
HETATM    4  N1  UNL     1      15.387   0.386  20.188  1.00  0.00    -0.370 N 
HETATM    5  C7  UNL     1      16.036   0.994  19.115  1.00  0.00     0.083 C 
HETATM    6  C8  UNL     1      16.904   2.168  19.411  1.00  0.00     0.169 C 
HETATM    7  N4  UNL     1      16.602   2.873  20.598  1.00  0.00    -0.356 N 
ENDROOT
BRANCH   4   8
HETATM    8  C4  UNL     1      14.990  -0.953  20.058  1.00  0.00     0.134 C 
BRANCH   8   9
HETATM    9  C5  UNL     1      13.477  -1.129  19.870  1.00  0.00     0.099 C 
BRANCH   9  10
HETATM   10  C6  UNL     1      13.194  -1.284  18.424  1.00  0.00     0.110 C 
HETATM   11  N2  UNL     1      13.227  -2.407  17.833  1.00  0.00    -0.240 N 
ATOM     12  H2  UNL     1      13.015  -2.394  16.835  1.00  0.00     0.197 HD
BRANCH  11  13
HETATM   13  O1  UNL     1      13.508  -3.619  18.365  1.00  0.00    -0.189 OA
HETATM   14  S1  UNL     1      12.301  -4.739  18.888  1.00  0.00     0.125 SA
ENDBRANCH  11  13
BRANCH  10  15
HETATM   15  N3  UNL     1      12.862  -0.121  17.679  1.00  0.00    -0.308 N 
HETATM   16  S2  UNL     1      12.202   1.308  18.463  1.00  0.00     0.043 SA
ATOM     17  H3  UNL     1      13.010  -0.115  16.670  1.00  0.00     0.176 HD
ENDBRANCH  10  15
ENDBRANCH   9  10
ENDBRANCH   8   9
ENDBRANCH   4   8
BRANCH   7  18
HETATM   18  C9  UNL     1      17.377   3.997  20.975  1.00  0.00     0.094 A 
HETATM   19  N5  UNL     1      18.445   4.301  21.803  1.00  0.00    -0.371 N 
HETATM   20  C10 UNL     1      17.877   5.361  21.059  1.00  0.00     0.197 A 
ATOM     21  H5  UNL     1      19.145   3.985  22.474  1.00  0.00     0.161 HD
ENDBRANCH   7  18
TORSDOF 6
ENDMDL
MODEL 5
REMARK VINA RESULT: -5.655316042      3.594      6.752
REMARK  6 active torsions:
REMARK  status: ('A' for Active; 'I' for Inactive)
REMARK    1  A    between atoms: N1_4  and  C4_5 
REMARK    2  A    between atoms: C4_5  and  C5_6 
REMARK    3  A    between atoms: C5_6  and  C6_7 
REMARK    4  A    between atoms: C6_7  and  N3_12 
REMARK    5  A    between atoms: N2_8  and  O1_10 
REMARK    6  A    between atoms: N4_17  and  C9_18 
ROOT
HETATM    1  C1  UNL     1      14.351   3.411  21.168  1.00  0.00     0.038 C 
HETATM    2  C2  UNL     1      15.512   2.483  21.470  1.00  0.00     0.120 C 
HETATM    3  C3  UNL     1      15.146   1.054  21.434  1.00  0.00     0.088 C 
HETATM    4  N1  UNL     1      15.392   0.368  20.260  1.00  0.00    -0.370 N 
HETATM    5  C7  UNL     1      16.031   0.960  19.173  1.00  0.00     0.083 C 
HETATM    6  C8  UNL     1      16.893   2.145  19.443  1.00  0.00     0.169 C 
HETATM    7  N4  UNL     1      16.592   2.870  20.619  1.00  0.00    -0.356 N 
ENDROOT
BRANCH   4   8
HETATM    8  C4  UNL     1      15.003  -0.976  20.156  1.00  0.00     0.134 C 
BRANCH   8   9
HETATM    9  C5  UNL     1      14.520  -1.580  21.481  1.00  0.00     0.099 C 
BRANCH   9  10
HETATM   10  C6  UNL     1      13.768  -2.823  21.189  1.00  0.00     0.110 C 
HETATM   11  N2  UNL     1      12.598  -2.819  20.696  1.00  0.00    -0.240 N 
ATOM     12  H2  UNL     1      12.175  -3.734  20.536  1.00  0.00     0.197 HD
BRANCH  11  13
HETATM   13  O1  UNL     1      11.842  -1.749  20.357  1.00  0.00    -0.189 OA
HETATM   14  S1  UNL     1      11.276  -1.445  18.753  1.00  0.00     0.125 SA
ENDBRANCH  11  13
BRANCH  10  15
HETATM   15  N3  UNL     1      14.397  -4.066  21.464  1.00  0.00    -0.308 N 
HETATM   16  S2  UNL     1      13.605  -5.592  21.094  1.00  0.00     0.043 SA
ATOM     17  H3  UNL     1      15.326  -4.073  21.885  1.00  0.00     0.176 HD
ENDBRANCH  10  15
ENDBRANCH   9  10
ENDBRANCH   8   9
ENDBRANCH   4   8
BRANCH   7  18
HETATM   18  C9  UNL     1      17.361   4.006  20.971  1.00  0.00     0.094 A 
HETATM   19  N5  UNL     1      18.461   4.323  21.751  1.00  0.00    -0.371 N 
HETATM   20  C10 UNL     1      17.837   5.379  21.048  1.00  0.00     0.197 A 
ATOM     21  H5  UNL     1      19.199   4.014  22.384  1.00  0.00     0.161 HD
ENDBRANCH   7  18
TORSDOF 6
ENDMDL
