MODEL 1
REMARK VINA RESULT: -7.053338517      0.000      0.000
REMARK  7 active torsions:
REMARK  status: ('A' for Active; 'I' for Inactive)
REMARK    1  A    between atoms: N1_1  and  N2_4 
REMARK    2  A    between atoms: C1_5  and  O1_6 
REMARK    3  A    between atoms: O1_6  and  C2_7 
REMARK    4  A    between atoms: C2_7  and  N3_9 
REMARK    5  A    between atoms: N3_9  and  C3_11 
REMARK    6  A    between atoms: C3_11  and  C4_12 
REMARK    7  A    between atoms: C5_13  and  C6_14 
ROOT
HETATM    1  C2  UNL     1      15.624   2.085  21.116  1.00  0.00     0.218 C 
HETATM    2  S1  UNL     1      16.719   3.227  20.731  1.00  0.00    -0.033 SA
ENDROOT
BRANCH   1   3
HETATM    3  O1  UNL     1      15.989   0.926  21.762  1.00  0.00    -0.249 OA
BRANCH   3   4
HETATM    4  C1  UNL     1      15.769  -0.306  21.211  1.00  0.00     0.277 A 
HETATM    5  N2  UNL     1      15.421  -1.401  21.907  1.00  0.00    -0.164 N 
HETATM    6  C11 UNL     1      15.295  -2.411  21.038  1.00  0.00     0.411 A 
HETATM    7  O2  UNL     1      15.568  -1.905  19.853  1.00  0.00    -0.176 OA
HETATM    8  O3  UNL     1      14.977  -3.603  21.333  1.00  0.00    -0.234 OA
HETATM    9  N4  UNL     1      15.853  -0.658  19.923  1.00  0.00    -0.217 N 
ATOM     10  H4  UNL     1      16.097  -0.048  19.144  1.00  0.00     0.199 HD
BRANCH   5  11
HETATM   11  N1  UNL     1      15.217  -1.507  23.291  1.00  0.00    -0.331 N 
ATOM     12  H12 UNL     1      15.263  -0.727  23.947  1.00  0.00     0.177 HD
ATOM     13  H11 UNL     1      15.001  -2.348  23.826  1.00  0.00     0.177 HD
ENDBRANCH   5  11
ENDBRANCH   3   4
ENDBRANCH   1   3
BRANCH   1  14
HETATM   14  N3  UNL     1      14.254   2.328  20.758  1.00  0.00    -0.358 N 
ATOM     15  H3  UNL     1      13.523   2.251  21.465  1.00  0.00     0.162 HD
BRANCH  14  16
HETATM   16  C3  UNL     1      13.909   2.679  19.414  1.00  0.00     0.149 C 
BRANCH  16  17
HETATM   17  C4  UNL     1      13.669   1.611  18.447  1.00  0.00    -0.011 C 
HETATM   18  C5  UNL     1      13.023   1.739  17.162  1.00  0.00    -0.024 C 
BRANCH  18  19
HETATM   19  C6  UNL     1      11.693   2.202  16.821  1.00  0.00     0.008 C 
HETATM   20  C7  UNL     1      11.114   2.067  15.465  1.00  0.00     0.008 C 
HETATM   21  C8  UNL     1      11.184   0.551  15.285  1.00  0.00     0.001 C 
HETATM   22  C9  UNL     1      10.722   0.051  16.666  1.00  0.00     0.001 C 
HETATM   23  C10 UNL     1      10.684   1.252  17.574  1.00  0.00     0.008 C 
ENDBRANCH  18  19
ENDBRANCH  16  17
ENDBRANCH  14  16
ENDBRANCH   1  14
TORSDOF 7
ENDMDL
MODEL 2
REMARK VINA RESULT: -6.972898309      2.345      3.942
REMARK  7 active torsions:
REMARK  status: ('A' for Active; 'I' for Inactive)
REMARK    1  A    between atoms: N1_1  and  N2_4 
REMARK    2  A    between atoms: C1_5  and  O1_6 
REMARK    3  A    between atoms: O1_6  and  C2_7 
REMARK    4  A    between atoms: C2_7  and  N3_9 
REMARK    5  A    between atoms: N3_9  and  C3_11 
REMARK    6  A    between atoms: C3_11  and  C4_12 
REMARK    7  A    between atoms: C5_13  and  C6_14 
ROOT
HETATM    1  C2  UNL     1      14.859  -2.567  19.901  1.00  0.00     0.218 C 
HETATM    2  S1  UNL     1      14.385  -3.821  20.825  1.00  0.00    -0.033 SA
ENDROOT
BRANCH   1   3
HETATM    3  O1  UNL     1      15.954  -1.801  20.234  1.00  0.00    -0.249 OA
BRANCH   3   4
HETATM    4  C1  UNL     1      15.822  -0.539  20.744  1.00  0.00     0.277 A 
HETATM    5  N2  UNL     1      16.076   0.589  20.061  1.00  0.00    -0.164 N 
HETATM    6  C11 UNL     1      15.839   1.621  20.880  1.00  0.00     0.411 A 
HETATM    7  O2  UNL     1      15.453   1.093  22.024  1.00  0.00    -0.176 OA
HETATM    8  O3  UNL     1      15.971   2.846  20.581  1.00  0.00    -0.234 OA
HETATM    9  N4  UNL     1      15.433  -0.186  21.974  1.00  0.00    -0.217 N 
ATOM     10  H4  UNL     1      15.170  -0.818  22.730  1.00  0.00     0.199 HD
BRANCH   5  11
HETATM   11  N1  UNL     1      16.510   0.707  18.732  1.00  0.00    -0.331 N 
ATOM     12  H12 UNL     1      17.486   0.712  18.438  1.00  0.00     0.177 HD
ATOM     13  H11 UNL     1      15.935   0.801  17.895  1.00  0.00     0.177 HD
ENDBRANCH   5  11
ENDBRANCH   3   4
ENDBRANCH   1   3
BRANCH   1  14
HETATM   14  N3  UNL     1      14.094  -2.283  18.719  1.00  0.00    -0.358 N 
ATOM     15  H3  UNL     1      14.523  -2.387  17.799  1.00  0.00     0.162 HD
BRANCH  14  16
HETATM   16  C3  UNL     1      12.732  -1.857  18.824  1.00  0.00     0.149 C 
BRANCH  16  17
HETATM   17  C4  UNL     1      12.431  -0.645  19.582  1.00  0.00    -0.011 C 
HETATM   18  C5  UNL     1      12.248   0.685  19.048  1.00  0.00    -0.024 C 
BRANCH  18  19
HETATM   19  C6  UNL     1      13.147   1.519  18.277  1.00  0.00     0.008 C 
HETATM   20  C7  UNL     1      13.196   1.500  16.797  1.00  0.00     0.008 C 
HETATM   21  C8  UNL     1      11.751   1.876  16.469  1.00  0.00     0.001 C 
HETATM   22  C9  UNL     1      11.482   3.000  17.486  1.00  0.00     0.001 C 
HETATM   23  C10 UNL     1      12.639   3.002  18.451  1.00  0.00     0.008 C 
ENDBRANCH  18  19
ENDBRANCH  16  17
ENDBRANCH  14  16
ENDBRANCH   1  14
TORSDOF 7
ENDMDL
MODEL 3
REMARK VINA RESULT: -6.957699226      0.701      1.110
REMARK  7 active torsions:
REMARK  status: ('A' for Active; 'I' for Inactive)
REMARK    1  A    between atoms: N1_1  and  N2_4 
REMARK    2  A    between atoms: C1_5  and  O1_6 
REMARK    3  A    between atoms: O1_6  and  C2_7 
REMARK    4  A    between atoms: C2_7  and  N3_9 
REMARK    5  A    between atoms: N3_9  and  C3_11 
REMARK    6  A    between atoms: C3_11  and  C4_12 
REMARK    7  A    between atoms: C5_13  and  C6_14 
ROOT
HETATM    1  C2  UNL     1      15.596   2.124  21.176  1.00  0.00     0.218 C 
HETATM    2  S1  UNL     1      16.702   3.254  20.787  1.00  0.00    -0.033 SA
ENDROOT
BRANCH   1   3
HETATM    3  O1  UNL     1      15.955   0.948  21.793  1.00  0.00    -0.249 OA
BRANCH   3   4
HETATM    4  C1  UNL     1      15.720  -0.270  21.216  1.00  0.00     0.277 A 
HETATM    5  N2  UNL     1      15.412  -1.388  21.894  1.00  0.00    -0.164 N 
HETATM    6  C11 UNL     1      15.256  -2.373  21.002  1.00  0.00     0.411 A 
HETATM    7  O2  UNL     1      15.472  -1.829  19.821  1.00  0.00    -0.176 OA
HETATM    8  O3  UNL     1      14.961  -3.575  21.274  1.00  0.00    -0.234 OA
HETATM    9  N4  UNL     1      15.750  -0.582  19.916  1.00  0.00    -0.217 N 
ATOM     10  H4  UNL     1      15.955   0.053  19.145  1.00  0.00     0.199 HD
BRANCH   5  11
HETATM   11  N1  UNL     1      15.271  -1.536  23.282  1.00  0.00    -0.331 N 
ATOM     12  H12 UNL     1      15.269  -2.430  23.774  1.00  0.00     0.177 HD
ATOM     13  H11 UNL     1      15.153  -0.801  23.978  1.00  0.00     0.177 HD
ENDBRANCH   5  11
ENDBRANCH   3   4
ENDBRANCH   1   3
BRANCH   1  14
HETATM   14  N3  UNL     1      14.223   2.398  20.854  1.00  0.00    -0.358 N 
ATOM     15  H3  UNL     1      13.478   1.975  21.408  1.00  0.00     0.162 HD
BRANCH  14  16
HETATM   16  C3  UNL     1      13.895   3.260  19.760  1.00  0.00     0.149 C 
BRANCH  16  17
HETATM   17  C4  UNL     1      12.568   3.160  19.157  1.00  0.00    -0.011 C 
HETATM   18  C5  UNL     1      12.113   2.145  18.235  1.00  0.00    -0.024 C 
BRANCH  18  19
HETATM   19  C6  UNL     1      12.618   1.765  16.932  1.00  0.00     0.008 C 
HETATM   20  C7  UNL     1      12.484   0.397  16.381  1.00  0.00     0.008 C 
HETATM   21  C8  UNL     1      10.964   0.241  16.400  1.00  0.00     0.001 C 
HETATM   22  C9  UNL     1      10.502   1.617  15.887  1.00  0.00     0.001 C 
HETATM   23  C10 UNL     1      11.717   2.507  15.871  1.00  0.00     0.008 C 
ENDBRANCH  18  19
ENDBRANCH  16  17
ENDBRANCH  14  16
ENDBRANCH   1  14
TORSDOF 7
ENDMDL
MODEL 4
REMARK VINA RESULT: -6.872597480      2.277      3.926
REMARK  7 active torsions:
REMARK  status: ('A' for Active; 'I' for Inactive)
REMARK    1  A    between atoms: N1_1  and  N2_4 
REMARK    2  A    between atoms: C1_5  and  O1_6 
REMARK    3  A    between atoms: O1_6  and  C2_7 
REMARK    4  A    between atoms: C2_7  and  N3_9 
REMARK    5  A    between atoms: N3_9  and  C3_11 
REMARK    6  A    between atoms: C3_11  and  C4_12 
REMARK    7  A    between atoms: C5_13  and  C6_14 
ROOT
HETATM    1  C2  UNL     1      14.763  -2.396  19.694  1.00  0.00     0.218 C 
HETATM    2  S1  UNL     1      14.262  -3.720  20.497  1.00  0.00    -0.033 SA
ENDROOT
BRANCH   1   3
HETATM    3  O1  UNL     1      15.882  -1.696  20.086  1.00  0.00    -0.249 OA
BRANCH   3   4
HETATM    4  C1  UNL     1      15.796  -0.443  20.627  1.00  0.00     0.277 A 
HETATM    5  N2  UNL     1      16.052   0.694  19.960  1.00  0.00    -0.164 N 
HETATM    6  C11 UNL     1      15.866   1.712  20.809  1.00  0.00     0.411 A 
HETATM    7  O2  UNL     1      15.505   1.168  21.953  1.00  0.00    -0.176 OA
HETATM    8  O3  UNL     1      16.015   2.940  20.531  1.00  0.00    -0.234 OA
HETATM    9  N4  UNL     1      15.455  -0.109  21.877  1.00  0.00    -0.217 N 
ATOM     10  H4  UNL     1      15.203  -0.752  22.628  1.00  0.00     0.199 HD
BRANCH   5  11
HETATM   11  N1  UNL     1      16.445   0.831  18.620  1.00  0.00    -0.331 N 
ATOM     12  H12 UNL     1      16.059   1.514  17.968  1.00  0.00     0.177 HD
ATOM     13  H11 UNL     1      17.148   0.289  18.119  1.00  0.00     0.177 HD
ENDBRANCH   5  11
ENDBRANCH   3   4
ENDBRANCH   1   3
BRANCH   1  14
HETATM   14  N3  UNL     1      13.995  -1.977  18.554  1.00  0.00    -0.358 N 
ATOM     15  H3  UNL     1      14.467  -1.579  17.742  1.00  0.00     0.162 HD
BRANCH  14  16
HETATM   16  C3  UNL     1      12.571  -2.118  18.551  1.00  0.00     0.149 C 
BRANCH  16  17
HETATM   17  C4  UNL     1      11.744  -0.914  18.513  1.00  0.00    -0.011 C 
HETATM   18  C5  UNL     1      11.158  -0.305  17.342  1.00  0.00    -0.024 C 
BRANCH  18  19
HETATM   19  C6  UNL     1      11.781   0.214  16.142  1.00  0.00     0.008 C 
HETATM   20  C7  UNL     1      11.038   0.974  15.110  1.00  0.00     0.008 C 
HETATM   21  C8  UNL     1      10.512   2.137  15.951  1.00  0.00     0.001 C 
HETATM   22  C9  UNL     1      11.742   2.482  16.811  1.00  0.00     0.001 C 
HETATM   23  C10 UNL     1      12.743   1.376  16.605  1.00  0.00     0.008 C 
ENDBRANCH  18  19
ENDBRANCH  16  17
ENDBRANCH  14  16
ENDBRANCH   1  14
TORSDOF 7
ENDMDL
MODEL 5
REMARK VINA RESULT: -6.843828169      2.690      4.683
REMARK  7 active torsions:
REMARK  status: ('A' for Active; 'I' for Inactive)
REMARK    1  A    between atoms: N1_1  and  N2_4 
REMARK    2  A    between atoms: C1_5  and  O1_6 
REMARK    3  A    between atoms: O1_6  and  C2_7 
REMARK    4  A    between atoms: C2_7  and  N3_9 
REMARK    5  A    between atoms: N3_9  and  C3_11 
REMARK    6  A    between atoms: C3_11  and  C4_12 
REMARK    7  A    between atoms: C5_13  and  C6_14 
ROOT
HETATM    1  C2  UNL     1      13.887  -1.174  19.329  1.00  0.00     0.218 C 
HETATM    2  S1  UNL     1      12.931  -2.206  20.149  1.00  0.00    -0.033 SA
ENDROOT
BRANCH   1   3
HETATM    3  O1  UNL     1      15.197  -0.962  19.693  1.00  0.00    -0.249 OA
BRANCH   3   4
HETATM    4  C1  UNL     1      15.614   0.226  20.226  1.00  0.00     0.277 A 
HETATM    5  N2  UNL     1      16.268   1.180  19.544  1.00  0.00    -0.164 N 
HETATM    6  C11 UNL     1      16.511   2.189  20.388  1.00  0.00     0.411 A 
HETATM    7  O2  UNL     1      16.002   1.822  21.547  1.00  0.00    -0.176 OA
HETATM    8  O3  UNL     1      17.112   3.267  20.097  1.00  0.00    -0.234 OA
HETATM    9  N4  UNL     1      15.463   0.662  21.482  1.00  0.00    -0.217 N 
ATOM     10  H4  UNL     1      15.005   0.163  22.245  1.00  0.00     0.199 HD
BRANCH   5  11
HETATM   11  N1  UNL     1      16.645   1.160  18.192  1.00  0.00    -0.331 N 
ATOM     12  H12 UNL     1      17.049   0.355  17.713  1.00  0.00     0.177 HD
ATOM     13  H11 UNL     1      16.575   1.919  17.515  1.00  0.00     0.177 HD
ENDBRANCH   5  11
ENDBRANCH   3   4
ENDBRANCH   1   3
BRANCH   1  14
HETATM   14  N3  UNL     1      13.316  -0.488  18.203  1.00  0.00    -0.358 N 
ATOM     15  H3  UNL     1      13.514  -0.813  17.257  1.00  0.00     0.162 HD
BRANCH  14  16
HETATM   16  C3  UNL     1      12.469   0.648  18.403  1.00  0.00     0.149 C 
BRANCH  16  17
HETATM   17  C4  UNL     1      13.003   1.981  18.130  1.00  0.00    -0.011 C 
HETATM   18  C5  UNL     1      12.938   3.132  19.000  1.00  0.00    -0.024 C 
BRANCH  18  19
HETATM   19  C6  UNL     1      11.796   3.821  19.563  1.00  0.00     0.008 C 
HETATM   20  C7  UNL     1      11.285   3.556  20.927  1.00  0.00     0.008 C 
HETATM   21  C8  UNL     1      12.529   3.878  21.755  1.00  0.00     0.001 C 
HETATM   22  C9  UNL     1      13.038   5.158  21.067  1.00  0.00     0.001 C 
HETATM   23  C10 UNL     1      12.246   5.315  19.795  1.00  0.00     0.008 C 
ENDBRANCH  18  19
ENDBRANCH  16  17
ENDBRANCH  14  16
ENDBRANCH   1  14
TORSDOF 7
ENDMDL
