MODEL 1
REMARK VINA RESULT: -7.077529197      0.000      0.000
REMARK  6 active torsions:
REMARK  status: ('A' for Active; 'I' for Inactive)
REMARK    1  A    between atoms: C2_3  and  C3_4 
REMARK    2  A    between atoms: C2_3  and  C7_17 
REMARK    3  A    between atoms: C3_4  and  C4_5 
REMARK    4  A    between atoms: C4_5  and  C5_10 
REMARK    5  A    between atoms: N2_6  and  O1_8 
REMARK       I    between atoms: C7_17  and  N5_19 
REMARK    6  A    between atoms: N5_19  and  C8_21 
ROOT
HETATM    1  N1  UNL     1      16.672   2.883  21.268  1.00  0.00    -0.196 NA
HETATM    2  C1  UNL     1      15.980   2.044  20.912  1.00  0.00     0.073 C 
HETATM    3  C2  UNL     1      15.055   0.955  20.459  1.00  0.00     0.190 C 
ENDROOT
BRANCH   3   4
HETATM    4  C3  UNL     1      15.638  -0.364  20.773  1.00  0.00     0.090 C 
BRANCH   4   5
HETATM    5  C4  UNL     1      14.782  -1.514  20.949  1.00  0.00     0.062 C 
HETATM    6  N2  UNL     1      14.751  -2.062  22.127  1.00  0.00    -0.271 N 
ATOM      7  H2  UNL     1      14.154  -2.876  22.275  1.00  0.00     0.194 HD
BRANCH   6   8
HETATM    8  O1  UNL     1      15.480  -1.594  23.160  1.00  0.00    -0.290 OA
ATOM      9  H1  UNL     1      15.149  -1.578  24.050  1.00  0.00     0.244 HD
ENDBRANCH   6   8
BRANCH   5  10
HETATM   10  C5  UNL     1      13.893  -2.067  19.894  1.00  0.00     0.081 A 
HETATM   11  C6  UNL     1      12.553  -2.308  20.122  1.00  0.00     0.102 A 
HETATM   12  S1  UNL     1      12.073  -3.000  18.640  1.00  0.00    -0.008 SA
HETATM   13  N3  UNL     1      13.555  -2.944  17.849  1.00  0.00    -0.269 N 
HETATM   14  N4  UNL     1      14.344  -2.411  18.722  1.00  0.00    -0.292 N 
ATOM     15  H3  UNL     1      13.779  -3.256  16.904  1.00  0.00     0.195 HD
ATOM     16  H4  UNL     1      15.325  -2.258  18.492  1.00  0.00     0.187 HD
ENDBRANCH   5  10
ENDBRANCH   4   5
ENDBRANCH   3   4
BRANCH   3  17
HETATM   17  C7  UNL     1      14.674   1.199  19.079  1.00  0.00     0.236 C 
HETATM   18  O2  UNL     1      15.593   1.402  18.213  1.00  0.00    -0.272 OA
HETATM   19  N5  UNL     1      13.298   1.226  18.634  1.00  0.00    -0.355 N 
ATOM     20  H5  UNL     1      12.546   1.067  19.304  1.00  0.00     0.162 HD
BRANCH  19  21
HETATM   21  C8  UNL     1      12.984   1.474  17.257  1.00  0.00     0.084 C 
HETATM   22  C9  UNL     1      11.924   2.558  17.106  1.00  0.00     0.025 C 
HETATM   23  C10 UNL     1      11.351   2.203  15.732  1.00  0.00     0.002 C 
HETATM   24  C11 UNL     1      11.164   0.709  15.871  1.00  0.00     0.002 C 
HETATM   25  C12 UNL     1      12.478   0.289  16.503  1.00  0.00     0.025 C 
ENDBRANCH  19  21
ENDBRANCH   3  17
TORSDOF 6
ENDMDL
MODEL 2
REMARK VINA RESULT: -7.012641860      2.422      3.325
REMARK  6 active torsions:
REMARK  status: ('A' for Active; 'I' for Inactive)
REMARK    1  A    between atoms: C2_3  and  C3_4 
REMARK    2  A    between atoms: C2_3  and  C7_17 
REMARK    3  A    between atoms: C3_4  and  C4_5 
REMARK    4  A    between atoms: C4_5  and  C5_10 
REMARK    5  A    between atoms: N2_6  and  O1_8 
REMARK       I    between atoms: C7_17  and  N5_19 
REMARK    6  A    between atoms: N5_19  and  C8_21 
ROOT
HETATM    1  N1  UNL     1      13.632   4.952  21.005  1.00  0.00    -0.196 NA
HETATM    2  C1  UNL     1      13.758   3.838  20.773  1.00  0.00     0.073 C 
HETATM    3  C2  UNL     1      13.912   2.375  20.489  1.00  0.00     0.190 C 
ENDROOT
BRANCH   3   4
HETATM    4  C3  UNL     1      15.320   2.071  20.167  1.00  0.00     0.090 C 
BRANCH   4   5
HETATM    5  C4  UNL     1      15.717   0.718  19.848  1.00  0.00     0.062 C 
HETATM    6  N2  UNL     1      16.378   0.534  18.745  1.00  0.00    -0.271 N 
ATOM      7  H2  UNL     1      16.669  -0.412  18.499  1.00  0.00     0.194 HD
BRANCH   6   8
HETATM    8  O1  UNL     1      16.694   1.549  17.915  1.00  0.00    -0.290 OA
ATOM      9  H1  UNL     1      17.332   1.456  17.218  1.00  0.00     0.244 HD
ENDBRANCH   6   8
BRANCH   5  10
HETATM   10  C5  UNL     1      15.474  -0.456  20.726  1.00  0.00     0.081 A 
HETATM   11  C6  UNL     1      15.019  -1.659  20.224  1.00  0.00     0.102 A 
HETATM   12  S1  UNL     1      14.840  -2.578  21.649  1.00  0.00    -0.008 SA
HETATM   13  N3  UNL     1      15.337  -1.415  22.757  1.00  0.00    -0.269 N 
HETATM   14  N4  UNL     1      15.615  -0.393  22.018  1.00  0.00    -0.292 N 
ATOM     15  H3  UNL     1      15.403  -1.497  23.771  1.00  0.00     0.195 HD
ATOM     16  H4  UNL     1      15.948   0.468  22.450  1.00  0.00     0.187 HD
ENDBRANCH   5  10
ENDBRANCH   4   5
ENDBRANCH   3   4
BRANCH   3  17
HETATM   17  C7  UNL     1      12.909   1.970  19.520  1.00  0.00     0.236 C 
HETATM   18  O2  UNL     1      12.446   0.779  19.575  1.00  0.00    -0.272 OA
HETATM   19  N5  UNL     1      12.407   2.851  18.489  1.00  0.00    -0.355 N 
ATOM     20  H5  UNL     1      12.760   3.806  18.423  1.00  0.00     0.162 HD
BRANCH  19  21
HETATM   21  C8  UNL     1      11.417   2.392  17.558  1.00  0.00     0.084 C 
HETATM   22  C9  UNL     1      12.041   1.975  16.232  1.00  0.00     0.025 C 
HETATM   23  C10 UNL     1      10.842   2.138  15.293  1.00  0.00     0.002 C 
HETATM   24  C11 UNL     1      10.328   3.497  15.711  1.00  0.00     0.002 C 
HETATM   25  C12 UNL     1      10.357   3.387  17.225  1.00  0.00     0.025 C 
ENDBRANCH  19  21
ENDBRANCH   3  17
TORSDOF 6
ENDMDL
MODEL 3
REMARK VINA RESULT: -6.945958143      2.553      4.170
REMARK  6 active torsions:
REMARK  status: ('A' for Active; 'I' for Inactive)
REMARK    1  A    between atoms: C2_3  and  C3_4 
REMARK    2  A    between atoms: C2_3  and  C7_17 
REMARK    3  A    between atoms: C3_4  and  C4_5 
REMARK    4  A    between atoms: C4_5  and  C5_10 
REMARK    5  A    between atoms: N2_6  and  O1_8 
REMARK       I    between atoms: C7_17  and  N5_19 
REMARK    6  A    between atoms: N5_19  and  C8_21 
ROOT
HETATM    1  N1  UNL     1      12.083  -4.961  18.315  1.00  0.00    -0.196 NA
HETATM    2  C1  UNL     1      12.378  -3.879  18.542  1.00  0.00     0.073 C 
HETATM    3  C2  UNL     1      12.781  -2.463  18.823  1.00  0.00     0.190 C 
ENDROOT
BRANCH   3   4
HETATM    4  C3  UNL     1      13.018  -2.285  20.269  1.00  0.00     0.090 C 
BRANCH   4   5
HETATM    5  C4  UNL     1      14.340  -1.958  20.754  1.00  0.00     0.062 C 
HETATM    6  N2  UNL     1      14.936  -2.837  21.502  1.00  0.00    -0.271 N 
ATOM      7  H2  UNL     1      15.870  -2.628  21.856  1.00  0.00     0.194 HD
BRANCH   6   8
HETATM    8  O1  UNL     1      14.365  -4.014  21.827  1.00  0.00    -0.290 OA
ATOM      9  H1  UNL     1      14.872  -4.806  21.959  1.00  0.00     0.244 HD
ENDBRANCH   6   8
BRANCH   5  10
HETATM   10  C5  UNL     1      15.079  -0.718  20.401  1.00  0.00     0.081 A 
HETATM   11  C6  UNL     1      15.182   0.343  21.278  1.00  0.00     0.102 A 
HETATM   12  S1  UNL     1      16.030   1.484  20.338  1.00  0.00    -0.008 SA
HETATM   13  N3  UNL     1      16.195   0.573  18.934  1.00  0.00    -0.269 N 
HETATM   14  N4  UNL     1      15.612  -0.542  19.227  1.00  0.00    -0.292 N 
ATOM     15  H3  UNL     1      16.648   0.837  18.059  1.00  0.00     0.195 HD
ATOM     16  H4  UNL     1      15.569  -1.289  18.534  1.00  0.00     0.187 HD
ENDBRANCH   5  10
ENDBRANCH   4   5
ENDBRANCH   3   4
BRANCH   3  17
HETATM   17  C7  UNL     1      11.830  -1.564  18.193  1.00  0.00     0.236 C 
HETATM   18  O2  UNL     1      10.590  -1.877  18.199  1.00  0.00    -0.272 OA
HETATM   19  N5  UNL     1      12.220  -0.327  17.553  1.00  0.00    -0.355 N 
ATOM     20  H5  UNL     1      13.202  -0.054  17.534  1.00  0.00     0.162 HD
BRANCH  19  21
HETATM   21  C8  UNL     1      11.234   0.519  16.945  1.00  0.00     0.084 C 
HETATM   22  C9  UNL     1      11.260   0.413  15.425  1.00  0.00     0.025 C 
HETATM   23  C10 UNL     1      10.640   1.757  15.038  1.00  0.00     0.002 C 
HETATM   24  C11 UNL     1      11.409   2.702  15.933  1.00  0.00     0.002 C 
HETATM   25  C12 UNL     1      11.368   1.971  17.262  1.00  0.00     0.025 C 
ENDBRANCH  19  21
ENDBRANCH   3  17
TORSDOF 6
ENDMDL
MODEL 4
REMARK VINA RESULT: -6.915824565      2.368      4.032
REMARK  6 active torsions:
REMARK  status: ('A' for Active; 'I' for Inactive)
REMARK    1  A    between atoms: C2_3  and  C3_4 
REMARK    2  A    between atoms: C2_3  and  C7_17 
REMARK    3  A    between atoms: C3_4  and  C4_5 
REMARK    4  A    between atoms: C4_5  and  C5_10 
REMARK    5  A    between atoms: N2_6  and  O1_8 
REMARK       I    between atoms: C7_17  and  N5_19 
REMARK    6  A    between atoms: N5_19  and  C8_21 
ROOT
HETATM    1  N1  UNL     1      13.997  -4.788  21.261  1.00  0.00    -0.196 NA
HETATM    2  C1  UNL     1      14.405  -3.819  20.809  1.00  0.00     0.073 C 
HETATM    3  C2  UNL     1      14.944  -2.562  20.197  1.00  0.00     0.190 C 
ENDROOT
BRANCH   3   4
HETATM    4  C3  UNL     1      15.956  -1.962  21.088  1.00  0.00     0.090 C 
BRANCH   4   5
HETATM    5  C4  UNL     1      15.753  -0.638  21.631  1.00  0.00     0.062 C 
HETATM    6  N2  UNL     1      15.399  -0.553  22.878  1.00  0.00    -0.271 N 
ATOM      7  H2  UNL     1      15.249   0.371  23.285  1.00  0.00     0.194 HD
BRANCH   6   8
HETATM    8  O1  UNL     1      15.221  -1.641  23.654  1.00  0.00    -0.290 OA
ATOM      9  H1  UNL     1      15.899  -2.295  23.776  1.00  0.00     0.244 HD
ENDBRANCH   6   8
BRANCH   5  10
HETATM   10  C5  UNL     1      15.984   0.622  20.879  1.00  0.00     0.081 A 
HETATM   11  C6  UNL     1      15.527   1.840  21.340  1.00  0.00     0.102 A 
HETATM   12  S1  UNL     1      15.984   2.880  20.068  1.00  0.00    -0.008 SA
HETATM   13  N3  UNL     1      16.702   1.741  19.063  1.00  0.00    -0.269 N 
HETATM   14  N4  UNL     1      16.572   0.635  19.718  1.00  0.00    -0.292 N 
ATOM     15  H3  UNL     1      17.138   1.887  18.152  1.00  0.00     0.195 HD
ATOM     16  H4  UNL     1      16.932  -0.234  19.323  1.00  0.00     0.187 HD
ENDBRANCH   5  10
ENDBRANCH   4   5
ENDBRANCH   3   4
BRANCH   3  17
HETATM   17  C7  UNL     1      13.834  -1.716  19.792  1.00  0.00     0.236 C 
HETATM   18  O2  UNL     1      12.794  -1.667  20.535  1.00  0.00    -0.272 OA
HETATM   19  N5  UNL     1      13.846  -0.925  18.581  1.00  0.00    -0.355 N 
ATOM     20  H5  UNL     1      14.663  -0.946  17.971  1.00  0.00     0.162 HD
BRANCH  19  21
HETATM   21  C8  UNL     1      12.718  -0.110  18.233  1.00  0.00     0.084 C 
HETATM   22  C9  UNL     1      12.087  -0.553  16.919  1.00  0.00     0.025 C 
HETATM   23  C10 UNL     1      11.397   0.743  16.487  1.00  0.00     0.002 C 
HETATM   24  C11 UNL     1      12.501   1.751  16.715  1.00  0.00     0.002 C 
HETATM   25  C12 UNL     1      13.014   1.345  18.083  1.00  0.00     0.025 C 
ENDBRANCH  19  21
ENDBRANCH   3  17
TORSDOF 6
ENDMDL
MODEL 5
REMARK VINA RESULT: -6.802565182      2.772      4.416
REMARK  6 active torsions:
REMARK  status: ('A' for Active; 'I' for Inactive)
REMARK    1  A    between atoms: C2_3  and  C3_4 
REMARK    2  A    between atoms: C2_3  and  C7_17 
REMARK    3  A    between atoms: C3_4  and  C4_5 
REMARK    4  A    between atoms: C4_5  and  C5_10 
REMARK    5  A    between atoms: N2_6  and  O1_8 
REMARK       I    between atoms: C7_17  and  N5_19 
REMARK    6  A    between atoms: N5_19  and  C8_21 
ROOT
HETATM    1  N1  UNL     1      15.932  -0.366  21.803  1.00  0.00    -0.196 NA
HETATM    2  C1  UNL     1      15.812   0.200  20.816  1.00  0.00     0.073 C 
HETATM    3  C2  UNL     1      15.665   0.923  19.512  1.00  0.00     0.190 C 
ENDROOT
BRANCH   3   4
HETATM    4  C3  UNL     1      16.174   2.302  19.641  1.00  0.00     0.090 C 
BRANCH   4   5
HETATM    5  C4  UNL     1      15.688   3.161  20.698  1.00  0.00     0.062 C 
HETATM    6  N2  UNL     1      16.570   3.682  21.497  1.00  0.00    -0.271 N 
ATOM      7  H2  UNL     1      16.251   4.291  22.250  1.00  0.00     0.194 HD
BRANCH   6   8
HETATM    8  O1  UNL     1      17.891   3.446  21.366  1.00  0.00    -0.290 OA
ATOM      9  H1  UNL     1      18.547   4.101  21.572  1.00  0.00     0.244 HD
ENDBRANCH   6   8
BRANCH   5  10
HETATM   10  C5  UNL     1      14.262   3.532  20.887  1.00  0.00     0.081 A 
HETATM   11  C6  UNL     1      13.480   3.976  19.840  1.00  0.00     0.102 A 
HETATM   12  S1  UNL     1      12.013   4.328  20.634  1.00  0.00    -0.008 SA
HETATM   13  N3  UNL     1      12.470   3.905  22.195  1.00  0.00    -0.269 N 
HETATM   14  N4  UNL     1      13.695   3.518  22.058  1.00  0.00    -0.292 N 
ATOM     15  H3  UNL     1      11.913   3.944  23.049  1.00  0.00     0.195 HD
ATOM     16  H4  UNL     1      14.220   3.201  22.872  1.00  0.00     0.187 HD
ENDBRANCH   5  10
ENDBRANCH   4   5
ENDBRANCH   3   4
BRANCH   3  17
HETATM   17  C7  UNL     1      14.304   0.762  19.029  1.00  0.00     0.236 C 
HETATM   18  O2  UNL     1      13.439   0.216  19.797  1.00  0.00    -0.272 OA
HETATM   19  N5  UNL     1      13.878   1.190  17.715  1.00  0.00    -0.355 N 
ATOM     20  H5  UNL     1      14.548   1.628  17.083  1.00  0.00     0.162 HD
BRANCH  19  21
HETATM   21  C8  UNL     1      12.520   1.002  17.294  1.00  0.00     0.084 C 
HETATM   22  C9  UNL     1      12.429   0.102  16.068  1.00  0.00     0.025 C 
HETATM   23  C10 UNL     1      11.086   0.551  15.487  1.00  0.00     0.002 C 
HETATM   24  C11 UNL     1      11.229   2.054  15.549  1.00  0.00     0.002 C 
HETATM   25  C12 UNL     1      11.789   2.255  16.945  1.00  0.00     0.025 C 
ENDBRANCH  19  21
ENDBRANCH   3  17
TORSDOF 6
ENDMDL
