MODEL 1
REMARK VINA RESULT: -7.111024644      0.000      0.000
REMARK  5 active torsions:
REMARK  status: ('A' for Active; 'I' for Inactive)
REMARK    1  A    between atoms: C2_3  and  C3_4 
REMARK    2  A    between atoms: C2_3  and  S1_15 
REMARK    3  A    between atoms: N2_5  and  N3_7 
REMARK    4  A    between atoms: N3_7  and  C4_9 
REMARK    5  A    between atoms: S1_15  and  C10_18 
ROOT
HETATM    1  N1  UNL     1      17.101   3.282  21.210  1.00  0.00    -0.196 NA
HETATM    2  C1  UNL     1      16.141   2.621  21.189  1.00  0.00     0.085 C 
HETATM    3  C2  UNL     1      14.935   1.778  21.187  1.00  0.00     0.261 C 
ENDROOT
BRANCH   3   4
HETATM    4  C3  UNL     1      13.852   2.360  20.385  1.00  0.00     0.115 C 
HETATM    5  N2  UNL     1      13.921   2.412  19.109  1.00  0.00    -0.313 N 
ATOM      6  H2  UNL     1      14.738   2.046  18.619  1.00  0.00     0.185 HD
BRANCH   5   7
HETATM    7  N3  UNL     1      12.859   2.978  18.397  1.00  0.00    -0.301 N 
ATOM      8  H3  UNL     1      12.518   3.907  18.643  1.00  0.00     0.187 HD
BRANCH   7   9
HETATM    9  C4  UNL     1      12.259   2.262  17.336  1.00  0.00     0.048 A 
HETATM   10  C5  UNL     1      11.262   2.849  16.601  1.00  0.00     0.031 A 
HETATM   11  C6  UNL     1      10.652   2.171  15.553  1.00  0.00     0.002 A 
HETATM   12  C7  UNL     1      11.067   0.894  15.262  1.00  0.00     0.000 A 
HETATM   13  C8  UNL     1      12.068   0.280  15.985  1.00  0.00     0.002 A 
HETATM   14  C9  UNL     1      12.658   0.987  17.028  1.00  0.00     0.031 A 
ENDBRANCH   7   9
ENDBRANCH   5   7
ENDBRANCH   3   4
BRANCH   3  15
HETATM   15  S1  UNL     1      15.429   0.168  20.615  1.00  0.00     0.221 S 
HETATM   16  O1  UNL     1      16.114   0.348  19.289  1.00  0.00    -0.219 OA
HETATM   17  O2  UNL     1      16.416  -0.452  21.562  1.00  0.00    -0.219 OA
BRANCH  15  18
HETATM   18  C10 UNL     1      14.007  -0.831  20.448  1.00  0.00     0.195 A 
HETATM   19  C11 UNL     1      13.919  -2.142  20.904  1.00  0.00     0.071 A 
HETATM   20  C12 UNL     1      12.662  -2.613  20.602  1.00  0.00     0.118 A 
HETATM   21  N4  UNL     1      12.042  -1.582  19.981  1.00  0.00    -0.271 N 
HETATM   22  O3  UNL     1      12.853  -0.565  19.911  1.00  0.00    -0.226 OA
ATOM     23  H4  UNL     1      11.087  -1.599  19.624  1.00  0.00     0.194 HD
ENDBRANCH  15  18
ENDBRANCH   3  15
TORSDOF 5
ENDMDL
MODEL 2
REMARK VINA RESULT: -7.070084553      2.393      2.899
REMARK  5 active torsions:
REMARK  status: ('A' for Active; 'I' for Inactive)
REMARK    1  A    between atoms: C2_3  and  C3_4 
REMARK    2  A    between atoms: C2_3  and  S1_15 
REMARK    3  A    between atoms: N2_5  and  N3_7 
REMARK    4  A    between atoms: N3_7  and  C4_9 
REMARK    5  A    between atoms: S1_15  and  C10_18 
ROOT
HETATM    1  N1  UNL     1      16.232  -0.898  21.829  1.00  0.00    -0.196 NA
HETATM    2  C1  UNL     1      15.238  -0.962  21.225  1.00  0.00     0.085 C 
HETATM    3  C2  UNL     1      13.972  -1.057  20.481  1.00  0.00     0.261 C 
ENDROOT
BRANCH   3   4
HETATM    4  C3  UNL     1      13.746   0.108  19.618  1.00  0.00     0.115 C 
HETATM    5  N2  UNL     1      14.291   0.198  18.464  1.00  0.00    -0.313 N 
ATOM      6  H2  UNL     1      14.898  -0.546  18.119  1.00  0.00     0.185 HD
BRANCH   5   7
HETATM    7  N3  UNL     1      14.041   1.331  17.684  1.00  0.00    -0.301 N 
ATOM      8  H3  UNL     1      14.719   2.093  17.659  1.00  0.00     0.187 HD
BRANCH   7   9
HETATM    9  C4  UNL     1      12.849   1.421  16.930  1.00  0.00     0.048 A 
HETATM   10  C5  UNL     1      12.107   2.572  16.970  1.00  0.00     0.031 A 
HETATM   11  C6  UNL     1      10.930   2.691  16.241  1.00  0.00     0.002 A 
HETATM   12  C7  UNL     1      10.519   1.628  15.473  1.00  0.00     0.000 A 
HETATM   13  C8  UNL     1      11.246   0.458  15.415  1.00  0.00     0.002 A 
HETATM   14  C9  UNL     1      12.420   0.373  16.156  1.00  0.00     0.031 A 
ENDBRANCH   7   9
ENDBRANCH   5   7
ENDBRANCH   3   4
BRANCH   3  15
HETATM   15  S1  UNL     1      14.014  -2.588  19.578  1.00  0.00     0.221 S 
HETATM   16  O1  UNL     1      13.057  -2.461  18.425  1.00  0.00    -0.219 OA
HETATM   17  O2  UNL     1      15.383  -2.835  19.014  1.00  0.00    -0.219 OA
BRANCH  15  18
HETATM   18  C10 UNL     1      13.531  -3.884  20.644  1.00  0.00     0.195 A 
HETATM   19  C11 UNL     1      14.075  -5.165  20.609  1.00  0.00     0.071 A 
HETATM   20  C12 UNL     1      13.460  -5.914  21.584  1.00  0.00     0.118 A 
HETATM   21  N4  UNL     1      12.576  -5.071  22.167  1.00  0.00    -0.271 N 
HETATM   22  O3  UNL     1      12.646  -3.903  21.596  1.00  0.00    -0.226 OA
ATOM     23  H4  UNL     1      11.951  -5.314  22.936  1.00  0.00     0.194 HD
ENDBRANCH  15  18
ENDBRANCH   3  15
TORSDOF 5
ENDMDL
MODEL 3
REMARK VINA RESULT: -7.065989906      2.173      2.720
REMARK  5 active torsions:
REMARK  status: ('A' for Active; 'I' for Inactive)
REMARK    1  A    between atoms: C2_3  and  C3_4 
REMARK    2  A    between atoms: C2_3  and  S1_15 
REMARK    3  A    between atoms: N2_5  and  N3_7 
REMARK    4  A    between atoms: N3_7  and  C4_9 
REMARK    5  A    between atoms: S1_15  and  C10_18 
ROOT
HETATM    1  N1  UNL     1      15.967   0.947  21.336  1.00  0.00    -0.196 NA
HETATM    2  C1  UNL     1      15.197   0.168  20.936  1.00  0.00     0.085 C 
HETATM    3  C2  UNL     1      14.219  -0.819  20.456  1.00  0.00     0.261 C 
ENDROOT
BRANCH   3   4
HETATM    4  C3  UNL     1      13.682  -0.473  19.134  1.00  0.00     0.115 C 
HETATM    5  N2  UNL     1      14.067   0.577  18.514  1.00  0.00    -0.313 N 
ATOM      6  H2  UNL     1      14.761   1.199  18.928  1.00  0.00     0.185 HD
BRANCH   5   7
HETATM    7  N3  UNL     1      13.520   0.858  17.257  1.00  0.00    -0.301 N 
ATOM      8  H3  UNL     1      13.829   0.335  16.438  1.00  0.00     0.187 HD
BRANCH   7   9
HETATM    9  C4  UNL     1      12.539   1.868  17.124  1.00  0.00     0.048 A 
HETATM   10  C5  UNL     1      11.797   1.942  15.975  1.00  0.00     0.031 A 
HETATM   11  C6  UNL     1      10.826   2.923  15.812  1.00  0.00     0.002 A 
HETATM   12  C7  UNL     1      10.621   3.824  16.830  1.00  0.00     0.000 A 
HETATM   13  C8  UNL     1      11.354   3.771  17.996  1.00  0.00     0.002 A 
HETATM   14  C9  UNL     1      12.318   2.777  18.126  1.00  0.00     0.031 A 
ENDBRANCH   7   9
ENDBRANCH   5   7
ENDBRANCH   3   4
BRANCH   3  15
HETATM   15  S1  UNL     1      15.027  -2.403  20.479  1.00  0.00     0.221 S 
HETATM   16  O1  UNL     1      15.405  -2.741  19.063  1.00  0.00    -0.219 OA
HETATM   17  O2  UNL     1      16.289  -2.344  21.290  1.00  0.00    -0.219 OA
BRANCH  15  18
HETATM   18  C10 UNL     1      13.921  -3.591  21.124  1.00  0.00     0.195 A 
HETATM   19  C11 UNL     1      14.101  -4.966  21.009  1.00  0.00     0.071 A 
HETATM   20  C12 UNL     1      13.042  -5.586  21.630  1.00  0.00     0.118 A 
HETATM   21  N4  UNL     1      12.268  -4.576  22.094  1.00  0.00    -0.271 N 
HETATM   22  O3  UNL     1      12.810  -3.433  21.781  1.00  0.00    -0.226 OA
ATOM     23  H4  UNL     1      11.395  -4.692  22.607  1.00  0.00     0.194 HD
ENDBRANCH  15  18
ENDBRANCH   3  15
TORSDOF 5
ENDMDL
MODEL 4
REMARK VINA RESULT: -7.044989739      2.177      2.735
REMARK  5 active torsions:
REMARK  status: ('A' for Active; 'I' for Inactive)
REMARK    1  A    between atoms: C2_3  and  C3_4 
REMARK    2  A    between atoms: C2_3  and  S1_15 
REMARK    3  A    between atoms: N2_5  and  N3_7 
REMARK    4  A    between atoms: N3_7  and  C4_9 
REMARK    5  A    between atoms: S1_15  and  C10_18 
ROOT
HETATM    1  N1  UNL     1      15.959   0.951  21.339  1.00  0.00    -0.196 NA
HETATM    2  C1  UNL     1      15.190   0.168  20.945  1.00  0.00     0.085 C 
HETATM    3  C2  UNL     1      14.214  -0.824  20.471  1.00  0.00     0.261 C 
ENDROOT
BRANCH   3   4
HETATM    4  C3  UNL     1      13.674  -0.485  19.148  1.00  0.00     0.115 C 
HETATM    5  N2  UNL     1      14.051   0.566  18.525  1.00  0.00    -0.313 N 
ATOM      6  H2  UNL     1      14.740   1.195  18.937  1.00  0.00     0.185 HD
BRANCH   5   7
HETATM    7  N3  UNL     1      13.502   0.839  17.268  1.00  0.00    -0.301 N 
ATOM      8  H3  UNL     1      13.801   0.304  16.453  1.00  0.00     0.187 HD
BRANCH   7   9
HETATM    9  C4  UNL     1      12.531   1.858  17.127  1.00  0.00     0.048 A 
HETATM   10  C5  UNL     1      12.350   2.765  18.138  1.00  0.00     0.031 A 
HETATM   11  C6  UNL     1      11.403   3.776  18.031  1.00  0.00     0.002 A 
HETATM   12  C7  UNL     1      10.646   3.853  16.887  1.00  0.00     0.000 A 
HETATM   13  C8  UNL     1      10.808   2.954  15.854  1.00  0.00     0.002 A 
HETATM   14  C9  UNL     1      11.765   1.954  15.994  1.00  0.00     0.031 A 
ENDBRANCH   7   9
ENDBRANCH   5   7
ENDBRANCH   3   4
BRANCH   3  15
HETATM   15  S1  UNL     1      15.025  -2.406  20.500  1.00  0.00     0.221 S 
HETATM   16  O1  UNL     1      15.418  -2.741  19.088  1.00  0.00    -0.219 OA
HETATM   17  O2  UNL     1      16.280  -2.344  21.324  1.00  0.00    -0.219 OA
BRANCH  15  18
HETATM   18  C10 UNL     1      13.917  -3.596  21.134  1.00  0.00     0.195 A 
HETATM   19  C11 UNL     1      14.091  -4.971  21.002  1.00  0.00     0.071 A 
HETATM   20  C12 UNL     1      13.031  -5.594  21.618  1.00  0.00     0.118 A 
HETATM   21  N4  UNL     1      12.263  -4.587  22.097  1.00  0.00    -0.271 N 
HETATM   22  O3  UNL     1      12.809  -3.443  21.797  1.00  0.00    -0.226 OA
ATOM     23  H4  UNL     1      11.391  -4.706  22.612  1.00  0.00     0.194 HD
ENDBRANCH  15  18
ENDBRANCH   3  15
TORSDOF 5
ENDMDL
MODEL 5
REMARK VINA RESULT: -6.993341884      1.653      2.209
REMARK  5 active torsions:
REMARK  status: ('A' for Active; 'I' for Inactive)
REMARK    1  A    between atoms: C2_3  and  C3_4 
REMARK    2  A    between atoms: C2_3  and  S1_15 
REMARK    3  A    between atoms: N2_5  and  N3_7 
REMARK    4  A    between atoms: N3_7  and  C4_9 
REMARK    5  A    between atoms: S1_15  and  C10_18 
ROOT
HETATM    1  N1  UNL     1      17.002   3.686  20.799  1.00  0.00    -0.196 NA
HETATM    2  C1  UNL     1      16.057   3.003  20.795  1.00  0.00     0.085 C 
HETATM    3  C2  UNL     1      14.875   2.128  20.811  1.00  0.00     0.261 C 
ENDROOT
BRANCH   3   4
HETATM    4  C3  UNL     1      13.649   2.844  20.436  1.00  0.00     0.115 C 
HETATM    5  N2  UNL     1      13.440   3.223  19.233  1.00  0.00    -0.313 N 
ATOM      6  H2  UNL     1      14.128   3.035  18.503  1.00  0.00     0.185 HD
BRANCH   5   7
HETATM    7  N3  UNL     1      12.254   3.902  18.933  1.00  0.00    -0.301 N 
ATOM      8  H3  UNL     1      11.914   4.633  19.558  1.00  0.00     0.187 HD
BRANCH   7   9
HETATM    9  C4  UNL     1      11.529   3.574  17.765  1.00  0.00     0.048 A 
HETATM   10  C5  UNL     1      10.502   4.385  17.356  1.00  0.00     0.031 A 
HETATM   11  C6  UNL     1       9.769   4.089  16.213  1.00  0.00     0.002 A 
HETATM   12  C7  UNL     1      10.092   2.964  15.494  1.00  0.00     0.000 A 
HETATM   13  C8  UNL     1      11.120   2.132  15.884  1.00  0.00     0.002 A 
HETATM   14  C9  UNL     1      11.834   2.456  17.032  1.00  0.00     0.031 A 
ENDBRANCH   7   9
ENDBRANCH   5   7
ENDBRANCH   3   4
BRANCH   3  15
HETATM   15  S1  UNL     1      15.230   0.758  19.735  1.00  0.00     0.221 S 
HETATM   16  O1  UNL     1      13.999   0.494  18.913  1.00  0.00    -0.219 OA
HETATM   17  O2  UNL     1      16.348   1.099  18.791  1.00  0.00    -0.219 OA
BRANCH  15  18
HETATM   18  C10 UNL     1      15.634  -0.634  20.709  1.00  0.00     0.195 A 
HETATM   19  C11 UNL     1      15.160  -1.919  20.465  1.00  0.00     0.071 A 
HETATM   20  C12 UNL     1      15.681  -2.753  21.426  1.00  0.00     0.118 A 
HETATM   21  N4  UNL     1      16.443  -1.952  22.209  1.00  0.00    -0.271 N 
HETATM   22  O3  UNL     1      16.391  -0.730  21.762  1.00  0.00    -0.226 OA
ATOM     23  H4  UNL     1      16.974  -2.259  23.023  1.00  0.00     0.194 HD
ENDBRANCH  15  18
ENDBRANCH   3  15
TORSDOF 5
ENDMDL
