MODEL 1
REMARK VINA RESULT: -7.334668115      0.000      0.000
REMARK  4 active torsions:
REMARK  status: ('A' for Active; 'I' for Inactive)
REMARK    1  A    between atoms: C2_5  and  N2_6 
REMARK    2  A    between atoms: N2_6  and  C3_8 
REMARK    3  A    between atoms: C9_14  and  N3_15 
REMARK    4  A    between atoms: C11_19  and  N4_20 
ROOT
HETATM    1  O1  UNL     1      13.004  -3.886  18.032  1.00  0.00    -0.265 OA
HETATM    2  C1  UNL     1      13.674  -3.214  18.859  1.00  0.00     0.280 A 
HETATM    3  N1  UNL     1      13.903  -1.900  18.712  1.00  0.00    -0.306 N 
ATOM      4  H1  UNL     1      13.505  -1.453  17.886  1.00  0.00     0.170 HD
HETATM    5  C2  UNL     1      14.606  -1.116  19.547  1.00  0.00     0.138 A 
HETATM    6  C9  UNL     1      15.131  -1.760  20.662  1.00  0.00     0.149 A 
HETATM    7  C10 UNL     1      14.910  -3.140  20.847  1.00  0.00     0.082 A 
HETATM    8  C11 UNL     1      14.180  -3.872  19.946  1.00  0.00     0.173 A 
ENDROOT
BRANCH   5   9
HETATM    9  N2  UNL     1      14.843   0.252  19.327  1.00  0.00    -0.370 N 
ATOM     10  H2  UNL     1      15.675   0.462  18.776  1.00  0.00     0.161 HD
BRANCH   9  11
HETATM   11  C3  UNL     1      14.099   1.394  19.753  1.00  0.00     0.083 C 
HETATM   12  C4  UNL     1      14.886   2.630  20.046  1.00  0.00     0.025 C 
HETATM   13  C5  UNL     1      13.930   3.655  20.676  1.00  0.00     0.002 C 
HETATM   14  C6  UNL     1      12.795   4.002  19.784  1.00  0.00     0.000 C 
HETATM   15  C7  UNL     1      12.802   3.163  18.556  1.00  0.00     0.002 C 
HETATM   16  C8  UNL     1      12.957   1.687  18.797  1.00  0.00     0.025 C 
ENDBRANCH   9  11
ENDBRANCH   5   9
BRANCH   6  17
HETATM   17  N3  UNL     1      15.899  -1.165  21.677  1.00  0.00    -0.112 N 
HETATM   18  O2  UNL     1      17.052  -1.668  21.930  1.00  0.00    -0.532 OA
HETATM   19  O3  UNL     1      15.549  -0.093  22.425  1.00  0.00    -0.532 OA
ENDBRANCH   6  17
BRANCH   8  20
HETATM   20  N4  UNL     1      13.944  -5.266  20.109  1.00  0.00    -0.110 N 
HETATM   21  O4  UNL     1      14.802  -6.125  19.807  1.00  0.00    -0.532 OA
HETATM   22  O5  UNL     1      12.737  -5.710  20.614  1.00  0.00    -0.532 OA
ENDBRANCH   8  20
TORSDOF 4
ENDMDL
MODEL 2
REMARK VINA RESULT: -7.307013798      1.684      2.344
REMARK  4 active torsions:
REMARK  status: ('A' for Active; 'I' for Inactive)
REMARK    1  A    between atoms: C2_5  and  N2_6 
REMARK    2  A    between atoms: N2_6  and  C3_8 
REMARK    3  A    between atoms: C9_14  and  N3_15 
REMARK    4  A    between atoms: C11_19  and  N4_20 
ROOT
HETATM    1  O1  UNL     1      11.039  -2.430  19.357  1.00  0.00    -0.265 OA
HETATM    2  C1  UNL     1      12.198  -2.184  19.784  1.00  0.00     0.280 A 
HETATM    3  N1  UNL     1      12.966  -1.206  19.280  1.00  0.00    -0.306 N 
ATOM      4  H1  UNL     1      12.569  -0.654  18.519  1.00  0.00     0.170 HD
HETATM    5  C2  UNL     1      14.208  -0.883  19.679  1.00  0.00     0.138 A 
HETATM    6  C9  UNL     1      14.714  -1.655  20.720  1.00  0.00     0.149 A 
HETATM    7  C10 UNL     1      13.934  -2.690  21.272  1.00  0.00     0.082 A 
HETATM    8  C11 UNL     1      12.673  -2.959  20.806  1.00  0.00     0.173 A 
ENDROOT
BRANCH   5   9
HETATM    9  N2  UNL     1      14.982   0.134  19.092  1.00  0.00    -0.370 N 
ATOM     10  H2  UNL     1      15.563  -0.166  18.310  1.00  0.00     0.161 HD
BRANCH   9  11
HETATM   11  C3  UNL     1      15.080   1.519  19.420  1.00  0.00     0.083 C 
HETATM   12  C4  UNL     1      14.268   1.988  20.584  1.00  0.00     0.025 C 
HETATM   13  C5  UNL     1      14.359   3.522  20.631  1.00  0.00     0.002 C 
HETATM   14  C6  UNL     1      15.754   4.007  20.785  1.00  0.00     0.000 C 
HETATM   15  C7  UNL     1      16.724   2.881  20.718  1.00  0.00     0.002 C 
HETATM   16  C8  UNL     1      16.531   1.944  19.559  1.00  0.00     0.025 C 
ENDBRANCH   9  11
ENDBRANCH   5   9
BRANCH   6  17
HETATM   17  N3  UNL     1      15.981  -1.517  21.312  1.00  0.00    -0.112 N 
HETATM   18  O2  UNL     1      16.193  -0.481  22.039  1.00  0.00    -0.532 OA
HETATM   19  O3  UNL     1      17.018  -2.379  21.200  1.00  0.00    -0.532 OA
ENDBRANCH   6  17
BRANCH   8  20
HETATM   20  N4  UNL     1      11.866  -3.999  21.346  1.00  0.00    -0.110 N 
HETATM   21  O4  UNL     1      11.122  -3.817  22.336  1.00  0.00    -0.532 OA
HETATM   22  O5  UNL     1      11.888  -5.259  20.780  1.00  0.00    -0.532 OA
ENDBRANCH   8  20
TORSDOF 4
ENDMDL
MODEL 3
REMARK VINA RESULT: -7.230952493      0.782      1.363
REMARK  4 active torsions:
REMARK  status: ('A' for Active; 'I' for Inactive)
REMARK    1  A    between atoms: C2_5  and  N2_6 
REMARK    2  A    between atoms: N2_6  and  C3_8 
REMARK    3  A    between atoms: C9_14  and  N3_15 
REMARK    4  A    between atoms: C11_19  and  N4_20 
ROOT
HETATM    1  O1  UNL     1      12.656  -3.811  18.255  1.00  0.00    -0.265 OA
HETATM    2  C1  UNL     1      13.450  -3.202  19.019  1.00  0.00     0.280 A 
HETATM    3  N1  UNL     1      14.005  -2.022  18.698  1.00  0.00    -0.306 N 
ATOM      4  H1  UNL     1      13.754  -1.626  17.793  1.00  0.00     0.170 HD
HETATM    5  C2  UNL     1      14.859  -1.312  19.456  1.00  0.00     0.138 A 
HETATM    6  C9  UNL     1      15.176  -1.883  20.684  1.00  0.00     0.149 A 
HETATM    7  C10 UNL     1      14.612  -3.121  21.051  1.00  0.00     0.082 A 
HETATM    8  C11 UNL     1      13.747  -3.785  20.219  1.00  0.00     0.173 A 
ENDROOT
BRANCH   5   9
HETATM    9  N2  UNL     1      15.436  -0.094  19.056  1.00  0.00    -0.370 N 
ATOM     10  H2  UNL     1      16.324  -0.180  18.562  1.00  0.00     0.161 HD
BRANCH   9  11
HETATM   11  C3  UNL     1      14.972   1.244  19.232  1.00  0.00     0.083 C 
HETATM   12  C4  UNL     1      13.679   1.410  19.964  1.00  0.00     0.025 C 
HETATM   13  C5  UNL     1      13.269   2.888  19.860  1.00  0.00     0.002 C 
HETATM   14  C6  UNL     1      14.280   3.804  20.446  1.00  0.00     0.000 C 
HETATM   15  C7  UNL     1      15.498   3.060  20.865  1.00  0.00     0.002 C 
HETATM   16  C8  UNL     1      16.056   2.121  19.832  1.00  0.00     0.025 C 
ENDBRANCH   9  11
ENDBRANCH   5   9
BRANCH   6  17
HETATM   17  N3  UNL     1      16.041  -1.341  21.649  1.00  0.00    -0.112 N 
HETATM   18  O2  UNL     1      17.103  -1.999  21.940  1.00  0.00    -0.532 OA
HETATM   19  O3  UNL     1      15.873  -0.173  22.313  1.00  0.00    -0.532 OA
ENDBRANCH   6  17
BRANCH   8  20
HETATM   20  N4  UNL     1      13.166  -5.037  20.567  1.00  0.00    -0.110 N 
HETATM   21  O4  UNL     1      13.720  -6.125  20.296  1.00  0.00    -0.532 OA
HETATM   22  O5  UNL     1      11.950  -5.079  21.222  1.00  0.00    -0.532 OA
ENDBRANCH   8  20
TORSDOF 4
ENDMDL
MODEL 4
REMARK VINA RESULT: -7.026876365      1.347      1.814
REMARK  4 active torsions:
REMARK  status: ('A' for Active; 'I' for Inactive)
REMARK    1  A    between atoms: C2_5  and  N2_6 
REMARK    2  A    between atoms: N2_6  and  C3_8 
REMARK    3  A    between atoms: C9_14  and  N3_15 
REMARK    4  A    between atoms: C11_19  and  N4_20 
ROOT
HETATM    1  O1  UNL     1      11.462  -3.598  19.426  1.00  0.00    -0.265 OA
HETATM    2  C1  UNL     1      12.401  -2.868  19.840  1.00  0.00     0.280 A 
HETATM    3  N1  UNL     1      12.843  -1.798  19.160  1.00  0.00    -0.306 N 
ATOM      4  H1  UNL     1      12.379  -1.591  18.275  1.00  0.00     0.170 HD
HETATM    5  C2  UNL     1      13.837  -0.973  19.532  1.00  0.00     0.138 A 
HETATM    6  C9  UNL     1      14.443  -1.286  20.744  1.00  0.00     0.149 A 
HETATM    7  C10 UNL     1      14.004  -2.403  21.483  1.00  0.00     0.082 A 
HETATM    8  C11 UNL     1      12.982  -3.199  21.033  1.00  0.00     0.173 A 
ENDROOT
BRANCH   5   9
HETATM    9  N2  UNL     1      14.280   0.117  18.764  1.00  0.00    -0.370 N 
ATOM     10  H2  UNL     1      15.056  -0.087  18.135  1.00  0.00     0.161 HD
BRANCH   9  11
HETATM   11  C3  UNL     1      13.814   1.465  18.726  1.00  0.00     0.083 C 
HETATM   12  C4  UNL     1      12.341   1.666  18.884  1.00  0.00     0.025 C 
HETATM   13  C5  UNL     1      12.038   3.147  18.610  1.00  0.00     0.002 C 
HETATM   14  C6  UNL     1      12.754   4.058  19.538  1.00  0.00     0.000 C 
HETATM   15  C7  UNL     1      13.690   3.304  20.414  1.00  0.00     0.002 C 
HETATM   16  C8  UNL     1      14.591   2.337  19.697  1.00  0.00     0.025 C 
ENDBRANCH   9  11
ENDBRANCH   5   9
BRANCH   6  17
HETATM   17  N3  UNL     1      15.500  -0.583  21.347  1.00  0.00    -0.112 N 
HETATM   18  O2  UNL     1      16.589  -0.454  20.683  1.00  0.00    -0.532 OA
HETATM   19  O3  UNL     1      15.487  -0.011  22.573  1.00  0.00    -0.532 OA
ENDBRANCH   6  17
BRANCH   8  20
HETATM   20  N4  UNL     1      12.522  -4.333  21.759  1.00  0.00    -0.110 N 
HETATM   21  O4  UNL     1      13.049  -5.461  21.634  1.00  0.00    -0.532 OA
HETATM   22  O5  UNL     1      11.460  -4.211  22.634  1.00  0.00    -0.532 OA
ENDBRANCH   8  20
TORSDOF 4
ENDMDL
MODEL 5
REMARK VINA RESULT: -7.006110490      2.392      3.273
REMARK  4 active torsions:
REMARK  status: ('A' for Active; 'I' for Inactive)
REMARK    1  A    between atoms: C2_5  and  N2_6 
REMARK    2  A    between atoms: N2_6  and  C3_8 
REMARK    3  A    between atoms: C9_14  and  N3_15 
REMARK    4  A    between atoms: C11_19  and  N4_20 
ROOT
HETATM    1  O1  UNL     1      11.215  -0.567  17.600  1.00  0.00    -0.265 OA
HETATM    2  C1  UNL     1      12.019  -1.097  18.411  1.00  0.00     0.280 A 
HETATM    3  N1  UNL     1      13.282  -0.670  18.565  1.00  0.00    -0.306 N 
ATOM      4  H1  UNL     1      13.575   0.119  17.989  1.00  0.00     0.170 HD
HETATM    5  C2  UNL     1      14.198  -1.181  19.406  1.00  0.00     0.138 A 
HETATM    6  C9  UNL     1      13.760  -2.253  20.177  1.00  0.00     0.149 A 
HETATM    7  C10 UNL     1      12.440  -2.727  20.039  1.00  0.00     0.082 A 
HETATM    8  C11 UNL     1      11.564  -2.151  19.155  1.00  0.00     0.173 A 
ENDROOT
BRANCH   5   9
HETATM    9  N2  UNL     1      15.520  -0.714  19.504  1.00  0.00    -0.370 N 
ATOM     10  H2  UNL     1      16.227  -1.338  19.118  1.00  0.00     0.161 HD
BRANCH   9  11
HETATM   11  C3  UNL     1      16.027   0.499  20.061  1.00  0.00     0.083 C 
HETATM   12  C4  UNL     1      16.312   1.606  19.097  1.00  0.00     0.025 C 
HETATM   13  C5  UNL     1      17.032   2.723  19.869  1.00  0.00     0.002 C 
HETATM   14  C6  UNL     1      16.222   3.256  20.993  1.00  0.00     0.000 C 
HETATM   15  C7  UNL     1      14.969   2.473  21.169  1.00  0.00     0.002 C 
HETATM   16  C8  UNL     1      15.151   0.981  21.204  1.00  0.00     0.025 C 
ENDBRANCH   9  11
ENDBRANCH   5   9
BRANCH   6  17
HETATM   17  N3  UNL     1      14.523  -2.957  21.124  1.00  0.00    -0.112 N 
HETATM   18  O2  UNL     1      14.347  -4.224  21.213  1.00  0.00    -0.532 OA
HETATM   19  O3  UNL     1      15.446  -2.431  21.963  1.00  0.00    -0.532 OA
ENDBRANCH   6  17
BRANCH   8  20
HETATM   20  N4  UNL     1      10.228  -2.611  18.996  1.00  0.00    -0.110 N 
HETATM   21  O4  UNL     1       9.283  -2.157  19.680  1.00  0.00    -0.532 OA
HETATM   22  O5  UNL     1       9.937  -3.591  18.067  1.00  0.00    -0.532 OA
ENDBRANCH   8  20
TORSDOF 4
ENDMDL
