MODEL 1
REMARK VINA RESULT: -7.212062436      0.000      0.000
REMARK  15 active torsions:
REMARK  status: ('A' for Active; 'I' for Inactive)
REMARK       I    between atoms: C2_2  and  N1_4 
REMARK    1  A    between atoms: N1_4  and  C3_6 
REMARK    2  A    between atoms: C4_7  and  N2_8 
REMARK    3  A    between atoms: C5_13  and  C6_14 
REMARK    4  A    between atoms: C6_14  and  O3_15 
REMARK    5  A    between atoms: C7_17  and  N3_18 
REMARK    6  A    between atoms: C12_23  and  C13_24 
REMARK    7  A    between atoms: C14_25  and  C15_26 
REMARK    8  A    between atoms: C15_26  and  O4_27 
REMARK    9  A    between atoms: C15_26  and  C16_29 
REMARK   10  A    between atoms: C16_29  and  C19_32 
REMARK   11  A    between atoms: C19_32  and  C20_33 
REMARK   12  A    between atoms: C20_33  and  C21_34 
REMARK   13  A    between atoms: C20_33  and  C22_37 
REMARK   14  A    between atoms: C21_34  and  O5_35 
REMARK   15  A    between atoms: C22_37  and  O6_38 
ROOT
HETATM    1  C3  UNL     1      27.638  45.366  42.906  1.00  0.00     0.150 C 
HETATM    2  C4  UNL     1      26.576  45.015  41.886  1.00  0.00     0.342 C 
HETATM    3  O2  UNL     1      25.325  45.445  42.163  1.00  0.00    -0.348 OA
HETATM    4  C5  UNL     1      24.916  45.516  43.444  1.00  0.00     0.171 C 
HETATM    5  C7  UNL     1      25.830  46.269  44.399  1.00  0.00     0.124 C 
HETATM    6  C12 UNL     1      27.144  46.522  43.746  1.00  0.00     0.060 C 
ENDROOT
BRANCH   6   7
HETATM    7  C13 UNL     1      28.225  46.892  44.729  1.00  0.00    -0.019 C 
HETATM    8  C14 UNL     1      29.292  47.572  44.452  1.00  0.00     0.002 C 
BRANCH   8   9
HETATM    9  C15 UNL     1      30.360  47.954  45.347  1.00  0.00     0.148 C 
BRANCH   9  10
HETATM   10  O4  UNL     1      29.921  48.107  46.672  1.00  0.00    -0.391 OA
ATOM     11  H4  UNL     1      29.697  49.006  46.878  1.00  0.00     0.210 HD
ENDBRANCH   9  10
BRANCH   9  12
HETATM   12  C16 UNL     1      31.591  47.073  45.424  1.00  0.00    -0.018 C 
HETATM   13  C17 UNL     1      31.374  45.769  46.107  1.00  0.00     0.018 C 
HETATM   14  C18 UNL     1      32.097  46.951  43.988  1.00  0.00     0.018 C 
BRANCH  12  15
HETATM   15  C19 UNL     1      32.591  47.853  46.229  1.00  0.00     0.020 C 
BRANCH  15  16
HETATM   16  C20 UNL     1      33.907  47.286  46.513  1.00  0.00     0.034 C 
BRANCH  16  17
HETATM   17  C21 UNL     1      34.076  47.346  48.062  1.00  0.00     0.170 C 
BRANCH  17  18
HETATM   18  O5  UNL     1      34.436  46.118  48.561  1.00  0.00    -0.400 OA
ATOM     19  H5  UNL     1      34.934  46.213  49.365  1.00  0.00     0.209 HD
ENDBRANCH  17  18
ENDBRANCH  16  17
BRANCH  16  20
HETATM   20  C22 UNL     1      35.099  47.937  45.927  1.00  0.00     0.170 C 
BRANCH  20  21
HETATM   21  O6  UNL     1      36.216  47.784  46.806  1.00  0.00    -0.400 OA
ATOM     22  H6  UNL     1      36.598  48.634  46.993  1.00  0.00     0.209 HD
ENDBRANCH  20  21
ENDBRANCH  16  20
ENDBRANCH  15  16
ENDBRANCH  12  15
ENDBRANCH   9  12
ENDBRANCH   8   9
ENDBRANCH   6   7
BRANCH   1  23
HETATM   23  N1  UNL     1      28.098  44.234  43.643  1.00  0.00    -0.352 N 
HETATM   24  C2  UNL     1      29.461  43.760  43.556  1.00  0.00     0.214 C 
HETATM   25  C1  UNL     1      29.944  42.582  44.321  1.00  0.00     0.117 C 
HETATM   26  O1  UNL     1      30.310  44.334  42.818  1.00  0.00    -0.274 OA
ATOM     27  H1  UNL     1      27.443  43.742  44.251  1.00  0.00     0.163 HD
ENDBRANCH   1  23
BRANCH   5  28
HETATM   28  N3  UNL     1      25.249  47.457  44.906  1.00  0.00    -0.385 N 
HETATM   29  C8  UNL     1      24.316  47.404  45.937  1.00  0.00     0.058 C 
HETATM   30  C9  UNL     1      23.064  48.143  45.509  1.00  0.00     0.046 C 
HETATM   31  C10 UNL     1      23.605  49.120  44.511  1.00  0.00     0.025 C 
HETATM   32  C11 UNL     1      24.927  48.496  44.046  1.00  0.00     0.123 C 
ENDBRANCH   5  28
BRANCH   2  33
HETATM   33  N2  UNL     1      26.632  43.580  41.555  1.00  0.00    -0.051 N 
ATOM     34  H23 UNL     1      27.433  43.122  41.991  1.00  0.00     0.277 HD
ATOM     35  H22 UNL     1      25.888  43.056  42.015  1.00  0.00     0.277 HD
ATOM     36  H21 UNL     1      26.623  43.447  40.545  1.00  0.00     0.277 HD
ENDBRANCH   2  33
BRANCH   4  37
HETATM   37  C6  UNL     1      24.426  44.201  44.019  1.00  0.00     0.198 C 
BRANCH  37  38
HETATM   38  O3  UNL     1      25.314  43.740  45.013  1.00  0.00    -0.398 OA
ATOM     39  H3  UNL     1      26.168  43.563  44.636  1.00  0.00     0.209 HD
ENDBRANCH  37  38
ENDBRANCH   4  37
TORSDOF 15
ENDMDL
MODEL 2
REMARK VINA RESULT: -6.629213649      1.151      1.619
REMARK  15 active torsions:
REMARK  status: ('A' for Active; 'I' for Inactive)
REMARK       I    between atoms: C2_2  and  N1_4 
REMARK    1  A    between atoms: N1_4  and  C3_6 
REMARK    2  A    between atoms: C4_7  and  N2_8 
REMARK    3  A    between atoms: C5_13  and  C6_14 
REMARK    4  A    between atoms: C6_14  and  O3_15 
REMARK    5  A    between atoms: C7_17  and  N3_18 
REMARK    6  A    between atoms: C12_23  and  C13_24 
REMARK    7  A    between atoms: C14_25  and  C15_26 
REMARK    8  A    between atoms: C15_26  and  O4_27 
REMARK    9  A    between atoms: C15_26  and  C16_29 
REMARK   10  A    between atoms: C16_29  and  C19_32 
REMARK   11  A    between atoms: C19_32  and  C20_33 
REMARK   12  A    between atoms: C20_33  and  C21_34 
REMARK   13  A    between atoms: C20_33  and  C22_37 
REMARK   14  A    between atoms: C21_34  and  O5_35 
REMARK   15  A    between atoms: C22_37  and  O6_38 
ROOT
HETATM    1  C3  UNL     1      27.831  44.561  42.429  1.00  0.00     0.150 C 
HETATM    2  C4  UNL     1      26.752  44.653  41.371  1.00  0.00     0.342 C 
HETATM    3  O2  UNL     1      25.632  45.323  41.724  1.00  0.00    -0.348 OA
HETATM    4  C5  UNL     1      25.209  45.278  43.001  1.00  0.00     0.171 C 
HETATM    5  C7  UNL     1      26.243  45.617  44.065  1.00  0.00     0.124 C 
HETATM    6  C12 UNL     1      27.601  45.648  43.455  1.00  0.00     0.060 C 
ENDROOT
BRANCH   6   7
HETATM    7  C13 UNL     1      28.705  45.575  44.479  1.00  0.00    -0.019 C 
HETATM    8  C14 UNL     1      29.400  46.580  44.907  1.00  0.00     0.002 C 
BRANCH   8   9
HETATM    9  C15 UNL     1      30.468  46.572  45.881  1.00  0.00     0.148 C 
BRANCH   9  10
HETATM   10  O4  UNL     1      30.873  45.271  46.221  1.00  0.00    -0.391 OA
ATOM     11  H4  UNL     1      30.937  44.702  45.464  1.00  0.00     0.210 HD
ENDBRANCH   9  10
BRANCH   9  12
HETATM   12  C16 UNL     1      31.743  47.329  45.566  1.00  0.00    -0.018 C 
HETATM   13  C17 UNL     1      32.170  47.250  44.143  1.00  0.00     0.018 C 
HETATM   14  C18 UNL     1      31.509  48.751  46.071  1.00  0.00     0.018 C 
BRANCH  12  15
HETATM   15  C19 UNL     1      32.809  46.682  46.403  1.00  0.00     0.020 C 
BRANCH  15  16
HETATM   16  C20 UNL     1      33.687  47.501  47.235  1.00  0.00     0.034 C 
BRANCH  16  17
HETATM   17  C21 UNL     1      35.022  47.642  46.442  1.00  0.00     0.170 C 
BRANCH  17  18
HETATM   18  O5  UNL     1      36.080  47.827  47.297  1.00  0.00    -0.400 OA
ATOM     19  H5  UNL     1      36.639  48.533  46.996  1.00  0.00     0.209 HD
ENDBRANCH  17  18
ENDBRANCH  16  17
BRANCH  16  20
HETATM   20  C22 UNL     1      34.041  47.011  48.585  1.00  0.00     0.170 C 
BRANCH  20  21
HETATM   21  O6  UNL     1      34.269  48.120  49.458  1.00  0.00    -0.400 OA
ATOM     22  H6  UNL     1      33.511  48.254  50.015  1.00  0.00     0.209 HD
ENDBRANCH  20  21
ENDBRANCH  16  20
ENDBRANCH  15  16
ENDBRANCH  12  15
ENDBRANCH   9  12
ENDBRANCH   8   9
ENDBRANCH   6   7
BRANCH   1  23
HETATM   23  N1  UNL     1      27.979  43.246  42.961  1.00  0.00    -0.352 N 
HETATM   24  C2  UNL     1      29.241  42.542  42.936  1.00  0.00     0.214 C 
HETATM   25  C1  UNL     1      29.399  41.172  43.488  1.00  0.00     0.117 C 
HETATM   26  O1  UNL     1      30.276  43.067  42.438  1.00  0.00    -0.274 OA
ATOM     27  H1  UNL     1      27.166  42.786  43.372  1.00  0.00     0.163 HD
ENDBRANCH   1  23
BRANCH   5  28
HETATM   28  N3  UNL     1      25.948  46.810  44.768  1.00  0.00    -0.385 N 
HETATM   29  C8  UNL     1      25.237  46.768  45.964  1.00  0.00     0.058 C 
HETATM   30  C9  UNL     1      24.044  47.698  45.863  1.00  0.00     0.046 C 
HETATM   31  C10 UNL     1      24.512  48.696  44.850  1.00  0.00     0.025 C 
HETATM   32  C11 UNL     1      25.615  47.964  44.075  1.00  0.00     0.123 C 
ENDBRANCH   5  28
BRANCH   2  33
HETATM   33  N2  UNL     1      26.473  43.323  40.802  1.00  0.00    -0.051 N 
ATOM     34  H23 UNL     1      27.242  42.673  40.964  1.00  0.00     0.277 HD
ATOM     35  H22 UNL     1      25.747  42.833  41.324  1.00  0.00     0.277 HD
ATOM     36  H21 UNL     1      26.243  43.400  39.812  1.00  0.00     0.277 HD
ENDBRANCH   2  33
BRANCH   4  37
HETATM   37  C6  UNL     1      24.396  44.046  43.350  1.00  0.00     0.198 C 
BRANCH  37  38
HETATM   38  O3  UNL     1      25.085  43.255  44.294  1.00  0.00    -0.398 OA
ATOM     39  H3  UNL     1      25.517  43.809  44.934  1.00  0.00     0.209 HD
ENDBRANCH  37  38
ENDBRANCH   4  37
TORSDOF 15
ENDMDL
MODEL 3
REMARK VINA RESULT: -6.624352817      2.051      4.744
REMARK  15 active torsions:
REMARK  status: ('A' for Active; 'I' for Inactive)
REMARK       I    between atoms: C2_2  and  N1_4 
REMARK    1  A    between atoms: N1_4  and  C3_6 
REMARK    2  A    between atoms: C4_7  and  N2_8 
REMARK    3  A    between atoms: C5_13  and  C6_14 
REMARK    4  A    between atoms: C6_14  and  O3_15 
REMARK    5  A    between atoms: C7_17  and  N3_18 
REMARK    6  A    between atoms: C12_23  and  C13_24 
REMARK    7  A    between atoms: C14_25  and  C15_26 
REMARK    8  A    between atoms: C15_26  and  O4_27 
REMARK    9  A    between atoms: C15_26  and  C16_29 
REMARK   10  A    between atoms: C16_29  and  C19_32 
REMARK   11  A    between atoms: C19_32  and  C20_33 
REMARK   12  A    between atoms: C20_33  and  C21_34 
REMARK   13  A    between atoms: C20_33  and  C22_37 
REMARK   14  A    between atoms: C21_34  and  O5_35 
REMARK   15  A    between atoms: C22_37  and  O6_38 
ROOT
HETATM    1  C3  UNL     1      27.435  44.606  44.550  1.00  0.00     0.150 C 
HETATM    2  C4  UNL     1      26.716  43.281  44.412  1.00  0.00     0.342 C 
HETATM    3  O2  UNL     1      27.052  42.535  43.337  1.00  0.00    -0.348 OA
HETATM    4  C5  UNL     1      27.398  43.145  42.188  1.00  0.00     0.171 C 
HETATM    5  C7  UNL     1      28.470  44.220  42.294  1.00  0.00     0.124 C 
HETATM    6  C12 UNL     1      28.701  44.562  43.724  1.00  0.00     0.060 C 
ENDROOT
BRANCH   6   7
HETATM    7  C13 UNL     1      29.431  45.868  43.904  1.00  0.00    -0.019 C 
HETATM    8  C14 UNL     1      30.659  45.995  44.297  1.00  0.00     0.002 C 
BRANCH   8   9
HETATM    9  C15 UNL     1      31.409  47.215  44.489  1.00  0.00     0.148 C 
BRANCH   9  10
HETATM   10  O4  UNL     1      30.628  48.363  44.279  1.00  0.00    -0.391 OA
ATOM     11  H4  UNL     1      30.521  48.878  45.070  1.00  0.00     0.210 HD
ENDBRANCH   9  10
BRANCH   9  12
HETATM   12  C16 UNL     1      32.109  47.434  45.816  1.00  0.00    -0.018 C 
HETATM   13  C17 UNL     1      31.851  48.761  46.437  1.00  0.00     0.018 C 
HETATM   14  C18 UNL     1      31.712  46.245  46.688  1.00  0.00     0.018 C 
BRANCH  12  15
HETATM   15  C19 UNL     1      33.577  47.347  45.511  1.00  0.00     0.020 C 
BRANCH  15  16
HETATM   16  C20 UNL     1      34.556  47.872  46.461  1.00  0.00     0.034 C 
BRANCH  16  17
HETATM   17  C21 UNL     1      35.878  48.063  45.655  1.00  0.00     0.170 C 
BRANCH  17  18
HETATM   18  O5  UNL     1      36.928  48.330  46.497  1.00  0.00    -0.400 OA
ATOM     19  H5  UNL     1      36.950  49.251  46.728  1.00  0.00     0.209 HD
ENDBRANCH  17  18
ENDBRANCH  16  17
BRANCH  16  20
HETATM   20  C22 UNL     1      34.894  47.059  47.650  1.00  0.00     0.170 C 
BRANCH  20  21
HETATM   21  O6  UNL     1      35.028  47.906  48.793  1.00  0.00    -0.400 OA
ATOM     22  H6  UNL     1      34.258  48.455  48.881  1.00  0.00     0.209 HD
ENDBRANCH  20  21
ENDBRANCH  16  20
ENDBRANCH  15  16
ENDBRANCH  12  15
ENDBRANCH   9  12
ENDBRANCH   8   9
ENDBRANCH   6   7
BRANCH   1  23
HETATM   23  N1  UNL     1      26.589  45.728  44.304  1.00  0.00    -0.352 N 
HETATM   24  C2  UNL     1      26.096  46.570  45.371  1.00  0.00     0.214 C 
HETATM   25  C1  UNL     1      25.215  47.738  45.119  1.00  0.00     0.117 C 
HETATM   26  O1  UNL     1      26.397  46.346  46.577  1.00  0.00    -0.274 OA
ATOM     27  H1  UNL     1      26.322  45.943  43.343  1.00  0.00     0.163 HD
ENDBRANCH   1  23
BRANCH   5  28
HETATM   28  N3  UNL     1      29.671  43.875  41.628  1.00  0.00    -0.385 N 
HETATM   29  C8  UNL     1      29.727  43.852  40.238  1.00  0.00     0.058 C 
HETATM   30  C9  UNL     1      30.247  42.501  39.787  1.00  0.00     0.046 C 
HETATM   31  C10 UNL     1      31.062  42.071  40.968  1.00  0.00     0.025 C 
HETATM   32  C11 UNL     1      30.491  42.881  42.139  1.00  0.00     0.123 C 
ENDBRANCH   5  28
BRANCH   2  33
HETATM   33  N2  UNL     1      25.261  43.468  44.551  1.00  0.00    -0.051 N 
ATOM     34  H23 UNL     1      24.807  43.591  43.646  1.00  0.00     0.277 HD
ATOM     35  H22 UNL     1      24.794  42.608  44.839  1.00  0.00     0.277 HD
ATOM     36  H21 UNL     1      25.059  44.240  45.185  1.00  0.00     0.277 HD
ENDBRANCH   2  33
BRANCH   4  37
HETATM   37  C6  UNL     1      26.225  43.574  41.328  1.00  0.00     0.198 C 
BRANCH  37  38
HETATM   38  O3  UNL     1      26.152  44.982  41.267  1.00  0.00    -0.398 OA
ATOM     39  H3  UNL     1      25.812  45.258  40.424  1.00  0.00     0.209 HD
ENDBRANCH  37  38
ENDBRANCH   4  37
TORSDOF 15
ENDMDL
MODEL 4
REMARK VINA RESULT: -6.591874497      1.476      4.299
REMARK  15 active torsions:
REMARK  status: ('A' for Active; 'I' for Inactive)
REMARK       I    between atoms: C2_2  and  N1_4 
REMARK    1  A    between atoms: N1_4  and  C3_6 
REMARK    2  A    between atoms: C4_7  and  N2_8 
REMARK    3  A    between atoms: C5_13  and  C6_14 
REMARK    4  A    between atoms: C6_14  and  O3_15 
REMARK    5  A    between atoms: C7_17  and  N3_18 
REMARK    6  A    between atoms: C12_23  and  C13_24 
REMARK    7  A    between atoms: C14_25  and  C15_26 
REMARK    8  A    between atoms: C15_26  and  O4_27 
REMARK    9  A    between atoms: C15_26  and  C16_29 
REMARK   10  A    between atoms: C16_29  and  C19_32 
REMARK   11  A    between atoms: C19_32  and  C20_33 
REMARK   12  A    between atoms: C20_33  and  C21_34 
REMARK   13  A    between atoms: C20_33  and  C22_37 
REMARK   14  A    between atoms: C21_34  and  O5_35 
REMARK   15  A    between atoms: C22_37  and  O6_38 
ROOT
HETATM    1  C3  UNL     1      25.529  45.399  45.317  1.00  0.00     0.150 C 
HETATM    2  C4  UNL     1      24.393  44.408  45.452  1.00  0.00     0.342 C 
HETATM    3  O2  UNL     1      24.486  43.295  44.690  1.00  0.00    -0.348 OA
HETATM    4  C5  UNL     1      25.071  43.367  43.480  1.00  0.00     0.171 C 
HETATM    5  C7  UNL     1      26.450  44.011  43.437  1.00  0.00     0.124 C 
HETATM    6  C12 UNL     1      26.729  44.690  44.732  1.00  0.00     0.060 C 
ENDROOT
BRANCH   6   7
HETATM    7  C13 UNL     1      27.867  45.674  44.644  1.00  0.00    -0.019 C 
HETATM    8  C14 UNL     1      28.557  46.117  45.646  1.00  0.00     0.002 C 
BRANCH   8   9
HETATM    9  C15 UNL     1      29.653  47.059  45.624  1.00  0.00     0.148 C 
BRANCH   9  10
HETATM   10  O4  UNL     1      29.674  47.883  46.761  1.00  0.00    -0.391 OA
ATOM     11  H4  UNL     1      29.328  48.750  46.587  1.00  0.00     0.210 HD
ENDBRANCH   9  10
BRANCH   9  12
HETATM   12  C16 UNL     1      31.064  46.527  45.477  1.00  0.00    -0.018 C 
HETATM   13  C17 UNL     1      31.232  45.106  45.885  1.00  0.00     0.018 C 
HETATM   14  C18 UNL     1      31.461  46.814  44.031  1.00  0.00     0.018 C 
BRANCH  12  15
HETATM   15  C19 UNL     1      31.906  47.370  46.391  1.00  0.00     0.020 C 
BRANCH  15  16
HETATM   16  C20 UNL     1      33.316  47.048  46.595  1.00  0.00     0.034 C 
BRANCH  16  17
HETATM   17  C21 UNL     1      33.550  47.094  48.137  1.00  0.00     0.170 C 
BRANCH  17  18
HETATM   18  O5  UNL     1      34.307  46.025  48.548  1.00  0.00    -0.400 OA
ATOM     19  H5  UNL     1      33.763  45.256  48.675  1.00  0.00     0.209 HD
ENDBRANCH  17  18
ENDBRANCH  16  17
BRANCH  16  20
HETATM   20  C22 UNL     1      34.338  47.924  45.981  1.00  0.00     0.170 C 
BRANCH  20  21
HETATM   21  O6  UNL     1      35.644  47.487  46.363  1.00  0.00    -0.400 OA
ATOM     22  H6  UNL     1      36.198  48.239  46.538  1.00  0.00     0.209 HD
ENDBRANCH  20  21
ENDBRANCH  16  20
ENDBRANCH  15  16
ENDBRANCH  12  15
ENDBRANCH   9  12
ENDBRANCH   8   9
ENDBRANCH   6   7
BRANCH   1  23
HETATM   23  N1  UNL     1      25.146  46.598  44.645  1.00  0.00    -0.352 N 
HETATM   24  C2  UNL     1      24.591  47.732  45.349  1.00  0.00     0.214 C 
HETATM   25  C1  UNL     1      24.191  48.982  44.653  1.00  0.00     0.117 C 
HETATM   26  O1  UNL     1      24.422  47.710  46.600  1.00  0.00    -0.274 OA
ATOM     27  H1  UNL     1      25.267  46.657  43.634  1.00  0.00     0.163 HD
ENDBRANCH   1  23
BRANCH   5  28
HETATM   28  N3  UNL     1      27.476  43.104  43.078  1.00  0.00    -0.385 N 
HETATM   29  C8  UNL     1      27.992  42.213  44.014  1.00  0.00     0.058 C 
HETATM   30  C9  UNL     1      29.499  42.367  44.064  1.00  0.00     0.046 C 
HETATM   31  C10 UNL     1      29.805  42.882  42.691  1.00  0.00     0.025 C 
HETATM   32  C11 UNL     1      28.486  43.501  42.214  1.00  0.00     0.123 C 
ENDBRANCH   5  28
BRANCH   2  33
HETATM   33  N2  UNL     1      23.094  45.091  45.317  1.00  0.00    -0.051 N 
ATOM     34  H23 UNL     1      23.123  46.037  45.695  1.00  0.00     0.277 HD
ATOM     35  H22 UNL     1      22.886  45.321  44.346  1.00  0.00     0.277 HD
ATOM     36  H21 UNL     1      22.354  44.534  45.743  1.00  0.00     0.277 HD
ENDBRANCH   2  33
BRANCH   4  37
HETATM   37  C6  UNL     1      24.161  43.862  42.372  1.00  0.00     0.198 C 
BRANCH  37  38
HETATM   38  O3  UNL     1      24.547  45.155  41.963  1.00  0.00    -0.398 OA
ATOM     39  H3  UNL     1      23.831  45.584  41.508  1.00  0.00     0.209 HD
ENDBRANCH  37  38
ENDBRANCH   4  37
TORSDOF 15
ENDMDL
MODEL 5
REMARK VINA RESULT: -6.587246742      1.065      1.324
REMARK  15 active torsions:
REMARK  status: ('A' for Active; 'I' for Inactive)
REMARK       I    between atoms: C2_2  and  N1_4 
REMARK    1  A    between atoms: N1_4  and  C3_6 
REMARK    2  A    between atoms: C4_7  and  N2_8 
REMARK    3  A    between atoms: C5_13  and  C6_14 
REMARK    4  A    between atoms: C6_14  and  O3_15 
REMARK    5  A    between atoms: C7_17  and  N3_18 
REMARK    6  A    between atoms: C12_23  and  C13_24 
REMARK    7  A    between atoms: C14_25  and  C15_26 
REMARK    8  A    between atoms: C15_26  and  O4_27 
REMARK    9  A    between atoms: C15_26  and  C16_29 
REMARK   10  A    between atoms: C16_29  and  C19_32 
REMARK   11  A    between atoms: C19_32  and  C20_33 
REMARK   12  A    between atoms: C20_33  and  C21_34 
REMARK   13  A    between atoms: C20_33  and  C22_37 
REMARK   14  A    between atoms: C21_34  and  O5_35 
REMARK   15  A    between atoms: C22_37  and  O6_38 
ROOT
HETATM    1  C3  UNL     1      27.481  45.054  42.501  1.00  0.00     0.150 C 
HETATM    2  C4  UNL     1      26.457  44.678  41.452  1.00  0.00     0.342 C 
HETATM    3  O2  UNL     1      25.170  44.652  41.865  1.00  0.00    -0.348 OA
HETATM    4  C5  UNL     1      24.887  44.287  43.129  1.00  0.00     0.171 C 
HETATM    5  C7  UNL     1      25.656  45.009  44.226  1.00  0.00     0.124 C 
HETATM    6  C12 UNL     1      26.782  45.778  43.629  1.00  0.00     0.060 C 
ENDROOT
BRANCH   6   7
HETATM    7  C13 UNL     1      27.817  46.187  44.646  1.00  0.00    -0.019 C 
HETATM    8  C14 UNL     1      28.775  47.033  44.444  1.00  0.00     0.002 C 
BRANCH   8   9
HETATM    9  C15 UNL     1      29.794  47.461  45.375  1.00  0.00     0.148 C 
BRANCH   9  10
HETATM   10  O4  UNL     1      29.327  47.505  46.698  1.00  0.00    -0.391 OA
ATOM     11  H4  UNL     1      29.648  46.780  47.221  1.00  0.00     0.210 HD
ENDBRANCH   9  10
BRANCH   9  12
HETATM   12  C16 UNL     1      31.098  46.690  45.427  1.00  0.00    -0.018 C 
HETATM   13  C17 UNL     1      30.960  45.274  45.863  1.00  0.00     0.018 C 
HETATM   14  C18 UNL     1      31.730  46.862  44.048  1.00  0.00     0.018 C 
BRANCH  12  15
HETATM   15  C19 UNL     1      31.943  47.403  46.444  1.00  0.00     0.020 C 
BRANCH  15  16
HETATM   16  C20 UNL     1      33.343  47.027  46.628  1.00  0.00     0.034 C 
BRANCH  16  17
HETATM   17  C21 UNL     1      33.528  46.795  48.159  1.00  0.00     0.170 C 
BRANCH  17  18
HETATM   18  O5  UNL     1      34.051  47.912  48.762  1.00  0.00    -0.400 OA
ATOM     19  H5  UNL     1      34.757  48.277  48.242  1.00  0.00     0.209 HD
ENDBRANCH  17  18
ENDBRANCH  16  17
BRANCH  16  20
HETATM   20  C22 UNL     1      34.393  47.983  46.210  1.00  0.00     0.170 C 
BRANCH  20  21
HETATM   21  O6  UNL     1      35.682  47.459  46.537  1.00  0.00    -0.400 OA
ATOM     22  H6  UNL     1      35.608  46.847  47.260  1.00  0.00     0.209 HD
ENDBRANCH  20  21
ENDBRANCH  16  20
ENDBRANCH  15  16
ENDBRANCH  12  15
ENDBRANCH   9  12
ENDBRANCH   8   9
ENDBRANCH   6   7
BRANCH   1  23
HETATM   23  N1  UNL     1      28.299  43.954  42.901  1.00  0.00    -0.352 N 
HETATM   24  C2  UNL     1      29.685  43.842  42.507  1.00  0.00     0.214 C 
HETATM   25  C1  UNL     1      30.539  42.699  42.921  1.00  0.00     0.117 C 
HETATM   26  O1  UNL     1      30.236  44.720  41.786  1.00  0.00    -0.274 OA
ATOM     27  H1  UNL     1      27.891  43.223  43.484  1.00  0.00     0.163 HD
ENDBRANCH   1  23
BRANCH   5  28
HETATM   28  N3  UNL     1      24.830  45.820  45.043  1.00  0.00    -0.385 N 
HETATM   29  C8  UNL     1      24.228  46.964  44.525  1.00  0.00     0.058 C 
HETATM   30  C9  UNL     1      24.578  48.147  45.405  1.00  0.00     0.046 C 
HETATM   31  C10 UNL     1      24.827  47.489  46.728  1.00  0.00     0.025 C 
HETATM   32  C11 UNL     1      25.160  46.035  46.372  1.00  0.00     0.123 C 
ENDBRANCH   5  28
BRANCH   2  33
HETATM   33  N2  UNL     1      26.862  43.445  40.754  1.00  0.00    -0.051 N 
ATOM     34  H23 UNL     1      26.513  42.611  41.224  1.00  0.00     0.277 HD
ATOM     35  H22 UNL     1      26.373  43.335  39.866  1.00  0.00     0.277 HD
ATOM     36  H21 UNL     1      27.875  43.419  40.635  1.00  0.00     0.277 HD
ENDBRANCH   2  33
BRANCH   4  37
HETATM   37  C6  UNL     1      24.825  42.787  43.350  1.00  0.00     0.198 C 
BRANCH  37  38
HETATM   38  O3  UNL     1      25.848  42.381  44.233  1.00  0.00    -0.398 OA
ATOM     39  H3  UNL     1      25.850  41.435  44.322  1.00  0.00     0.209 HD
ENDBRANCH  37  38
ENDBRANCH   4  37
TORSDOF 15
ENDMDL
