MODEL 1
REMARK VINA RESULT: -8.376980905      0.000      0.000
REMARK  14 active torsions:
REMARK  status: ('A' for Active; 'I' for Inactive)
REMARK    1  A    between atoms: C2_2  and  C3_3 
REMARK    2  A    between atoms: C3_3  and  C4_4 
REMARK    3  A    between atoms: C4_4  and  C5_5 
REMARK    4  A    between atoms: C5_5  and  C6_6 
REMARK    5  A    between atoms: C6_6  and  C15_26 
REMARK    6  A    between atoms: C7_7  and  C8_8 
REMARK    7  A    between atoms: C8_8  and  N1_9 
REMARK    8  A    between atoms: C10_11  and  N2_12 
REMARK    9  A    between atoms: C11_16  and  O1_17 
REMARK   10  A    between atoms: C12_19  and  O2_20 
REMARK   11  A    between atoms: C13_22  and  C14_23 
REMARK   12  A    between atoms: C20_31  and  O4_32 
REMARK   13  A    between atoms: C21_34  and  C22_35 
REMARK   14  A    between atoms: C22_35  and  O5_36 
ROOT
HETATM    1  C6  UNL     1      34.433  47.530  47.023  1.00  0.00    -0.053 C 
HETATM    2  C7  UNL     1      33.653  48.372  46.499  1.00  0.00    -0.002 C 
ENDROOT
BRANCH   1   3
HETATM    3  C5  UNL     1      34.167  46.483  48.011  1.00  0.00     0.036 C 
BRANCH   3   4
HETATM    4  C4  UNL     1      35.126  46.174  49.076  1.00  0.00     0.004 C 
BRANCH   4   5
HETATM    5  C3  UNL     1      34.528  46.848  50.353  1.00  0.00    -0.000 C 
BRANCH   5   6
HETATM    6  C2  UNL     1      35.206  48.157  50.598  1.00  0.00    -0.005 C 
HETATM    7  C1  UNL     1      36.696  47.929  50.332  1.00  0.00     0.005 C 
ENDBRANCH   5   6
ENDBRANCH   4   5
ENDBRANCH   3   4
ENDBRANCH   1   3
BRANCH   1   8
HETATM    8  C15 UNL     1      35.911  47.557  46.598  1.00  0.00     0.151 C 
HETATM    9  C16 UNL     1      36.118  47.254  45.176  1.00  0.00     0.048 C 
HETATM   10  C17 UNL     1      37.613  47.319  44.882  1.00  0.00    -0.017 C 
HETATM   11  C18 UNL     1      37.731  47.315  43.354  1.00  0.00     0.018 C 
HETATM   12  C19 UNL     1      38.368  46.143  45.406  1.00  0.00     0.018 C 
HETATM   13  C20 UNL     1      38.237  48.583  45.422  1.00  0.00     0.157 C 
HETATM   14  C21 UNL     1      37.847  48.697  46.881  1.00  0.00     0.175 C 
HETATM   15  O6  UNL     1      36.447  48.783  46.914  1.00  0.00    -0.371 OA
BRANCH  13  16
HETATM   16  O4  UNL     1      37.724  49.715  44.773  1.00  0.00    -0.392 OA
ATOM     17  H4  UNL     1      38.167  50.504  45.063  1.00  0.00     0.210 HD
ENDBRANCH  13  16
BRANCH  14  18
HETATM   18  C22 UNL     1      38.379  49.961  47.513  1.00  0.00     0.198 C 
BRANCH  18  19
HETATM   19  O5  UNL     1      39.468  50.391  46.783  1.00  0.00    -0.398 OA
ATOM     20  H5  UNL     1      39.153  50.835  46.004  1.00  0.00     0.209 HD
ENDBRANCH  18  19
ENDBRANCH  14  18
ENDBRANCH   1   8
BRANCH   2  21
HETATM   21  C8  UNL     1      32.230  48.706  46.593  1.00  0.00     0.145 C 
BRANCH  21  22
HETATM   22  N1  UNL     1      31.445  47.887  45.714  1.00  0.00    -0.393 N 
HETATM   23  C9  UNL     1      32.105  47.113  44.761  1.00  0.00     0.153 C 
HETATM   24  C10 UNL     1      31.343  45.793  44.588  1.00  0.00     0.232 C 
HETATM   25  C11 UNL     1      30.292  45.658  45.660  1.00  0.00     0.181 C 
HETATM   26  C12 UNL     1      29.325  46.812  45.684  1.00  0.00     0.180 C 
HETATM   27  C13 UNL     1      30.081  48.139  45.607  1.00  0.00     0.201 C 
BRANCH  24  28
HETATM   28  N2  UNL     1      30.830  45.635  43.261  1.00  0.00    -0.071 N 
ATOM     29  H23 UNL     1      30.016  46.230  43.107  1.00  0.00     0.274 HD
ATOM     30  H22 UNL     1      31.461  46.041  42.570  1.00  0.00     0.274 HD
ATOM     31  H21 UNL     1      30.621  44.661  43.042  1.00  0.00     0.274 HD
ENDBRANCH  24  28
BRANCH  25  32
HETATM   32  O1  UNL     1      29.629  44.469  45.482  1.00  0.00    -0.391 OA
ATOM     33  H1  UNL     1      29.844  43.888  46.203  1.00  0.00     0.210 HD
ENDBRANCH  25  32
BRANCH  26  34
HETATM   34  O2  UNL     1      28.673  46.783  46.918  1.00  0.00    -0.390 OA
ATOM     35  H2  UNL     1      28.589  47.682  47.216  1.00  0.00     0.210 HD
ENDBRANCH  26  34
BRANCH  27  36
HETATM   36  C14 UNL     1      29.627  48.813  44.366  1.00  0.00     0.256 C 
HETATM   37  N3  UNL     1      28.288  48.557  43.955  1.00  0.00    -0.060 NA
HETATM   38  O3  UNL     1      30.309  49.573  43.667  1.00  0.00    -0.274 OA
ENDBRANCH  27  36
ENDBRANCH  21  22
ENDBRANCH   2  21
TORSDOF 14
ENDMDL
MODEL 2
REMARK VINA RESULT: -8.170666028      1.351      2.220
REMARK  14 active torsions:
REMARK  status: ('A' for Active; 'I' for Inactive)
REMARK    1  A    between atoms: C2_2  and  C3_3 
REMARK    2  A    between atoms: C3_3  and  C4_4 
REMARK    3  A    between atoms: C4_4  and  C5_5 
REMARK    4  A    between atoms: C5_5  and  C6_6 
REMARK    5  A    between atoms: C6_6  and  C15_26 
REMARK    6  A    between atoms: C7_7  and  C8_8 
REMARK    7  A    between atoms: C8_8  and  N1_9 
REMARK    8  A    between atoms: C10_11  and  N2_12 
REMARK    9  A    between atoms: C11_16  and  O1_17 
REMARK   10  A    between atoms: C12_19  and  O2_20 
REMARK   11  A    between atoms: C13_22  and  C14_23 
REMARK   12  A    between atoms: C20_31  and  O4_32 
REMARK   13  A    between atoms: C21_34  and  C22_35 
REMARK   14  A    between atoms: C22_35  and  O5_36 
ROOT
HETATM    1  C6  UNL     1      34.573  47.279  46.976  1.00  0.00    -0.053 C 
HETATM    2  C7  UNL     1      33.385  47.516  46.622  1.00  0.00    -0.002 C 
ENDROOT
BRANCH   1   3
HETATM    3  C5  UNL     1      35.085  46.506  48.108  1.00  0.00     0.036 C 
BRANCH   3   4
HETATM    4  C4  UNL     1      34.473  46.596  49.437  1.00  0.00     0.004 C 
BRANCH   4   5
HETATM    5  C3  UNL     1      34.897  48.002  49.972  1.00  0.00    -0.000 C 
BRANCH   5   6
HETATM    6  C2  UNL     1      36.307  47.953  50.462  1.00  0.00    -0.005 C 
HETATM    7  C1  UNL     1      36.333  48.727  51.783  1.00  0.00     0.005 C 
ENDBRANCH   5   6
ENDBRANCH   4   5
ENDBRANCH   3   4
ENDBRANCH   1   3
BRANCH   1   8
HETATM    8  C15 UNL     1      35.709  47.870  46.123  1.00  0.00     0.151 C 
HETATM    9  C16 UNL     1      36.657  48.685  46.892  1.00  0.00     0.048 C 
HETATM   10  C17 UNL     1      37.731  49.202  45.940  1.00  0.00    -0.017 C 
HETATM   11  C18 UNL     1      38.840  49.760  46.837  1.00  0.00     0.018 C 
HETATM   12  C19 UNL     1      37.252  50.306  45.057  1.00  0.00     0.018 C 
HETATM   13  C20 UNL     1      38.299  48.098  45.081  1.00  0.00     0.157 C 
HETATM   14  C21 UNL     1      37.134  47.379  44.432  1.00  0.00     0.175 C 
HETATM   15  O6  UNL     1      36.363  46.847  45.477  1.00  0.00    -0.371 OA
BRANCH  13  16
HETATM   16  O4  UNL     1      38.978  47.152  45.861  1.00  0.00    -0.392 OA
ATOM     17  H4  UNL     1      39.271  46.420  45.331  1.00  0.00     0.210 HD
ENDBRANCH  13  16
BRANCH  14  18
HETATM   18  C22 UNL     1      37.587  46.215  43.584  1.00  0.00     0.198 C 
BRANCH  18  19
HETATM   19  O5  UNL     1      38.768  46.562  42.960  1.00  0.00    -0.398 OA
ATOM     20  H5  UNL     1      39.051  45.832  42.422  1.00  0.00     0.209 HD
ENDBRANCH  18  19
ENDBRANCH  14  18
ENDBRANCH   1   8
BRANCH   2  21
HETATM   21  C8  UNL     1      32.044  47.178  47.105  1.00  0.00     0.145 C 
BRANCH  21  22
HETATM   22  N1  UNL     1      31.164  46.862  46.016  1.00  0.00    -0.393 N 
HETATM   23  C9  UNL     1      31.652  46.075  44.974  1.00  0.00     0.153 C 
HETATM   24  C10 UNL     1      30.519  45.172  44.471  1.00  0.00     0.232 C 
HETATM   25  C11 UNL     1      29.340  45.249  45.407  1.00  0.00     0.181 C 
HETATM   26  C12 UNL     1      28.833  46.653  45.599  1.00  0.00     0.180 C 
HETATM   27  C13 UNL     1      30.000  47.607  45.861  1.00  0.00     0.201 C 
BRANCH  24  28
HETATM   28  N2  UNL     1      30.183  45.439  43.105  1.00  0.00    -0.071 N 
ATOM     29  H23 UNL     1      30.968  45.857  42.606  1.00  0.00     0.274 HD
ATOM     30  H22 UNL     1      30.093  44.574  42.570  1.00  0.00     0.274 HD
ATOM     31  H21 UNL     1      29.343  46.013  43.020  1.00  0.00     0.274 HD
ENDBRANCH  24  28
BRANCH  25  32
HETATM   32  O1  UNL     1      28.345  44.430  44.932  1.00  0.00    -0.391 OA
ATOM     33  H1  UNL     1      28.482  43.553  45.272  1.00  0.00     0.210 HD
ENDBRANCH  25  32
BRANCH  26  34
HETATM   34  O2  UNL     1      28.038  46.655  46.746  1.00  0.00    -0.390 OA
ATOM     35  H2  UNL     1      27.943  47.558  47.025  1.00  0.00     0.210 HD
ENDBRANCH  26  34
BRANCH  27  36
HETATM   36  C14 UNL     1      29.990  48.600  44.759  1.00  0.00     0.256 C 
HETATM   37  N3  UNL     1      28.749  48.796  44.089  1.00  0.00    -0.060 NA
HETATM   38  O3  UNL     1      30.962  49.265  44.380  1.00  0.00    -0.274 OA
ENDBRANCH  27  36
ENDBRANCH  21  22
ENDBRANCH   2  21
TORSDOF 14
ENDMDL
MODEL 3
REMARK VINA RESULT: -7.638367337      1.555      3.235
REMARK  14 active torsions:
REMARK  status: ('A' for Active; 'I' for Inactive)
REMARK    1  A    between atoms: C2_2  and  C3_3 
REMARK    2  A    between atoms: C3_3  and  C4_4 
REMARK    3  A    between atoms: C4_4  and  C5_5 
REMARK    4  A    between atoms: C5_5  and  C6_6 
REMARK    5  A    between atoms: C6_6  and  C15_26 
REMARK    6  A    between atoms: C7_7  and  C8_8 
REMARK    7  A    between atoms: C8_8  and  N1_9 
REMARK    8  A    between atoms: C10_11  and  N2_12 
REMARK    9  A    between atoms: C11_16  and  O1_17 
REMARK   10  A    between atoms: C12_19  and  O2_20 
REMARK   11  A    between atoms: C13_22  and  C14_23 
REMARK   12  A    between atoms: C20_31  and  O4_32 
REMARK   13  A    between atoms: C21_34  and  C22_35 
REMARK   14  A    between atoms: C22_35  and  O5_36 
ROOT
HETATM    1  C6  UNL     1      35.037  47.038  47.207  1.00  0.00    -0.053 C 
HETATM    2  C7  UNL     1      33.849  46.937  46.794  1.00  0.00    -0.002 C 
ENDROOT
BRANCH   1   3
HETATM    3  C5  UNL     1      35.648  46.570  48.452  1.00  0.00     0.036 C 
BRANCH   3   4
HETATM    4  C4  UNL     1      34.928  46.628  49.727  1.00  0.00     0.004 C 
BRANCH   4   5
HETATM    5  C3  UNL     1      35.097  48.105  50.210  1.00  0.00    -0.000 C 
BRANCH   5   6
HETATM    6  C2  UNL     1      36.488  48.316  50.713  1.00  0.00    -0.005 C 
HETATM    7  C1  UNL     1      36.354  48.838  52.146  1.00  0.00     0.005 C 
ENDBRANCH   5   6
ENDBRANCH   4   5
ENDBRANCH   3   4
ENDBRANCH   1   3
BRANCH   1   8
HETATM    8  C15 UNL     1      36.054  47.756  46.303  1.00  0.00     0.151 C 
HETATM    9  C16 UNL     1      36.972  48.637  47.036  1.00  0.00     0.048 C 
HETATM   10  C17 UNL     1      37.927  49.279  46.036  1.00  0.00    -0.017 C 
HETATM   11  C18 UNL     1      39.036  49.916  46.878  1.00  0.00     0.018 C 
HETATM   12  C19 UNL     1      37.290  50.356  45.222  1.00  0.00     0.018 C 
HETATM   13  C20 UNL     1      38.537  48.258  45.107  1.00  0.00     0.157 C 
HETATM   14  C21 UNL     1      37.403  47.449  44.510  1.00  0.00     0.175 C 
HETATM   15  O6  UNL     1      36.756  46.818  45.584  1.00  0.00    -0.371 OA
BRANCH  13  16
HETATM   16  O4  UNL     1      39.352  47.360  45.810  1.00  0.00    -0.392 OA
ATOM     17  H4  UNL     1      39.405  46.524  45.362  1.00  0.00     0.210 HD
ENDBRANCH  13  16
BRANCH  14  18
HETATM   18  C22 UNL     1      37.906  46.356  43.597  1.00  0.00     0.198 C 
BRANCH  18  19
HETATM   19  O5  UNL     1      38.978  46.845  42.878  1.00  0.00    -0.398 OA
ATOM     20  H5  UNL     1      39.181  47.717  43.194  1.00  0.00     0.209 HD
ENDBRANCH  18  19
ENDBRANCH  14  18
ENDBRANCH   1   8
BRANCH   2  21
HETATM   21  C8  UNL     1      32.596  46.362  47.290  1.00  0.00     0.145 C 
BRANCH  21  22
HETATM   22  N1  UNL     1      31.509  46.637  46.395  1.00  0.00    -0.393 N 
HETATM   23  C9  UNL     1      30.321  47.138  46.926  1.00  0.00     0.153 C 
HETATM   24  C10 UNL     1      29.713  48.125  45.923  1.00  0.00     0.232 C 
HETATM   25  C11 UNL     1      30.699  48.416  44.820  1.00  0.00     0.181 C 
HETATM   26  C12 UNL     1      31.165  47.175  44.106  1.00  0.00     0.180 C 
HETATM   27  C13 UNL     1      31.542  46.091  45.117  1.00  0.00     0.201 C 
BRANCH  24  28
HETATM   28  N2  UNL     1      28.434  47.692  45.446  1.00  0.00    -0.071 N 
ATOM     29  H23 UNL     1      28.256  46.721  45.699  1.00  0.00     0.274 HD
ATOM     30  H22 UNL     1      27.677  48.137  45.965  1.00  0.00     0.274 HD
ATOM     31  H21 UNL     1      28.328  47.838  44.442  1.00  0.00     0.274 HD
ENDBRANCH  24  28
BRANCH  25  32
HETATM   32  O1  UNL     1      30.130  49.303  43.940  1.00  0.00    -0.391 OA
ATOM     33  H1  UNL     1      30.491  50.167  44.101  1.00  0.00     0.210 HD
ENDBRANCH  25  32
BRANCH  26  34
HETATM   34  O2  UNL     1      32.328  47.508  43.409  1.00  0.00    -0.390 OA
ATOM     35  H2  UNL     1      32.222  48.398  43.091  1.00  0.00     0.210 HD
ENDBRANCH  26  34
BRANCH  27  36
HETATM   36  C14 UNL     1      30.639  44.942  44.862  1.00  0.00     0.256 C 
HETATM   37  N3  UNL     1      29.683  45.102  43.819  1.00  0.00    -0.060 NA
HETATM   38  O3  UNL     1      30.650  43.867  45.474  1.00  0.00    -0.274 OA
ENDBRANCH  27  36
ENDBRANCH  21  22
ENDBRANCH   2  21
TORSDOF 14
ENDMDL
MODEL 4
REMARK VINA RESULT: -7.627626970      5.465      8.711
REMARK  14 active torsions:
REMARK  status: ('A' for Active; 'I' for Inactive)
REMARK    1  A    between atoms: C2_2  and  C3_3 
REMARK    2  A    between atoms: C3_3  and  C4_4 
REMARK    3  A    between atoms: C4_4  and  C5_5 
REMARK    4  A    between atoms: C5_5  and  C6_6 
REMARK    5  A    between atoms: C6_6  and  C15_26 
REMARK    6  A    between atoms: C7_7  and  C8_8 
REMARK    7  A    between atoms: C8_8  and  N1_9 
REMARK    8  A    between atoms: C10_11  and  N2_12 
REMARK    9  A    between atoms: C11_16  and  O1_17 
REMARK   10  A    between atoms: C12_19  and  O2_20 
REMARK   11  A    between atoms: C13_22  and  C14_23 
REMARK   12  A    between atoms: C20_31  and  O4_32 
REMARK   13  A    between atoms: C21_34  and  C22_35 
REMARK   14  A    between atoms: C22_35  and  O5_36 
ROOT
HETATM    1  C6  UNL     1      28.679  44.795  42.761  1.00  0.00    -0.053 C 
HETATM    2  C7  UNL     1      27.708  45.561  43.011  1.00  0.00    -0.002 C 
ENDROOT
BRANCH   1   3
HETATM    3  C5  UNL     1      29.994  44.696  43.396  1.00  0.00     0.036 C 
BRANCH   3   4
HETATM    4  C4  UNL     1      30.147  44.201  44.767  1.00  0.00     0.004 C 
BRANCH   4   5
HETATM    5  C3  UNL     1      30.593  45.452  45.591  1.00  0.00    -0.000 C 
BRANCH   5   6
HETATM    6  C2  UNL     1      31.336  46.400  44.708  1.00  0.00    -0.005 C 
HETATM    7  C1  UNL     1      32.331  47.139  45.607  1.00  0.00     0.005 C 
ENDBRANCH   5   6
ENDBRANCH   4   5
ENDBRANCH   3   4
ENDBRANCH   1   3
BRANCH   1   8
HETATM    8  C15 UNL     1      28.516  43.779  41.617  1.00  0.00     0.151 C 
HETATM    9  C16 UNL     1      28.014  44.373  40.371  1.00  0.00     0.048 C 
HETATM   10  C17 UNL     1      27.905  43.272  39.322  1.00  0.00    -0.017 C 
HETATM   11  C18 UNL     1      27.693  43.996  37.988  1.00  0.00     0.018 C 
HETATM   12  C19 UNL     1      26.744  42.361  39.542  1.00  0.00     0.018 C 
HETATM   13  C20 UNL     1      29.167  42.447  39.240  1.00  0.00     0.157 C 
HETATM   14  C21 UNL     1      29.504  41.988  40.644  1.00  0.00     0.175 C 
HETATM   15  O6  UNL     1      29.719  43.149  41.401  1.00  0.00    -0.371 OA
BRANCH  13  16
HETATM   16  O4  UNL     1      30.248  43.221  38.794  1.00  0.00    -0.392 OA
ATOM     17  H4  UNL     1      30.878  42.688  38.323  1.00  0.00     0.210 HD
ENDBRANCH  13  16
BRANCH  14  18
HETATM   18  C22 UNL     1      30.786  41.191  40.688  1.00  0.00     0.198 C 
BRANCH  18  19
HETATM   19  O5  UNL     1      31.822  42.044  41.007  1.00  0.00    -0.398 OA
ATOM     20  H5  UNL     1      31.941  42.655  40.289  1.00  0.00     0.209 HD
ENDBRANCH  18  19
ENDBRANCH  14  18
ENDBRANCH   1   8
BRANCH   2  21
HETATM   21  C8  UNL     1      27.421  46.636  43.964  1.00  0.00     0.145 C 
BRANCH  21  22
HETATM   22  N1  UNL     1      26.015  46.920  44.018  1.00  0.00    -0.393 N 
HETATM   23  C9  UNL     1      25.172  46.276  43.113  1.00  0.00     0.153 C 
HETATM   24  C10 UNL     1      23.837  45.984  43.810  1.00  0.00     0.232 C 
HETATM   25  C11 UNL     1      23.953  46.259  45.288  1.00  0.00     0.181 C 
HETATM   26  C12 UNL     1      24.397  47.666  45.591  1.00  0.00     0.180 C 
HETATM   27  C13 UNL     1      25.588  48.048  44.711  1.00  0.00     0.201 C 
BRANCH  24  28
HETATM   28  N2  UNL     1      22.742  46.665  43.187  1.00  0.00    -0.071 N 
ATOM     29  H23 UNL     1      21.872  46.507  43.695  1.00  0.00     0.274 HD
ATOM     30  H22 UNL     1      22.819  47.675  43.305  1.00  0.00     0.274 HD
ATOM     31  H21 UNL     1      22.644  46.416  42.202  1.00  0.00     0.274 HD
ENDBRANCH  24  28
BRANCH  25  32
HETATM   32  O1  UNL     1      22.747  45.987  45.884  1.00  0.00    -0.391 OA
ATOM     33  H1  UNL     1      22.788  46.256  46.795  1.00  0.00     0.210 HD
ENDBRANCH  25  32
BRANCH  26  34
HETATM   34  O2  UNL     1      24.842  47.685  46.914  1.00  0.00    -0.390 OA
ATOM     35  H2  UNL     1      24.089  47.872  47.464  1.00  0.00     0.210 HD
ENDBRANCH  26  34
BRANCH  27  36
HETATM   36  C14 UNL     1      25.154  49.205  43.891  1.00  0.00     0.256 C 
HETATM   37  N3  UNL     1      26.184  49.987  43.295  1.00  0.00    -0.060 NA
HETATM   38  O3  UNL     1      23.981  49.543  43.684  1.00  0.00    -0.274 OA
ENDBRANCH  27  36
ENDBRANCH  21  22
ENDBRANCH   2  21
TORSDOF 14
ENDMDL
MODEL 5
REMARK VINA RESULT: -7.587467748      1.233      1.471
REMARK  14 active torsions:
REMARK  status: ('A' for Active; 'I' for Inactive)
REMARK    1  A    between atoms: C2_2  and  C3_3 
REMARK    2  A    between atoms: C3_3  and  C4_4 
REMARK    3  A    between atoms: C4_4  and  C5_5 
REMARK    4  A    between atoms: C5_5  and  C6_6 
REMARK    5  A    between atoms: C6_6  and  C15_26 
REMARK    6  A    between atoms: C7_7  and  C8_8 
REMARK    7  A    between atoms: C8_8  and  N1_9 
REMARK    8  A    between atoms: C10_11  and  N2_12 
REMARK    9  A    between atoms: C11_16  and  O1_17 
REMARK   10  A    between atoms: C12_19  and  O2_20 
REMARK   11  A    between atoms: C13_22  and  C14_23 
REMARK   12  A    between atoms: C20_31  and  O4_32 
REMARK   13  A    between atoms: C21_34  and  C22_35 
REMARK   14  A    between atoms: C22_35  and  O5_36 
ROOT
HETATM    1  C6  UNL     1      34.820  47.470  48.043  1.00  0.00    -0.053 C 
HETATM    2  C7  UNL     1      33.874  46.891  47.440  1.00  0.00    -0.002 C 
ENDROOT
BRANCH   1   3
HETATM    3  C5  UNL     1      34.859  48.080  49.373  1.00  0.00     0.036 C 
BRANCH   3   4
HETATM    4  C4  UNL     1      35.484  47.399  50.510  1.00  0.00     0.004 C 
BRANCH   4   5
HETATM    5  C3  UNL     1      36.188  48.539  51.315  1.00  0.00    -0.000 C 
BRANCH   5   6
HETATM    6  C2  UNL     1      35.441  48.798  52.583  1.00  0.00    -0.005 C 
HETATM    7  C1  UNL     1      36.479  49.259  53.609  1.00  0.00     0.005 C 
ENDBRANCH   5   6
ENDBRANCH   4   5
ENDBRANCH   3   4
ENDBRANCH   1   3
BRANCH   1   8
HETATM    8  C15 UNL     1      36.172  47.583  47.319  1.00  0.00     0.151 C 
HETATM    9  C16 UNL     1      36.104  47.246  45.892  1.00  0.00     0.048 C 
HETATM   10  C17 UNL     1      37.497  47.404  45.292  1.00  0.00    -0.017 C 
HETATM   11  C18 UNL     1      37.298  47.355  43.774  1.00  0.00     0.018 C 
HETATM   12  C19 UNL     1      38.429  46.302  45.670  1.00  0.00     0.018 C 
HETATM   13  C20 UNL     1      38.123  48.726  45.665  1.00  0.00     0.157 C 
HETATM   14  C21 UNL     1      38.035  48.864  47.171  1.00  0.00     0.175 C 
HETATM   15  O6  UNL     1      36.669  48.854  47.493  1.00  0.00    -0.371 OA
BRANCH  13  16
HETATM   16  O4  UNL     1      37.404  49.797  45.116  1.00  0.00    -0.392 OA
ATOM     17  H4  UNL     1      36.632  49.991  45.633  1.00  0.00     0.210 HD
ENDBRANCH  13  16
BRANCH  14  18
HETATM   18  C22 UNL     1      38.590  50.183  47.654  1.00  0.00     0.198 C 
BRANCH  18  19
HETATM   19  O5  UNL     1      39.648  50.536  46.841  1.00  0.00    -0.398 OA
ATOM     20  H5  UNL     1      39.936  51.409  47.083  1.00  0.00     0.209 HD
ENDBRANCH  18  19
ENDBRANCH  14  18
ENDBRANCH   1   8
BRANCH   2  21
HETATM   21  C8  UNL     1      32.475  46.564  47.723  1.00  0.00     0.145 C 
BRANCH  21  22
HETATM   22  N1  UNL     1      31.676  46.623  46.532  1.00  0.00    -0.393 N 
HETATM   23  C9  UNL     1      32.118  45.939  45.401  1.00  0.00     0.153 C 
HETATM   24  C10 UNL     1      30.897  45.386  44.655  1.00  0.00     0.232 C 
HETATM   25  C11 UNL     1      29.658  45.547  45.498  1.00  0.00     0.181 C 
HETATM   26  C12 UNL     1      29.409  46.973  45.911  1.00  0.00     0.180 C 
HETATM   27  C13 UNL     1      30.699  47.608  46.432  1.00  0.00     0.201 C 
BRANCH  24  28
HETATM   28  N2  UNL     1      30.769  45.942  43.341  1.00  0.00    -0.071 N 
ATOM     29  H23 UNL     1      30.106  45.410  42.778  1.00  0.00     0.274 HD
ATOM     30  H22 UNL     1      30.282  46.838  43.365  1.00  0.00     0.274 HD
ATOM     31  H21 UNL     1      31.670  46.025  42.869  1.00  0.00     0.274 HD
ENDBRANCH  24  28
BRANCH  25  32
HETATM   32  O1  UNL     1      28.584  45.042  44.807  1.00  0.00    -0.391 OA
ATOM     33  H1  UNL     1      27.882  44.862  45.422  1.00  0.00     0.210 HD
ENDBRANCH  25  32
BRANCH  26  34
HETATM   34  O2  UNL     1      28.506  46.945  46.976  1.00  0.00    -0.390 OA
ATOM     35  H2  UNL     1      27.908  47.675  46.860  1.00  0.00     0.210 HD
ENDBRANCH  26  34
BRANCH  27  36
HETATM   36  C14 UNL     1      30.998  48.752  45.537  1.00  0.00     0.256 C 
HETATM   37  N3  UNL     1      30.090  48.976  44.463  1.00  0.00    -0.060 NA
HETATM   38  O3  UNL     1      31.962  49.520  45.647  1.00  0.00    -0.274 OA
ENDBRANCH  27  36
ENDBRANCH  21  22
ENDBRANCH   2  21
TORSDOF 14
ENDMDL
