MODEL 1
REMARK VINA RESULT: -9.478661012      0.000      0.000
REMARK  12 active torsions:
REMARK  status: ('A' for Active; 'I' for Inactive)
REMARK    1  A    between atoms: C1_2  and  C2_3 
REMARK       I    between atoms: C1_2  and  N3_34 
REMARK    2  A    between atoms: C2_3  and  N1_4 
REMARK    3  A    between atoms: N1_4  and  C3_7 
REMARK    4  A    between atoms: C3_7  and  C4_8 
REMARK    5  A    between atoms: C3_7  and  C12_25 
REMARK    6  A    between atoms: C6_13  and  S1_14 
REMARK    7  A    between atoms: S1_14  and  C7_15 
REMARK    8  A    between atoms: C9_17  and  O2_18 
REMARK    9  A    between atoms: C11_21  and  O3_22 
REMARK   10  A    between atoms: C12_25  and  O5_26 
REMARK   11  A    between atoms: C12_25  and  C13_28 
REMARK   12  A    between atoms: N3_34  and  C19_36 
ROOT
HETATM    1  C3  UNL     1      35.378  46.927  47.202  1.00  0.00     0.271 C 
ENDROOT
BRANCH   1   2
HETATM    2  N1  UNL     1      36.471  47.759  46.641  1.00  0.00    -0.056 N 
ATOM      3  H12 UNL     1      36.359  48.734  46.921  1.00  0.00     0.278 HD
ATOM      4  H11 UNL     1      36.365  47.857  45.631  1.00  0.00     0.278 HD
BRANCH   2   5
HETATM    5  C2  UNL     1      37.771  47.293  46.962  1.00  0.00     0.335 C 
BRANCH   5   6
HETATM    6  C1  UNL     1      38.481  47.032  45.675  1.00  0.00     0.243 C 
HETATM    7  O1  UNL     1      39.591  47.563  45.521  1.00  0.00    -0.272 OA
HETATM    8  N3  UNL     1      37.920  46.221  44.675  1.00  0.00    -0.355 N 
ATOM      9  H3  UNL     1      37.007  45.807  44.863  1.00  0.00     0.162 HD
BRANCH   8  10
HETATM   10  C19 UNL     1      38.527  45.928  43.412  1.00  0.00     0.084 A 
HETATM   11  C20 UNL     1      37.787  45.820  42.134  1.00  0.00     0.027 A 
HETATM   12  C21 UNL     1      38.594  47.072  42.437  1.00  0.00     0.027 A 
ENDBRANCH   8  10
ENDBRANCH   5   6
ENDBRANCH   2   5
ENDBRANCH   1   2
BRANCH   1  13
HETATM   13  C4  UNL     1      34.079  47.648  46.977  1.00  0.00     0.355 C 
HETATM   14  N2  UNL     1      33.038  47.279  47.905  1.00  0.00    -0.043 N 
HETATM   15  C5  UNL     1      31.890  46.835  47.107  1.00  0.00     0.278 C 
ATOM     16  H22 UNL     1      33.340  46.589  48.592  1.00  0.00     0.280 HD
ATOM     17  H21 UNL     1      32.805  48.023  48.563  1.00  0.00     0.280 HD
HETATM   18  C6  UNL     1      32.164  47.560  45.825  1.00  0.00     0.211 C 
HETATM   19  O4  UNL     1      33.547  47.258  45.705  1.00  0.00    -0.340 OA
BRANCH  18  20
HETATM   20  S1  UNL     1      31.357  46.981  44.380  1.00  0.00    -0.128 SA
BRANCH  20  21
HETATM   21  C7  UNL     1      30.914  45.320  44.196  1.00  0.00     0.081 C 
HETATM   22  C8  UNL     1      30.254  44.894  42.899  1.00  0.00     0.049 C 
HETATM   23  C9  UNL     1      30.020  43.423  43.172  1.00  0.00     0.121 C 
HETATM   24  C10 UNL     1      30.218  43.193  44.657  1.00  0.00     0.064 C 
HETATM   25  C11 UNL     1      30.037  44.641  45.183  1.00  0.00     0.134 C 
BRANCH  23  26
HETATM   26  O2  UNL     1      30.952  42.622  42.523  1.00  0.00    -0.395 OA
ATOM     27  H2  UNL     1      31.160  41.842  43.025  1.00  0.00     0.210 HD
ENDBRANCH  23  26
BRANCH  25  28
HETATM   28  O3  UNL     1      28.688  44.845  45.071  1.00  0.00    -0.394 OA
ATOM     29  H3  UNL     1      28.274  44.585  44.257  1.00  0.00     0.210 HD
ENDBRANCH  25  28
ENDBRANCH  20  21
ENDBRANCH  18  20
ENDBRANCH   1  13
BRANCH   1  30
HETATM   30  C12 UNL     1      35.666  46.683  48.649  1.00  0.00     0.157 C 
BRANCH  30  31
HETATM   31  O5  UNL     1      34.827  45.630  49.127  1.00  0.00    -0.393 OA
ATOM     32  H5  UNL     1      34.570  45.815  50.023  1.00  0.00     0.210 HD
ENDBRANCH  30  31
BRANCH  30  33
HETATM   33  C13 UNL     1      35.314  47.836  49.545  1.00  0.00     0.016 C 
HETATM   34  C14 UNL     1      36.579  48.681  49.812  1.00  0.00     0.007 C 
HETATM   35  C15 UNL     1      37.178  48.357  51.151  1.00  0.00     0.000 C 
HETATM   36  C16 UNL     1      36.263  48.762  52.292  1.00  0.00     0.000 C 
HETATM   37  C17 UNL     1      34.839  48.678  51.791  1.00  0.00     0.000 C 
HETATM   38  C18 UNL     1      34.791  47.441  50.884  1.00  0.00     0.007 C 
ENDBRANCH  30  33
ENDBRANCH   1  30
TORSDOF 12
ENDMDL
MODEL 2
REMARK VINA RESULT: -9.442932419      2.012      5.241
REMARK  12 active torsions:
REMARK  status: ('A' for Active; 'I' for Inactive)
REMARK    1  A    between atoms: C1_2  and  C2_3 
REMARK       I    between atoms: C1_2  and  N3_34 
REMARK    2  A    between atoms: C2_3  and  N1_4 
REMARK    3  A    between atoms: N1_4  and  C3_7 
REMARK    4  A    between atoms: C3_7  and  C4_8 
REMARK    5  A    between atoms: C3_7  and  C12_25 
REMARK    6  A    between atoms: C6_13  and  S1_14 
REMARK    7  A    between atoms: S1_14  and  C7_15 
REMARK    8  A    between atoms: C9_17  and  O2_18 
REMARK    9  A    between atoms: C11_21  and  O3_22 
REMARK   10  A    between atoms: C12_25  and  O5_26 
REMARK   11  A    between atoms: C12_25  and  C13_28 
REMARK   12  A    between atoms: N3_34  and  C19_36 
ROOT
HETATM    1  C3  UNL     1      34.478  47.503  47.484  1.00  0.00     0.271 C 
ENDROOT
BRANCH   1   2
HETATM    2  N1  UNL     1      34.056  46.268  48.189  1.00  0.00    -0.056 N 
ATOM      3  H12 UNL     1      33.971  45.491  47.533  1.00  0.00     0.278 HD
ATOM      4  H11 UNL     1      33.085  46.342  48.493  1.00  0.00     0.278 HD
BRANCH   2   5
HETATM    5  C2  UNL     1      34.893  45.912  49.277  1.00  0.00     0.335 C 
BRANCH   5   6
HETATM    6  C1  UNL     1      34.619  46.877  50.383  1.00  0.00     0.243 C 
HETATM    7  O1  UNL     1      33.514  46.804  50.940  1.00  0.00    -0.272 OA
HETATM    8  N3  UNL     1      35.570  47.832  50.781  1.00  0.00    -0.355 N 
ATOM      9  H3  UNL     1      36.463  47.838  50.289  1.00  0.00     0.162 HD
BRANCH   8  10
HETATM   10  C19 UNL     1      35.386  48.797  51.822  1.00  0.00     0.084 A 
HETATM   11  C20 UNL     1      35.322  48.469  53.264  1.00  0.00     0.027 A 
HETATM   12  C21 UNL     1      36.591  49.070  52.681  1.00  0.00     0.027 A 
ENDBRANCH   8  10
ENDBRANCH   5   6
ENDBRANCH   2   5
ENDBRANCH   1   2
BRANCH   1  13
HETATM   13  C4  UNL     1      33.628  47.653  46.254  1.00  0.00     0.355 C 
HETATM   14  N2  UNL     1      32.689  48.747  46.324  1.00  0.00    -0.043 N 
HETATM   15  C5  UNL     1      31.357  48.183  46.077  1.00  0.00     0.278 C 
ATOM     16  H22 UNL     1      32.748  49.271  47.196  1.00  0.00     0.280 HD
ATOM     17  H21 UNL     1      32.922  49.516  45.695  1.00  0.00     0.280 HD
HETATM   18  C6  UNL     1      31.728  46.958  45.301  1.00  0.00     0.211 C 
HETATM   19  O4  UNL     1      32.789  46.499  46.127  1.00  0.00    -0.340 OA
BRANCH  18  20
HETATM   20  S1  UNL     1      30.536  45.677  45.191  1.00  0.00    -0.128 SA
BRANCH  20  21
HETATM   21  C7  UNL     1      30.473  44.615  43.829  1.00  0.00     0.081 C 
HETATM   22  C8  UNL     1      29.427  44.877  42.763  1.00  0.00     0.049 C 
HETATM   23  C9  UNL     1      29.703  43.733  41.810  1.00  0.00     0.121 C 
HETATM   24  C10 UNL     1      30.592  42.738  42.530  1.00  0.00     0.064 C 
HETATM   25  C11 UNL     1      30.321  43.147  44.002  1.00  0.00     0.134 C 
BRANCH  23  26
HETATM   26  O2  UNL     1      30.409  44.152  40.689  1.00  0.00    -0.395 OA
ATOM     27  H2  UNL     1      31.347  44.051  40.803  1.00  0.00     0.210 HD
ENDBRANCH  23  26
BRANCH  25  28
HETATM   28  O3  UNL     1      29.060  42.667  44.230  1.00  0.00    -0.394 OA
ATOM     29  H3  UNL     1      28.972  41.949  44.845  1.00  0.00     0.210 HD
ENDBRANCH  25  28
ENDBRANCH  20  21
ENDBRANCH  18  20
ENDBRANCH   1  13
BRANCH   1  30
HETATM   30  C12 UNL     1      35.937  47.395  47.175  1.00  0.00     0.157 C 
BRANCH  30  31
HETATM   31  O5  UNL     1      36.670  48.258  48.047  1.00  0.00    -0.393 OA
ATOM     32  H5  UNL     1      37.563  47.941  48.124  1.00  0.00     0.210 HD
ENDBRANCH  30  31
BRANCH  30  33
HETATM   33  C13 UNL     1      36.311  47.891  45.807  1.00  0.00     0.016 C 
HETATM   34  C14 UNL     1      36.889  46.722  44.980  1.00  0.00     0.007 C 
HETATM   35  C15 UNL     1      38.390  46.763  44.956  1.00  0.00     0.000 C 
HETATM   36  C16 UNL     1      38.910  47.982  44.215  1.00  0.00     0.000 C 
HETATM   37  C17 UNL     1      37.885  49.083  44.366  1.00  0.00     0.000 C 
HETATM   38  C18 UNL     1      37.351  48.958  45.800  1.00  0.00     0.007 C 
ENDBRANCH  30  33
ENDBRANCH   1  30
TORSDOF 12
ENDMDL
MODEL 3
REMARK VINA RESULT: -9.214628353      1.575      2.063
REMARK  12 active torsions:
REMARK  status: ('A' for Active; 'I' for Inactive)
REMARK    1  A    between atoms: C1_2  and  C2_3 
REMARK       I    between atoms: C1_2  and  N3_34 
REMARK    2  A    between atoms: C2_3  and  N1_4 
REMARK    3  A    between atoms: N1_4  and  C3_7 
REMARK    4  A    between atoms: C3_7  and  C4_8 
REMARK    5  A    between atoms: C3_7  and  C12_25 
REMARK    6  A    between atoms: C6_13  and  S1_14 
REMARK    7  A    between atoms: S1_14  and  C7_15 
REMARK    8  A    between atoms: C9_17  and  O2_18 
REMARK    9  A    between atoms: C11_21  and  O3_22 
REMARK   10  A    between atoms: C12_25  and  O5_26 
REMARK   11  A    between atoms: C12_25  and  C13_28 
REMARK   12  A    between atoms: N3_34  and  C19_36 
ROOT
HETATM    1  C3  UNL     1      34.475  47.169  46.669  1.00  0.00     0.271 C 
ENDROOT
BRANCH   1   2
HETATM    2  N1  UNL     1      35.304  48.395  46.775  1.00  0.00    -0.056 N 
ATOM      3  H12 UNL     1      35.976  48.309  47.538  1.00  0.00     0.278 HD
ATOM      4  H11 UNL     1      34.748  49.176  47.123  1.00  0.00     0.278 HD
BRANCH   2   5
HETATM    5  C2  UNL     1      35.961  48.751  45.569  1.00  0.00     0.335 C 
BRANCH   5   6
HETATM    6  C1  UNL     1      37.390  48.339  45.704  1.00  0.00     0.243 C 
HETATM    7  O1  UNL     1      38.103  49.005  46.470  1.00  0.00    -0.272 OA
HETATM    8  N3  UNL     1      37.912  47.244  44.995  1.00  0.00    -0.355 N 
ATOM      9  H3  UNL     1      37.274  46.732  44.386  1.00  0.00     0.162 HD
BRANCH   8  10
HETATM   10  C19 UNL     1      39.268  46.789  45.059  1.00  0.00     0.084 A 
HETATM   11  C20 UNL     1      39.710  45.426  44.686  1.00  0.00     0.027 A 
HETATM   12  C21 UNL     1      39.953  46.587  43.735  1.00  0.00     0.027 A 
ENDBRANCH   8  10
ENDBRANCH   5   6
ENDBRANCH   2   5
ENDBRANCH   1   2
BRANCH   1  13
HETATM   13  C4  UNL     1      33.298  47.475  45.787  1.00  0.00     0.355 C 
HETATM   14  N2  UNL     1      32.471  48.554  46.270  1.00  0.00    -0.043 N 
HETATM   15  C5  UNL     1      31.105  48.030  46.379  1.00  0.00     0.278 C 
ATOM     16  H22 UNL     1      32.814  48.964  47.139  1.00  0.00     0.280 HD
ATOM     17  H21 UNL     1      32.533  49.395  45.697  1.00  0.00     0.280 HD
HETATM   18  C6  UNL     1      31.172  46.911  45.385  1.00  0.00     0.211 C 
HETATM   19  O4  UNL     1      32.413  46.349  45.786  1.00  0.00    -0.340 OA
BRANCH  18  20
HETATM   20  S1  UNL     1      29.950  45.658  45.495  1.00  0.00    -0.128 SA
BRANCH  20  21
HETATM   21  C7  UNL     1      29.970  44.282  44.449  1.00  0.00     0.081 C 
HETATM   22  C8  UNL     1      30.273  44.503  42.980  1.00  0.00     0.049 C 
HETATM   23  C9  UNL     1      30.161  43.087  42.453  1.00  0.00     0.121 C 
HETATM   24  C10 UNL     1      29.484  42.251  43.521  1.00  0.00     0.064 C 
HETATM   25  C11 UNL     1      28.802  43.370  44.351  1.00  0.00     0.134 C 
BRANCH  23  26
HETATM   26  O2  UNL     1      31.410  42.514  42.239  1.00  0.00    -0.395 OA
ATOM     27  H2  UNL     1      31.528  42.251  41.334  1.00  0.00     0.210 HD
ENDBRANCH  23  26
BRANCH  25  28
HETATM   28  O3  UNL     1      27.764  43.761  43.550  1.00  0.00    -0.394 OA
ATOM     29  H3  UNL     1      27.016  43.179  43.489  1.00  0.00     0.210 HD
ENDBRANCH  25  28
ENDBRANCH  20  21
ENDBRANCH  18  20
ENDBRANCH   1  13
BRANCH   1  30
HETATM   30  C12 UNL     1      34.076  46.750  48.048  1.00  0.00     0.157 C 
BRANCH  30  31
HETATM   31  O5  UNL     1      33.565  47.881  48.757  1.00  0.00    -0.393 OA
ATOM     32  H5  UNL     1      34.248  48.239  49.312  1.00  0.00     0.210 HD
ENDBRANCH  30  31
BRANCH  30  33
HETATM   33  C13 UNL     1      35.223  46.297  48.906  1.00  0.00     0.016 C 
HETATM   34  C14 UNL     1      35.296  47.181  50.169  1.00  0.00     0.007 C 
HETATM   35  C15 UNL     1      36.352  48.240  50.033  1.00  0.00     0.000 C 
HETATM   36  C16 UNL     1      37.746  47.643  49.966  1.00  0.00     0.000 C 
HETATM   37  C17 UNL     1      37.627  46.268  49.348  1.00  0.00     0.000 C 
HETATM   38  C18 UNL     1      36.559  46.397  48.253  1.00  0.00     0.007 C 
ENDBRANCH  30  33
ENDBRANCH   1  30
TORSDOF 12
ENDMDL
MODEL 4
REMARK VINA RESULT: -9.200267205      1.168      1.675
REMARK  12 active torsions:
REMARK  status: ('A' for Active; 'I' for Inactive)
REMARK    1  A    between atoms: C1_2  and  C2_3 
REMARK       I    between atoms: C1_2  and  N3_34 
REMARK    2  A    between atoms: C2_3  and  N1_4 
REMARK    3  A    between atoms: N1_4  and  C3_7 
REMARK    4  A    between atoms: C3_7  and  C4_8 
REMARK    5  A    between atoms: C3_7  and  C12_25 
REMARK    6  A    between atoms: C6_13  and  S1_14 
REMARK    7  A    between atoms: S1_14  and  C7_15 
REMARK    8  A    between atoms: C9_17  and  O2_18 
REMARK    9  A    between atoms: C11_21  and  O3_22 
REMARK   10  A    between atoms: C12_25  and  O5_26 
REMARK   11  A    between atoms: C12_25  and  C13_28 
REMARK   12  A    between atoms: N3_34  and  C19_36 
ROOT
HETATM    1  C3  UNL     1      35.392  46.928  47.250  1.00  0.00     0.271 C 
ENDROOT
BRANCH   1   2
HETATM    2  N1  UNL     1      36.372  47.833  46.599  1.00  0.00    -0.056 N 
ATOM      3  H12 UNL     1      36.138  48.808  46.785  1.00  0.00     0.278 HD
ATOM      4  H11 UNL     1      36.256  47.818  45.586  1.00  0.00     0.278 HD
BRANCH   2   5
HETATM    5  C2  UNL     1      37.720  47.567  46.950  1.00  0.00     0.335 C 
BRANCH   5   6
HETATM    6  C1  UNL     1      38.445  47.214  45.694  1.00  0.00     0.243 C 
HETATM    7  O1  UNL     1      39.569  47.711  45.527  1.00  0.00    -0.272 OA
HETATM    8  N3  UNL     1      37.885  46.353  44.735  1.00  0.00    -0.355 N 
ATOM      9  H3  UNL     1      36.960  45.970  44.933  1.00  0.00     0.162 HD
BRANCH   8  10
HETATM   10  C19 UNL     1      38.506  45.971  43.504  1.00  0.00     0.084 A 
HETATM   11  C20 UNL     1      37.786  45.806  42.221  1.00  0.00     0.027 A 
HETATM   12  C21 UNL     1      38.619  47.053  42.465  1.00  0.00     0.027 A 
ENDBRANCH   8  10
ENDBRANCH   5   6
ENDBRANCH   2   5
ENDBRANCH   1   2
BRANCH   1  13
HETATM   13  C4  UNL     1      34.026  47.536  47.101  1.00  0.00     0.355 C 
HETATM   14  N2  UNL     1      32.998  46.851  47.848  1.00  0.00    -0.043 N 
HETATM   15  C5  UNL     1      31.949  46.482  46.892  1.00  0.00     0.278 C 
ATOM     16  H22 UNL     1      33.352  46.058  48.382  1.00  0.00     0.280 HD
ATOM     17  H21 UNL     1      32.648  47.393  48.638  1.00  0.00     0.280 HD
HETATM   18  C6  UNL     1      32.188  47.509  45.828  1.00  0.00     0.211 C 
HETATM   19  O4  UNL     1      33.601  47.395  45.741  1.00  0.00    -0.340 OA
BRANCH  18  20
HETATM   20  S1  UNL     1      31.521  47.195  44.237  1.00  0.00    -0.128 SA
BRANCH  20  21
HETATM   21  C7  UNL     1      29.895  46.643  44.031  1.00  0.00     0.081 C 
HETATM   22  C8  UNL     1      28.820  47.233  44.921  1.00  0.00     0.049 C 
HETATM   23  C9  UNL     1      27.604  46.473  44.436  1.00  0.00     0.121 C 
HETATM   24  C10 UNL     1      28.093  45.305  43.602  1.00  0.00     0.064 C 
HETATM   25  C11 UNL     1      29.554  45.200  44.113  1.00  0.00     0.134 C 
BRANCH  23  26
HETATM   26  O2  UNL     1      26.808  47.247  43.599  1.00  0.00    -0.395 OA
ATOM     27  H2  UNL     1      25.934  46.887  43.509  1.00  0.00     0.210 HD
ENDBRANCH  23  26
BRANCH  25  28
HETATM   28  O3  UNL     1      29.408  44.658  45.360  1.00  0.00    -0.394 OA
ATOM     29  H3  UNL     1      29.464  43.713  45.435  1.00  0.00     0.210 HD
ENDBRANCH  25  28
ENDBRANCH  20  21
ENDBRANCH  18  20
ENDBRANCH   1  13
BRANCH   1  30
HETATM   30  C12 UNL     1      35.796  46.744  48.678  1.00  0.00     0.157 C 
BRANCH  30  31
HETATM   31  O5  UNL     1      35.103  45.619  49.223  1.00  0.00    -0.393 OA
ATOM     32  H5  UNL     1      34.216  45.876  49.448  1.00  0.00     0.210 HD
ENDBRANCH  30  31
BRANCH  30  33
HETATM   33  C13 UNL     1      35.385  47.871  49.580  1.00  0.00     0.016 C 
HETATM   34  C14 UNL     1      36.621  48.732  49.920  1.00  0.00     0.007 C 
HETATM   35  C15 UNL     1      37.166  48.390  51.277  1.00  0.00     0.000 C 
HETATM   36  C16 UNL     1      36.195  48.755  52.385  1.00  0.00     0.000 C 
HETATM   37  C17 UNL     1      34.796  48.658  51.819  1.00  0.00     0.000 C 
HETATM   38  C18 UNL     1      34.810  47.440  50.886  1.00  0.00     0.007 C 
ENDBRANCH  30  33
ENDBRANCH   1  30
TORSDOF 12
ENDMDL
MODEL 5
REMARK VINA RESULT: -9.188803829      3.625      9.727
REMARK  12 active torsions:
REMARK  status: ('A' for Active; 'I' for Inactive)
REMARK    1  A    between atoms: C1_2  and  C2_3 
REMARK       I    between atoms: C1_2  and  N3_34 
REMARK    2  A    between atoms: C2_3  and  N1_4 
REMARK    3  A    between atoms: N1_4  and  C3_7 
REMARK    4  A    between atoms: C3_7  and  C4_8 
REMARK    5  A    between atoms: C3_7  and  C12_25 
REMARK    6  A    between atoms: C6_13  and  S1_14 
REMARK    7  A    between atoms: S1_14  and  C7_15 
REMARK    8  A    between atoms: C9_17  and  O2_18 
REMARK    9  A    between atoms: C11_21  and  O3_22 
REMARK   10  A    between atoms: C12_25  and  O5_26 
REMARK   11  A    between atoms: C12_25  and  C13_28 
REMARK   12  A    between atoms: N3_34  and  C19_36 
ROOT
HETATM    1  C3  UNL     1      29.711  46.019  45.771  1.00  0.00     0.271 C 
ENDROOT
BRANCH   1   2
HETATM    2  N1  UNL     1      28.670  46.792  45.049  1.00  0.00    -0.056 N 
ATOM      3  H12 UNL     1      28.768  46.671  44.040  1.00  0.00     0.278 HD
ATOM      4  H11 UNL     1      28.851  47.793  45.121  1.00  0.00     0.278 HD
BRANCH   2   5
HETATM    5  C2  UNL     1      27.345  46.495  45.460  1.00  0.00     0.335 C 
BRANCH   5   6
HETATM    6  C1  UNL     1      26.421  47.137  44.480  1.00  0.00     0.243 C 
HETATM    7  O1  UNL     1      26.475  46.743  43.305  1.00  0.00    -0.272 OA
HETATM    8  N3  UNL     1      25.523  48.147  44.864  1.00  0.00    -0.355 N 
ATOM      9  H3  UNL     1      25.520  48.424  45.846  1.00  0.00     0.162 HD
BRANCH   8  10
HETATM   10  C19 UNL     1      24.612  48.820  43.989  1.00  0.00     0.084 A 
HETATM   11  C20 UNL     1      23.338  48.242  43.504  1.00  0.00     0.027 A 
HETATM   12  C21 UNL     1      23.323  49.279  44.615  1.00  0.00     0.027 A 
ENDBRANCH   8  10
ENDBRANCH   5   6
ENDBRANCH   2   5
ENDBRANCH   1   2
BRANCH   1  13
HETATM   13  C4  UNL     1      30.510  46.979  46.606  1.00  0.00     0.355 C 
HETATM   14  N2  UNL     1      30.639  48.292  46.023  1.00  0.00    -0.043 N 
HETATM   15  C5  UNL     1      32.074  48.582  45.935  1.00  0.00     0.278 C 
ATOM     16  H22 UNL     1      30.156  48.384  45.130  1.00  0.00     0.280 HD
ATOM     17  H21 UNL     1      30.116  49.008  46.527  1.00  0.00     0.280 HD
HETATM   18  C6  UNL     1      32.592  47.684  47.017  1.00  0.00     0.211 C 
HETATM   19  O4  UNL     1      31.862  46.513  46.683  1.00  0.00    -0.340 OA
BRANCH  18  20
HETATM   20  S1  UNL     1      34.299  47.285  46.989  1.00  0.00    -0.128 SA
BRANCH  20  21
HETATM   21  C7  UNL     1      35.343  47.686  48.306  1.00  0.00     0.081 C 
HETATM   22  C8  UNL     1      36.547  46.801  48.562  1.00  0.00     0.049 C 
HETATM   23  C9  UNL     1      37.141  47.478  49.780  1.00  0.00     0.121 C 
HETATM   24  C10 UNL     1      36.100  48.434  50.329  1.00  0.00     0.064 C 
HETATM   25  C11 UNL     1      34.819  47.838  49.688  1.00  0.00     0.134 C 
BRANCH  23  26
HETATM   26  O2  UNL     1      38.250  48.251  49.453  1.00  0.00    -0.395 OA
ATOM     27  H2  UNL     1      39.037  47.942  49.887  1.00  0.00     0.210 HD
ENDBRANCH  23  26
BRANCH  25  28
HETATM   28  O3  UNL     1      34.613  46.695  50.412  1.00  0.00    -0.394 OA
ATOM     29  H3  UNL     1      34.131  46.776  51.226  1.00  0.00     0.210 HD
ENDBRANCH  25  28
ENDBRANCH  20  21
ENDBRANCH  18  20
ENDBRANCH   1  13
BRANCH   1  30
HETATM   30  C12 UNL     1      30.542  45.292  44.762  1.00  0.00     0.157 C 
BRANCH  30  31
HETATM   31  O5  UNL     1      31.146  46.238  43.877  1.00  0.00    -0.393 OA
ATOM     32  H5  UNL     1      31.697  45.778  43.254  1.00  0.00     0.210 HD
ENDBRANCH  30  31
BRANCH  30  33
HETATM   33  C13 UNL     1      29.751  44.413  43.837  1.00  0.00     0.016 C 
HETATM   34  C14 UNL     1      30.282  42.966  43.927  1.00  0.00     0.007 C 
HETATM   35  C15 UNL     1      31.198  42.649  42.780  1.00  0.00     0.000 C 
HETATM   36  C16 UNL     1      30.462  42.649  41.453  1.00  0.00     0.000 C 
HETATM   37  C17 UNL     1      29.307  43.618  41.568  1.00  0.00     0.000 C 
HETATM   38  C18 UNL     1      29.835  44.796  42.398  1.00  0.00     0.007 C 
ENDBRANCH  30  33
ENDBRANCH   1  30
TORSDOF 12
ENDMDL
