MODEL 1
REMARK VINA RESULT: -8.572656745      0.000      0.000
REMARK  15 active torsions:
REMARK  status: ('A' for Active; 'I' for Inactive)
REMARK    1  A    between atoms: C2_2  and  C3_3 
REMARK    2  A    between atoms: C3_3  and  N1_4 
REMARK    3  A    between atoms: C3_3  and  C11_23 
REMARK    4  A    between atoms: N1_4  and  C4_6 
REMARK    5  A    between atoms: C4_6  and  O1_7 
REMARK    6  A    between atoms: C4_6  and  C5_9 
REMARK    7  A    between atoms: C7_11  and  O2_12 
REMARK    8  A    between atoms: C8_14  and  O3_15 
REMARK    9  A    between atoms: C9_17  and  O4_18 
REMARK   10  A    between atoms: C10_20  and  O5_21 
REMARK   11  A    between atoms: C11_23  and  C14_26 
REMARK   12  A    between atoms: C14_26  and  O6_27 
REMARK   13  A    between atoms: O6_27  and  C15_28 
REMARK   14  A    between atoms: C15_28  and  C16_30 
REMARK   15  A    between atoms: N2_34  and  C20_35 
ROOT
HETATM    1  N1  UNL     1      34.707  47.660  45.917  1.00  0.00    -0.366 N 
ATOM      2  H1  UNL     1      34.506  48.279  45.132  1.00  0.00     0.162 HD
ENDROOT
BRANCH   1   3
HETATM    3  C3  UNL     1      33.591  47.293  46.671  1.00  0.00     0.016 C 
BRANCH   3   4
HETATM    4  C2  UNL     1      33.665  46.406  47.796  1.00  0.00     0.015 C 
HETATM    5  C1  UNL     1      34.118  46.620  49.016  1.00  0.00     0.013 C 
ENDBRANCH   3   4
BRANCH   3   6
HETATM    6  C11 UNL     1      32.347  47.310  45.821  1.00  0.00     0.017 C 
HETATM    7  C12 UNL     1      31.738  48.741  46.072  1.00  0.00     0.024 C 
HETATM    8  C13 UNL     1      32.401  47.182  44.387  1.00  0.00     0.024 C 
BRANCH   6   9
HETATM    9  C14 UNL     1      31.280  46.429  46.440  1.00  0.00     0.194 C 
BRANCH   9  10
HETATM   10  O6  UNL     1      30.752  45.404  45.740  1.00  0.00    -0.319 OA
BRANCH  10  11
HETATM   11  C15 UNL     1      29.628  45.195  45.022  1.00  0.00     0.292 C 
HETATM   12  O7  UNL     1      28.511  45.416  45.517  1.00  0.00    -0.263 OA
BRANCH  11  13
HETATM   13  C16 UNL     1      29.635  44.693  43.597  1.00  0.00     0.322 C 
HETATM   14  C17 UNL     1      30.738  43.644  43.572  1.00  0.00     0.048 C 
HETATM   15  C18 UNL     1      30.045  42.438  44.171  1.00  0.00     0.033 C 
HETATM   16  C19 UNL     1      28.564  42.642  43.927  1.00  0.00     0.274 C 
HETATM   17  N2  UNL     1      28.404  43.968  43.423  1.00  0.00     0.106 N 
BRANCH  17  18
HETATM   18  C20 UNL     1      27.866  44.026  42.103  1.00  0.00     0.216 C 
HETATM   19  C21 UNL     1      28.888  44.350  41.037  1.00  0.00     0.042 C 
HETATM   20  C22 UNL     1      26.722  45.035  42.051  1.00  0.00     0.042 C 
ENDBRANCH  17  18
ENDBRANCH  11  13
ENDBRANCH  10  11
ENDBRANCH   9  10
ENDBRANCH   6   9
ENDBRANCH   3   6
ENDBRANCH   1   3
BRANCH   1  21
HETATM   21  C4  UNL     1      36.021  47.327  46.057  1.00  0.00     0.224 C 
BRANCH  21  22
HETATM   22  O1  UNL     1      36.729  47.925  47.104  1.00  0.00    -0.376 OA
ATOM     23  H1  UNL     1      37.499  48.432  46.877  1.00  0.00     0.212 HD
ENDBRANCH  21  22
BRANCH  21  24
HETATM   24  C5  UNL     1      36.922  47.511  44.863  1.00  0.00     0.068 C 
HETATM   25  C6  UNL     1      37.179  46.118  44.324  1.00  0.00     0.046 C 
HETATM   26  C7  UNL     1      38.046  46.111  43.109  1.00  0.00     0.150 C 
HETATM   27  C8  UNL     1      38.714  47.443  42.856  1.00  0.00     0.178 C 
HETATM   28  C9  UNL     1      39.259  47.972  44.137  1.00  0.00     0.178 C 
HETATM   29  C10 UNL     1      38.164  48.248  45.170  1.00  0.00     0.158 C 
BRANCH  26  30
HETATM   30  O2  UNL     1      37.318  45.799  41.951  1.00  0.00    -0.393 OA
ATOM     31  H2  UNL     1      37.886  45.526  41.240  1.00  0.00     0.210 HD
ENDBRANCH  26  30
BRANCH  27  32
HETATM   32  O3  UNL     1      39.806  47.227  42.000  1.00  0.00    -0.390 OA
ATOM     33  H3  UNL     1      39.471  46.922  41.166  1.00  0.00     0.210 HD
ENDBRANCH  27  32
BRANCH  28  34
HETATM   34  O4  UNL     1      40.210  47.092  44.671  1.00  0.00    -0.390 OA
ATOM     35  H4  UNL     1      40.098  47.007  45.611  1.00  0.00     0.210 HD
ENDBRANCH  28  34
BRANCH  29  36
HETATM   36  O5  UNL     1      37.893  49.614  45.077  1.00  0.00    -0.392 OA
ATOM     37  H5  UNL     1      38.116  49.900  44.199  1.00  0.00     0.210 HD
ENDBRANCH  29  36
ENDBRANCH  21  24
ENDBRANCH   1  21
TORSDOF 15
ENDMDL
MODEL 2
REMARK VINA RESULT: -8.456084812      3.164      9.834
REMARK  15 active torsions:
REMARK  status: ('A' for Active; 'I' for Inactive)
REMARK    1  A    between atoms: C2_2  and  C3_3 
REMARK    2  A    between atoms: C3_3  and  N1_4 
REMARK    3  A    between atoms: C3_3  and  C11_23 
REMARK    4  A    between atoms: N1_4  and  C4_6 
REMARK    5  A    between atoms: C4_6  and  O1_7 
REMARK    6  A    between atoms: C4_6  and  C5_9 
REMARK    7  A    between atoms: C7_11  and  O2_12 
REMARK    8  A    between atoms: C8_14  and  O3_15 
REMARK    9  A    between atoms: C9_17  and  O4_18 
REMARK   10  A    between atoms: C10_20  and  O5_21 
REMARK   11  A    between atoms: C11_23  and  C14_26 
REMARK   12  A    between atoms: C14_26  and  O6_27 
REMARK   13  A    between atoms: O6_27  and  C15_28 
REMARK   14  A    between atoms: C15_28  and  C16_30 
REMARK   15  A    between atoms: N2_34  and  C20_35 
ROOT
HETATM    1  N1  UNL     1      29.305  47.023  45.382  1.00  0.00    -0.366 N 
ATOM      2  H1  UNL     1      29.284  47.812  46.027  1.00  0.00     0.162 HD
ENDROOT
BRANCH   1   3
HETATM    3  C3  UNL     1      30.500  46.301  45.382  1.00  0.00     0.016 C 
BRANCH   3   4
HETATM    4  C2  UNL     1      30.558  44.884  45.598  1.00  0.00     0.015 C 
HETATM    5  C1  UNL     1      30.173  43.892  44.819  1.00  0.00     0.013 C 
ENDBRANCH   3   4
BRANCH   3   6
HETATM    6  C11 UNL     1      31.644  47.168  45.841  1.00  0.00     0.017 C 
HETATM    7  C12 UNL     1      32.625  47.184  44.609  1.00  0.00     0.024 C 
HETATM    8  C13 UNL     1      31.460  48.557  46.181  1.00  0.00     0.024 C 
BRANCH   6   9
HETATM    9  C14 UNL     1      32.480  46.428  46.867  1.00  0.00     0.194 C 
BRANCH   9  10
HETATM   10  O6  UNL     1      33.746  46.820  47.124  1.00  0.00    -0.319 OA
BRANCH  10  11
HETATM   11  C15 UNL     1      34.391  47.405  48.154  1.00  0.00     0.292 C 
HETATM   12  O7  UNL     1      33.916  47.368  49.301  1.00  0.00    -0.263 OA
BRANCH  11  13
HETATM   13  C16 UNL     1      35.707  48.132  48.004  1.00  0.00     0.322 C 
HETATM   14  C17 UNL     1      36.259  48.210  49.421  1.00  0.00     0.048 C 
HETATM   15  C18 UNL     1      36.851  46.829  49.608  1.00  0.00     0.033 C 
HETATM   16  C19 UNL     1      37.156  46.310  48.218  1.00  0.00     0.274 C 
HETATM   17  N2  UNL     1      36.580  47.233  47.294  1.00  0.00     0.106 N 
BRANCH  17  18
HETATM   18  C20 UNL     1      37.531  47.879  46.449  1.00  0.00     0.216 C 
HETATM   19  C21 UNL     1      36.927  48.910  45.522  1.00  0.00     0.042 C 
HETATM   20  C22 UNL     1      38.301  46.838  45.641  1.00  0.00     0.042 C 
ENDBRANCH  17  18
ENDBRANCH  11  13
ENDBRANCH  10  11
ENDBRANCH   9  10
ENDBRANCH   6   9
ENDBRANCH   3   6
ENDBRANCH   1   3
BRANCH   1  21
HETATM   21  C4  UNL     1      28.163  46.846  44.660  1.00  0.00     0.224 C 
BRANCH  21  22
HETATM   22  O1  UNL     1      27.478  47.992  44.245  1.00  0.00    -0.376 OA
ATOM     23  H1  UNL     1      26.536  47.928  44.146  1.00  0.00     0.212 HD
ENDBRANCH  21  22
BRANCH  21  24
HETATM   24  C5  UNL     1      27.083  45.981  45.259  1.00  0.00     0.068 C 
HETATM   25  C6  UNL     1      26.516  45.175  44.107  1.00  0.00     0.046 C 
HETATM   26  C7  UNL     1      25.436  44.234  44.526  1.00  0.00     0.150 C 
HETATM   27  C8  UNL     1      24.942  44.494  45.930  1.00  0.00     0.178 C 
HETATM   28  C9  UNL     1      24.747  45.958  46.121  1.00  0.00     0.178 C 
HETATM   29  C10 UNL     1      26.053  46.746  45.989  1.00  0.00     0.158 C 
BRANCH  26  30
HETATM   30  O2  UNL     1      25.866  42.899  44.490  1.00  0.00    -0.393 OA
ATOM     31  H2  UNL     1      25.207  42.307  44.833  1.00  0.00     0.210 HD
ENDBRANCH  26  30
BRANCH  27  32
HETATM   32  O3  UNL     1      23.683  43.888  46.069  1.00  0.00    -0.390 OA
ATOM     33  H3  UNL     1      23.634  43.506  46.937  1.00  0.00     0.210 HD
ENDBRANCH  27  32
BRANCH  28  34
HETATM   34  O4  UNL     1      23.797  46.452  45.217  1.00  0.00    -0.390 OA
ATOM     35  H4  UNL     1      23.645  47.378  45.363  1.00  0.00     0.210 HD
ENDBRANCH  28  34
BRANCH  29  36
HETATM   36  O5  UNL     1      26.504  46.947  47.294  1.00  0.00    -0.392 OA
ATOM     37  H5  UNL     1      25.752  47.143  47.841  1.00  0.00     0.210 HD
ENDBRANCH  29  36
ENDBRANCH  21  24
ENDBRANCH   1  21
TORSDOF 15
ENDMDL
MODEL 3
REMARK VINA RESULT: -8.427666168      2.082      3.701
REMARK  15 active torsions:
REMARK  status: ('A' for Active; 'I' for Inactive)
REMARK    1  A    between atoms: C2_2  and  C3_3 
REMARK    2  A    between atoms: C3_3  and  N1_4 
REMARK    3  A    between atoms: C3_3  and  C11_23 
REMARK    4  A    between atoms: N1_4  and  C4_6 
REMARK    5  A    between atoms: C4_6  and  O1_7 
REMARK    6  A    between atoms: C4_6  and  C5_9 
REMARK    7  A    between atoms: C7_11  and  O2_12 
REMARK    8  A    between atoms: C8_14  and  O3_15 
REMARK    9  A    between atoms: C9_17  and  O4_18 
REMARK   10  A    between atoms: C10_20  and  O5_21 
REMARK   11  A    between atoms: C11_23  and  C14_26 
REMARK   12  A    between atoms: C14_26  and  O6_27 
REMARK   13  A    between atoms: O6_27  and  C15_28 
REMARK   14  A    between atoms: C15_28  and  C16_30 
REMARK   15  A    between atoms: N2_34  and  C20_35 
ROOT
HETATM    1  N1  UNL     1      36.939  47.015  48.218  1.00  0.00    -0.366 N 
ATOM      2  H1  UNL     1      36.677  46.049  48.023  1.00  0.00     0.162 HD
ENDROOT
BRANCH   1   3
HETATM    3  C3  UNL     1      36.254  47.601  49.284  1.00  0.00     0.016 C 
BRANCH   3   4
HETATM    4  C2  UNL     1      36.900  48.014  50.497  1.00  0.00     0.015 C 
HETATM    5  C1  UNL     1      36.434  48.721  51.507  1.00  0.00     0.013 C 
ENDBRANCH   3   4
BRANCH   3   6
HETATM    6  C11 UNL     1      34.830  47.112  49.333  1.00  0.00     0.017 C 
HETATM    7  C12 UNL     1      34.925  45.620  48.837  1.00  0.00     0.024 C 
HETATM    8  C13 UNL     1      34.090  47.040  50.568  1.00  0.00     0.024 C 
BRANCH   6   9
HETATM    9  C14 UNL     1      34.024  47.738  48.213  1.00  0.00     0.194 C 
BRANCH   9  10
HETATM   10  O6  UNL     1      33.004  47.060  47.646  1.00  0.00    -0.319 OA
BRANCH  10  11
HETATM   11  C15 UNL     1      32.527  46.892  46.394  1.00  0.00     0.292 C 
HETATM   12  O7  UNL     1      33.201  47.235  45.409  1.00  0.00    -0.263 OA
BRANCH  11  13
HETATM   13  C16 UNL     1      31.174  46.289  46.097  1.00  0.00     0.322 C 
HETATM   14  C17 UNL     1      30.182  47.261  46.720  1.00  0.00     0.048 C 
HETATM   15  C18 UNL     1      30.110  48.356  45.677  1.00  0.00     0.033 C 
HETATM   16  C19 UNL     1      30.512  47.713  44.365  1.00  0.00     0.274 C 
HETATM   17  N2  UNL     1      30.991  46.404  44.673  1.00  0.00     0.106 N 
BRANCH  17  18
HETATM   18  C20 UNL     1      30.222  45.353  44.091  1.00  0.00     0.216 C 
HETATM   19  C21 UNL     1      28.844  45.780  43.636  1.00  0.00     0.042 C 
HETATM   20  C22 UNL     1      30.109  44.187  45.069  1.00  0.00     0.042 C 
ENDBRANCH  17  18
ENDBRANCH  11  13
ENDBRANCH  10  11
ENDBRANCH   9  10
ENDBRANCH   6   9
ENDBRANCH   3   6
ENDBRANCH   1   3
BRANCH   1  21
HETATM   21  C4  UNL     1      37.901  47.522  47.397  1.00  0.00     0.224 C 
BRANCH  21  22
HETATM   22  O1  UNL     1      38.024  48.913  47.330  1.00  0.00    -0.376 OA
ATOM     23  H1  UNL     1      38.508  49.275  46.598  1.00  0.00     0.212 HD
ENDBRANCH  21  22
BRANCH  21  24
HETATM   24  C5  UNL     1      37.883  47.094  45.951  1.00  0.00     0.068 C 
HETATM   25  C6  UNL     1      39.338  46.954  45.547  1.00  0.00     0.046 C 
HETATM   26  C7  UNL     1      39.513  46.508  44.134  1.00  0.00     0.150 C 
HETATM   27  C8  UNL     1      38.233  46.578  43.333  1.00  0.00     0.178 C 
HETATM   28  C9  UNL     1      37.549  47.871  43.609  1.00  0.00     0.178 C 
HETATM   29  C10 UNL     1      37.128  48.011  45.075  1.00  0.00     0.158 C 
BRANCH  26  30
HETATM   30  O2  UNL     1      39.964  45.182  44.058  1.00  0.00    -0.393 OA
ATOM     31  H2  UNL     1      40.638  45.076  43.396  1.00  0.00     0.210 HD
ENDBRANCH  26  30
BRANCH  27  32
HETATM   32  O3  UNL     1      38.571  46.573  41.970  1.00  0.00    -0.390 OA
ATOM     33  H3  UNL     1      39.034  45.765  41.784  1.00  0.00     0.210 HD
ENDBRANCH  27  32
BRANCH  28  34
HETATM   34  O4  UNL     1      38.363  48.951  43.241  1.00  0.00    -0.390 OA
ATOM     35  H4  UNL     1      38.112  49.737  43.712  1.00  0.00     0.210 HD
ENDBRANCH  28  34
BRANCH  29  36
HETATM   36  O5  UNL     1      35.783  47.642  45.117  1.00  0.00    -0.392 OA
ATOM     37  H5  UNL     1      35.663  46.893  44.545  1.00  0.00     0.210 HD
ENDBRANCH  29  36
ENDBRANCH  21  24
ENDBRANCH   1  21
TORSDOF 15
ENDMDL
MODEL 4
REMARK VINA RESULT: -8.394979461      2.727      4.553
REMARK  15 active torsions:
REMARK  status: ('A' for Active; 'I' for Inactive)
REMARK    1  A    between atoms: C2_2  and  C3_3 
REMARK    2  A    between atoms: C3_3  and  N1_4 
REMARK    3  A    between atoms: C3_3  and  C11_23 
REMARK    4  A    between atoms: N1_4  and  C4_6 
REMARK    5  A    between atoms: C4_6  and  O1_7 
REMARK    6  A    between atoms: C4_6  and  C5_9 
REMARK    7  A    between atoms: C7_11  and  O2_12 
REMARK    8  A    between atoms: C8_14  and  O3_15 
REMARK    9  A    between atoms: C9_17  and  O4_18 
REMARK   10  A    between atoms: C10_20  and  O5_21 
REMARK   11  A    between atoms: C11_23  and  C14_26 
REMARK   12  A    between atoms: C14_26  and  O6_27 
REMARK   13  A    between atoms: O6_27  and  C15_28 
REMARK   14  A    between atoms: C15_28  and  C16_30 
REMARK   15  A    between atoms: N2_34  and  C20_35 
ROOT
HETATM    1  N1  UNL     1      33.830  46.877  47.694  1.00  0.00    -0.366 N 
ATOM      2  H1  UNL     1      33.042  47.267  48.210  1.00  0.00     0.162 HD
ENDROOT
BRANCH   1   3
HETATM    3  C3  UNL     1      33.895  47.258  46.353  1.00  0.00     0.016 C 
BRANCH   3   4
HETATM    4  C2  UNL     1      34.923  48.112  45.831  1.00  0.00     0.015 C 
HETATM    5  C1  UNL     1      36.184  47.847  45.551  1.00  0.00     0.013 C 
ENDBRANCH   3   4
BRANCH   3   6
HETATM    6  C11 UNL     1      32.516  47.303  45.747  1.00  0.00     0.017 C 
HETATM    7  C12 UNL     1      31.948  48.700  46.201  1.00  0.00     0.024 C 
HETATM    8  C13 UNL     1      32.308  47.270  44.321  1.00  0.00     0.024 C 
BRANCH   6   9
HETATM    9  C14 UNL     1      31.589  46.360  46.488  1.00  0.00     0.194 C 
BRANCH   9  10
HETATM   10  O6  UNL     1      30.945  45.378  45.824  1.00  0.00    -0.319 OA
BRANCH  10  11
HETATM   11  C15 UNL     1      29.788  45.267  45.137  1.00  0.00     0.292 C 
HETATM   12  O7  UNL     1      28.708  45.590  45.661  1.00  0.00    -0.263 OA
BRANCH  11  13
HETATM   13  C16 UNL     1      29.711  44.758  43.717  1.00  0.00     0.322 C 
HETATM   14  C17 UNL     1      30.769  43.665  43.651  1.00  0.00     0.048 C 
HETATM   15  C18 UNL     1      30.055  42.491  44.287  1.00  0.00     0.033 C 
HETATM   16  C19 UNL     1      28.573  42.753  44.108  1.00  0.00     0.274 C 
HETATM   17  N2  UNL     1      28.445  44.082  43.603  1.00  0.00     0.106 N 
BRANCH  17  18
HETATM   18  C20 UNL     1      27.851  44.156  42.307  1.00  0.00     0.216 C 
HETATM   19  C21 UNL     1      28.834  44.461  41.199  1.00  0.00     0.042 C 
HETATM   20  C22 UNL     1      26.728  45.190  42.307  1.00  0.00     0.042 C 
ENDBRANCH  17  18
ENDBRANCH  11  13
ENDBRANCH  10  11
ENDBRANCH   9  10
ENDBRANCH   6   9
ENDBRANCH   3   6
ENDBRANCH   1   3
BRANCH   1  21
HETATM   21  C4  UNL     1      34.648  46.070  48.427  1.00  0.00     0.224 C 
BRANCH  21  22
HETATM   22  O1  UNL     1      34.075  44.940  49.019  1.00  0.00    -0.376 OA
ATOM     23  H1  UNL     1      34.568  44.510  49.708  1.00  0.00     0.212 HD
ENDBRANCH  21  22
BRANCH  21  24
HETATM   24  C5  UNL     1      35.436  46.702  49.546  1.00  0.00     0.068 C 
HETATM   25  C6  UNL     1      34.638  47.917  49.974  1.00  0.00     0.046 C 
HETATM   26  C7  UNL     1      35.267  48.662  51.105  1.00  0.00     0.150 C 
HETATM   27  C8  UNL     1      36.688  48.225  51.378  1.00  0.00     0.178 C 
HETATM   28  C9  UNL     1      37.423  48.102  50.088  1.00  0.00     0.178 C 
HETATM   29  C10 UNL     1      36.827  47.027  49.175  1.00  0.00     0.158 C 
BRANCH  26  30
HETATM   30  O2  UNL     1      34.556  48.491  52.301  1.00  0.00    -0.393 OA
ATOM     31  H2  UNL     1      35.047  47.981  52.934  1.00  0.00     0.210 HD
ENDBRANCH  26  30
BRANCH  27  32
HETATM   32  O3  UNL     1      37.321  49.236  52.118  1.00  0.00    -0.390 OA
ATOM     33  H3  UNL     1      38.241  49.243  51.883  1.00  0.00     0.210 HD
ENDBRANCH  27  32
BRANCH  28  34
HETATM   34  O4  UNL     1      37.457  49.333  49.420  1.00  0.00    -0.390 OA
ATOM     35  H4  UNL     1      38.292  49.453  48.981  1.00  0.00     0.210 HD
ENDBRANCH  28  34
BRANCH  29  36
HETATM   36  O5  UNL     1      37.608  45.888  49.375  1.00  0.00    -0.392 OA
ATOM     37  H5  UNL     1      38.242  45.836  48.669  1.00  0.00     0.210 HD
ENDBRANCH  29  36
ENDBRANCH  21  24
ENDBRANCH   1  21
TORSDOF 15
ENDMDL
MODEL 5
REMARK VINA RESULT: -8.386365043      3.103      9.554
REMARK  15 active torsions:
REMARK  status: ('A' for Active; 'I' for Inactive)
REMARK    1  A    between atoms: C2_2  and  C3_3 
REMARK    2  A    between atoms: C3_3  and  N1_4 
REMARK    3  A    between atoms: C3_3  and  C11_23 
REMARK    4  A    between atoms: N1_4  and  C4_6 
REMARK    5  A    between atoms: C4_6  and  O1_7 
REMARK    6  A    between atoms: C4_6  and  C5_9 
REMARK    7  A    between atoms: C7_11  and  O2_12 
REMARK    8  A    between atoms: C8_14  and  O3_15 
REMARK    9  A    between atoms: C9_17  and  O4_18 
REMARK   10  A    between atoms: C10_20  and  O5_21 
REMARK   11  A    between atoms: C11_23  and  C14_26 
REMARK   12  A    between atoms: C14_26  and  O6_27 
REMARK   13  A    between atoms: O6_27  and  C15_28 
REMARK   14  A    between atoms: C15_28  and  C16_30 
REMARK   15  A    between atoms: N2_34  and  C20_35 
ROOT
HETATM    1  N1  UNL     1      29.533  47.277  45.355  1.00  0.00    -0.366 N 
ATOM      2  H1  UNL     1      29.352  47.851  46.178  1.00  0.00     0.162 HD
ENDROOT
BRANCH   1   3
HETATM    3  C3  UNL     1      30.672  46.475  45.443  1.00  0.00     0.016 C 
BRANCH   3   4
HETATM    4  C2  UNL     1      30.618  45.068  45.718  1.00  0.00     0.015 C 
HETATM    5  C1  UNL     1      30.253  44.066  44.942  1.00  0.00     0.013 C 
ENDBRANCH   3   4
BRANCH   3   6
HETATM    6  C11 UNL     1      31.853  47.279  45.924  1.00  0.00     0.017 C 
HETATM    7  C12 UNL     1      32.852  47.247  44.707  1.00  0.00     0.024 C 
HETATM    8  C13 UNL     1      31.736  48.674  46.266  1.00  0.00     0.024 C 
BRANCH   6   9
HETATM    9  C14 UNL     1      32.633  46.493  46.959  1.00  0.00     0.194 C 
BRANCH   9  10
HETATM   10  O6  UNL     1      33.914  46.814  47.234  1.00  0.00    -0.319 OA
BRANCH  10  11
HETATM   11  C15 UNL     1      34.561  47.464  48.225  1.00  0.00     0.292 C 
HETATM   12  O7  UNL     1      34.084  47.504  49.371  1.00  0.00    -0.263 OA
BRANCH  11  13
HETATM   13  C16 UNL     1      35.880  48.172  48.029  1.00  0.00     0.322 C 
HETATM   14  C17 UNL     1      36.501  48.205  49.419  1.00  0.00     0.048 C 
HETATM   15  C18 UNL     1      37.077  46.811  49.544  1.00  0.00     0.033 C 
HETATM   16  C19 UNL     1      37.307  46.323  48.129  1.00  0.00     0.274 C 
HETATM   17  N2  UNL     1      36.703  47.278  47.257  1.00  0.00     0.106 N 
BRANCH  17  18
HETATM   18  C20 UNL     1      37.624  47.929  46.383  1.00  0.00     0.216 C 
HETATM   19  C21 UNL     1      36.986  48.958  45.476  1.00  0.00     0.042 C 
HETATM   20  C22 UNL     1      38.372  46.893  45.549  1.00  0.00     0.042 C 
ENDBRANCH  17  18
ENDBRANCH  11  13
ENDBRANCH  10  11
ENDBRANCH   9  10
ENDBRANCH   6   9
ENDBRANCH   3   6
ENDBRANCH   1   3
BRANCH   1  21
HETATM   21  C4  UNL     1      28.625  47.419  44.349  1.00  0.00     0.224 C 
BRANCH  21  22
HETATM   22  O1  UNL     1      28.088  48.693  44.141  1.00  0.00    -0.376 OA
ATOM     23  H1  UNL     1      27.887  49.215  44.909  1.00  0.00     0.212 HD
ENDBRANCH  21  22
BRANCH  21  24
HETATM   24  C5  UNL     1      27.416  46.519  44.366  1.00  0.00     0.068 C 
HETATM   25  C6  UNL     1      27.563  45.612  43.160  1.00  0.00     0.046 C 
HETATM   26  C7  UNL     1      26.451  44.625  43.030  1.00  0.00     0.150 C 
HETATM   27  C8  UNL     1      25.284  44.932  43.940  1.00  0.00     0.178 C 
HETATM   28  C9  UNL     1      24.978  46.387  43.876  1.00  0.00     0.178 C 
HETATM   29  C10 UNL     1      26.135  47.253  44.381  1.00  0.00     0.158 C 
BRANCH  26  30
HETATM   30  O2  UNL     1      26.871  43.323  43.338  1.00  0.00    -0.393 OA
ATOM     31  H2  UNL     1      26.392  42.671  42.840  1.00  0.00     0.210 HD
ENDBRANCH  26  30
BRANCH  27  32
HETATM   32  O3  UNL     1      24.158  44.251  43.450  1.00  0.00    -0.390 OA
ATOM     33  H3  UNL     1      23.397  44.553  43.932  1.00  0.00     0.210 HD
ENDBRANCH  27  32
BRANCH  28  34
HETATM   34  O4  UNL     1      24.633  46.763  42.570  1.00  0.00    -0.390 OA
ATOM     35  H4  UNL     1      23.744  47.096  42.540  1.00  0.00     0.210 HD
ENDBRANCH  28  34
BRANCH  29  36
HETATM   36  O5  UNL     1      25.825  47.560  45.706  1.00  0.00    -0.392 OA
ATOM     37  H5  UNL     1      26.396  48.265  45.988  1.00  0.00     0.210 HD
ENDBRANCH  29  36
ENDBRANCH  21  24
ENDBRANCH   1  21
TORSDOF 15
ENDMDL
