MODEL 1
REMARK VINA RESULT: -6.201269107      0.000      0.000
REMARK  15 active torsions:
REMARK  status: ('A' for Active; 'I' for Inactive)
REMARK    1  A    between atoms: C2_2  and  N1_4 
REMARK    2  A    between atoms: N1_4  and  C4_7 
REMARK    3  A    between atoms: C4_7  and  O1_8 
REMARK    4  A    between atoms: C4_7  and  C9_13 
REMARK    5  A    between atoms: O1_8  and  C5_9 
REMARK    6  A    between atoms: C9_13  and  C10_14 
REMARK    7  A    between atoms: C9_13  and  O3_22 
REMARK    8  A    between atoms: C10_14  and  N2_15 
REMARK    9  A    between atoms: N2_15  and  C11_16 
REMARK   10  A    between atoms: C11_16  and  C12_17 
REMARK   11  A    between atoms: C12_17  and  O2_18 
REMARK   12  A    between atoms: O3_22  and  C15_23 
REMARK   13  A    between atoms: C16_24  and  O4_25 
REMARK   14  A    between atoms: C17_27  and  O5_28 
REMARK   15  A    between atoms: C21_33  and  O6_34 
ROOT
HETATM    1  C9  UNL     1      28.326  45.352  44.771  1.00  0.00     0.204 C 
ENDROOT
BRANCH   1   2
HETATM    2  C4  UNL     1      26.892  45.773  44.708  1.00  0.00     0.353 C 
BRANCH   2   3
HETATM    3  N1  UNL     1      26.548  46.389  43.446  1.00  0.00    -0.043 N 
ATOM      4  H12 UNL     1      27.383  46.521  42.876  1.00  0.00     0.280 HD
ATOM      5  H11 UNL     1      26.278  47.362  43.588  1.00  0.00     0.280 HD
BRANCH   3   6
HETATM    6  C2  UNL     1      25.545  45.697  42.707  1.00  0.00     0.181 C 
HETATM    7  C1  UNL     1      25.158  44.419  43.449  1.00  0.00     0.039 C 
HETATM    8  C3  UNL     1      24.298  46.554  42.640  1.00  0.00     0.039 C 
ENDBRANCH   3   6
ENDBRANCH   2   3
BRANCH   2   9
HETATM    9  O1  UNL     1      26.626  46.683  45.686  1.00  0.00    -0.347 OA
BRANCH   9  10
HETATM   10  C5  UNL     1      25.493  46.598  46.409  1.00  0.00     0.053 C 
HETATM   11  C6  UNL     1      25.870  47.015  47.847  1.00  0.00     0.045 C 
HETATM   12  C7  UNL     1      24.829  45.274  46.540  1.00  0.00     0.045 C 
HETATM   13  C8  UNL     1      24.429  47.616  45.988  1.00  0.00     0.045 C 
ENDBRANCH   9  10
ENDBRANCH   2   9
ENDBRANCH   1   2
BRANCH   1  14
HETATM   14  C10 UNL     1      29.118  46.049  45.821  1.00  0.00     0.273 C 
BRANCH  14  15
HETATM   15  N2  UNL     1      30.237  46.828  45.498  1.00  0.00    -0.059 N 
HETATM   16  C13 UNL     1      31.307  46.352  44.643  1.00  0.00     0.265 A 
HETATM   17  C14 UNL     1      31.497  46.231  46.075  1.00  0.00     0.265 A 
BRANCH  15  18
HETATM   18  C11 UNL     1      30.135  48.260  45.603  1.00  0.00     0.263 C 
BRANCH  18  19
HETATM   19  C12 UNL     1      29.704  48.956  44.332  1.00  0.00     0.192 C 
BRANCH  19  20
HETATM   20  O2  UNL     1      28.322  48.842  44.143  1.00  0.00    -0.399 OA
ATOM     21  H2  UNL     1      28.084  47.953  43.908  1.00  0.00     0.209 HD
ENDBRANCH  19  20
ENDBRANCH  18  19
ENDBRANCH  15  18
ENDBRANCH  14  15
ENDBRANCH   1  14
BRANCH   1  22
HETATM   22  O3  UNL     1      28.457  43.978  44.741  1.00  0.00    -0.370 OA
BRANCH  22  23
HETATM   23  C15 UNL     1      28.599  43.468  43.438  1.00  0.00     0.187 C 
HETATM   24  C16 UNL     1      28.700  41.981  43.416  1.00  0.00     0.180 C 
HETATM   25  C17 UNL     1      29.322  41.406  42.186  1.00  0.00     0.183 C 
HETATM   26  C18 UNL     1      30.593  42.109  41.780  1.00  0.00     0.240 C 
HETATM   27  C19 UNL     1      30.462  42.614  40.385  1.00  0.00     0.007 C 
HETATM   28  N3  UNL     1      30.841  43.261  42.630  1.00  0.00    -0.056 N 
HETATM   29  C20 UNL     1      29.853  43.758  40.205  1.00  0.00     0.005 C 
HETATM   30  C21 UNL     1      29.277  44.599  41.296  1.00  0.00     0.174 C 
HETATM   31  C22 UNL     1      29.702  44.142  42.657  1.00  0.00     0.250 C 
ATOM     32  H32 UNL     1      31.121  42.980  43.570  1.00  0.00     0.278 HD
ATOM     33  H31 UNL     1      31.690  43.755  42.355  1.00  0.00     0.278 HD
BRANCH  24  34
HETATM   34  O4  UNL     1      27.407  41.417  43.499  1.00  0.00    -0.390 OA
ATOM     35  H4  UNL     1      26.758  42.075  43.282  1.00  0.00     0.210 HD
ENDBRANCH  24  34
BRANCH  25  36
HETATM   36  O5  UNL     1      28.409  41.307  41.127  1.00  0.00    -0.390 OA
ATOM     37  H5  UNL     1      28.270  40.407  40.856  1.00  0.00     0.210 HD
ENDBRANCH  25  36
BRANCH  30  38
HETATM   38  O6  UNL     1      27.924  44.670  41.102  1.00  0.00    -0.390 OA
ATOM     39  H6  UNL     1      27.510  44.066  41.706  1.00  0.00     0.210 HD
ENDBRANCH  30  38
ENDBRANCH  22  23
ENDBRANCH   1  22
TORSDOF 15
ENDMDL
MODEL 2
REMARK VINA RESULT: -6.153469800      1.729      5.473
REMARK  15 active torsions:
REMARK  status: ('A' for Active; 'I' for Inactive)
REMARK    1  A    between atoms: C2_2  and  N1_4 
REMARK    2  A    between atoms: N1_4  and  C4_7 
REMARK    3  A    between atoms: C4_7  and  O1_8 
REMARK    4  A    between atoms: C4_7  and  C9_13 
REMARK    5  A    between atoms: O1_8  and  C5_9 
REMARK    6  A    between atoms: C9_13  and  C10_14 
REMARK    7  A    between atoms: C9_13  and  O3_22 
REMARK    8  A    between atoms: C10_14  and  N2_15 
REMARK    9  A    between atoms: N2_15  and  C11_16 
REMARK   10  A    between atoms: C11_16  and  C12_17 
REMARK   11  A    between atoms: C12_17  and  O2_18 
REMARK   12  A    between atoms: O3_22  and  C15_23 
REMARK   13  A    between atoms: C16_24  and  O4_25 
REMARK   14  A    between atoms: C17_27  and  O5_28 
REMARK   15  A    between atoms: C21_33  and  O6_34 
ROOT
HETATM    1  C9  UNL     1      27.967  45.398  44.439  1.00  0.00     0.204 C 
ENDROOT
BRANCH   1   2
HETATM    2  C4  UNL     1      27.966  44.437  43.293  1.00  0.00     0.353 C 
BRANCH   2   3
HETATM    3  N1  UNL     1      28.451  45.032  42.068  1.00  0.00    -0.043 N 
ATOM      4  H12 UNL     1      28.555  46.041  42.179  1.00  0.00     0.280 HD
ATOM      5  H11 UNL     1      27.727  45.009  41.351  1.00  0.00     0.280 HD
BRANCH   3   6
HETATM    6  C2  UNL     1      29.659  44.458  41.573  1.00  0.00     0.181 C 
HETATM    7  C1  UNL     1      30.059  43.278  42.455  1.00  0.00     0.039 C 
HETATM    8  C3  UNL     1      29.412  43.901  40.187  1.00  0.00     0.039 C 
ENDBRANCH   3   6
ENDBRANCH   2   3
BRANCH   2   9
HETATM    9  O1  UNL     1      26.701  43.994  43.052  1.00  0.00    -0.347 OA
BRANCH   9  10
HETATM   10  C5  UNL     1      26.416  42.680  43.100  1.00  0.00     0.053 C 
HETATM   11  C6  UNL     1      24.908  42.579  43.414  1.00  0.00     0.045 C 
HETATM   12  C7  UNL     1      27.092  41.841  44.125  1.00  0.00     0.045 C 
HETATM   13  C8  UNL     1      26.567  41.978  41.747  1.00  0.00     0.045 C 
ENDBRANCH   9  10
ENDBRANCH   2   9
ENDBRANCH   1   2
BRANCH   1  14
HETATM   14  C10 UNL     1      29.137  45.257  45.350  1.00  0.00     0.273 C 
BRANCH  14  15
HETATM   15  N2  UNL     1      30.153  46.221  45.390  1.00  0.00    -0.059 N 
HETATM   16  C13 UNL     1      31.273  46.223  44.470  1.00  0.00     0.265 A 
HETATM   17  C14 UNL     1      31.476  45.598  45.761  1.00  0.00     0.265 A 
BRANCH  15  18
HETATM   18  C11 UNL     1      29.878  47.488  46.016  1.00  0.00     0.263 C 
BRANCH  18  19
HETATM   19  C12 UNL     1      30.357  48.692  45.237  1.00  0.00     0.192 C 
BRANCH  19  20
HETATM   20  O2  UNL     1      29.305  49.279  44.526  1.00  0.00    -0.399 OA
ATOM     21  H2  UNL     1      29.631  49.772  43.783  1.00  0.00     0.209 HD
ENDBRANCH  19  20
ENDBRANCH  18  19
ENDBRANCH  15  18
ENDBRANCH  14  15
ENDBRANCH   1  14
BRANCH   1  22
HETATM   22  O3  UNL     1      27.686  46.685  44.027  1.00  0.00    -0.370 OA
BRANCH  22  23
HETATM   23  C15 UNL     1      26.452  47.159  44.506  1.00  0.00     0.187 C 
HETATM   24  C16 UNL     1      25.972  46.398  45.695  1.00  0.00     0.180 C 
HETATM   25  C17 UNL     1      24.506  46.497  45.960  1.00  0.00     0.183 C 
HETATM   26  C18 UNL     1      23.664  46.292  44.726  1.00  0.00     0.240 C 
HETATM   27  C19 UNL     1      22.789  47.479  44.514  1.00  0.00     0.007 C 
HETATM   28  N3  UNL     1      24.501  46.163  43.545  1.00  0.00    -0.056 N 
HETATM   29  C20 UNL     1      23.304  48.517  43.907  1.00  0.00     0.005 C 
HETATM   30  C21 UNL     1      24.708  48.603  43.408  1.00  0.00     0.174 C 
HETATM   31  C22 UNL     1      25.404  47.277  43.424  1.00  0.00     0.250 C 
ATOM     32  H32 UNL     1      24.999  45.272  43.534  1.00  0.00     0.278 HD
ATOM     33  H31 UNL     1      23.942  46.040  42.701  1.00  0.00     0.278 HD
BRANCH  24  34
HETATM   34  O4  UNL     1      26.612  46.883  46.857  1.00  0.00    -0.390 OA
ATOM     35  H4  UNL     1      26.417  46.311  47.590  1.00  0.00     0.210 HD
ENDBRANCH  24  34
BRANCH  25  36
HETATM   36  O5  UNL     1      24.168  47.674  46.643  1.00  0.00    -0.390 OA
ATOM     37  H5  UNL     1      23.345  48.040  46.343  1.00  0.00     0.210 HD
ENDBRANCH  25  36
BRANCH  30  38
HETATM   38  O6  UNL     1      25.340  49.600  44.101  1.00  0.00    -0.390 OA
ATOM     39  H6  UNL     1      25.828  49.199  44.810  1.00  0.00     0.210 HD
ENDBRANCH  30  38
ENDBRANCH  22  23
ENDBRANCH   1  22
TORSDOF 15
ENDMDL
MODEL 3
REMARK VINA RESULT: -6.118374253      2.055      5.576
REMARK  15 active torsions:
REMARK  status: ('A' for Active; 'I' for Inactive)
REMARK    1  A    between atoms: C2_2  and  N1_4 
REMARK    2  A    between atoms: N1_4  and  C4_7 
REMARK    3  A    between atoms: C4_7  and  O1_8 
REMARK    4  A    between atoms: C4_7  and  C9_13 
REMARK    5  A    between atoms: O1_8  and  C5_9 
REMARK    6  A    between atoms: C9_13  and  C10_14 
REMARK    7  A    between atoms: C9_13  and  O3_22 
REMARK    8  A    between atoms: C10_14  and  N2_15 
REMARK    9  A    between atoms: N2_15  and  C11_16 
REMARK   10  A    between atoms: C11_16  and  C12_17 
REMARK   11  A    between atoms: C12_17  and  O2_18 
REMARK   12  A    between atoms: O3_22  and  C15_23 
REMARK   13  A    between atoms: C16_24  and  O4_25 
REMARK   14  A    between atoms: C17_27  and  O5_28 
REMARK   15  A    between atoms: C21_33  and  O6_34 
ROOT
HETATM    1  C9  UNL     1      27.404  44.941  43.913  1.00  0.00     0.204 C 
ENDROOT
BRANCH   1   2
HETATM    2  C4  UNL     1      26.943  44.221  42.686  1.00  0.00     0.353 C 
BRANCH   2   3
HETATM    3  N1  UNL     1      27.206  44.963  41.473  1.00  0.00    -0.043 N 
ATOM      4  H12 UNL     1      27.624  45.867  41.693  1.00  0.00     0.280 HD
ATOM      5  H11 UNL     1      26.332  45.273  41.049  1.00  0.00     0.280 HD
BRANCH   3   6
HETATM    6  C2  UNL     1      28.002  44.265  40.518  1.00  0.00     0.181 C 
HETATM    7  C1  UNL     1      28.397  42.903  41.083  1.00  0.00     0.039 C 
HETATM    8  C3  UNL     1      27.171  43.998  39.280  1.00  0.00     0.039 C 
ENDBRANCH   3   6
ENDBRANCH   2   3
BRANCH   2   9
HETATM    9  O1  UNL     1      25.599  44.008  42.743  1.00  0.00    -0.347 OA
BRANCH   9  10
HETATM   10  C5  UNL     1      25.106  42.756  42.789  1.00  0.00     0.053 C 
HETATM   11  C6  UNL     1      23.791  42.842  43.593  1.00  0.00     0.045 C 
HETATM   12  C7  UNL     1      25.911  41.698  43.455  1.00  0.00     0.045 C 
HETATM   13  C8  UNL     1      24.676  42.225  41.418  1.00  0.00     0.045 C 
ENDBRANCH   9  10
ENDBRANCH   2   9
ENDBRANCH   1   2
BRANCH   1  14
HETATM   14  C10 UNL     1      28.575  44.311  44.583  1.00  0.00     0.273 C 
BRANCH  14  15
HETATM   15  N2  UNL     1      29.864  44.848  44.462  1.00  0.00    -0.059 N 
HETATM   16  C13 UNL     1      30.497  45.093  43.181  1.00  0.00     0.265 A 
HETATM   17  C14 UNL     1      30.812  43.847  43.849  1.00  0.00     0.265 A 
BRANCH  15  18
HETATM   18  C11 UNL     1      30.402  45.606  45.561  1.00  0.00     0.263 C 
BRANCH  18  19
HETATM   19  C12 UNL     1      30.622  47.073  45.266  1.00  0.00     0.192 C 
BRANCH  19  20
HETATM   20  O2  UNL     1      29.521  47.835  45.674  1.00  0.00    -0.399 OA
ATOM     21  H2  UNL     1      29.037  48.159  44.925  1.00  0.00     0.209 HD
ENDBRANCH  19  20
ENDBRANCH  18  19
ENDBRANCH  15  18
ENDBRANCH  14  15
ENDBRANCH   1  14
BRANCH   1  22
HETATM   22  O3  UNL     1      27.501  46.302  43.701  1.00  0.00    -0.370 OA
BRANCH  22  23
HETATM   23  C15 UNL     1      26.530  47.038  44.403  1.00  0.00     0.187 C 
HETATM   24  C16 UNL     1      26.165  46.407  45.703  1.00  0.00     0.180 C 
HETATM   25  C17 UNL     1      24.847  46.828  46.263  1.00  0.00     0.183 C 
HETATM   26  C18 UNL     1      23.735  46.810  45.245  1.00  0.00     0.240 C 
HETATM   27  C19 UNL     1      23.112  48.160  45.161  1.00  0.00     0.007 C 
HETATM   28  N3  UNL     1      24.251  46.495  43.923  1.00  0.00    -0.056 N 
HETATM   29  C20 UNL     1      23.695  49.057  44.407  1.00  0.00     0.005 C 
HETATM   30  C21 UNL     1      24.944  48.828  43.622  1.00  0.00     0.174 C 
HETATM   31  C22 UNL     1      25.325  47.381  43.559  1.00  0.00     0.250 C 
ATOM     32  H32 UNL     1      24.531  45.516  43.854  1.00  0.00     0.278 HD
ATOM     33  H31 UNL     1      23.510  46.495  43.222  1.00  0.00     0.278 HD
BRANCH  24  34
HETATM   34  O4  UNL     1      27.130  46.742  46.679  1.00  0.00    -0.390 OA
ATOM     35  H4  UNL     1      27.542  45.951  47.005  1.00  0.00     0.210 HD
ENDBRANCH  24  34
BRANCH  25  36
HETATM   36  O5  UNL     1      24.927  48.053  46.941  1.00  0.00    -0.390 OA
ATOM     37  H5  UNL     1      24.397  48.726  46.529  1.00  0.00     0.210 HD
ENDBRANCH  25  36
BRANCH  30  38
HETATM   38  O6  UNL     1      25.909  49.664  44.115  1.00  0.00    -0.390 OA
ATOM     39  H6  UNL     1      26.704  49.157  44.228  1.00  0.00     0.210 HD
ENDBRANCH  30  38
ENDBRANCH  22  23
ENDBRANCH   1  22
TORSDOF 15
ENDMDL
MODEL 4
REMARK VINA RESULT: -6.031368538      1.740      5.601
REMARK  15 active torsions:
REMARK  status: ('A' for Active; 'I' for Inactive)
REMARK    1  A    between atoms: C2_2  and  N1_4 
REMARK    2  A    between atoms: N1_4  and  C4_7 
REMARK    3  A    between atoms: C4_7  and  O1_8 
REMARK    4  A    between atoms: C4_7  and  C9_13 
REMARK    5  A    between atoms: O1_8  and  C5_9 
REMARK    6  A    between atoms: C9_13  and  C10_14 
REMARK    7  A    between atoms: C9_13  and  O3_22 
REMARK    8  A    between atoms: C10_14  and  N2_15 
REMARK    9  A    between atoms: N2_15  and  C11_16 
REMARK   10  A    between atoms: C11_16  and  C12_17 
REMARK   11  A    between atoms: C12_17  and  O2_18 
REMARK   12  A    between atoms: O3_22  and  C15_23 
REMARK   13  A    between atoms: C16_24  and  O4_25 
REMARK   14  A    between atoms: C17_27  and  O5_28 
REMARK   15  A    between atoms: C21_33  and  O6_34 
ROOT
HETATM    1  C9  UNL     1      27.923  45.438  44.366  1.00  0.00     0.204 C 
ENDROOT
BRANCH   1   2
HETATM    2  C4  UNL     1      28.144  44.427  43.286  1.00  0.00     0.353 C 
BRANCH   2   3
HETATM    3  N1  UNL     1      26.959  44.191  42.493  1.00  0.00    -0.043 N 
ATOM      4  H12 UNL     1      26.127  44.496  42.998  1.00  0.00     0.280 HD
ATOM      5  H11 UNL     1      26.768  43.192  42.427  1.00  0.00     0.280 HD
BRANCH   3   6
HETATM    6  C2  UNL     1      26.995  44.777  41.193  1.00  0.00     0.181 C 
HETATM    7  C1  UNL     1      27.872  43.927  40.277  1.00  0.00     0.039 C 
HETATM    8  C3  UNL     1      25.601  44.756  40.602  1.00  0.00     0.039 C 
ENDBRANCH   3   6
ENDBRANCH   2   3
BRANCH   2   9
HETATM    9  O1  UNL     1      28.510  43.232  43.829  1.00  0.00    -0.347 OA
BRANCH   9  10
HETATM   10  C5  UNL     1      29.594  42.577  43.373  1.00  0.00     0.053 C 
HETATM   11  C6  UNL     1      30.441  42.232  44.616  1.00  0.00     0.045 C 
HETATM   12  C7  UNL     1      30.517  43.285  42.447  1.00  0.00     0.045 C 
HETATM   13  C8  UNL     1      29.262  41.216  42.753  1.00  0.00     0.045 C 
ENDBRANCH   9  10
ENDBRANCH   2   9
ENDBRANCH   1   2
BRANCH   1  14
HETATM   14  C10 UNL     1      29.011  45.491  45.381  1.00  0.00     0.273 C 
BRANCH  14  15
HETATM   15  N2  UNL     1      30.071  46.401  45.271  1.00  0.00    -0.059 N 
HETATM   16  C13 UNL     1      31.139  46.252  44.302  1.00  0.00     0.265 A 
HETATM   17  C14 UNL     1      31.381  45.753  45.641  1.00  0.00     0.265 A 
BRANCH  15  18
HETATM   18  C11 UNL     1      29.887  47.738  45.772  1.00  0.00     0.263 C 
BRANCH  18  19
HETATM   19  C12 UNL     1      30.075  48.828  44.742  1.00  0.00     0.192 C 
BRANCH  19  20
HETATM   20  O2  UNL     1      28.854  49.182  44.159  1.00  0.00    -0.399 OA
ATOM     21  H2  UNL     1      28.949  49.954  43.613  1.00  0.00     0.209 HD
ENDBRANCH  19  20
ENDBRANCH  18  19
ENDBRANCH  15  18
ENDBRANCH  14  15
ENDBRANCH   1  14
BRANCH   1  22
HETATM   22  O3  UNL     1      27.528  46.657  43.851  1.00  0.00    -0.370 OA
BRANCH  22  23
HETATM   23  C15 UNL     1      26.343  47.141  44.432  1.00  0.00     0.187 C 
HETATM   24  C16 UNL     1      25.940  46.364  45.639  1.00  0.00     0.180 C 
HETATM   25  C17 UNL     1      24.500  46.482  46.016  1.00  0.00     0.183 C 
HETATM   26  C18 UNL     1      23.564  46.319  44.845  1.00  0.00     0.240 C 
HETATM   27  C19 UNL     1      22.698  47.525  44.725  1.00  0.00     0.007 C 
HETATM   28  N3  UNL     1      24.307  46.200  43.602  1.00  0.00    -0.056 N 
HETATM   29  C20 UNL     1      23.185  48.567  44.101  1.00  0.00     0.005 C 
HETATM   30  C21 UNL     1      24.549  48.639  43.499  1.00  0.00     0.174 C 
HETATM   31  C22 UNL     1      25.220  47.301  43.435  1.00  0.00     0.250 C 
ATOM     32  H32 UNL     1      24.785  45.302  43.536  1.00  0.00     0.278 HD
ATOM     33  H31 UNL     1      23.684  46.105  42.801  1.00  0.00     0.278 HD
BRANCH  24  34
HETATM   34  O4  UNL     1      26.676  46.812  46.759  1.00  0.00    -0.390 OA
ATOM     35  H4  UNL     1      27.163  46.087  47.130  1.00  0.00     0.210 HD
ENDBRANCH  24  34
BRANCH  25  36
HETATM   36  O5  UNL     1      24.238  47.650  46.747  1.00  0.00    -0.390 OA
ATOM     37  H5  UNL     1      23.444  48.083  46.457  1.00  0.00     0.210 HD
ENDBRANCH  25  36
BRANCH  30  38
HETATM   38  O6  UNL     1      25.250  49.610  44.162  1.00  0.00    -0.390 OA
ATOM     39  H6  UNL     1      24.959  49.615  45.066  1.00  0.00     0.210 HD
ENDBRANCH  30  38
ENDBRANCH  22  23
ENDBRANCH   1  22
TORSDOF 15
ENDMDL
MODEL 5
REMARK VINA RESULT: -5.935821773      1.979      6.468
REMARK  15 active torsions:
REMARK  status: ('A' for Active; 'I' for Inactive)
REMARK    1  A    between atoms: C2_2  and  N1_4 
REMARK    2  A    between atoms: N1_4  and  C4_7 
REMARK    3  A    between atoms: C4_7  and  O1_8 
REMARK    4  A    between atoms: C4_7  and  C9_13 
REMARK    5  A    between atoms: O1_8  and  C5_9 
REMARK    6  A    between atoms: C9_13  and  C10_14 
REMARK    7  A    between atoms: C9_13  and  O3_22 
REMARK    8  A    between atoms: C10_14  and  N2_15 
REMARK    9  A    between atoms: N2_15  and  C11_16 
REMARK   10  A    between atoms: C11_16  and  C12_17 
REMARK   11  A    between atoms: C12_17  and  O2_18 
REMARK   12  A    between atoms: O3_22  and  C15_23 
REMARK   13  A    between atoms: C16_24  and  O4_25 
REMARK   14  A    between atoms: C17_27  and  O5_28 
REMARK   15  A    between atoms: C21_33  and  O6_34 
ROOT
HETATM    1  C9  UNL     1      27.950  45.569  43.604  1.00  0.00     0.204 C 
ENDROOT
BRANCH   1   2
HETATM    2  C4  UNL     1      29.184  45.064  44.281  1.00  0.00     0.353 C 
BRANCH   2   3
HETATM    3  N1  UNL     1      29.043  43.705  44.754  1.00  0.00    -0.043 N 
ATOM      4  H12 UNL     1      28.165  43.303  44.424  1.00  0.00     0.280 HD
ATOM      5  H11 UNL     1      28.872  43.694  45.759  1.00  0.00     0.280 HD
BRANCH   3   6
HETATM    6  C2  UNL     1      30.136  42.851  44.426  1.00  0.00     0.181 C 
HETATM    7  C1  UNL     1      29.604  41.486  43.995  1.00  0.00     0.039 C 
HETATM    8  C3  UNL     1      30.875  43.425  43.235  1.00  0.00     0.039 C 
ENDBRANCH   3   6
ENDBRANCH   2   3
BRANCH   2   9
HETATM    9  O1  UNL     1      29.477  45.838  45.364  1.00  0.00    -0.347 OA
BRANCH   9  10
HETATM   10  C5  UNL     1      30.608  46.566  45.398  1.00  0.00     0.053 C 
HETATM   11  C6  UNL     1      30.209  47.952  45.948  1.00  0.00     0.045 C 
HETATM   12  C7  UNL     1      31.321  46.835  44.121  1.00  0.00     0.045 C 
HETATM   13  C8  UNL     1      31.635  46.041  46.406  1.00  0.00     0.045 C 
ENDBRANCH   9  10
ENDBRANCH   2   9
ENDBRANCH   1   2
BRANCH   1  14
HETATM   14  C10 UNL     1      27.905  45.295  42.141  1.00  0.00     0.273 C 
BRANCH  14  15
HETATM   15  N2  UNL     1      27.381  44.097  41.637  1.00  0.00    -0.059 N 
HETATM   16  C13 UNL     1      28.202  43.083  41.006  1.00  0.00     0.265 A 
HETATM   17  C14 UNL     1      27.531  44.029  40.138  1.00  0.00     0.265 A 
BRANCH  15  18
HETATM   18  C11 UNL     1      26.119  43.627  42.147  1.00  0.00     0.263 C 
BRANCH  18  19
HETATM   19  C12 UNL     1      26.185  42.297  42.862  1.00  0.00     0.192 C 
BRANCH  19  20
HETATM   20  O2  UNL     1      26.187  42.475  44.250  1.00  0.00    -0.399 OA
ATOM     21  H2  UNL     1      26.615  41.747  44.685  1.00  0.00     0.209 HD
ENDBRANCH  19  20
ENDBRANCH  18  19
ENDBRANCH  15  18
ENDBRANCH  14  15
ENDBRANCH   1  14
BRANCH   1  22
HETATM   22  O3  UNL     1      26.809  45.238  44.308  1.00  0.00    -0.370 OA
BRANCH  22  23
HETATM   23  C15 UNL     1      26.118  46.362  44.794  1.00  0.00     0.187 C 
HETATM   24  C16 UNL     1      25.698  46.202  46.215  1.00  0.00     0.180 C 
HETATM   25  C17 UNL     1      24.580  47.091  46.649  1.00  0.00     0.183 C 
HETATM   26  C18 UNL     1      23.429  47.117  45.674  1.00  0.00     0.240 C 
HETATM   27  C19 UNL     1      23.173  48.518  45.240  1.00  0.00     0.007 C 
HETATM   28  N3  UNL     1      23.746  46.351  44.481  1.00  0.00    -0.056 N 
HETATM   29  C20 UNL     1      23.912  49.003  44.275  1.00  0.00     0.005 C 
HETATM   30  C21 UNL     1      24.997  48.256  43.574  1.00  0.00     0.174 C 
HETATM   31  C22 UNL     1      24.984  46.792  43.893  1.00  0.00     0.250 C 
ATOM     32  H32 UNL     1      23.757  45.348  44.670  1.00  0.00     0.278 HD
ATOM     33  H31 UNL     1      22.982  46.374  43.806  1.00  0.00     0.278 HD
BRANCH  24  34
HETATM   34  O4  UNL     1      26.786  46.499  47.066  1.00  0.00    -0.390 OA
ATOM     35  H4  UNL     1      26.532  47.174  47.685  1.00  0.00     0.210 HD
ENDBRANCH  24  34
BRANCH  25  36
HETATM   36  O5  UNL     1      25.024  48.379  46.980  1.00  0.00    -0.390 OA
ATOM     37  H5  UNL     1      24.327  48.918  47.335  1.00  0.00     0.210 HD
ENDBRANCH  25  36
BRANCH  30  38
HETATM   38  O6  UNL     1      26.180  48.896  43.827  1.00  0.00    -0.390 OA
ATOM     39  H6  UNL     1      26.686  48.902  43.024  1.00  0.00     0.210 HD
ENDBRANCH  30  38
ENDBRANCH  22  23
ENDBRANCH   1  22
TORSDOF 15
ENDMDL
