MODEL 1
REMARK VINA RESULT: -9.646220160      0.000      0.000
REMARK  14 active torsions:
REMARK  status: ('A' for Active; 'I' for Inactive)
REMARK    1  A    between atoms: C2_2  and  C3_3 
REMARK    2  A    between atoms: C3_3  and  O1_4 
REMARK    3  A    between atoms: C5_7  and  C6_8 
REMARK    4  A    between atoms: C6_8  and  C7_9 
REMARK    5  A    between atoms: C7_9  and  C8_10 
REMARK    6  A    between atoms: C8_10  and  C9_11 
REMARK    7  A    between atoms: C9_11  and  C10_12 
REMARK    8  A    between atoms: C10_12  and  O3_14 
REMARK    9  A    between atoms: O3_14  and  C11_15 
REMARK   10  A    between atoms: C12_17  and  C13_18 
REMARK   11  A    between atoms: C13_18  and  O5_19 
REMARK   12  A    between atoms: C14_21  and  O6_22 
REMARK   13  A    between atoms: C15_24  and  O7_25 
REMARK   14  A    between atoms: C16_27  and  O8_28 
ROOT
HETATM    1  C9  UNL     1      31.710  46.678  45.034  1.00  0.00     0.111 C 
ENDROOT
BRANCH   1   2
HETATM    2  C8  UNL     1      32.123  47.710  46.023  1.00  0.00     0.010 C 
BRANCH   2   3
HETATM    3  C7  UNL     1      32.579  47.076  47.304  1.00  0.00     0.001 C 
BRANCH   3   4
HETATM    4  C6  UNL     1      33.974  46.597  47.181  1.00  0.00     0.005 C 
BRANCH   4   5
HETATM    5  C5  UNL     1      35.023  47.680  47.105  1.00  0.00    -0.004 C 
HETATM    6  C4  UNL     1      35.484  47.952  45.697  1.00  0.00     0.021 C 
HETATM    7  C2  UNL     1      37.011  48.113  45.758  1.00  0.00     0.001 C 
HETATM    8  C1  UNL     1      37.709  46.854  45.361  1.00  0.00     0.022 C 
HETATM    9  C18 UNL     1      37.235  48.303  47.242  1.00  0.00    -0.068 C 
HETATM   10  C17 UNL     1      36.267  47.312  47.832  1.00  0.00     0.028 C 
HETATM   11  C19 UNL     1      37.849  48.882  48.234  1.00  0.00    -0.017 C 
HETATM   12  C22 UNL     1      36.256  47.503  49.307  1.00  0.00    -0.029 A 
HETATM   13  C20 UNL     1      37.416  48.435  49.559  1.00  0.00     0.018 A 
HETATM   14  C21 UNL     1      37.482  47.033  50.011  1.00  0.00     0.019 A 
HETATM   15  C23 UNL     1      35.009  47.824  50.069  1.00  0.00     0.016 C 
BRANCH   7  16
HETATM   16  C3  UNL     1      37.445  49.334  44.999  1.00  0.00     0.177 C 
BRANCH  16  17
HETATM   17  O1  UNL     1      38.190  48.920  43.910  1.00  0.00    -0.400 OA
ATOM     18  H1  UNL     1      38.550  49.691  43.488  1.00  0.00     0.209 HD
ENDBRANCH  16  17
ENDBRANCH   7  16
ENDBRANCH   4   5
ENDBRANCH   3   4
ENDBRANCH   2   3
ENDBRANCH   1   2
BRANCH   1  19
HETATM   19  C10 UNL     1      30.508  45.945  45.566  1.00  0.00     0.261 C 
HETATM   20  O2  UNL     1      30.554  44.691  45.534  1.00  0.00    -0.265 OA
BRANCH  19  21
HETATM   21  O3  UNL     1      29.399  46.600  46.069  1.00  0.00    -0.287 OA
BRANCH  21  22
HETATM   22  C11 UNL     1      28.132  46.217  45.649  1.00  0.00     0.301 C 
HETATM   23  O4  UNL     1      27.108  46.769  46.412  1.00  0.00    -0.348 OA
HETATM   24  C12 UNL     1      25.944  46.046  46.172  1.00  0.00     0.179 C 
HETATM   25  C14 UNL     1      25.871  45.454  44.813  1.00  0.00     0.180 C 
HETATM   26  C15 UNL     1      26.611  46.217  43.757  1.00  0.00     0.183 C 
HETATM   27  C16 UNL     1      27.937  46.772  44.232  1.00  0.00     0.205 C 
BRANCH  24  28
HETATM   28  C13 UNL     1      24.768  46.936  46.507  1.00  0.00     0.198 C 
BRANCH  28  29
HETATM   29  O5  UNL     1      24.798  48.149  45.874  1.00  0.00    -0.398 OA
ATOM     30  H5  UNL     1      23.955  48.587  45.847  1.00  0.00     0.209 HD
ENDBRANCH  28  29
ENDBRANCH  24  28
BRANCH  25  31
HETATM   31  O6  UNL     1      24.538  45.350  44.395  1.00  0.00    -0.390 OA
ATOM     32  H6  UNL     1      24.180  44.503  44.636  1.00  0.00     0.210 HD
ENDBRANCH  25  31
BRANCH  26  33
HETATM   33  O7  UNL     1      25.825  47.200  43.152  1.00  0.00    -0.390 OA
ATOM     34  H7  UNL     1      25.861  47.166  42.204  1.00  0.00     0.210 HD
ENDBRANCH  26  33
BRANCH  27  35
HETATM   35  O8  UNL     1      27.803  48.143  44.335  1.00  0.00    -0.388 OA
ATOM     36  H8  UNL     1      27.240  48.322  45.078  1.00  0.00     0.210 HD
ENDBRANCH  27  35
ENDBRANCH  21  22
ENDBRANCH  19  21
ENDBRANCH   1  19
TORSDOF 14
ENDMDL
MODEL 2
REMARK VINA RESULT: -9.567615110      2.356      3.421
REMARK  14 active torsions:
REMARK  status: ('A' for Active; 'I' for Inactive)
REMARK    1  A    between atoms: C2_2  and  C3_3 
REMARK    2  A    between atoms: C3_3  and  O1_4 
REMARK    3  A    between atoms: C5_7  and  C6_8 
REMARK    4  A    between atoms: C6_8  and  C7_9 
REMARK    5  A    between atoms: C7_9  and  C8_10 
REMARK    6  A    between atoms: C8_10  and  C9_11 
REMARK    7  A    between atoms: C9_11  and  C10_12 
REMARK    8  A    between atoms: C10_12  and  O3_14 
REMARK    9  A    between atoms: O3_14  and  C11_15 
REMARK   10  A    between atoms: C12_17  and  C13_18 
REMARK   11  A    between atoms: C13_18  and  O5_19 
REMARK   12  A    between atoms: C14_21  and  O6_22 
REMARK   13  A    between atoms: C15_24  and  O7_25 
REMARK   14  A    between atoms: C16_27  and  O8_28 
ROOT
HETATM    1  C9  UNL     1      30.508  46.496  46.112  1.00  0.00     0.111 C 
ENDROOT
BRANCH   1   2
HETATM    2  C8  UNL     1      31.985  46.633  45.987  1.00  0.00     0.010 C 
BRANCH   2   3
HETATM    3  C7  UNL     1      32.599  47.045  47.291  1.00  0.00     0.001 C 
BRANCH   3   4
HETATM    4  C6  UNL     1      34.008  46.595  47.369  1.00  0.00     0.005 C 
BRANCH   4   5
HETATM    5  C5  UNL     1      35.041  47.688  47.243  1.00  0.00    -0.004 C 
HETATM    6  C4  UNL     1      35.437  47.959  45.815  1.00  0.00     0.021 C 
HETATM    7  C2  UNL     1      36.964  48.135  45.808  1.00  0.00     0.001 C 
HETATM    8  C1  UNL     1      37.657  46.881  45.387  1.00  0.00     0.022 C 
HETATM    9  C18 UNL     1      37.251  48.333  47.281  1.00  0.00    -0.068 C 
HETATM   10  C17 UNL     1      36.319  47.335  47.916  1.00  0.00     0.028 C 
HETATM   11  C19 UNL     1      37.902  48.922  48.243  1.00  0.00    -0.017 C 
HETATM   12  C22 UNL     1      36.370  47.533  49.390  1.00  0.00    -0.029 A 
HETATM   13  C20 UNL     1      37.531  48.478  49.587  1.00  0.00     0.018 A 
HETATM   14  C21 UNL     1      37.631  47.078  50.041  1.00  0.00     0.019 A 
HETATM   15  C23 UNL     1      35.154  47.844  50.204  1.00  0.00     0.016 C 
BRANCH   7  16
HETATM   16  C3  UNL     1      37.352  49.356  45.027  1.00  0.00     0.177 C 
BRANCH  16  17
HETATM   17  O1  UNL     1      38.136  48.953  43.961  1.00  0.00    -0.400 OA
ATOM     18  H1  UNL     1      38.255  49.697  43.383  1.00  0.00     0.209 HD
ENDBRANCH  16  17
ENDBRANCH   7  16
ENDBRANCH   4   5
ENDBRANCH   3   4
ENDBRANCH   2   3
ENDBRANCH   1   2
BRANCH   1  19
HETATM   19  C10 UNL     1      29.858  47.061  44.878  1.00  0.00     0.261 C 
HETATM   20  O2  UNL     1      29.911  48.307  44.735  1.00  0.00    -0.265 OA
BRANCH  19  21
HETATM   21  O3  UNL     1      29.229  46.266  43.938  1.00  0.00    -0.287 OA
BRANCH  21  22
HETATM   22  C11 UNL     1      29.371  44.886  44.008  1.00  0.00     0.301 C 
HETATM   23  O4  UNL     1      28.273  44.193  43.505  1.00  0.00    -0.348 OA
HETATM   24  C12 UNL     1      28.339  42.880  43.960  1.00  0.00     0.179 C 
HETATM   25  C14 UNL     1      29.721  42.389  44.187  1.00  0.00     0.180 C 
HETATM   26  C15 UNL     1      30.762  43.022  43.315  1.00  0.00     0.183 C 
HETATM   27  C16 UNL     1      30.550  44.505  43.103  1.00  0.00     0.205 C 
BRANCH  24  28
HETATM   28  C13 UNL     1      27.541  42.019  43.006  1.00  0.00     0.198 C 
BRANCH  28  29
HETATM   29  O5  UNL     1      27.958  42.105  41.705  1.00  0.00    -0.398 OA
ATOM     30  H5  UNL     1      28.886  42.288  41.613  1.00  0.00     0.209 HD
ENDBRANCH  28  29
ENDBRANCH  24  28
BRANCH  25  31
HETATM   31  O6  UNL     1      29.788  41.004  43.980  1.00  0.00    -0.390 OA
ATOM     32  H6  UNL     1      30.370  40.805  43.256  1.00  0.00     0.210 HD
ENDBRANCH  25  31
BRANCH  26  33
HETATM   33  O7  UNL     1      30.936  42.345  42.106  1.00  0.00    -0.390 OA
ATOM     34  H7  UNL     1      30.633  42.847  41.359  1.00  0.00     0.210 HD
ENDBRANCH  26  33
BRANCH  27  35
HETATM   35  O8  UNL     1      30.149  44.687  41.795  1.00  0.00    -0.388 OA
ATOM     36  H8  UNL     1      30.928  44.686  41.252  1.00  0.00     0.210 HD
ENDBRANCH  27  35
ENDBRANCH  21  22
ENDBRANCH  19  21
ENDBRANCH   1  19
TORSDOF 14
ENDMDL
MODEL 3
REMARK VINA RESULT: -9.566682789      2.405      3.575
REMARK  14 active torsions:
REMARK  status: ('A' for Active; 'I' for Inactive)
REMARK    1  A    between atoms: C2_2  and  C3_3 
REMARK    2  A    between atoms: C3_3  and  O1_4 
REMARK    3  A    between atoms: C5_7  and  C6_8 
REMARK    4  A    between atoms: C6_8  and  C7_9 
REMARK    5  A    between atoms: C7_9  and  C8_10 
REMARK    6  A    between atoms: C8_10  and  C9_11 
REMARK    7  A    between atoms: C9_11  and  C10_12 
REMARK    8  A    between atoms: C10_12  and  O3_14 
REMARK    9  A    between atoms: O3_14  and  C11_15 
REMARK   10  A    between atoms: C12_17  and  C13_18 
REMARK   11  A    between atoms: C13_18  and  O5_19 
REMARK   12  A    between atoms: C14_21  and  O6_22 
REMARK   13  A    between atoms: C15_24  and  O7_25 
REMARK   14  A    between atoms: C16_27  and  O8_28 
ROOT
HETATM    1  C9  UNL     1      30.700  47.302  45.327  1.00  0.00     0.111 C 
ENDROOT
BRANCH   1   2
HETATM    2  C8  UNL     1      32.108  46.886  45.564  1.00  0.00     0.010 C 
BRANCH   2   3
HETATM    3  C7  UNL     1      32.485  47.056  47.006  1.00  0.00     0.001 C 
BRANCH   3   4
HETATM    4  C6  UNL     1      33.874  46.599  47.239  1.00  0.00     0.005 C 
BRANCH   4   5
HETATM    5  C5  UNL     1      34.926  47.680  47.177  1.00  0.00    -0.004 C 
HETATM    6  C4  UNL     1      35.371  47.986  45.771  1.00  0.00     0.021 C 
HETATM    7  C2  UNL     1      36.899  48.139  45.816  1.00  0.00     0.001 C 
HETATM    8  C1  UNL     1      37.587  46.887  45.380  1.00  0.00     0.022 C 
HETATM    9  C18 UNL     1      37.142  48.290  47.302  1.00  0.00    -0.068 C 
HETATM   10  C17 UNL     1      36.177  47.288  47.879  1.00  0.00     0.028 C 
HETATM   11  C19 UNL     1      37.772  48.841  48.301  1.00  0.00    -0.017 C 
HETATM   12  C22 UNL     1      36.185  47.443  49.359  1.00  0.00    -0.029 A 
HETATM   13  C20 UNL     1      37.352  48.363  49.619  1.00  0.00     0.018 A 
HETATM   14  C21 UNL     1      37.418  46.950  50.035  1.00  0.00     0.019 A 
HETATM   15  C23 UNL     1      34.949  47.749  50.144  1.00  0.00     0.016 C 
BRANCH   7  16
HETATM   16  C3  UNL     1      37.329  49.376  45.083  1.00  0.00     0.177 C 
BRANCH  16  17
HETATM   17  O1  UNL     1      38.084  48.988  43.991  1.00  0.00    -0.400 OA
ATOM     18  H1  UNL     1      38.513  49.759  43.640  1.00  0.00     0.209 HD
ENDBRANCH  16  17
ENDBRANCH   7  16
ENDBRANCH   4   5
ENDBRANCH   3   4
ENDBRANCH   2   3
ENDBRANCH   1   2
BRANCH   1  19
HETATM   19  C10 UNL     1      29.789  46.148  45.648  1.00  0.00     0.261 C 
HETATM   20  O2  UNL     1      28.695  46.430  46.195  1.00  0.00    -0.265 OA
BRANCH  19  21
HETATM   21  O3  UNL     1      30.121  44.837  45.364  1.00  0.00    -0.287 OA
BRANCH  21  22
HETATM   22  C11 UNL     1      29.448  44.167  44.350  1.00  0.00     0.301 C 
HETATM   23  O4  UNL     1      29.714  44.675  43.082  1.00  0.00    -0.348 OA
HETATM   24  C12 UNL     1      28.732  44.214  42.210  1.00  0.00     0.179 C 
HETATM   25  C14 UNL     1      28.172  42.890  42.580  1.00  0.00     0.180 C 
HETATM   26  C15 UNL     1      29.116  41.994  43.320  1.00  0.00     0.183 C 
HETATM   27  C16 UNL     1      29.969  42.725  44.335  1.00  0.00     0.205 C 
BRANCH  24  28
HETATM   28  C13 UNL     1      29.298  44.260  40.809  1.00  0.00     0.198 C 
BRANCH  28  29
HETATM   29  O5  UNL     1      30.488  43.596  40.673  1.00  0.00    -0.398 OA
ATOM     30  H5  UNL     1      30.397  42.719  40.318  1.00  0.00     0.209 HD
ENDBRANCH  28  29
ENDBRANCH  24  28
BRANCH  25  31
HETATM   31  O6  UNL     1      27.752  42.200  41.435  1.00  0.00    -0.390 OA
ATOM     32  H6  UNL     1      27.014  41.637  41.638  1.00  0.00     0.210 HD
ENDBRANCH  25  31
BRANCH  26  33
HETATM   33  O7  UNL     1      29.888  41.204  42.468  1.00  0.00    -0.390 OA
ATOM     34  H7  UNL     1      29.363  40.621  41.932  1.00  0.00     0.210 HD
ENDBRANCH  26  33
BRANCH  27  35
HETATM   35  O8  UNL     1      31.262  42.752  43.851  1.00  0.00    -0.388 OA
ATOM     36  H8  UNL     1      31.792  42.200  44.414  1.00  0.00     0.210 HD
ENDBRANCH  27  35
ENDBRANCH  21  22
ENDBRANCH  19  21
ENDBRANCH   1  19
TORSDOF 14
ENDMDL
MODEL 4
REMARK VINA RESULT: -9.476153624      1.811      3.064
REMARK  14 active torsions:
REMARK  status: ('A' for Active; 'I' for Inactive)
REMARK    1  A    between atoms: C2_2  and  C3_3 
REMARK    2  A    between atoms: C3_3  and  O1_4 
REMARK    3  A    between atoms: C5_7  and  C6_8 
REMARK    4  A    between atoms: C6_8  and  C7_9 
REMARK    5  A    between atoms: C7_9  and  C8_10 
REMARK    6  A    between atoms: C8_10  and  C9_11 
REMARK    7  A    between atoms: C9_11  and  C10_12 
REMARK    8  A    between atoms: C10_12  and  O3_14 
REMARK    9  A    between atoms: O3_14  and  C11_15 
REMARK   10  A    between atoms: C12_17  and  C13_18 
REMARK   11  A    between atoms: C13_18  and  O5_19 
REMARK   12  A    between atoms: C14_21  and  O6_22 
REMARK   13  A    between atoms: C15_24  and  O7_25 
REMARK   14  A    between atoms: C16_27  and  O8_28 
ROOT
HETATM    1  C9  UNL     1      31.491  48.687  45.937  1.00  0.00     0.111 C 
ENDROOT
BRANCH   1   2
HETATM    2  C8  UNL     1      31.756  47.623  46.942  1.00  0.00     0.010 C 
BRANCH   2   3
HETATM    3  C7  UNL     1      32.804  46.668  46.451  1.00  0.00     0.001 C 
BRANCH   3   4
HETATM    4  C6  UNL     1      33.926  46.584  47.414  1.00  0.00     0.005 C 
BRANCH   4   5
HETATM    5  C5  UNL     1      34.961  47.676  47.292  1.00  0.00    -0.004 C 
HETATM    6  C4  UNL     1      35.336  47.973  45.864  1.00  0.00     0.021 C 
HETATM    7  C2  UNL     1      36.863  48.144  45.837  1.00  0.00     0.001 C 
HETATM    8  C1  UNL     1      37.545  46.896  45.382  1.00  0.00     0.022 C 
HETATM    9  C18 UNL     1      37.173  48.313  47.309  1.00  0.00    -0.068 C 
HETATM   10  C17 UNL     1      36.248  47.307  47.939  1.00  0.00     0.028 C 
HETATM   11  C19 UNL     1      37.841  48.882  48.272  1.00  0.00    -0.017 C 
HETATM   12  C22 UNL     1      36.322  47.477  49.416  1.00  0.00    -0.029 A 
HETATM   13  C20 UNL     1      37.488  48.413  49.613  1.00  0.00     0.018 A 
HETATM   14  C21 UNL     1      37.590  47.005  50.039  1.00  0.00     0.019 A 
HETATM   15  C23 UNL     1      35.119  47.777  50.254  1.00  0.00     0.016 C 
BRANCH   7  16
HETATM   16  C3  UNL     1      37.244  49.378  45.073  1.00  0.00     0.177 C 
BRANCH  16  17
HETATM   17  O1  UNL     1      38.098  49.005  44.051  1.00  0.00    -0.400 OA
ATOM     18  H1  UNL     1      38.946  49.398  44.217  1.00  0.00     0.209 HD
ENDBRANCH  16  17
ENDBRANCH   7  16
ENDBRANCH   4   5
ENDBRANCH   3   4
ENDBRANCH   2   3
ENDBRANCH   1   2
BRANCH   1  19
HETATM   19  C10 UNL     1      30.236  48.345  45.182  1.00  0.00     0.261 C 
HETATM   20  O2  UNL     1      29.786  49.226  44.409  1.00  0.00    -0.265 OA
BRANCH  19  21
HETATM   21  O3  UNL     1      29.594  47.128  45.319  1.00  0.00    -0.287 OA
BRANCH  21  22
HETATM   22  C11 UNL     1      29.549  46.256  44.239  1.00  0.00     0.301 C 
HETATM   23  O4  UNL     1      30.236  45.066  44.462  1.00  0.00    -0.348 OA
HETATM   24  C12 UNL     1      30.457  44.450  43.235  1.00  0.00     0.179 C 
HETATM   25  C14 UNL     1      29.416  44.743  42.218  1.00  0.00     0.180 C 
HETATM   26  C15 UNL     1      28.055  45.023  42.776  1.00  0.00     0.183 C 
HETATM   27  C16 UNL     1      28.082  45.855  44.041  1.00  0.00     0.205 C 
BRANCH  24  28
HETATM   28  C13 UNL     1      30.657  42.973  43.486  1.00  0.00     0.198 C 
BRANCH  28  29
HETATM   29  O5  UNL     1      29.627  42.386  44.172  1.00  0.00    -0.398 OA
ATOM     30  H5  UNL     1      28.799  42.404  43.706  1.00  0.00     0.209 HD
ENDBRANCH  28  29
ENDBRANCH  24  28
BRANCH  25  31
HETATM   31  O6  UNL     1      29.289  43.670  41.325  1.00  0.00    -0.390 OA
ATOM     32  H6  UNL     1      28.461  43.223  41.459  1.00  0.00     0.210 HD
ENDBRANCH  25  31
BRANCH  26  33
HETATM   33  O7  UNL     1      27.289  43.866  42.934  1.00  0.00    -0.390 OA
ATOM     34  H7  UNL     1      26.389  43.981  42.655  1.00  0.00     0.210 HD
ENDBRANCH  26  33
BRANCH  27  35
HETATM   35  O8  UNL     1      27.728  45.031  45.090  1.00  0.00    -0.388 OA
ATOM     36  H8  UNL     1      27.667  44.145  44.754  1.00  0.00     0.210 HD
ENDBRANCH  27  35
ENDBRANCH  21  22
ENDBRANCH  19  21
ENDBRANCH   1  19
TORSDOF 14
ENDMDL
MODEL 5
REMARK VINA RESULT: -9.447335125      2.063      3.098
REMARK  14 active torsions:
REMARK  status: ('A' for Active; 'I' for Inactive)
REMARK    1  A    between atoms: C2_2  and  C3_3 
REMARK    2  A    between atoms: C3_3  and  O1_4 
REMARK    3  A    between atoms: C5_7  and  C6_8 
REMARK    4  A    between atoms: C6_8  and  C7_9 
REMARK    5  A    between atoms: C7_9  and  C8_10 
REMARK    6  A    between atoms: C8_10  and  C9_11 
REMARK    7  A    between atoms: C9_11  and  C10_12 
REMARK    8  A    between atoms: C10_12  and  O3_14 
REMARK    9  A    between atoms: O3_14  and  C11_15 
REMARK   10  A    between atoms: C12_17  and  C13_18 
REMARK   11  A    between atoms: C13_18  and  O5_19 
REMARK   12  A    between atoms: C14_21  and  O6_22 
REMARK   13  A    between atoms: C15_24  and  O7_25 
REMARK   14  A    between atoms: C16_27  and  O8_28 
ROOT
HETATM    1  C9  UNL     1      31.074  48.395  45.824  1.00  0.00     0.111 C 
ENDROOT
BRANCH   1   2
HETATM    2  C8  UNL     1      32.292  47.541  45.832  1.00  0.00     0.010 C 
BRANCH   2   3
HETATM    3  C7  UNL     1      32.616  47.078  47.222  1.00  0.00     0.001 C 
BRANCH   3   4
HETATM    4  C6  UNL     1      34.020  46.614  47.302  1.00  0.00     0.005 C 
BRANCH   4   5
HETATM    5  C5  UNL     1      35.064  47.698  47.190  1.00  0.00    -0.004 C 
HETATM    6  C4  UNL     1      35.513  47.935  45.772  1.00  0.00     0.021 C 
HETATM    7  C2  UNL     1      37.040  48.103  45.815  1.00  0.00     0.001 C 
HETATM    8  C1  UNL     1      37.740  46.836  45.446  1.00  0.00     0.022 C 
HETATM    9  C18 UNL     1      37.275  48.332  47.293  1.00  0.00    -0.068 C 
HETATM   10  C17 UNL     1      36.315  47.353  47.916  1.00  0.00     0.028 C 
HETATM   11  C19 UNL     1      37.896  48.938  48.264  1.00  0.00    -0.017 C 
HETATM   12  C22 UNL     1      36.315  47.583  49.386  1.00  0.00    -0.029 A 
HETATM   13  C20 UNL     1      37.474  48.525  49.604  1.00  0.00     0.018 A 
HETATM   14  C21 UNL     1      37.549  47.135  50.092  1.00  0.00     0.019 A 
HETATM   15  C23 UNL     1      35.073  47.919  50.149  1.00  0.00     0.016 C 
BRANCH   7  16
HETATM   16  C3  UNL     1      37.464  49.304  45.022  1.00  0.00     0.177 C 
BRANCH  16  17
HETATM   17  O1  UNL     1      38.155  48.862  43.909  1.00  0.00    -0.400 OA
ATOM     18  H1  UNL     1      37.615  49.022  43.144  1.00  0.00     0.209 HD
ENDBRANCH  16  17
ENDBRANCH   7  16
ENDBRANCH   4   5
ENDBRANCH   3   4
ENDBRANCH   2   3
ENDBRANCH   1   2
BRANCH   1  19
HETATM   19  C10 UNL     1      29.862  47.517  45.667  1.00  0.00     0.261 C 
HETATM   20  O2  UNL     1      29.224  47.246  46.713  1.00  0.00    -0.265 OA
BRANCH  19  21
HETATM   21  O3  UNL     1      29.456  47.023  44.442  1.00  0.00    -0.287 OA
BRANCH  21  22
HETATM   22  C11 UNL     1      29.181  45.668  44.309  1.00  0.00     0.301 C 
HETATM   23  O4  UNL     1      28.525  45.351  43.124  1.00  0.00    -0.348 OA
HETATM   24  C12 UNL     1      27.966  44.084  43.257  1.00  0.00     0.179 C 
HETATM   25  C14 UNL     1      28.719  43.186  44.168  1.00  0.00     0.180 C 
HETATM   26  C15 UNL     1      30.190  43.461  44.245  1.00  0.00     0.183 C 
HETATM   27  C16 UNL     1      30.528  44.936  44.245  1.00  0.00     0.205 C 
BRANCH  24  28
HETATM   28  C13 UNL     1      27.775  43.513  41.870  1.00  0.00     0.198 C 
BRANCH  28  29
HETATM   29  O5  UNL     1      28.918  43.501  41.116  1.00  0.00    -0.398 OA
ATOM     30  H5  UNL     1      28.788  43.185  40.230  1.00  0.00     0.209 HD
ENDBRANCH  28  29
ENDBRANCH  24  28
BRANCH  25  31
HETATM   31  O6  UNL     1      28.564  41.849  43.777  1.00  0.00    -0.390 OA
ATOM     32  H6  UNL     1      29.378  41.373  43.891  1.00  0.00     0.210 HD
ENDBRANCH  25  31
BRANCH  26  33
HETATM   33  O7  UNL     1      30.919  42.762  43.281  1.00  0.00    -0.390 OA
ATOM     34  H7  UNL     1      31.696  43.230  42.999  1.00  0.00     0.210 HD
ENDBRANCH  26  33
BRANCH  27  35
HETATM   35  O8  UNL     1      31.106  45.232  43.026  1.00  0.00    -0.388 OA
ATOM     36  H8  UNL     1      30.845  44.556  42.412  1.00  0.00     0.210 HD
ENDBRANCH  27  35
ENDBRANCH  21  22
ENDBRANCH  19  21
ENDBRANCH   1  19
TORSDOF 14
ENDMDL
