MODEL 1
REMARK VINA RESULT: -8.565790115      0.000      0.000
REMARK  14 active torsions:
REMARK  status: ('A' for Active; 'I' for Inactive)
REMARK    1  A    between atoms: C2_2  and  N1_5 
REMARK    2  A    between atoms: C5_6  and  C6_7 
REMARK    3  A    between atoms: C6_7  and  S1_8 
REMARK    4  A    between atoms: S1_8  and  N2_11 
REMARK    5  A    between atoms: N2_11  and  C7_13 
REMARK    6  A    between atoms: C10_16  and  N3_17 
REMARK    7  A    between atoms: N3_17  and  C11_19 
REMARK    8  A    between atoms: C11_19  and  C12_20 
REMARK    9  A    between atoms: C12_20  and  O3_21 
REMARK   10  A    between atoms: C12_20  and  C13_23 
REMARK   11  A    between atoms: C13_23  and  O4_24 
REMARK   12  A    between atoms: C17_29  and  O5_30 
REMARK   13  A    between atoms: C18_32  and  C19_33 
REMARK   14  A    between atoms: C19_33  and  O6_34 
ROOT
HETATM    1  S1  UNL     1      31.759  47.151  45.836  1.00  0.00     0.228 S 
HETATM    2  O1  UNL     1      31.336  48.595  46.127  1.00  0.00    -0.206 OA
HETATM    3  O2  UNL     1      32.113  47.226  44.332  1.00  0.00    -0.206 OA
ENDROOT
BRANCH   1   4
HETATM    4  C6  UNL     1      30.384  46.081  46.048  1.00  0.00     0.188 C 
BRANCH   4   5
HETATM    5  C5  UNL     1      30.017  45.364  44.812  1.00  0.00     0.098 C 
HETATM    6  N1  UNL     1      28.679  45.143  44.478  1.00  0.00    -0.391 N 
HETATM    7  C18 UNL     1      28.555  44.024  43.639  1.00  0.00     0.132 C 
HETATM    8  C17 UNL     1      29.961  43.422  43.526  1.00  0.00     0.144 C 
HETATM    9  C16 UNL     1      30.642  43.993  44.794  1.00  0.00     0.059 C 
BRANCH   6  10
HETATM   10  C2  UNL     1      27.706  46.135  44.457  1.00  0.00     0.018 C 
HETATM   11  C1  UNL     1      28.298  47.514  44.279  1.00  0.00     0.037 C 
HETATM   12  C3  UNL     1      26.718  45.993  43.287  1.00  0.00     0.037 C 
HETATM   13  C4  UNL     1      26.816  46.196  45.682  1.00  0.00     0.037 C 
ENDBRANCH   6  10
BRANCH   7  14
HETATM   14  C19 UNL     1      27.690  42.904  44.174  1.00  0.00     0.191 C 
BRANCH  14  15
HETATM   15  O6  UNL     1      28.203  41.651  43.847  1.00  0.00    -0.399 OA
ATOM     16  H6  UNL     1      28.046  41.014  44.534  1.00  0.00     0.209 HD
ENDBRANCH  14  15
ENDBRANCH   7  14
BRANCH   8  17
HETATM   17  O5  UNL     1      30.648  43.899  42.431  1.00  0.00    -0.393 OA
ATOM     18  H5  UNL     1      30.153  43.664  41.655  1.00  0.00     0.210 HD
ENDBRANCH   8  17
ENDBRANCH   4   5
ENDBRANCH   1   4
BRANCH   1  19
HETATM   19  N2  UNL     1      33.154  46.716  46.631  1.00  0.00    -0.315 N 
ATOM     20  H2  UNL     1      33.281  45.766  46.981  1.00  0.00     0.172 HD
BRANCH  19  21
HETATM   21  C7  UNL     1      34.176  47.711  46.815  1.00  0.00     0.093 C 
HETATM   22  C8  UNL     1      35.168  47.587  45.611  1.00  0.00     0.028 C 
HETATM   23  C9  UNL     1      36.317  48.513  45.934  1.00  0.00     0.027 C 
HETATM   24  C10 UNL     1      37.161  47.765  46.973  1.00  0.00     0.076 C 
HETATM   25  C14 UNL     1      36.276  46.980  47.882  1.00  0.00     0.027 C 
HETATM   26  C15 UNL     1      34.934  47.697  48.065  1.00  0.00     0.028 C 
BRANCH  24  27
HETATM   27  N3  UNL     1      38.083  46.958  46.275  1.00  0.00    -0.415 N 
ATOM     28  H3  UNL     1      38.332  46.029  46.614  1.00  0.00     0.153 HD
BRANCH  27  29
HETATM   29  C11 UNL     1      38.655  47.483  45.081  1.00  0.00     0.147 C 
BRANCH  29  30
HETATM   30  C12 UNL     1      39.041  46.265  44.209  1.00  0.00     0.159 C 
BRANCH  30  31
HETATM   31  O3  UNL     1      40.348  46.445  43.787  1.00  0.00    -0.392 OA
ATOM     32  H3  UNL     1      40.921  46.199  44.505  1.00  0.00     0.210 HD
ENDBRANCH  30  31
BRANCH  30  33
HETATM   33  C13 UNL     1      38.094  46.256  43.014  1.00  0.00     0.197 C 
BRANCH  33  34
HETATM   34  O4  UNL     1      38.661  46.882  41.922  1.00  0.00    -0.398 OA
ATOM     35  H4  UNL     1      38.002  47.118  41.280  1.00  0.00     0.209 HD
ENDBRANCH  33  34
ENDBRANCH  30  33
ENDBRANCH  29  30
ENDBRANCH  27  29
ENDBRANCH  24  27
ENDBRANCH  19  21
ENDBRANCH   1  19
TORSDOF 14
ENDMDL
MODEL 2
REMARK VINA RESULT: -8.488337330      1.509      2.547
REMARK  14 active torsions:
REMARK  status: ('A' for Active; 'I' for Inactive)
REMARK    1  A    between atoms: C2_2  and  N1_5 
REMARK    2  A    between atoms: C5_6  and  C6_7 
REMARK    3  A    between atoms: C6_7  and  S1_8 
REMARK    4  A    between atoms: S1_8  and  N2_11 
REMARK    5  A    between atoms: N2_11  and  C7_13 
REMARK    6  A    between atoms: C10_16  and  N3_17 
REMARK    7  A    between atoms: N3_17  and  C11_19 
REMARK    8  A    between atoms: C11_19  and  C12_20 
REMARK    9  A    between atoms: C12_20  and  O3_21 
REMARK   10  A    between atoms: C12_20  and  C13_23 
REMARK   11  A    between atoms: C13_23  and  O4_24 
REMARK   12  A    between atoms: C17_29  and  O5_30 
REMARK   13  A    between atoms: C18_32  and  C19_33 
REMARK   14  A    between atoms: C19_33  and  O6_34 
ROOT
HETATM    1  S1  UNL     1      31.691  47.263  46.039  1.00  0.00     0.228 S 
HETATM    2  O1  UNL     1      30.635  47.272  47.149  1.00  0.00    -0.206 OA
HETATM    3  O2  UNL     1      31.830  48.771  45.728  1.00  0.00    -0.206 OA
ENDROOT
BRANCH   1   4
HETATM    4  C6  UNL     1      31.051  46.444  44.625  1.00  0.00     0.188 C 
BRANCH   4   5
HETATM    5  C5  UNL     1      29.646  46.025  44.789  1.00  0.00     0.098 C 
HETATM    6  N1  UNL     1      29.117  44.971  44.041  1.00  0.00    -0.391 N 
HETATM    7  C18 UNL     1      27.724  45.097  43.921  1.00  0.00     0.132 C 
HETATM    8  C17 UNL     1      27.363  46.435  44.579  1.00  0.00     0.144 C 
HETATM    9  C16 UNL     1      28.718  47.181  44.521  1.00  0.00     0.059 C 
BRANCH   6  10
HETATM   10  C2  UNL     1      29.711  43.720  43.927  1.00  0.00     0.018 C 
HETATM   11  C1  UNL     1      30.606  43.402  45.102  1.00  0.00     0.037 C 
HETATM   12  C3  UNL     1      28.695  42.565  43.903  1.00  0.00     0.037 C 
HETATM   13  C4  UNL     1      30.538  43.505  42.676  1.00  0.00     0.037 C 
ENDBRANCH   6  10
BRANCH   7  14
HETATM   14  C19 UNL     1      27.201  45.202  42.505  1.00  0.00     0.191 C 
BRANCH  14  15
HETATM   15  O6  UNL     1      26.054  45.989  42.433  1.00  0.00    -0.399 OA
ATOM     16  H6  UNL     1      25.285  45.474  42.218  1.00  0.00     0.209 HD
ENDBRANCH  14  15
ENDBRANCH   7  14
BRANCH   8  17
HETATM   17  O5  UNL     1      27.021  46.290  45.905  1.00  0.00    -0.393 OA
ATOM     18  H5  UNL     1      26.796  45.377  46.048  1.00  0.00     0.210 HD
ENDBRANCH   8  17
ENDBRANCH   4   5
ENDBRANCH   1   4
BRANCH   1  19
HETATM   19  N2  UNL     1      33.181  46.748  46.571  1.00  0.00    -0.315 N 
ATOM     20  H2  UNL     1      33.359  45.759  46.747  1.00  0.00     0.172 HD
BRANCH  19  21
HETATM   21  C7  UNL     1      34.212  47.729  46.778  1.00  0.00     0.093 C 
HETATM   22  C8  UNL     1      35.218  47.605  45.585  1.00  0.00     0.028 C 
HETATM   23  C9  UNL     1      36.372  48.515  45.931  1.00  0.00     0.027 C 
HETATM   24  C10 UNL     1      37.195  47.747  46.974  1.00  0.00     0.076 C 
HETATM   25  C14 UNL     1      36.289  46.964  47.864  1.00  0.00     0.027 C 
HETATM   26  C15 UNL     1      34.953  47.695  48.037  1.00  0.00     0.028 C 
BRANCH  24  27
HETATM   27  N3  UNL     1      38.117  46.937  46.281  1.00  0.00    -0.415 N 
ATOM     28  H3  UNL     1      38.382  46.018  46.636  1.00  0.00     0.153 HD
BRANCH  27  29
HETATM   29  C11 UNL     1      38.665  47.443  45.067  1.00  0.00     0.147 C 
BRANCH  29  30
HETATM   30  C12 UNL     1      39.005  46.212  44.194  1.00  0.00     0.159 C 
BRANCH  30  31
HETATM   31  O3  UNL     1      40.335  46.316  43.818  1.00  0.00    -0.392 OA
ATOM     32  H3  UNL     1      40.478  45.719  43.093  1.00  0.00     0.210 HD
ENDBRANCH  30  31
BRANCH  30  33
HETATM   33  C13 UNL     1      38.100  46.272  42.969  1.00  0.00     0.197 C 
BRANCH  33  34
HETATM   34  O4  UNL     1      38.715  46.937  41.927  1.00  0.00    -0.398 OA
ATOM     35  H4  UNL     1      39.220  46.339  41.388  1.00  0.00     0.209 HD
ENDBRANCH  33  34
ENDBRANCH  30  33
ENDBRANCH  29  30
ENDBRANCH  27  29
ENDBRANCH  24  27
ENDBRANCH  19  21
ENDBRANCH   1  19
TORSDOF 14
ENDMDL
MODEL 3
REMARK VINA RESULT: -7.999108012      0.616      1.268
REMARK  14 active torsions:
REMARK  status: ('A' for Active; 'I' for Inactive)
REMARK    1  A    between atoms: C2_2  and  N1_5 
REMARK    2  A    between atoms: C5_6  and  C6_7 
REMARK    3  A    between atoms: C6_7  and  S1_8 
REMARK    4  A    between atoms: S1_8  and  N2_11 
REMARK    5  A    between atoms: N2_11  and  C7_13 
REMARK    6  A    between atoms: C10_16  and  N3_17 
REMARK    7  A    between atoms: N3_17  and  C11_19 
REMARK    8  A    between atoms: C11_19  and  C12_20 
REMARK    9  A    between atoms: C12_20  and  O3_21 
REMARK   10  A    between atoms: C12_20  and  C13_23 
REMARK   11  A    between atoms: C13_23  and  O4_24 
REMARK   12  A    between atoms: C17_29  and  O5_30 
REMARK   13  A    between atoms: C18_32  and  C19_33 
REMARK   14  A    between atoms: C19_33  and  O6_34 
ROOT
HETATM    1  S1  UNL     1      31.628  46.988  45.756  1.00  0.00     0.228 S 
HETATM    2  O1  UNL     1      31.172  48.439  45.942  1.00  0.00    -0.206 OA
HETATM    3  O2  UNL     1      32.051  46.982  44.269  1.00  0.00    -0.206 OA
ENDROOT
BRANCH   1   4
HETATM    4  C6  UNL     1      30.259  45.910  45.966  1.00  0.00     0.188 C 
BRANCH   4   5
HETATM    5  C5  UNL     1      29.939  45.143  44.747  1.00  0.00     0.098 C 
HETATM    6  N1  UNL     1      28.614  44.903  44.375  1.00  0.00    -0.391 N 
HETATM    7  C18 UNL     1      28.523  43.751  43.577  1.00  0.00     0.132 C 
HETATM    8  C17 UNL     1      29.934  43.152  43.537  1.00  0.00     0.144 C 
HETATM    9  C16 UNL     1      30.568  43.776  44.805  1.00  0.00     0.059 C 
BRANCH   6  10
HETATM   10  C2  UNL     1      27.639  45.890  44.281  1.00  0.00     0.018 C 
HETATM   11  C1  UNL     1      26.780  45.730  43.048  1.00  0.00     0.037 C 
HETATM   12  C3  UNL     1      26.637  45.866  45.447  1.00  0.00     0.037 C 
HETATM   13  C4  UNL     1      28.156  47.314  44.272  1.00  0.00     0.037 C 
ENDBRANCH   6  10
BRANCH   7  14
HETATM   14  C19 UNL     1      27.643  42.650  44.125  1.00  0.00     0.191 C 
BRANCH  14  15
HETATM   15  O6  UNL     1      28.150  41.387  43.830  1.00  0.00    -0.399 OA
ATOM     16  H6  UNL     1      28.150  40.818  44.591  1.00  0.00     0.209 HD
ENDBRANCH  14  15
ENDBRANCH   7  14
BRANCH   8  17
HETATM   17  O5  UNL     1      30.658  43.589  42.450  1.00  0.00    -0.393 OA
ATOM     18  H5  UNL     1      31.205  42.869  42.158  1.00  0.00     0.210 HD
ENDBRANCH   8  17
ENDBRANCH   4   5
ENDBRANCH   1   4
BRANCH   1  19
HETATM   19  N2  UNL     1      32.989  46.623  46.639  1.00  0.00    -0.315 N 
ATOM     20  H2  UNL     1      33.134  45.684  47.011  1.00  0.00     0.172 HD
BRANCH  19  21
HETATM   21  C7  UNL     1      33.957  47.663  46.868  1.00  0.00     0.093 C 
HETATM   22  C8  UNL     1      34.886  47.718  45.609  1.00  0.00     0.028 C 
HETATM   23  C9  UNL     1      35.991  48.684  45.962  1.00  0.00     0.027 C 
HETATM   24  C10 UNL     1      36.937  47.900  46.881  1.00  0.00     0.076 C 
HETATM   25  C14 UNL     1      36.154  46.976  47.752  1.00  0.00     0.027 C 
HETATM   26  C15 UNL     1      34.783  47.582  48.071  1.00  0.00     0.028 C 
BRANCH  24  27
HETATM   27  N3  UNL     1      37.866  47.225  46.062  1.00  0.00    -0.415 N 
ATOM     28  H3  UNL     1      38.100  46.246  46.227  1.00  0.00     0.153 HD
BRANCH  27  29
HETATM   29  C11 UNL     1      38.469  47.956  44.999  1.00  0.00     0.147 C 
BRANCH  29  30
HETATM   30  C12 UNL     1      38.777  46.930  43.883  1.00  0.00     0.159 C 
BRANCH  30  31
HETATM   31  O3  UNL     1      37.620  46.206  43.644  1.00  0.00    -0.392 OA
ATOM     32  H3  UNL     1      37.089  46.703  43.033  1.00  0.00     0.210 HD
ENDBRANCH  30  31
BRANCH  30  33
HETATM   33  C13 UNL     1      39.877  46.015  44.411  1.00  0.00     0.197 C 
BRANCH  33  34
HETATM   34  O4  UNL     1      40.847  46.735  45.079  1.00  0.00    -0.398 OA
ATOM     35  H4  UNL     1      41.719  46.466  44.814  1.00  0.00     0.209 HD
ENDBRANCH  33  34
ENDBRANCH  30  33
ENDBRANCH  29  30
ENDBRANCH  27  29
ENDBRANCH  24  27
ENDBRANCH  19  21
ENDBRANCH   1  19
TORSDOF 14
ENDMDL
MODEL 4
REMARK VINA RESULT: -7.824403863      3.317      4.616
REMARK  14 active torsions:
REMARK  status: ('A' for Active; 'I' for Inactive)
REMARK    1  A    between atoms: C2_2  and  N1_5 
REMARK    2  A    between atoms: C5_6  and  C6_7 
REMARK    3  A    between atoms: C6_7  and  S1_8 
REMARK    4  A    between atoms: S1_8  and  N2_11 
REMARK    5  A    between atoms: N2_11  and  C7_13 
REMARK    6  A    between atoms: C10_16  and  N3_17 
REMARK    7  A    between atoms: N3_17  and  C11_19 
REMARK    8  A    between atoms: C11_19  and  C12_20 
REMARK    9  A    between atoms: C12_20  and  O3_21 
REMARK   10  A    between atoms: C12_20  and  C13_23 
REMARK   11  A    between atoms: C13_23  and  O4_24 
REMARK   12  A    between atoms: C17_29  and  O5_30 
REMARK   13  A    between atoms: C18_32  and  C19_33 
REMARK   14  A    between atoms: C19_33  and  O6_34 
ROOT
HETATM    1  S1  UNL     1      30.581  47.924  45.510  1.00  0.00     0.228 S 
HETATM    2  O1  UNL     1      29.758  47.714  46.785  1.00  0.00    -0.206 OA
HETATM    3  O2  UNL     1      29.887  49.159  44.889  1.00  0.00    -0.206 OA
ENDROOT
BRANCH   1   4
HETATM    4  C6  UNL     1      30.368  46.549  44.439  1.00  0.00     0.188 C 
BRANCH   4   5
HETATM    5  C5  UNL     1      29.073  45.869  44.627  1.00  0.00     0.098 C 
HETATM    6  N1  UNL     1      28.772  44.692  43.938  1.00  0.00    -0.391 N 
HETATM    7  C18 UNL     1      27.383  44.531  43.813  1.00  0.00     0.132 C 
HETATM    8  C17 UNL     1      26.756  45.803  44.398  1.00  0.00     0.144 C 
HETATM    9  C16 UNL     1      27.936  46.800  44.298  1.00  0.00     0.059 C 
BRANCH   6  10
HETATM   10  C2  UNL     1      29.604  43.580  43.892  1.00  0.00     0.018 C 
HETATM   11  C1  UNL     1      30.522  43.601  42.693  1.00  0.00     0.037 C 
HETATM   12  C3  UNL     1      30.556  43.484  45.097  1.00  0.00     0.037 C 
HETATM   13  C4  UNL     1      28.897  42.240  43.878  1.00  0.00     0.037 C 
ENDBRANCH   6  10
BRANCH   7  14
HETATM   14  C19 UNL     1      26.863  44.453  42.394  1.00  0.00     0.191 C 
BRANCH  14  15
HETATM   15  O6  UNL     1      25.611  45.050  42.267  1.00  0.00    -0.399 OA
ATOM     16  H6  UNL     1      25.595  45.923  42.641  1.00  0.00     0.209 HD
ENDBRANCH  14  15
ENDBRANCH   7  14
BRANCH   8  17
HETATM   17  O5  UNL     1      26.436  45.664  45.730  1.00  0.00    -0.393 OA
ATOM     18  H5  UNL     1      26.349  44.735  45.911  1.00  0.00     0.210 HD
ENDBRANCH   8  17
ENDBRANCH   4   5
ENDBRANCH   1   4
BRANCH   1  19
HETATM   19  N2  UNL     1      32.152  48.369  45.824  1.00  0.00    -0.315 N 
ATOM     20  H2  UNL     1      32.438  49.347  45.771  1.00  0.00     0.172 HD
BRANCH  19  21
HETATM   21  C7  UNL     1      33.099  47.344  46.173  1.00  0.00     0.093 C 
HETATM   22  C8  UNL     1      33.327  47.427  47.719  1.00  0.00     0.028 C 
HETATM   23  C9  UNL     1      34.454  46.468  48.015  1.00  0.00     0.027 C 
HETATM   24  C10 UNL     1      35.732  47.197  47.580  1.00  0.00     0.076 C 
HETATM   25  C14 UNL     1      35.464  48.016  46.364  1.00  0.00     0.027 C 
HETATM   26  C15 UNL     1      34.394  47.343  45.496  1.00  0.00     0.028 C 
BRANCH  24  27
HETATM   27  N3  UNL     1      36.178  47.968  48.673  1.00  0.00    -0.415 N 
ATOM     28  H3  UNL     1      36.588  48.892  48.534  1.00  0.00     0.153 HD
BRANCH  27  29
HETATM   29  C11 UNL     1      36.037  47.415  49.978  1.00  0.00     0.147 C 
BRANCH  29  30
HETATM   30  C12 UNL     1      35.957  48.613  50.954  1.00  0.00     0.159 C 
BRANCH  30  31
HETATM   31  O3  UNL     1      37.153  48.669  51.653  1.00  0.00    -0.392 OA
ATOM     32  H3  UNL     1      37.110  48.028  52.353  1.00  0.00     0.210 HD
ENDBRANCH  30  31
BRANCH  30  33
HETATM   33  C13 UNL     1      34.798  48.335  51.905  1.00  0.00     0.197 C 
BRANCH  33  34
HETATM   34  O4  UNL     1      34.008  47.303  51.441  1.00  0.00    -0.398 OA
ATOM     35  H4  UNL     1      33.184  47.262  51.912  1.00  0.00     0.209 HD
ENDBRANCH  33  34
ENDBRANCH  30  33
ENDBRANCH  29  30
ENDBRANCH  27  29
ENDBRANCH  24  27
ENDBRANCH  19  21
ENDBRANCH   1  19
TORSDOF 14
ENDMDL
MODEL 5
REMARK VINA RESULT: -7.765446951      2.739      4.029
REMARK  14 active torsions:
REMARK  status: ('A' for Active; 'I' for Inactive)
REMARK    1  A    between atoms: C2_2  and  N1_5 
REMARK    2  A    between atoms: C5_6  and  C6_7 
REMARK    3  A    between atoms: C6_7  and  S1_8 
REMARK    4  A    between atoms: S1_8  and  N2_11 
REMARK    5  A    between atoms: N2_11  and  C7_13 
REMARK    6  A    between atoms: C10_16  and  N3_17 
REMARK    7  A    between atoms: N3_17  and  C11_19 
REMARK    8  A    between atoms: C11_19  and  C12_20 
REMARK    9  A    between atoms: C12_20  and  O3_21 
REMARK   10  A    between atoms: C12_20  and  C13_23 
REMARK   11  A    between atoms: C13_23  and  O4_24 
REMARK   12  A    between atoms: C17_29  and  O5_30 
REMARK   13  A    between atoms: C18_32  and  C19_33 
REMARK   14  A    between atoms: C19_33  and  O6_34 
ROOT
HETATM    1  S1  UNL     1      30.908  47.739  45.284  1.00  0.00     0.228 S 
HETATM    2  O1  UNL     1      30.111  48.975  44.854  1.00  0.00    -0.206 OA
HETATM    3  O2  UNL     1      31.705  47.419  43.998  1.00  0.00    -0.206 OA
ENDROOT
BRANCH   1   4
HETATM    4  C6  UNL     1      29.805  46.415  45.619  1.00  0.00     0.188 C 
BRANCH   4   5
HETATM    5  C5  UNL     1      29.624  45.512  44.467  1.00  0.00     0.098 C 
HETATM    6  N1  UNL     1      28.376  44.954  44.179  1.00  0.00    -0.391 N 
HETATM    7  C18 UNL     1      28.521  43.758  43.457  1.00  0.00     0.132 C 
HETATM    8  C17 UNL     1      30.030  43.492  43.379  1.00  0.00     0.144 C 
HETATM    9  C16 UNL     1      30.551  44.330  44.573  1.00  0.00     0.059 C 
BRANCH   6  10
HETATM   10  C2  UNL     1      27.199  45.685  44.078  1.00  0.00     0.018 C 
HETATM   11  C1  UNL     1      26.460  45.405  42.790  1.00  0.00     0.037 C 
HETATM   12  C3  UNL     1      26.179  45.351  45.180  1.00  0.00     0.037 C 
HETATM   13  C4  UNL     1      27.359  47.189  44.172  1.00  0.00     0.037 C 
ENDBRANCH   6  10
BRANCH   7  14
HETATM   14  C19 UNL     1      27.938  42.528  44.115  1.00  0.00     0.191 C 
BRANCH  14  15
HETATM   15  O6  UNL     1      28.621  41.371  43.748  1.00  0.00    -0.399 OA
ATOM     16  H6  UNL     1      28.452  40.654  44.349  1.00  0.00     0.209 HD
ENDBRANCH  14  15
ENDBRANCH   7  14
BRANCH   8  17
HETATM   17  O5  UNL     1      30.593  44.004  42.231  1.00  0.00    -0.393 OA
ATOM     18  H5  UNL     1      30.521  43.342  41.554  1.00  0.00     0.210 HD
ENDBRANCH   8  17
ENDBRANCH   4   5
ENDBRANCH   1   4
BRANCH   1  19
HETATM   19  N2  UNL     1      32.028  48.075  46.466  1.00  0.00    -0.315 N 
ATOM     20  H2  UNL     1      31.930  48.899  47.060  1.00  0.00     0.172 HD
BRANCH  19  21
HETATM   21  C7  UNL     1      33.140  47.177  46.632  1.00  0.00     0.093 C 
HETATM   22  C8  UNL     1      33.582  47.256  48.131  1.00  0.00     0.028 C 
HETATM   23  C9  UNL     1      34.855  46.449  48.223  1.00  0.00     0.027 C 
HETATM   24  C10 UNL     1      35.950  47.351  47.638  1.00  0.00     0.076 C 
HETATM   25  C14 UNL     1      35.401  48.154  46.507  1.00  0.00     0.027 C 
HETATM   26  C15 UNL     1      34.310  47.363  45.776  1.00  0.00     0.028 C 
BRANCH  24  27
HETATM   27  N3  UNL     1      36.450  48.151  48.686  1.00  0.00    -0.415 N 
ATOM     28  H3  UNL     1      36.719  49.122  48.525  1.00  0.00     0.153 HD
BRANCH  27  29
HETATM   29  C11 UNL     1      36.569  47.559  49.976  1.00  0.00     0.147 C 
BRANCH  29  30
HETATM   30  C12 UNL     1      36.039  48.603  50.987  1.00  0.00     0.159 C 
BRANCH  30  31
HETATM   31  O3  UNL     1      37.031  48.818  51.930  1.00  0.00    -0.392 OA
ATOM     32  H3  UNL     1      36.650  48.680  52.789  1.00  0.00     0.210 HD
ENDBRANCH  30  31
BRANCH  30  33
HETATM   33  C13 UNL     1      34.803  47.999  51.644  1.00  0.00     0.197 C 
BRANCH  33  34
HETATM   34  O4  UNL     1      34.388  48.759  52.719  1.00  0.00    -0.398 OA
ATOM     35  H4  UNL     1      34.356  49.682  52.496  1.00  0.00     0.209 HD
ENDBRANCH  33  34
ENDBRANCH  30  33
ENDBRANCH  29  30
ENDBRANCH  27  29
ENDBRANCH  24  27
ENDBRANCH  19  21
ENDBRANCH   1  19
TORSDOF 14
ENDMDL
