MODEL 1
REMARK VINA RESULT: -8.916004680      0.000      0.000
REMARK  13 active torsions:
REMARK  status: ('A' for Active; 'I' for Inactive)
REMARK    1  A    between atoms: O1_2  and  C2_3 
REMARK    2  A    between atoms: C4_5  and  O2_6 
REMARK    3  A    between atoms: O2_6  and  C5_7 
REMARK    4  A    between atoms: C8_10  and  O3_11 
REMARK    5  A    between atoms: C9_13  and  C10_14 
REMARK    6  A    between atoms: C10_14  and  O4_15 
REMARK    7  A    between atoms: O4_15  and  C11_16 
REMARK    8  A    between atoms: C13_18  and  C14_19 
REMARK    9  A    between atoms: C14_19  and  O5_20 
REMARK   10  A    between atoms: C15_22  and  O6_23 
REMARK   11  A    between atoms: C17_26  and  N1_27 
REMARK   12  A    between atoms: C19_33  and  O8_34 
REMARK   13  A    between atoms: C21_36  and  O9_37 
ROOT
HETATM    1  C5  UNL     1      11.867 -37.103   0.444  1.00  0.00     0.267 C 
HETATM    2  C6  UNL     1      10.526 -37.471   1.046  1.00  0.00     0.064 C 
HETATM    3  C7  UNL     1      10.094 -36.383   1.998  1.00  0.00     0.039 C 
HETATM    4  C8  UNL     1      11.185 -36.048   2.990  1.00  0.00     0.149 C 
HETATM    5  C9  UNL     1      12.360 -36.941   2.653  1.00  0.00     0.177 C 
HETATM    6  O7  UNL     1      12.776 -36.626   1.386  1.00  0.00    -0.351 OA
ENDROOT
BRANCH   5   7
HETATM    7  C10 UNL     1      13.475 -36.790   3.669  1.00  0.00     0.203 C 
BRANCH   7   8
HETATM    8  O4  UNL     1      14.532 -36.082   3.117  1.00  0.00    -0.381 OA
BRANCH   8   9
HETATM    9  C11 UNL     1      15.699 -36.261   3.827  1.00  0.00     0.152 C 
HETATM   10  C12 UNL     1      15.877 -37.689   4.241  1.00  0.00     0.043 C 
HETATM   11  C13 UNL     1      17.324 -37.873   4.638  1.00  0.00     0.040 C 
HETATM   12  C15 UNL     1      18.188 -37.808   3.400  1.00  0.00     0.126 C 
HETATM   13  C16 UNL     1      17.796 -36.682   2.482  1.00  0.00     0.067 C 
HETATM   14  C17 UNL     1      16.900 -35.668   3.129  1.00  0.00     0.214 C 
BRANCH  11  15
HETATM   15  C14 UNL     1      17.441 -39.279   5.234  1.00  0.00     0.171 C 
BRANCH  15  16
HETATM   16  O5  UNL     1      17.830 -40.101   4.175  1.00  0.00    -0.400 OA
ATOM     17  H5  UNL     1      18.561 -39.655   3.763  1.00  0.00     0.209 HD
ENDBRANCH  15  16
ENDBRANCH  11  15
BRANCH  12  18
HETATM   18  O6  UNL     1      19.525 -37.789   3.754  1.00  0.00    -0.395 OA
ATOM     19  H6  UNL     1      19.738 -38.563   4.261  1.00  0.00     0.210 HD
ENDBRANCH  12  18
BRANCH  14  20
HETATM   20  N1  UNL     1      17.645 -34.757   3.978  1.00  0.00    -0.072 N 
ATOM     21  H13 UNL     1      17.022 -34.096   4.442  1.00  0.00     0.274 HD
ATOM     22  H12 UNL     1      18.014 -35.238   4.798  1.00  0.00     0.274 HD
ATOM     23  H11 UNL     1      18.387 -34.270   3.474  1.00  0.00     0.274 HD
ENDBRANCH  14  20
ENDBRANCH   8   9
ENDBRANCH   7   8
ENDBRANCH   5   7
BRANCH   4  24
HETATM   24  O3  UNL     1      11.532 -34.703   2.895  1.00  0.00    -0.393 OA
ATOM     25  H3  UNL     1      11.204 -34.222   3.647  1.00  0.00     0.210 HD
ENDBRANCH   4  24
BRANCH   1  26
HETATM   26  O2  UNL     1      11.752 -36.114  -0.541  1.00  0.00    -0.320 OA
BRANCH  26  27
HETATM   27  C4  UNL     1      12.515 -35.914  -1.650  1.00  0.00     0.077 A 
HETATM   28  C3  UNL     1      12.054 -35.541  -2.897  1.00  0.00     0.076 A 
HETATM   29  C2  UNL     1      12.883 -35.353  -3.981  1.00  0.00     0.106 A 
HETATM   30  C21 UNL     1      14.228 -35.555  -3.778  1.00  0.00     0.135 A 
HETATM   31  C19 UNL     1      14.731 -35.925  -2.565  1.00  0.00     0.106 A 
HETATM   32  C18 UNL     1      13.889 -36.106  -1.497  1.00  0.00     0.076 A 
BRANCH  29  33
HETATM   33  O1  UNL     1      12.460 -34.981  -5.245  1.00  0.00    -0.353 OA
HETATM   34  C1  UNL     1      11.090 -34.737  -5.495  1.00  0.00     0.210 C 
ENDBRANCH  29  33
BRANCH  30  35
HETATM   35  O9  UNL     1      15.103 -35.379  -4.840  1.00  0.00    -0.351 OA
HETATM   36  C22 UNL     1      15.298 -36.503  -5.711  1.00  0.00     0.210 C 
ENDBRANCH  30  35
BRANCH  31  37
HETATM   37  O8  UNL     1      16.117 -36.123  -2.395  1.00  0.00    -0.353 OA
HETATM   38  C20 UNL     1      16.664 -36.147  -1.090  1.00  0.00     0.210 C 
ENDBRANCH  31  37
ENDBRANCH  26  27
ENDBRANCH   1  26
TORSDOF 13
ENDMDL
MODEL 2
REMARK VINA RESULT: -8.879014009      2.803      5.921
REMARK  13 active torsions:
REMARK  status: ('A' for Active; 'I' for Inactive)
REMARK    1  A    between atoms: O1_2  and  C2_3 
REMARK    2  A    between atoms: C4_5  and  O2_6 
REMARK    3  A    between atoms: O2_6  and  C5_7 
REMARK    4  A    between atoms: C8_10  and  O3_11 
REMARK    5  A    between atoms: C9_13  and  C10_14 
REMARK    6  A    between atoms: C10_14  and  O4_15 
REMARK    7  A    between atoms: O4_15  and  C11_16 
REMARK    8  A    between atoms: C13_18  and  C14_19 
REMARK    9  A    between atoms: C14_19  and  O5_20 
REMARK   10  A    between atoms: C15_22  and  O6_23 
REMARK   11  A    between atoms: C17_26  and  N1_27 
REMARK   12  A    between atoms: C19_33  and  O8_34 
REMARK   13  A    between atoms: C21_36  and  O9_37 
ROOT
HETATM    1  C5  UNL     1      15.721 -37.856   3.393  1.00  0.00     0.267 C 
HETATM    2  C6  UNL     1      15.772 -36.574   4.199  1.00  0.00     0.064 C 
HETATM    3  C7  UNL     1      17.009 -35.797   3.819  1.00  0.00     0.039 C 
HETATM    4  C8  UNL     1      18.249 -36.660   3.887  1.00  0.00     0.149 C 
HETATM    5  C9  UNL     1      17.789 -38.039   4.310  1.00  0.00     0.177 C 
HETATM    6  O7  UNL     1      16.947 -38.516   3.340  1.00  0.00    -0.351 OA
ENDROOT
BRANCH   5   7
HETATM    7  C10 UNL     1      18.966 -38.964   4.544  1.00  0.00     0.203 C 
BRANCH   7   8
HETATM    8  O4  UNL     1      19.336 -38.940   5.880  1.00  0.00    -0.381 OA
BRANCH   8   9
HETATM    9  C11 UNL     1      19.265 -40.189   6.457  1.00  0.00     0.152 C 
HETATM   10  C12 UNL     1      18.772 -40.115   7.869  1.00  0.00     0.043 C 
HETATM   11  C13 UNL     1      18.344 -41.506   8.278  1.00  0.00     0.040 C 
HETATM   12  C15 UNL     1      17.079 -41.870   7.536  1.00  0.00     0.126 C 
HETATM   13  C16 UNL     1      17.136 -41.498   6.080  1.00  0.00     0.067 C 
HETATM   14  C17 UNL     1      18.521 -41.184   5.597  1.00  0.00     0.214 C 
BRANCH  11  15
HETATM   15  C14 UNL     1      18.025 -41.446   9.774  1.00  0.00     0.171 C 
BRANCH  15  16
HETATM   16  O5  UNL     1      16.751 -40.883   9.861  1.00  0.00    -0.400 OA
ATOM     17  H5  UNL     1      16.189 -41.576  10.188  1.00  0.00     0.209 HD
ENDBRANCH  15  16
ENDBRANCH  11  15
BRANCH  12  18
HETATM   18  O6  UNL     1      16.769 -43.201   7.752  1.00  0.00    -0.395 OA
ATOM     19  H6  UNL     1      16.868 -43.693   6.946  1.00  0.00     0.210 HD
ENDBRANCH  12  18
BRANCH  14  20
HETATM   20  N1  UNL     1      19.289 -42.391   5.350  1.00  0.00    -0.072 N 
ATOM     21  H13 UNL     1      20.194 -42.170   4.934  1.00  0.00     0.274 HD
ATOM     22  H12 UNL     1      19.608 -42.809   6.225  1.00  0.00     0.274 HD
ATOM     23  H11 UNL     1      18.780 -43.070   4.783  1.00  0.00     0.274 HD
ENDBRANCH  14  20
ENDBRANCH   8   9
ENDBRANCH   7   8
ENDBRANCH   5   7
BRANCH   4  24
HETATM   24  O3  UNL     1      18.882 -36.700   2.648  1.00  0.00    -0.393 OA
ATOM     25  H3  UNL     1      19.825 -36.741   2.759  1.00  0.00     0.210 HD
ENDBRANCH   4  24
BRANCH   1  26
HETATM   26  O2  UNL     1      15.327 -37.634   2.068  1.00  0.00    -0.320 OA
BRANCH  26  27
HETATM   27  C4  UNL     1      14.163 -37.111   1.595  1.00  0.00     0.077 A 
HETATM   28  C3  UNL     1      12.970 -37.025   2.286  1.00  0.00     0.076 A 
HETATM   29  C2  UNL     1      11.825 -36.481   1.746  1.00  0.00     0.106 A 
HETATM   30  C21 UNL     1      11.908 -36.010   0.456  1.00  0.00     0.135 A 
HETATM   31  C19 UNL     1      13.063 -36.073  -0.266  1.00  0.00     0.106 A 
HETATM   32  C18 UNL     1      14.193 -36.619   0.289  1.00  0.00     0.076 A 
BRANCH  29  33
HETATM   33  O1  UNL     1      10.613 -36.378   2.405  1.00  0.00    -0.353 OA
HETATM   34  C1  UNL     1      10.441 -35.428   3.438  1.00  0.00     0.210 C 
ENDBRANCH  29  33
BRANCH  30  35
HETATM   35  O9  UNL     1      10.781 -35.454  -0.130  1.00  0.00    -0.351 OA
HETATM   36  C22 UNL     1      10.034 -36.294  -1.023  1.00  0.00     0.210 C 
ENDBRANCH  30  35
BRANCH  31  37
HETATM   37  O8  UNL     1      13.109 -35.580  -1.587  1.00  0.00    -0.353 OA
HETATM   38  C20 UNL     1      14.162 -35.977  -2.444  1.00  0.00     0.210 C 
ENDBRANCH  31  37
ENDBRANCH  26  27
ENDBRANCH   1  26
TORSDOF 13
ENDMDL
MODEL 3
REMARK VINA RESULT: -8.745756980      2.848      5.738
REMARK  13 active torsions:
REMARK  status: ('A' for Active; 'I' for Inactive)
REMARK    1  A    between atoms: O1_2  and  C2_3 
REMARK    2  A    between atoms: C4_5  and  O2_6 
REMARK    3  A    between atoms: O2_6  and  C5_7 
REMARK    4  A    between atoms: C8_10  and  O3_11 
REMARK    5  A    between atoms: C9_13  and  C10_14 
REMARK    6  A    between atoms: C10_14  and  O4_15 
REMARK    7  A    between atoms: O4_15  and  C11_16 
REMARK    8  A    between atoms: C13_18  and  C14_19 
REMARK    9  A    between atoms: C14_19  and  O5_20 
REMARK   10  A    between atoms: C15_22  and  O6_23 
REMARK   11  A    between atoms: C17_26  and  N1_27 
REMARK   12  A    between atoms: C19_33  and  O8_34 
REMARK   13  A    between atoms: C21_36  and  O9_37 
ROOT
HETATM    1  C5  UNL     1      15.780 -37.364   3.057  1.00  0.00     0.267 C 
HETATM    2  C6  UNL     1      15.923 -36.245   4.070  1.00  0.00     0.064 C 
HETATM    3  C7  UNL     1      17.317 -35.673   3.986  1.00  0.00     0.039 C 
HETATM    4  C8  UNL     1      18.367 -36.759   4.060  1.00  0.00     0.149 C 
HETATM    5  C9  UNL     1      17.621 -38.070   4.181  1.00  0.00     0.177 C 
HETATM    6  O7  UNL     1      16.870 -38.231   3.047  1.00  0.00    -0.351 OA
ENDROOT
BRANCH   5   7
HETATM    7  C10 UNL     1      18.575 -39.228   4.398  1.00  0.00     0.203 C 
BRANCH   7   8
HETATM    8  O4  UNL     1      19.199 -39.108   5.630  1.00  0.00    -0.381 OA
BRANCH   8   9
HETATM    9  C11 UNL     1      19.181 -40.292   6.335  1.00  0.00     0.152 C 
HETATM   10  C12 UNL     1      18.738 -40.083   7.750  1.00  0.00     0.043 C 
HETATM   11  C13 UNL     1      18.360 -41.433   8.316  1.00  0.00     0.040 C 
HETATM   12  C15 UNL     1      17.078 -41.899   7.665  1.00  0.00     0.126 C 
HETATM   13  C16 UNL     1      17.073 -41.678   6.177  1.00  0.00     0.067 C 
HETATM   14  C17 UNL     1      18.431 -41.386   5.611  1.00  0.00     0.214 C 
BRANCH  11  15
HETATM   15  C14 UNL     1      18.095 -41.226   9.809  1.00  0.00     0.171 C 
BRANCH  15  16
HETATM   16  O5  UNL     1      16.746 -40.880   9.903  1.00  0.00    -0.400 OA
ATOM     17  H5  UNL     1      16.719 -39.935   9.810  1.00  0.00     0.209 HD
ENDBRANCH  15  16
ENDBRANCH  11  15
BRANCH  12  18
HETATM   18  O6  UNL     1      16.811 -43.207   8.027  1.00  0.00    -0.395 OA
ATOM     19  H6  UNL     1      16.146 -43.227   8.705  1.00  0.00     0.210 HD
ENDBRANCH  12  18
BRANCH  14  20
HETATM   20  N1  UNL     1      19.220 -42.596   5.459  1.00  0.00    -0.072 N 
ATOM     21  H13 UNL     1      20.144 -42.485   5.878  1.00  0.00     0.274 HD
ATOM     22  H12 UNL     1      18.861 -43.345   6.050  1.00  0.00     0.274 HD
ATOM     23  H11 UNL     1      19.291 -42.897   4.487  1.00  0.00     0.274 HD
ENDBRANCH  14  20
ENDBRANCH   8   9
ENDBRANCH   7   8
ENDBRANCH   5   7
BRANCH   4  24
HETATM   24  O3  UNL     1      19.168 -36.739   2.921  1.00  0.00    -0.393 OA
ATOM     25  H3  UNL     1      19.674 -35.936   2.886  1.00  0.00     0.210 HD
ENDBRANCH   4  24
BRANCH   1  26
HETATM   26  O2  UNL     1      15.638 -36.880   1.751  1.00  0.00    -0.320 OA
BRANCH  26  27
HETATM   27  C4  UNL     1      14.516 -36.793   0.986  1.00  0.00     0.077 A 
HETATM   28  C3  UNL     1      14.451 -36.323  -0.311  1.00  0.00     0.076 A 
HETATM   29  C2  UNL     1      13.279 -36.262  -1.032  1.00  0.00     0.106 A 
HETATM   30  C21 UNL     1      12.136 -36.697  -0.400  1.00  0.00     0.135 A 
HETATM   31  C19 UNL     1      12.150 -37.168   0.879  1.00  0.00     0.106 A 
HETATM   32  C18 UNL     1      13.328 -37.222   1.581  1.00  0.00     0.076 A 
BRANCH  29  33
HETATM   33  O1  UNL     1      13.173 -35.799  -2.331  1.00  0.00    -0.353 OA
HETATM   34  C1  UNL     1      14.297 -35.815  -3.188  1.00  0.00     0.210 C 
ENDBRANCH  29  33
BRANCH  30  35
HETATM   35  O9  UNL     1      10.931 -36.654  -1.086  1.00  0.00    -0.351 OA
HETATM   36  C22 UNL     1      10.137 -35.469  -0.926  1.00  0.00     0.210 C 
ENDBRANCH  30  35
BRANCH  31  37
HETATM   37  O8  UNL     1      10.958 -37.606   1.494  1.00  0.00    -0.353 OA
HETATM   38  C20 UNL     1      10.434 -36.885   2.593  1.00  0.00     0.210 C 
ENDBRANCH  31  37
ENDBRANCH  26  27
ENDBRANCH   1  26
TORSDOF 13
ENDMDL
MODEL 4
REMARK VINA RESULT: -8.615204309      2.643      5.499
REMARK  13 active torsions:
REMARK  status: ('A' for Active; 'I' for Inactive)
REMARK    1  A    between atoms: O1_2  and  C2_3 
REMARK    2  A    between atoms: C4_5  and  O2_6 
REMARK    3  A    between atoms: O2_6  and  C5_7 
REMARK    4  A    between atoms: C8_10  and  O3_11 
REMARK    5  A    between atoms: C9_13  and  C10_14 
REMARK    6  A    between atoms: C10_14  and  O4_15 
REMARK    7  A    between atoms: O4_15  and  C11_16 
REMARK    8  A    between atoms: C13_18  and  C14_19 
REMARK    9  A    between atoms: C14_19  and  O5_20 
REMARK   10  A    between atoms: C15_22  and  O6_23 
REMARK   11  A    between atoms: C17_26  and  N1_27 
REMARK   12  A    between atoms: C19_33  and  O8_34 
REMARK   13  A    between atoms: C21_36  and  O9_37 
ROOT
HETATM    1  C5  UNL     1      15.313 -37.740   3.441  1.00  0.00     0.267 C 
HETATM    2  C6  UNL     1      15.151 -36.325   3.960  1.00  0.00     0.064 C 
HETATM    3  C7  UNL     1      16.161 -35.430   3.285  1.00  0.00     0.039 C 
HETATM    4  C8  UNL     1      17.558 -36.003   3.374  1.00  0.00     0.149 C 
HETATM    5  C9  UNL     1      17.436 -37.315   4.119  1.00  0.00     0.177 C 
HETATM    6  O7  UNL     1      16.643 -38.148   3.374  1.00  0.00    -0.351 OA
ENDROOT
BRANCH   5   7
HETATM    7  C10 UNL     1      18.798 -37.923   4.389  1.00  0.00     0.203 C 
BRANCH   7   8
HETATM    8  O4  UNL     1      18.852 -39.216   3.893  1.00  0.00    -0.381 OA
BRANCH   8   9
HETATM    9  C11 UNL     1      19.067 -40.142   4.890  1.00  0.00     0.152 C 
HETATM   10  C12 UNL     1      19.779 -39.536   6.060  1.00  0.00     0.043 C 
HETATM   11  C13 UNL     1      19.614 -40.475   7.233  1.00  0.00     0.040 C 
HETATM   12  C15 UNL     1      18.177 -40.432   7.700  1.00  0.00     0.126 C 
HETATM   13  C16 UNL     1      17.198 -40.474   6.558  1.00  0.00     0.067 C 
HETATM   14  C17 UNL     1      17.813 -40.900   5.258  1.00  0.00     0.214 C 
BRANCH  11  15
HETATM   15  C14 UNL     1      20.501 -39.934   8.357  1.00  0.00     0.171 C 
BRANCH  15  16
HETATM   16  O5  UNL     1      20.817 -41.041   9.147  1.00  0.00    -0.400 OA
ATOM     17  H5  UNL     1      20.659 -40.766  10.043  1.00  0.00     0.209 HD
ENDBRANCH  15  16
ENDBRANCH  11  15
BRANCH  12  18
HETATM   18  O6  UNL     1      17.957 -41.414   8.649  1.00  0.00    -0.395 OA
ATOM     19  H6  UNL     1      17.266 -41.997   8.360  1.00  0.00     0.210 HD
ENDBRANCH  12  18
BRANCH  14  20
HETATM   20  N1  UNL     1      17.994 -42.339   5.196  1.00  0.00    -0.072 N 
ATOM     21  H13 UNL     1      17.375 -42.756   4.501  1.00  0.00     0.274 HD
ATOM     22  H12 UNL     1      18.894 -42.579   4.780  1.00  0.00     0.274 HD
ATOM     23  H11 UNL     1      17.879 -42.788   6.106  1.00  0.00     0.274 HD
ENDBRANCH  14  20
ENDBRANCH   8   9
ENDBRANCH   7   8
ENDBRANCH   5   7
BRANCH   4  24
HETATM   24  O3  UNL     1      18.087 -36.194   2.101  1.00  0.00    -0.393 OA
ATOM     25  H3  UNL     1      17.778 -37.014   1.733  1.00  0.00     0.210 HD
ENDBRANCH   4  24
BRANCH   1  26
HETATM   26  O2  UNL     1      14.778 -37.897   2.156  1.00  0.00    -0.320 OA
BRANCH  26  27
HETATM   27  C4  UNL     1      13.725 -37.256   1.580  1.00  0.00     0.077 A 
HETATM   28  C3  UNL     1      12.486 -37.050   2.154  1.00  0.00     0.076 A 
HETATM   29  C2  UNL     1      11.460 -36.390   1.514  1.00  0.00     0.106 A 
HETATM   30  C21 UNL     1      11.715 -35.927   0.244  1.00  0.00     0.135 A 
HETATM   31  C19 UNL     1      12.923 -36.106  -0.365  1.00  0.00     0.106 A 
HETATM   32  C18 UNL     1      13.932 -36.766   0.290  1.00  0.00     0.076 A 
BRANCH  29  33
HETATM   33  O1  UNL     1      10.207 -36.164   2.054  1.00  0.00    -0.353 OA
HETATM   34  C1  UNL     1      10.065 -35.387   3.226  1.00  0.00     0.210 C 
ENDBRANCH  29  33
BRANCH  30  35
HETATM   35  O9  UNL     1      10.713 -35.257  -0.441  1.00  0.00    -0.351 OA
HETATM   36  C22 UNL     1       9.896 -36.040  -1.324  1.00  0.00     0.210 C 
ENDBRANCH  30  35
BRANCH  31  37
HETATM   37  O8  UNL     1      13.147 -35.617  -1.669  1.00  0.00    -0.353 OA
HETATM   38  C20 UNL     1      14.314 -36.005  -2.368  1.00  0.00     0.210 C 
ENDBRANCH  31  37
ENDBRANCH  26  27
ENDBRANCH   1  26
TORSDOF 13
ENDMDL
MODEL 5
REMARK VINA RESULT: -8.595353168      3.410      9.860
REMARK  13 active torsions:
REMARK  status: ('A' for Active; 'I' for Inactive)
REMARK    1  A    between atoms: O1_2  and  C2_3 
REMARK    2  A    between atoms: C4_5  and  O2_6 
REMARK    3  A    between atoms: O2_6  and  C5_7 
REMARK    4  A    between atoms: C8_10  and  O3_11 
REMARK    5  A    between atoms: C9_13  and  C10_14 
REMARK    6  A    between atoms: C10_14  and  O4_15 
REMARK    7  A    between atoms: O4_15  and  C11_16 
REMARK    8  A    between atoms: C13_18  and  C14_19 
REMARK    9  A    between atoms: C14_19  and  O5_20 
REMARK   10  A    between atoms: C15_22  and  O6_23 
REMARK   11  A    between atoms: C17_26  and  N1_27 
REMARK   12  A    between atoms: C19_33  and  O8_34 
REMARK   13  A    between atoms: C21_36  and  O9_37 
ROOT
HETATM    1  C5  UNL     1      17.328 -38.825   3.819  1.00  0.00     0.267 C 
HETATM    2  C6  UNL     1      18.715 -38.230   3.683  1.00  0.00     0.064 C 
HETATM    3  C7  UNL     1      18.690 -36.797   4.156  1.00  0.00     0.039 C 
HETATM    4  C8  UNL     1      17.576 -36.015   3.495  1.00  0.00     0.149 C 
HETATM    5  C9  UNL     1      16.856 -36.983   2.581  1.00  0.00     0.177 C 
HETATM    6  O7  UNL     1      16.324 -37.977   3.359  1.00  0.00    -0.351 OA
ENDROOT
BRANCH   5   7
HETATM    7  C10 UNL     1      15.796 -36.277   1.759  1.00  0.00     0.203 C 
BRANCH   7   8
HETATM    8  O4  UNL     1      14.794 -35.792   2.586  1.00  0.00    -0.381 OA
BRANCH   8   9
HETATM    9  C11 UNL     1      13.593 -36.432   2.370  1.00  0.00     0.152 C 
HETATM   10  C12 UNL     1      12.458 -35.706   3.024  1.00  0.00     0.043 C 
HETATM   11  C13 UNL     1      11.174 -36.222   2.416  1.00  0.00     0.040 C 
HETATM   12  C15 UNL     1      11.069 -35.728   0.992  1.00  0.00     0.126 C 
HETATM   13  C16 UNL     1      12.364 -35.858   0.238  1.00  0.00     0.067 C 
HETATM   14  C17 UNL     1      13.360 -36.754   0.913  1.00  0.00     0.214 C 
BRANCH  11  15
HETATM   15  C14 UNL     1      10.027 -35.610   3.224  1.00  0.00     0.171 C 
BRANCH  15  16
HETATM   16  O5  UNL     1       9.690 -34.431   2.559  1.00  0.00    -0.400 OA
ATOM     17  H5  UNL     1       8.940 -34.082   3.026  1.00  0.00     0.209 HD
ENDBRANCH  15  16
ENDBRANCH  11  15
BRANCH  12  18
HETATM   18  O6  UNL     1      10.000 -36.334   0.357  1.00  0.00    -0.395 OA
ATOM     19  H6  UNL     1      10.175 -37.260   0.238  1.00  0.00     0.210 HD
ENDBRANCH  12  18
BRANCH  14  20
HETATM   20  N1  UNL     1      13.056 -38.156   0.693  1.00  0.00    -0.072 N 
ATOM     21  H13 UNL     1      13.133 -38.397  -0.296  1.00  0.00     0.274 HD
ATOM     22  H12 UNL     1      13.794 -38.754   1.065  1.00  0.00     0.274 HD
ATOM     23  H11 UNL     1      12.145 -38.423   1.066  1.00  0.00     0.274 HD
ENDBRANCH  14  20
ENDBRANCH   8   9
ENDBRANCH   7   8
ENDBRANCH   5   7
BRANCH   4  24
HETATM   24  O3  UNL     1      16.714 -35.493   4.456  1.00  0.00    -0.393 OA
ATOM     25  H3  UNL     1      16.084 -36.151   4.728  1.00  0.00     0.210 HD
ENDBRANCH   4  24
BRANCH   1  26
HETATM   26  O2  UNL     1      17.014 -39.138   5.147  1.00  0.00    -0.320 OA
BRANCH  26  27
HETATM   27  C4  UNL     1      17.503 -40.135   5.933  1.00  0.00     0.077 A 
HETATM   28  C3  UNL     1      17.306 -41.489   5.746  1.00  0.00     0.076 A 
HETATM   29  C2  UNL     1      17.832 -42.449   6.582  1.00  0.00     0.106 A 
HETATM   30  C21 UNL     1      18.585 -42.005   7.644  1.00  0.00     0.135 A 
HETATM   31  C19 UNL     1      18.808 -40.679   7.871  1.00  0.00     0.106 A 
HETATM   32  C18 UNL     1      18.275 -39.737   7.027  1.00  0.00     0.076 A 
BRANCH  29  33
HETATM   33  O1  UNL     1      17.657 -43.813   6.428  1.00  0.00    -0.353 OA
HETATM   34  C1  UNL     1      18.565 -44.566   5.649  1.00  0.00     0.210 C 
ENDBRANCH  29  33
BRANCH  30  35
HETATM   35  O9  UNL     1      19.135 -42.935   8.513  1.00  0.00    -0.351 OA
HETATM   36  C22 UNL     1      18.357 -43.282   9.668  1.00  0.00     0.210 C 
ENDBRANCH  30  35
BRANCH  31  37
HETATM   37  O8  UNL     1      19.586 -40.261   8.971  1.00  0.00    -0.353 OA
HETATM   38  C20 UNL     1      20.977 -40.065   8.808  1.00  0.00     0.210 C 
ENDBRANCH  31  37
ENDBRANCH  26  27
ENDBRANCH   1  26
TORSDOF 13
ENDMDL
