MODEL 1
REMARK VINA RESULT: -8.967895083      0.000      0.000
REMARK  14 active torsions:
REMARK  status: ('A' for Active; 'I' for Inactive)
REMARK    1  A    between atoms: C2_2  and  C3_3 
REMARK    2  A    between atoms: C3_3  and  C4_4 
REMARK    3  A    between atoms: C4_4  and  C5_5 
REMARK    4  A    between atoms: C5_5  and  C6_6 
REMARK    5  A    between atoms: C6_6  and  C7_7 
REMARK    6  A    between atoms: C7_7  and  C8_8 
REMARK    7  A    between atoms: C8_8  and  C9_9 
REMARK    8  A    between atoms: C10_10  and  O1_11 
REMARK    9  A    between atoms: O1_11  and  C11_12 
REMARK   10  A    between atoms: C14_16  and  O3_17 
REMARK   11  A    between atoms: C15_19  and  O4_20 
REMARK   12  A    between atoms: C16_22  and  O5_23 
REMARK   13  A    between atoms: C17_25  and  O6_26 
REMARK   14  A    between atoms: C22_36  and  O9_37 
ROOT
HETATM    1  C9  UNL     1      13.256 -36.569  -0.406  1.00  0.00     0.040 C 
HETATM    2  C10 UNL     1      13.329 -36.911   0.894  1.00  0.00     0.113 C 
HETATM    3  C17 UNL     1      12.173 -36.324   1.555  1.00  0.00     0.179 C 
HETATM    4  C18 UNL     1      11.171 -36.238   0.424  1.00  0.00     0.274 C 
HETATM    5  N1  UNL     1      12.072 -35.817  -0.633  1.00  0.00    -0.362 N 
ATOM      6  H1  UNL     1      11.896 -35.135  -1.372  1.00  0.00     0.162 HD
HETATM    7  O7  UNL     1      10.252 -35.226   0.817  1.00  0.00    -0.291 OA
HETATM    8  C19 UNL     1       9.866 -35.366   2.171  1.00  0.00     0.267 C 
HETATM    9  O8  UNL     1       9.387 -34.419   2.834  1.00  0.00    -0.265 OA
HETATM   10  C20 UNL     1      10.082 -36.736   2.720  1.00  0.00     0.114 C 
HETATM   11  C21 UNL     1       9.555 -36.768   4.119  1.00  0.00     0.023 C 
HETATM   12  C22 UNL     1      11.547 -37.158   2.639  1.00  0.00     0.177 C 
ENDROOT
BRANCH   2  13
HETATM   13  O1  UNL     1      14.359 -37.689   1.431  1.00  0.00    -0.317 OA
BRANCH  13  14
HETATM   14  C11 UNL     1      15.007 -37.392   2.649  1.00  0.00     0.297 C 
HETATM   15  O2  UNL     1      15.565 -38.489   3.253  1.00  0.00    -0.351 OA
HETATM   16  C12 UNL     1      16.948 -38.534   3.173  1.00  0.00     0.152 C 
HETATM   17  C13 UNL     1      17.471 -39.784   3.843  1.00  0.00     0.042 C 
HETATM   18  C14 UNL     1      17.603 -37.357   3.859  1.00  0.00     0.178 C 
HETATM   19  C15 UNL     1      16.923 -36.061   3.530  1.00  0.00     0.183 C 
HETATM   20  C16 UNL     1      15.987 -36.274   2.365  1.00  0.00     0.205 C 
BRANCH  18  21
HETATM   21  O3  UNL     1      17.660 -37.518   5.238  1.00  0.00    -0.390 OA
ATOM     22  H3  UNL     1      16.909 -37.134   5.676  1.00  0.00     0.210 HD
ENDBRANCH  18  21
BRANCH  19  23
HETATM   23  O4  UNL     1      17.826 -35.056   3.210  1.00  0.00    -0.390 OA
ATOM     24  H4  UNL     1      17.398 -34.282   2.862  1.00  0.00     0.210 HD
ENDBRANCH  19  23
BRANCH  20  25
HETATM   25  O5  UNL     1      16.631 -36.404   1.155  1.00  0.00    -0.388 OA
ATOM     26  H5  UNL     1      17.566 -36.543   1.239  1.00  0.00     0.210 HD
ENDBRANCH  20  25
ENDBRANCH  13  14
ENDBRANCH   2  13
BRANCH   1  27
HETATM   27  C8  UNL     1      14.231 -36.946  -1.455  1.00  0.00     0.059 C 
BRANCH  27  28
HETATM   28  C7  UNL     1      14.728 -35.867  -2.327  1.00  0.00     0.006 C 
BRANCH  28  29
HETATM   29  C6  UNL     1      14.304 -35.812  -3.736  1.00  0.00     0.000 C 
BRANCH  29  30
HETATM   30  C5  UNL     1      12.926 -35.320  -3.994  1.00  0.00     0.000 C 
BRANCH  30  31
HETATM   31  C4  UNL     1      12.526 -35.187  -5.428  1.00  0.00     0.000 C 
BRANCH  31  32
HETATM   32  C3  UNL     1      11.090 -34.787  -5.538  1.00  0.00    -0.000 C 
BRANCH  32  33
HETATM   33  C2  UNL     1      10.487 -35.306  -6.833  1.00  0.00    -0.005 C 
HETATM   34  C1  UNL     1      11.241 -34.714  -8.004  1.00  0.00     0.005 C 
ENDBRANCH  32  33
ENDBRANCH  31  32
ENDBRANCH  30  31
ENDBRANCH  29  30
ENDBRANCH  28  29
ENDBRANCH  27  28
ENDBRANCH   1  27
BRANCH   3  35
HETATM   35  O6  UNL     1      12.395 -35.014   1.987  1.00  0.00    -0.376 OA
ATOM     36  H6  UNL     1      11.672 -34.660   2.492  1.00  0.00     0.211 HD
ENDBRANCH   3  35
BRANCH  12  37
HETATM   37  O9  UNL     1      12.133 -36.774   3.845  1.00  0.00    -0.391 OA
ATOM     38  H9  UNL     1      12.201 -35.826   3.835  1.00  0.00     0.210 HD
ENDBRANCH  12  37
TORSDOF 14
ENDMDL
MODEL 2
REMARK VINA RESULT: -8.880104628      4.946      8.065
REMARK  14 active torsions:
REMARK  status: ('A' for Active; 'I' for Inactive)
REMARK    1  A    between atoms: C2_2  and  C3_3 
REMARK    2  A    between atoms: C3_3  and  C4_4 
REMARK    3  A    between atoms: C4_4  and  C5_5 
REMARK    4  A    between atoms: C5_5  and  C6_6 
REMARK    5  A    between atoms: C6_6  and  C7_7 
REMARK    6  A    between atoms: C7_7  and  C8_8 
REMARK    7  A    between atoms: C8_8  and  C9_9 
REMARK    8  A    between atoms: C10_10  and  O1_11 
REMARK    9  A    between atoms: O1_11  and  C11_12 
REMARK   10  A    between atoms: C14_16  and  O3_17 
REMARK   11  A    between atoms: C15_19  and  O4_20 
REMARK   12  A    between atoms: C16_22  and  O5_23 
REMARK   13  A    between atoms: C17_25  and  O6_26 
REMARK   14  A    between atoms: C22_36  and  O9_37 
ROOT
HETATM    1  C9  UNL     1      17.724 -37.897   4.117  1.00  0.00     0.040 C 
HETATM    2  C10 UNL     1      18.926 -38.494   4.224  1.00  0.00     0.113 C 
HETATM    3  C17 UNL     1      18.796 -39.538   5.227  1.00  0.00     0.179 C 
HETATM    4  C18 UNL     1      17.325 -39.883   5.137  1.00  0.00     0.274 C 
HETATM    5  N1  UNL     1      16.797 -38.540   4.980  1.00  0.00    -0.362 N 
ATOM      6  H1  UNL     1      15.952 -38.147   5.396  1.00  0.00     0.162 HD
HETATM    7  O7  UNL     1      17.003 -40.471   6.392  1.00  0.00    -0.291 OA
HETATM    8  C19 UNL     1      17.983 -41.407   6.799  1.00  0.00     0.267 C 
HETATM    9  O8  UNL     1      18.121 -41.759   7.992  1.00  0.00    -0.265 OA
HETATM   10  C20 UNL     1      18.822 -41.925   5.679  1.00  0.00     0.114 C 
HETATM   11  C21 UNL     1      19.750 -42.961   6.230  1.00  0.00     0.023 C 
HETATM   12  C22 UNL     1      19.564 -40.803   4.956  1.00  0.00     0.177 C 
ENDROOT
BRANCH   2  13
HETATM   13  O1  UNL     1      20.045 -38.118   3.472  1.00  0.00    -0.317 OA
BRANCH  13  14
HETATM   14  C11 UNL     1      21.006 -37.187   3.919  1.00  0.00     0.297 C 
HETATM   15  O2  UNL     1      21.548 -37.503   5.138  1.00  0.00    -0.351 OA
HETATM   16  C12 UNL     1      22.851 -37.975   5.071  1.00  0.00     0.152 C 
HETATM   17  C13 UNL     1      23.354 -38.318   6.454  1.00  0.00     0.042 C 
HETATM   18  C14 UNL     1      23.802 -36.952   4.494  1.00  0.00     0.178 C 
HETATM   19  C15 UNL     1      23.238 -36.276   3.280  1.00  0.00     0.183 C 
HETATM   20  C16 UNL     1      22.024 -37.038   2.807  1.00  0.00     0.205 C 
BRANCH  18  21
HETATM   21  O3  UNL     1      24.178 -35.996   5.431  1.00  0.00    -0.390 OA
ATOM     22  H3  UNL     1      24.503 -35.202   5.022  1.00  0.00     0.210 HD
ENDBRANCH  18  21
BRANCH  19  23
HETATM   23  O4  UNL     1      24.158 -36.197   2.243  1.00  0.00    -0.390 OA
ATOM     24  H4  UNL     1      23.777 -35.842   1.448  1.00  0.00     0.210 HD
ENDBRANCH  19  23
BRANCH  20  25
HETATM   25  O5  UNL     1      22.326 -38.223   2.178  1.00  0.00    -0.388 OA
ATOM     26  H5  UNL     1      22.716 -38.869   2.755  1.00  0.00     0.210 HD
ENDBRANCH  20  25
ENDBRANCH  13  14
ENDBRANCH   2  13
BRANCH   1  27
HETATM   27  C8  UNL     1      17.396 -36.770   3.214  1.00  0.00     0.059 C 
BRANCH  27  28
HETATM   28  C7  UNL     1      16.481 -35.739   3.735  1.00  0.00     0.006 C 
BRANCH  28  29
HETATM   29  C6  UNL     1      15.168 -35.536   3.097  1.00  0.00     0.000 C 
BRANCH  29  30
HETATM   30  C5  UNL     1      14.116 -36.535   3.416  1.00  0.00     0.000 C 
BRANCH  30  31
HETATM   31  C4  UNL     1      13.444 -37.186   2.252  1.00  0.00     0.000 C 
BRANCH  31  32
HETATM   32  C3  UNL     1      14.361 -38.167   1.596  1.00  0.00    -0.000 C 
BRANCH  32  33
HETATM   33  C2  UNL     1      13.864 -38.516   0.203  1.00  0.00    -0.005 C 
HETATM   34  C1  UNL     1      14.268 -37.420  -0.758  1.00  0.00     0.005 C 
ENDBRANCH  32  33
ENDBRANCH  31  32
ENDBRANCH  30  31
ENDBRANCH  29  30
ENDBRANCH  28  29
ENDBRANCH  27  28
ENDBRANCH   1  27
BRANCH   3  35
HETATM   35  O6  UNL     1      19.016 -39.081   6.529  1.00  0.00    -0.376 OA
ATOM     36  H6  UNL     1      18.214 -38.945   7.018  1.00  0.00     0.211 HD
ENDBRANCH   3  35
BRANCH  12  37
HETATM   37  O9  UNL     1      20.800 -40.678   5.591  1.00  0.00    -0.391 OA
ATOM     38  H9  UNL     1      20.641 -40.723   6.526  1.00  0.00     0.210 HD
ENDBRANCH  12  37
TORSDOF 14
ENDMDL
MODEL 3
REMARK VINA RESULT: -8.801155634      5.260      8.615
REMARK  14 active torsions:
REMARK  status: ('A' for Active; 'I' for Inactive)
REMARK    1  A    between atoms: C2_2  and  C3_3 
REMARK    2  A    between atoms: C3_3  and  C4_4 
REMARK    3  A    between atoms: C4_4  and  C5_5 
REMARK    4  A    between atoms: C5_5  and  C6_6 
REMARK    5  A    between atoms: C6_6  and  C7_7 
REMARK    6  A    between atoms: C7_7  and  C8_8 
REMARK    7  A    between atoms: C8_8  and  C9_9 
REMARK    8  A    between atoms: C10_10  and  O1_11 
REMARK    9  A    between atoms: O1_11  and  C11_12 
REMARK   10  A    between atoms: C14_16  and  O3_17 
REMARK   11  A    between atoms: C15_19  and  O4_20 
REMARK   12  A    between atoms: C16_22  and  O5_23 
REMARK   13  A    between atoms: C17_25  and  O6_26 
REMARK   14  A    between atoms: C22_36  and  O9_37 
ROOT
HETATM    1  C9  UNL     1      17.509 -39.246   5.055  1.00  0.00     0.040 C 
HETATM    2  C10 UNL     1      18.803 -39.611   5.114  1.00  0.00     0.113 C 
HETATM    3  C17 UNL     1      18.955 -40.458   6.287  1.00  0.00     0.179 C 
HETATM    4  C18 UNL     1      17.567 -41.045   6.435  1.00  0.00     0.274 C 
HETATM    5  N1  UNL     1      16.795 -39.857   6.120  1.00  0.00    -0.362 N 
ATOM      6  H1  UNL     1      15.934 -39.535   6.563  1.00  0.00     0.162 HD
HETATM    7  O7  UNL     1      17.472 -41.433   7.801  1.00  0.00    -0.291 OA
HETATM    8  C19 UNL     1      18.637 -42.106   8.237  1.00  0.00     0.267 C 
HETATM    9  O8  UNL     1      18.943 -42.203   9.447  1.00  0.00    -0.265 OA
HETATM   10  C20 UNL     1      19.450 -42.682   7.127  1.00  0.00     0.114 C 
HETATM   11  C21 UNL     1      20.595 -43.435   7.728  1.00  0.00     0.023 C 
HETATM   12  C22 UNL     1      19.910 -41.610   6.141  1.00  0.00     0.177 C 
ENDROOT
BRANCH   2  13
HETATM   13  O1  UNL     1      19.763 -39.207   4.180  1.00  0.00    -0.317 OA
BRANCH  13  14
HETATM   14  C11 UNL     1      20.936 -38.503   4.523  1.00  0.00     0.297 C 
HETATM   15  O2  UNL     1      22.017 -38.827   3.744  1.00  0.00    -0.351 OA
HETATM   16  C12 UNL     1      22.365 -37.846   2.827  1.00  0.00     0.152 C 
HETATM   17  C13 UNL     1      23.546 -38.299   2.000  1.00  0.00     0.042 C 
HETATM   18  C14 UNL     1      22.763 -36.551   3.496  1.00  0.00     0.178 C 
HETATM   19  C15 UNL     1      21.825 -36.174   4.604  1.00  0.00     0.183 C 
HETATM   20  C16 UNL     1      20.585 -37.030   4.516  1.00  0.00     0.205 C 
BRANCH  18  21
HETATM   21  O3  UNL     1      24.066 -36.588   3.979  1.00  0.00    -0.390 OA
ATOM     22  H3  UNL     1      24.639 -37.110   3.428  1.00  0.00     0.210 HD
ENDBRANCH  18  21
BRANCH  19  23
HETATM   23  O4  UNL     1      21.459 -34.836   4.555  1.00  0.00    -0.390 OA
ATOM     24  H4  UNL     1      22.168 -34.257   4.810  1.00  0.00     0.210 HD
ENDBRANCH  19  23
BRANCH  20  25
HETATM   25  O5  UNL     1      19.739 -36.674   3.491  1.00  0.00    -0.388 OA
ATOM     26  H5  UNL     1      19.571 -35.741   3.448  1.00  0.00     0.210 HD
ENDBRANCH  20  25
ENDBRANCH  13  14
ENDBRANCH   2  13
BRANCH   1  27
HETATM   27  C8  UNL     1      16.903 -38.375   4.021  1.00  0.00     0.059 C 
BRANCH  27  28
HETATM   28  C7  UNL     1      16.117 -37.222   4.495  1.00  0.00     0.006 C 
BRANCH  28  29
HETATM   29  C6  UNL     1      16.111 -35.971   3.717  1.00  0.00     0.000 C 
BRANCH  29  30
HETATM   30  C5  UNL     1      14.831 -35.610   3.055  1.00  0.00     0.000 C 
BRANCH  30  31
HETATM   31  C4  UNL     1      13.684 -36.541   3.275  1.00  0.00     0.000 C 
BRANCH  31  32
HETATM   32  C3  UNL     1      13.209 -37.107   1.975  1.00  0.00    -0.000 C 
BRANCH  32  33
HETATM   33  C2  UNL     1      14.169 -38.172   1.472  1.00  0.00    -0.005 C 
HETATM   34  C1  UNL     1      13.795 -38.549   0.055  1.00  0.00     0.005 C 
ENDBRANCH  32  33
ENDBRANCH  31  32
ENDBRANCH  30  31
ENDBRANCH  29  30
ENDBRANCH  28  29
ENDBRANCH  27  28
ENDBRANCH   1  27
BRANCH   3  35
HETATM   35  O6  UNL     1      19.206 -39.736   7.456  1.00  0.00    -0.376 OA
ATOM     36  H6  UNL     1      20.103 -39.429   7.521  1.00  0.00     0.211 HD
ENDBRANCH   3  35
BRANCH  12  37
HETATM   37  O9  UNL     1      21.155 -41.172   6.591  1.00  0.00    -0.391 OA
ATOM     38  H9  UNL     1      21.385 -40.405   6.080  1.00  0.00     0.210 HD
ENDBRANCH  12  37
TORSDOF 14
ENDMDL
MODEL 4
REMARK VINA RESULT: -8.800619512      4.778      7.960
REMARK  14 active torsions:
REMARK  status: ('A' for Active; 'I' for Inactive)
REMARK    1  A    between atoms: C2_2  and  C3_3 
REMARK    2  A    between atoms: C3_3  and  C4_4 
REMARK    3  A    between atoms: C4_4  and  C5_5 
REMARK    4  A    between atoms: C5_5  and  C6_6 
REMARK    5  A    between atoms: C6_6  and  C7_7 
REMARK    6  A    between atoms: C7_7  and  C8_8 
REMARK    7  A    between atoms: C8_8  and  C9_9 
REMARK    8  A    between atoms: C10_10  and  O1_11 
REMARK    9  A    between atoms: O1_11  and  C11_12 
REMARK   10  A    between atoms: C14_16  and  O3_17 
REMARK   11  A    between atoms: C15_19  and  O4_20 
REMARK   12  A    between atoms: C16_22  and  O5_23 
REMARK   13  A    between atoms: C17_25  and  O6_26 
REMARK   14  A    between atoms: C22_36  and  O9_37 
ROOT
HETATM    1  C9  UNL     1      17.619 -38.240   4.470  1.00  0.00     0.040 C 
HETATM    2  C10 UNL     1      18.865 -38.751   4.486  1.00  0.00     0.113 C 
HETATM    3  C17 UNL     1      18.883 -39.799   5.493  1.00  0.00     0.179 C 
HETATM    4  C18 UNL     1      17.437 -40.246   5.512  1.00  0.00     0.274 C 
HETATM    5  N1  UNL     1      16.806 -38.944   5.398  1.00  0.00    -0.362 N 
ATOM      6  H1  UNL     1      15.969 -38.610   5.876  1.00  0.00     0.162 HD
HETATM    7  O7  UNL     1      17.252 -40.852   6.786  1.00  0.00    -0.291 OA
HETATM    8  C19 UNL     1      18.322 -41.716   7.117  1.00  0.00     0.267 C 
HETATM    9  O8  UNL     1      18.573 -42.055   8.295  1.00  0.00    -0.265 OA
HETATM   10  C20 UNL     1      19.110 -42.177   5.936  1.00  0.00     0.114 C 
HETATM   11  C21 UNL     1      20.146 -43.144   6.414  1.00  0.00     0.023 C 
HETATM   12  C22 UNL     1      19.716 -41.008   5.163  1.00  0.00     0.177 C 
ENDROOT
BRANCH   2  13
HETATM   13  O1  UNL     1      19.896 -38.299   3.654  1.00  0.00    -0.317 OA
BRANCH  13  14
HETATM   14  C11 UNL     1      20.824 -37.307   4.033  1.00  0.00     0.297 C 
HETATM   15  O2  UNL     1      21.442 -37.564   5.229  1.00  0.00    -0.351 OA
HETATM   16  C12 UNL     1      22.764 -37.964   5.107  1.00  0.00     0.152 C 
HETATM   17  C13 UNL     1      23.353 -38.247   6.469  1.00  0.00     0.042 C 
HETATM   18  C14 UNL     1      23.627 -36.904   4.462  1.00  0.00     0.178 C 
HETATM   19  C15 UNL     1      22.967 -36.289   3.264  1.00  0.00     0.183 C 
HETATM   20  C16 UNL     1      21.775 -37.127   2.869  1.00  0.00     0.205 C 
BRANCH  18  21
HETATM   21  O3  UNL     1      23.993 -35.907   5.358  1.00  0.00    -0.390 OA
ATOM     22  H3  UNL     1      24.867 -35.575   5.189  1.00  0.00     0.210 HD
ENDBRANCH  18  21
BRANCH  19  23
HETATM   23  O4  UNL     1      23.828 -36.183   2.181  1.00  0.00    -0.390 OA
ATOM     24  H4  UNL     1      23.718 -35.366   1.708  1.00  0.00     0.210 HD
ENDBRANCH  19  23
BRANCH  20  25
HETATM   25  O5  UNL     1      22.113 -38.309   2.249  1.00  0.00    -0.388 OA
ATOM     26  H5  UNL     1      21.670 -39.066   2.613  1.00  0.00     0.210 HD
ENDBRANCH  20  25
ENDBRANCH  13  14
ENDBRANCH   2  13
BRANCH   1  27
HETATM   27  C8  UNL     1      17.147 -37.141   3.596  1.00  0.00     0.059 C 
BRANCH  27  28
HETATM   28  C7  UNL     1      15.724 -37.157   3.212  1.00  0.00     0.006 C 
BRANCH  28  29
HETATM   29  C6  UNL     1      15.233 -38.174   2.266  1.00  0.00     0.000 C 
BRANCH  29  30
HETATM   30  C5  UNL     1      13.969 -37.859   1.553  1.00  0.00     0.000 C 
BRANCH  30  31
HETATM   31  C4  UNL     1      13.811 -38.446   0.189  1.00  0.00     0.000 C 
BRANCH  31  32
HETATM   32  C3  UNL     1      14.065 -37.413  -0.861  1.00  0.00    -0.000 C 
BRANCH  32  33
HETATM   33  C2  UNL     1      13.250 -36.160  -0.588  1.00  0.00    -0.005 C 
HETATM   34  C1  UNL     1      12.405 -35.842  -1.803  1.00  0.00     0.005 C 
ENDBRANCH  32  33
ENDBRANCH  31  32
ENDBRANCH  30  31
ENDBRANCH  29  30
ENDBRANCH  28  29
ENDBRANCH  27  28
ENDBRANCH   1  27
BRANCH   3  35
HETATM   35  O6  UNL     1      19.167 -39.324   6.776  1.00  0.00    -0.376 OA
ATOM     36  H6  UNL     1      18.616 -39.708   7.448  1.00  0.00     0.211 HD
ENDBRANCH   3  35
BRANCH  12  37
HETATM   37  O9  UNL     1      20.984 -40.795   5.704  1.00  0.00    -0.391 OA
ATOM     38  H9  UNL     1      20.874 -40.237   6.465  1.00  0.00     0.210 HD
ENDBRANCH  12  37
TORSDOF 14
ENDMDL
MODEL 5
REMARK VINA RESULT: -8.737513809      5.634      8.700
REMARK  14 active torsions:
REMARK  status: ('A' for Active; 'I' for Inactive)
REMARK    1  A    between atoms: C2_2  and  C3_3 
REMARK    2  A    between atoms: C3_3  and  C4_4 
REMARK    3  A    between atoms: C4_4  and  C5_5 
REMARK    4  A    between atoms: C5_5  and  C6_6 
REMARK    5  A    between atoms: C6_6  and  C7_7 
REMARK    6  A    between atoms: C7_7  and  C8_8 
REMARK    7  A    between atoms: C8_8  and  C9_9 
REMARK    8  A    between atoms: C10_10  and  O1_11 
REMARK    9  A    between atoms: O1_11  and  C11_12 
REMARK   10  A    between atoms: C14_16  and  O3_17 
REMARK   11  A    between atoms: C15_19  and  O4_20 
REMARK   12  A    between atoms: C16_22  and  O5_23 
REMARK   13  A    between atoms: C17_25  and  O6_26 
REMARK   14  A    between atoms: C22_36  and  O9_37 
ROOT
HETATM    1  C9  UNL     1      17.557 -39.055   5.207  1.00  0.00     0.040 C 
HETATM    2  C10 UNL     1      18.798 -39.565   5.098  1.00  0.00     0.113 C 
HETATM    3  C17 UNL     1      18.916 -40.616   6.098  1.00  0.00     0.179 C 
HETATM    4  C18 UNL     1      17.480 -41.063   6.259  1.00  0.00     0.274 C 
HETATM    5  N1  UNL     1      16.840 -39.761   6.210  1.00  0.00    -0.362 N 
ATOM      6  H1  UNL     1      16.054 -39.428   6.769  1.00  0.00     0.162 HD
HETATM    7  O7  UNL     1      17.421 -41.671   7.543  1.00  0.00    -0.291 OA
HETATM    8  C19 UNL     1      18.519 -42.536   7.765  1.00  0.00     0.267 C 
HETATM    9  O8  UNL     1      18.885 -42.876   8.912  1.00  0.00    -0.265 OA
HETATM   10  C20 UNL     1      19.186 -42.994   6.511  1.00  0.00     0.114 C 
HETATM   11  C21 UNL     1      20.265 -43.962   6.882  1.00  0.00     0.023 C 
HETATM   12  C22 UNL     1      19.713 -41.824   5.684  1.00  0.00     0.177 C 
ENDROOT
BRANCH   2  13
HETATM   13  O1  UNL     1      19.742 -39.112   4.170  1.00  0.00    -0.317 OA
BRANCH  13  14
HETATM   14  C11 UNL     1      20.955 -38.490   4.532  1.00  0.00     0.297 C 
HETATM   15  O2  UNL     1      22.033 -38.933   3.809  1.00  0.00    -0.351 OA
HETATM   16  C12 UNL     1      22.493 -38.023   2.869  1.00  0.00     0.152 C 
HETATM   17  C13 UNL     1      23.663 -38.604   2.109  1.00  0.00     0.042 C 
HETATM   18  C14 UNL     1      22.971 -36.736   3.502  1.00  0.00     0.178 C 
HETATM   19  C15 UNL     1      22.027 -36.239   4.555  1.00  0.00     0.183 C 
HETATM   20  C16 UNL     1      20.725 -36.996   4.452  1.00  0.00     0.205 C 
BRANCH  18  21
HETATM   21  O3  UNL     1      24.248 -36.857   4.037  1.00  0.00    -0.390 OA
ATOM     22  H3  UNL     1      24.630 -37.710   3.866  1.00  0.00     0.210 HD
ENDBRANCH  18  21
BRANCH  19  23
HETATM   23  O4  UNL     1      21.772 -34.879   4.438  1.00  0.00    -0.390 OA
ATOM     24  H4  UNL     1      21.498 -34.490   5.261  1.00  0.00     0.210 HD
ENDBRANCH  19  23
BRANCH  20  25
HETATM   25  O5  UNL     1      19.949 -36.617   3.380  1.00  0.00    -0.388 OA
ATOM     26  H5  UNL     1      20.431 -36.569   2.563  1.00  0.00     0.210 HD
ENDBRANCH  20  25
ENDBRANCH  13  14
ENDBRANCH   2  13
BRANCH   1  27
HETATM   27  C8  UNL     1      17.001 -37.955   4.387  1.00  0.00     0.059 C 
BRANCH  27  28
HETATM   28  C7  UNL     1      16.399 -38.324   3.093  1.00  0.00     0.006 C 
BRANCH  28  29
HETATM   29  C6  UNL     1      15.093 -37.763   2.707  1.00  0.00     0.000 C 
BRANCH  29  30
HETATM   30  C5  UNL     1      14.464 -36.826   3.673  1.00  0.00     0.000 C 
BRANCH  30  31
HETATM   31  C4  UNL     1      13.878 -35.577   3.100  1.00  0.00     0.000 C 
BRANCH  31  32
HETATM   32  C3  UNL     1      12.561 -35.862   2.453  1.00  0.00    -0.000 C 
BRANCH  32  33
HETATM   33  C2  UNL     1      11.568 -36.395   3.472  1.00  0.00    -0.005 C 
HETATM   34  C1  UNL     1      10.339 -35.511   3.478  1.00  0.00     0.005 C 
ENDBRANCH  32  33
ENDBRANCH  31  32
ENDBRANCH  30  31
ENDBRANCH  29  30
ENDBRANCH  28  29
ENDBRANCH  27  28
ENDBRANCH   1  27
BRANCH   3  35
HETATM   35  O6  UNL     1      19.326 -40.143   7.346  1.00  0.00    -0.376 OA
ATOM     36  H6  UNL     1      20.215 -40.394   7.569  1.00  0.00     0.211 HD
ENDBRANCH   3  35
BRANCH  12  37
HETATM   37  O9  UNL     1      21.027 -41.612   6.098  1.00  0.00    -0.391 OA
ATOM     38  H9  UNL     1      21.033 -41.648   7.047  1.00  0.00     0.210 HD
ENDBRANCH  12  37
TORSDOF 14
ENDMDL
