MODEL 1
REMARK VINA RESULT: -6.843673576      0.000      0.000
REMARK  13 active torsions:
REMARK  status: ('A' for Active; 'I' for Inactive)
REMARK    1  A    between atoms: O1_2  and  C2_3 
REMARK    2  A    between atoms: C5_7  and  O3_8 
REMARK    3  A    between atoms: C8_12  and  O4_13 
REMARK    4  A    between atoms: C9_15  and  O5_17 
REMARK    5  A    between atoms: C11_19  and  C12_20 
REMARK    6  A    between atoms: C11_19  and  C19_30 
REMARK    7  A    between atoms: C13_21  and  C14_22 
REMARK    8  A    between atoms: C15_23  and  C16_24 
REMARK    9  A    between atoms: C16_24  and  O6_25 
REMARK   10  A    between atoms: O6_25  and  C17_26 
REMARK   11  A    between atoms: C17_26  and  C18_27 
REMARK   12  A    between atoms: C18_27  and  O7_28 
REMARK   13  A    between atoms: C19_30  and  C20_31 
ROOT
HETATM    1  C2  UNL     1      26.257 -39.219   3.781  1.00  0.00     0.269 C 
HETATM    2  C3  UNL     1      25.550 -40.559   3.750  1.00  0.00     0.142 C 
HETATM    3  C4  UNL     1      24.535 -40.433   2.637  1.00  0.00     0.165 C 
HETATM    4  O2  UNL     1      23.898 -41.378   2.238  1.00  0.00    -0.295 OA
HETATM    5  C5  UNL     1      24.417 -39.045   2.107  1.00  0.00     0.250 C 
HETATM    6  C6  UNL     1      24.227 -38.144   3.354  1.00  0.00     0.203 C 
HETATM    7  C7  UNL     1      24.100 -36.755   2.788  1.00  0.00     0.106 C 
HETATM    8  C8  UNL     1      22.723 -36.260   3.033  1.00  0.00     0.160 C 
HETATM    9  C9  UNL     1      22.410 -36.422   4.528  1.00  0.00     0.115 C 
HETATM   10  C10 UNL     1      23.336 -35.524   5.235  1.00  0.00     0.052 C 
HETATM   11  C11 UNL     1      22.367 -37.849   4.803  1.00  0.00     0.118 C 
HETATM   12  O8  UNL     1      23.165 -38.634   3.999  1.00  0.00    -0.333 OA
HETATM   13  O9  UNL     1      25.426 -38.181   4.066  1.00  0.00    -0.322 OA
ENDROOT
BRANCH  11  14
HETATM   14  C12 UNL     1      20.960 -38.276   4.366  1.00  0.00     0.014 C 
HETATM   15  C13 UNL     1      20.208 -39.063   5.054  1.00  0.00    -0.001 C 
BRANCH  15  16
HETATM   16  C14 UNL     1      18.890 -39.434   4.594  1.00  0.00    -0.002 C 
HETATM   17  C15 UNL     1      18.106 -38.580   3.970  1.00  0.00    -0.001 C 
BRANCH  17  18
HETATM   18  C16 UNL     1      16.753 -38.975   3.503  1.00  0.00     0.195 C 
BRANCH  18  19
HETATM   19  O6  UNL     1      16.069 -37.868   3.029  1.00  0.00    -0.385 OA
BRANCH  19  20
HETATM   20  C17 UNL     1      16.068 -36.888   4.018  1.00  0.00     0.194 C 
BRANCH  20  21
HETATM   21  C18 UNL     1      16.131 -35.535   3.305  1.00  0.00     0.190 C 
BRANCH  21  22
HETATM   22  O7  UNL     1      17.462 -35.088   3.363  1.00  0.00    -0.399 OA
ATOM     23  H7  UNL     1      17.946 -35.545   2.684  1.00  0.00     0.209 HD
ENDBRANCH  21  22
ENDBRANCH  20  21
ENDBRANCH  19  20
ENDBRANCH  18  19
ENDBRANCH  17  18
ENDBRANCH  15  16
ENDBRANCH  11  14
BRANCH  11  24
HETATM   24  C19 UNL     1      22.416 -38.349   6.204  1.00  0.00     0.073 C 
BRANCH  24  25
HETATM   25  C20 UNL     1      23.391 -39.343   6.599  1.00  0.00    -0.021 C 
HETATM   26  C21 UNL     1      24.443 -39.089   7.376  1.00  0.00    -0.091 C 
HETATM   27  C22 UNL     1      25.431 -40.133   7.765  1.00  0.00     0.042 C 
HETATM   28  C23 UNL     1      24.655 -37.708   7.889  1.00  0.00     0.042 C 
ENDBRANCH  24  25
ENDBRANCH  11  24
BRANCH   9  29
HETATM   29  O5  UNL     1      21.131 -35.805   4.649  1.00  0.00    -0.384 OA
ATOM     30  H5  UNL     1      20.557 -36.431   4.224  1.00  0.00     0.210 HD
ENDBRANCH   9  29
BRANCH   8  31
HETATM   31  O4  UNL     1      21.740 -36.742   2.230  1.00  0.00    -0.392 OA
ATOM     32  H4  UNL     1      20.933 -37.016   2.650  1.00  0.00     0.210 HD
ENDBRANCH   8  31
BRANCH   5  33
HETATM   33  O3  UNL     1      23.313 -38.966   1.297  1.00  0.00    -0.383 OA
ATOM     34  H3  UNL     1      23.270 -38.098   0.913  1.00  0.00     0.210 HD
ENDBRANCH   5  33
BRANCH   1  35
HETATM   35  O1  UNL     1      27.201 -39.308   4.819  1.00  0.00    -0.366 OA
HETATM   36  C1  UNL     1      27.474 -38.047   5.350  1.00  0.00     0.204 C 
ENDBRANCH   1  35
TORSDOF 13
ENDMDL
MODEL 2
REMARK VINA RESULT: -6.678878922      1.123      1.584
REMARK  13 active torsions:
REMARK  status: ('A' for Active; 'I' for Inactive)
REMARK    1  A    between atoms: O1_2  and  C2_3 
REMARK    2  A    between atoms: C5_7  and  O3_8 
REMARK    3  A    between atoms: C8_12  and  O4_13 
REMARK    4  A    between atoms: C9_15  and  O5_17 
REMARK    5  A    between atoms: C11_19  and  C12_20 
REMARK    6  A    between atoms: C11_19  and  C19_30 
REMARK    7  A    between atoms: C13_21  and  C14_22 
REMARK    8  A    between atoms: C15_23  and  C16_24 
REMARK    9  A    between atoms: C16_24  and  O6_25 
REMARK   10  A    between atoms: O6_25  and  C17_26 
REMARK   11  A    between atoms: C17_26  and  C18_27 
REMARK   12  A    between atoms: C18_27  and  O7_28 
REMARK   13  A    between atoms: C19_30  and  C20_31 
ROOT
HETATM    1  C2  UNL     1      26.099 -39.664   4.060  1.00  0.00     0.269 C 
HETATM    2  C3  UNL     1      25.186 -40.826   3.727  1.00  0.00     0.142 C 
HETATM    3  C4  UNL     1      24.443 -40.389   2.485  1.00  0.00     0.165 C 
HETATM    4  O2  UNL     1      23.739 -41.143   1.859  1.00  0.00    -0.295 OA
HETATM    5  C5  UNL     1      24.677 -38.959   2.137  1.00  0.00     0.250 C 
HETATM    6  C6  UNL     1      24.413 -38.169   3.444  1.00  0.00     0.203 C 
HETATM    7  C7  UNL     1      24.645 -36.733   3.059  1.00  0.00     0.106 C 
HETATM    8  C8  UNL     1      23.357 -36.001   3.132  1.00  0.00     0.160 C 
HETATM    9  C9  UNL     1      22.738 -36.248   4.515  1.00  0.00     0.115 C 
HETATM   10  C10 UNL     1      23.654 -35.629   5.485  1.00  0.00     0.052 C 
HETATM   11  C11 UNL     1      22.390 -37.658   4.582  1.00  0.00     0.118 C 
HETATM   12  O8  UNL     1      23.177 -38.501   3.826  1.00  0.00    -0.333 OA
HETATM   13  O9  UNL     1      25.425 -38.516   4.338  1.00  0.00    -0.322 OA
ENDROOT
BRANCH  11  14
HETATM   14  C12 UNL     1      21.041 -37.750   3.857  1.00  0.00     0.014 C 
HETATM   15  C13 UNL     1      19.905 -37.739   4.463  1.00  0.00    -0.001 C 
BRANCH  15  16
HETATM   16  C14 UNL     1      18.663 -37.830   3.731  1.00  0.00    -0.002 C 
HETATM   17  C15 UNL     1      17.713 -38.674   4.077  1.00  0.00    -0.001 C 
BRANCH  17  18
HETATM   18  C16 UNL     1      16.441 -38.757   3.315  1.00  0.00     0.195 C 
BRANCH  18  19
HETATM   19  O6  UNL     1      16.172 -37.545   2.701  1.00  0.00    -0.385 OA
BRANCH  19  20
HETATM   20  C17 UNL     1      15.053 -36.978   3.306  1.00  0.00     0.194 C 
BRANCH  20  21
HETATM   21  C18 UNL     1      15.110 -35.474   3.027  1.00  0.00     0.190 C 
BRANCH  21  22
HETATM   22  O7  UNL     1      16.393 -35.026   3.380  1.00  0.00    -0.399 OA
ATOM     23  H7  UNL     1      16.413 -34.085   3.250  1.00  0.00     0.209 HD
ENDBRANCH  21  22
ENDBRANCH  20  21
ENDBRANCH  19  20
ENDBRANCH  18  19
ENDBRANCH  17  18
ENDBRANCH  15  16
ENDBRANCH  11  14
BRANCH  11  24
HETATM   24  C19 UNL     1      22.079 -38.298   5.890  1.00  0.00     0.073 C 
BRANCH  24  25
HETATM   25  C20 UNL     1      22.212 -39.728   6.061  1.00  0.00    -0.021 C 
HETATM   26  C21 UNL     1      21.387 -40.472   6.797  1.00  0.00    -0.091 C 
HETATM   27  C22 UNL     1      21.551 -41.944   6.956  1.00  0.00     0.042 C 
HETATM   28  C23 UNL     1      20.246 -39.821   7.496  1.00  0.00     0.042 C 
ENDBRANCH  24  25
ENDBRANCH  11  24
BRANCH   9  29
HETATM   29  O5  UNL     1      21.589 -35.405   4.499  1.00  0.00    -0.384 OA
ATOM     30  H5  UNL     1      21.808 -34.767   3.831  1.00  0.00     0.210 HD
ENDBRANCH   9  29
BRANCH   8  31
HETATM   31  O4  UNL     1      22.477 -36.194   2.114  1.00  0.00    -0.392 OA
ATOM     32  H4  UNL     1      22.619 -36.950   1.557  1.00  0.00     0.210 HD
ENDBRANCH   8  31
BRANCH   5  33
HETATM   33  O3  UNL     1      23.782 -38.580   1.169  1.00  0.00    -0.383 OA
ATOM     34  H3  UNL     1      23.760 -37.632   1.120  1.00  0.00     0.210 HD
ENDBRANCH   5  33
BRANCH   1  35
HETATM   35  O1  UNL     1      26.794 -40.044   5.221  1.00  0.00    -0.366 OA
HETATM   36  C1  UNL     1      25.910 -40.264   6.278  1.00  0.00     0.204 C 
ENDBRANCH   1  35
TORSDOF 13
ENDMDL
MODEL 3
REMARK VINA RESULT: -6.413988361      1.052      1.293
REMARK  13 active torsions:
REMARK  status: ('A' for Active; 'I' for Inactive)
REMARK    1  A    between atoms: O1_2  and  C2_3 
REMARK    2  A    between atoms: C5_7  and  O3_8 
REMARK    3  A    between atoms: C8_12  and  O4_13 
REMARK    4  A    between atoms: C9_15  and  O5_17 
REMARK    5  A    between atoms: C11_19  and  C12_20 
REMARK    6  A    between atoms: C11_19  and  C19_30 
REMARK    7  A    between atoms: C13_21  and  C14_22 
REMARK    8  A    between atoms: C15_23  and  C16_24 
REMARK    9  A    between atoms: C16_24  and  O6_25 
REMARK   10  A    between atoms: O6_25  and  C17_26 
REMARK   11  A    between atoms: C17_26  and  C18_27 
REMARK   12  A    between atoms: C18_27  and  O7_28 
REMARK   13  A    between atoms: C19_30  and  C20_31 
ROOT
HETATM    1  C2  UNL     1      26.269 -39.168   3.730  1.00  0.00     0.269 C 
HETATM    2  C3  UNL     1      25.573 -40.514   3.751  1.00  0.00     0.142 C 
HETATM    3  C4  UNL     1      24.549 -40.436   2.641  1.00  0.00     0.165 C 
HETATM    4  O2  UNL     1      23.918 -41.399   2.281  1.00  0.00    -0.295 OA
HETATM    5  C5  UNL     1      24.416 -39.069   2.063  1.00  0.00     0.250 C 
HETATM    6  C6  UNL     1      24.227 -38.125   3.279  1.00  0.00     0.203 C 
HETATM    7  C7  UNL     1      24.084 -36.759   2.665  1.00  0.00     0.106 C 
HETATM    8  C8  UNL     1      22.705 -36.266   2.902  1.00  0.00     0.160 C 
HETATM    9  C9  UNL     1      22.404 -36.378   4.404  1.00  0.00     0.115 C 
HETATM   10  C10 UNL     1      23.327 -35.448   5.072  1.00  0.00     0.052 C 
HETATM   11  C11 UNL     1      22.374 -37.794   4.730  1.00  0.00     0.118 C 
HETATM   12  O8  UNL     1      23.174 -38.601   3.949  1.00  0.00    -0.333 OA
HETATM   13  O9  UNL     1      25.431 -38.128   3.984  1.00  0.00    -0.322 OA
ENDROOT
BRANCH  11  14
HETATM   14  C12 UNL     1      20.968 -38.249   4.318  1.00  0.00     0.014 C 
HETATM   15  C13 UNL     1      20.187 -38.930   5.082  1.00  0.00    -0.001 C 
BRANCH  15  16
HETATM   16  C14 UNL     1      18.871 -39.332   4.643  1.00  0.00    -0.002 C 
HETATM   17  C15 UNL     1      18.071 -38.508   3.999  1.00  0.00    -0.001 C 
BRANCH  17  18
HETATM   18  C16 UNL     1      16.720 -38.935   3.554  1.00  0.00     0.195 C 
BRANCH  18  19
HETATM   19  O6  UNL     1      15.882 -37.838   3.453  1.00  0.00    -0.385 OA
BRANCH  19  20
HETATM   20  C17 UNL     1      15.241 -37.880   2.217  1.00  0.00     0.194 C 
BRANCH  20  21
HETATM   21  C18 UNL     1      13.814 -37.371   2.437  1.00  0.00     0.190 C 
BRANCH  21  22
HETATM   22  O7  UNL     1      13.736 -36.890   3.755  1.00  0.00    -0.399 OA
ATOM     23  H7  UNL     1      12.833 -36.979   4.038  1.00  0.00     0.209 HD
ENDBRANCH  21  22
ENDBRANCH  20  21
ENDBRANCH  19  20
ENDBRANCH  18  19
ENDBRANCH  17  18
ENDBRANCH  15  16
ENDBRANCH  11  14
BRANCH  11  24
HETATM   24  C19 UNL     1      22.437 -38.244   6.147  1.00  0.00     0.073 C 
BRANCH  24  25
HETATM   25  C20 UNL     1      23.283 -39.353   6.532  1.00  0.00    -0.021 C 
HETATM   26  C21 UNL     1      23.002 -40.197   7.524  1.00  0.00    -0.091 C 
HETATM   27  C22 UNL     1      23.893 -41.330   7.898  1.00  0.00     0.042 C 
HETATM   28  C23 UNL     1      21.746 -40.016   8.303  1.00  0.00     0.042 C 
ENDBRANCH  24  25
ENDBRANCH  11  24
BRANCH   9  29
HETATM   29  O5  UNL     1      21.120 -35.768   4.512  1.00  0.00    -0.384 OA
ATOM     30  H5  UNL     1      21.042 -35.610   5.445  1.00  0.00     0.210 HD
ENDBRANCH   9  29
BRANCH   8  31
HETATM   31  O4  UNL     1      21.720 -36.785   2.123  1.00  0.00    -0.392 OA
ATOM     32  H4  UNL     1      21.977 -37.423   1.468  1.00  0.00     0.210 HD
ENDBRANCH   8  31
BRANCH   5  33
HETATM   33  O3  UNL     1      23.306 -39.028   1.259  1.00  0.00    -0.383 OA
ATOM     34  H3  UNL     1      23.437 -39.605   0.517  1.00  0.00     0.210 HD
ENDBRANCH   5  33
BRANCH   1  35
HETATM   35  O1  UNL     1      27.220 -39.212   4.763  1.00  0.00    -0.366 OA
HETATM   36  C1  UNL     1      27.764 -37.947   4.991  1.00  0.00     0.204 C 
ENDBRANCH   1  35
TORSDOF 13
ENDMDL
MODEL 4
REMARK VINA RESULT: -6.389545987      2.121      2.763
REMARK  13 active torsions:
REMARK  status: ('A' for Active; 'I' for Inactive)
REMARK    1  A    between atoms: O1_2  and  C2_3 
REMARK    2  A    between atoms: C5_7  and  O3_8 
REMARK    3  A    between atoms: C8_12  and  O4_13 
REMARK    4  A    between atoms: C9_15  and  O5_17 
REMARK    5  A    between atoms: C11_19  and  C12_20 
REMARK    6  A    between atoms: C11_19  and  C19_30 
REMARK    7  A    between atoms: C13_21  and  C14_22 
REMARK    8  A    between atoms: C15_23  and  C16_24 
REMARK    9  A    between atoms: C16_24  and  O6_25 
REMARK   10  A    between atoms: O6_25  and  C17_26 
REMARK   11  A    between atoms: C17_26  and  C18_27 
REMARK   12  A    between atoms: C18_27  and  O7_28 
REMARK   13  A    between atoms: C19_30  and  C20_31 
ROOT
HETATM    1  C2  UNL     1      26.213 -38.829   3.674  1.00  0.00     0.269 C 
HETATM    2  C3  UNL     1      25.722 -40.261   3.755  1.00  0.00     0.142 C 
HETATM    3  C4  UNL     1      24.663 -40.366   2.682  1.00  0.00     0.165 C 
HETATM    4  O2  UNL     1      24.167 -41.421   2.370  1.00  0.00    -0.295 OA
HETATM    5  C5  UNL     1      24.314 -39.051   2.074  1.00  0.00     0.250 C 
HETATM    6  C6  UNL     1      24.028 -38.108   3.270  1.00  0.00     0.203 C 
HETATM    7  C7  UNL     1      23.669 -36.795   2.627  1.00  0.00     0.106 C 
HETATM    8  C8  UNL     1      22.241 -36.500   2.901  1.00  0.00     0.160 C 
HETATM    9  C9  UNL     1      22.008 -36.608   4.415  1.00  0.00     0.115 C 
HETATM   10  C10 UNL     1      22.807 -35.534   5.025  1.00  0.00     0.052 C 
HETATM   11  C11 UNL     1      22.195 -38.003   4.779  1.00  0.00     0.118 C 
HETATM   12  O8  UNL     1      23.078 -38.710   3.990  1.00  0.00    -0.333 OA
HETATM   13  O9  UNL     1      25.242 -37.914   3.931  1.00  0.00    -0.322 OA
ENDROOT
BRANCH  11  14
HETATM   14  C12 UNL     1      20.857 -38.668   4.430  1.00  0.00     0.014 C 
HETATM   15  C13 UNL     1      20.286 -39.551   5.172  1.00  0.00    -0.001 C 
BRANCH  15  16
HETATM   16  C14 UNL     1      19.025 -40.147   4.795  1.00  0.00    -0.002 C 
HETATM   17  C15 UNL     1      18.605 -41.277   5.325  1.00  0.00    -0.001 C 
BRANCH  17  18
HETATM   18  C16 UNL     1      17.307 -41.879   4.928  1.00  0.00     0.195 C 
BRANCH  18  19
HETATM   19  O6  UNL     1      16.551 -42.167   6.051  1.00  0.00    -0.385 OA
BRANCH  19  20
HETATM   20  C17 UNL     1      17.401 -42.250   7.151  1.00  0.00     0.194 C 
BRANCH  20  21
HETATM   21  C18 UNL     1      16.523 -42.533   8.373  1.00  0.00     0.190 C 
BRANCH  21  22
HETATM   22  O7  UNL     1      16.684 -41.461   9.266  1.00  0.00    -0.399 OA
ATOM     23  H7  UNL     1      16.997 -40.717   8.765  1.00  0.00     0.209 HD
ENDBRANCH  21  22
ENDBRANCH  20  21
ENDBRANCH  19  20
ENDBRANCH  18  19
ENDBRANCH  17  18
ENDBRANCH  15  16
ENDBRANCH  11  14
BRANCH  11  24
HETATM   24  C19 UNL     1      22.368 -38.395   6.204  1.00  0.00     0.073 C 
BRANCH  24  25
HETATM   25  C20 UNL     1      23.473 -39.237   6.608  1.00  0.00    -0.021 C 
HETATM   26  C21 UNL     1      24.542 -38.799   7.271  1.00  0.00    -0.091 C 
HETATM   27  C22 UNL     1      25.665 -39.691   7.673  1.00  0.00     0.042 C 
HETATM   28  C23 UNL     1      24.636 -37.359   7.635  1.00  0.00     0.042 C 
ENDBRANCH  24  25
ENDBRANCH  11  24
BRANCH   9  29
HETATM   29  O5  UNL     1      20.653 -36.187   4.554  1.00  0.00    -0.384 OA
ATOM     30  H5  UNL     1      20.207 -36.696   3.888  1.00  0.00     0.210 HD
ENDBRANCH   9  29
BRANCH   8  31
HETATM   31  O4  UNL     1      21.318 -37.180   2.172  1.00  0.00    -0.392 OA
ATOM     32  H4  UNL     1      21.602 -37.983   1.754  1.00  0.00     0.210 HD
ENDBRANCH   8  31
BRANCH   5  33
HETATM   33  O3  UNL     1      23.184 -39.195   1.309  1.00  0.00    -0.383 OA
ATOM     34  H3  UNL     1      22.800 -38.340   1.156  1.00  0.00     0.210 HD
ENDBRANCH   5  33
BRANCH   1  35
HETATM   35  O1  UNL     1      27.194 -38.704   4.672  1.00  0.00    -0.366 OA
HETATM   36  C1  UNL     1      27.391 -37.364   5.009  1.00  0.00     0.204 C 
ENDBRANCH   1  35
TORSDOF 13
ENDMDL
MODEL 5
REMARK VINA RESULT: -6.264216725      4.529      5.965
REMARK  13 active torsions:
REMARK  status: ('A' for Active; 'I' for Inactive)
REMARK    1  A    between atoms: O1_2  and  C2_3 
REMARK    2  A    between atoms: C5_7  and  O3_8 
REMARK    3  A    between atoms: C8_12  and  O4_13 
REMARK    4  A    between atoms: C9_15  and  O5_17 
REMARK    5  A    between atoms: C11_19  and  C12_20 
REMARK    6  A    between atoms: C11_19  and  C19_30 
REMARK    7  A    between atoms: C13_21  and  C14_22 
REMARK    8  A    between atoms: C15_23  and  C16_24 
REMARK    9  A    between atoms: C16_24  and  O6_25 
REMARK   10  A    between atoms: O6_25  and  C17_26 
REMARK   11  A    between atoms: C17_26  and  C18_27 
REMARK   12  A    between atoms: C18_27  and  O7_28 
REMARK   13  A    between atoms: C19_30  and  C20_31 
ROOT
HETATM    1  C2  UNL     1      20.682 -44.306   8.983  1.00  0.00     0.269 C 
HETATM    2  C3  UNL     1      19.253 -44.549   8.541  1.00  0.00     0.142 C 
HETATM    3  C4  UNL     1      19.287 -44.415   7.036  1.00  0.00     0.165 C 
HETATM    4  O2  UNL     1      18.340 -44.699   6.344  1.00  0.00    -0.295 OA
HETATM    5  C5  UNL     1      20.590 -43.904   6.523  1.00  0.00     0.250 C 
HETATM    6  C6  UNL     1      20.893 -42.636   7.362  1.00  0.00     0.203 C 
HETATM    7  C7  UNL     1      22.204 -42.139   6.816  1.00  0.00     0.106 C 
HETATM    8  C8  UNL     1      21.981 -40.838   6.139  1.00  0.00     0.160 C 
HETATM    9  C9  UNL     1      21.247 -39.906   7.114  1.00  0.00     0.115 C 
HETATM   10  C10 UNL     1      22.178 -39.670   8.228  1.00  0.00     0.052 C 
HETATM   11  C11 UNL     1      19.923 -40.467   7.327  1.00  0.00     0.118 C 
HETATM   12  O8  UNL     1      19.833 -41.838   7.212  1.00  0.00    -0.333 OA
HETATM   13  O9  UNL     1      21.136 -43.064   8.668  1.00  0.00    -0.322 OA
ENDROOT
BRANCH  11  14
HETATM   14  C12 UNL     1      19.111 -39.994   6.114  1.00  0.00     0.014 C 
HETATM   15  C13 UNL     1      18.233 -40.722   5.517  1.00  0.00    -0.001 C 
BRANCH  15  16
HETATM   16  C14 UNL     1      17.496 -40.227   4.378  1.00  0.00    -0.002 C 
HETATM   17  C15 UNL     1      17.101 -38.973   4.297  1.00  0.00    -0.001 C 
BRANCH  17  18
HETATM   18  C16 UNL     1      16.344 -38.477   3.120  1.00  0.00     0.195 C 
BRANCH  18  19
HETATM   19  O6  UNL     1      15.473 -37.471   3.501  1.00  0.00    -0.385 OA
BRANCH  19  20
HETATM   20  C17 UNL     1      16.189 -36.502   4.199  1.00  0.00     0.194 C 
BRANCH  20  21
HETATM   21  C18 UNL     1      16.815 -35.574   3.155  1.00  0.00     0.190 C 
BRANCH  21  22
HETATM   22  O7  UNL     1      17.827 -34.839   3.796  1.00  0.00    -0.399 OA
ATOM     23  H7  UNL     1      18.084 -34.137   3.209  1.00  0.00     0.209 HD
ENDBRANCH  21  22
ENDBRANCH  20  21
ENDBRANCH  19  20
ENDBRANCH  18  19
ENDBRANCH  17  18
ENDBRANCH  15  16
ENDBRANCH  11  14
BRANCH  11  24
HETATM   24  C19 UNL     1      19.078 -40.001   8.460  1.00  0.00     0.073 C 
BRANCH  24  25
HETATM   25  C20 UNL     1      18.467 -40.950   9.364  1.00  0.00    -0.021 C 
HETATM   26  C21 UNL     1      18.876 -41.161  10.614  1.00  0.00    -0.091 C 
HETATM   27  C22 UNL     1      18.226 -42.147  11.522  1.00  0.00     0.042 C 
HETATM   28  C23 UNL     1      20.030 -40.386  11.145  1.00  0.00     0.042 C 
ENDBRANCH  24  25
ENDBRANCH  11  24
BRANCH   9  29
HETATM   29  O5  UNL     1      21.206 -38.674   6.398  1.00  0.00    -0.384 OA
ATOM     30  H5  UNL     1      21.197 -38.959   5.492  1.00  0.00     0.210 HD
ENDBRANCH   9  29
BRANCH   8  31
HETATM   31  O4  UNL     1      21.412 -40.872   4.906  1.00  0.00    -0.392 OA
ATOM     32  H4  UNL     1      20.504 -41.147   4.856  1.00  0.00     0.210 HD
ENDBRANCH   8  31
BRANCH   5  33
HETATM   33  O3  UNL     1      20.453 -43.571   5.200  1.00  0.00    -0.383 OA
ATOM     34  H3  UNL     1      20.873 -44.234   4.667  1.00  0.00     0.210 HD
ENDBRANCH   5  33
BRANCH   1  35
HETATM   35  O1  UNL     1      20.673 -44.415  10.384  1.00  0.00    -0.366 OA
HETATM   36  C1  UNL     1      21.789 -43.786  10.937  1.00  0.00     0.204 C 
ENDBRANCH   1  35
TORSDOF 13
ENDMDL
