MODEL 1
REMARK VINA RESULT: -8.779770068      0.000      0.000
REMARK  16 active torsions:
REMARK  status: ('A' for Active; 'I' for Inactive)
REMARK    1  A    between atoms: C2_2  and  C5_5 
REMARK    2  A    between atoms: C5_5  and  C6_6 
REMARK    3  A    between atoms: C6_6  and  C7_7 
REMARK    4  A    between atoms: C9_9  and  O1_10 
REMARK    5  A    between atoms: C10_13  and  O3_14 
REMARK    6  A    between atoms: O3_14  and  C11_15 
REMARK    7  A    between atoms: C11_15  and  C12_16 
REMARK    8  A    between atoms: C12_16  and  C14_19 
REMARK    9  A    between atoms: C14_19  and  O4_20 
REMARK   10  A    between atoms: O4_20  and  C15_21 
REMARK   11  A    between atoms: C16_22  and  O5_23 
REMARK   12  A    between atoms: C17_25  and  O6_26 
REMARK   13  A    between atoms: C18_28  and  O7_29 
REMARK   14  A    between atoms: C20_32  and  O8_33 
REMARK   15  A    between atoms: C20_32  and  C21_35 
REMARK   16  A    between atoms: C21_35  and  O9_36 
ROOT
HETATM    1  C12 UNL     1      18.783 -39.689   5.052  1.00  0.00     0.141 C 
HETATM    2  C13 UNL     1      18.953 -41.100   5.462  1.00  0.00     0.068 C 
HETATM    3  N1  UNL     1      19.108 -42.211   5.783  1.00  0.00    -0.197 NA
ENDROOT
BRANCH   1   4
HETATM    4  C11 UNL     1      17.281 -39.445   5.173  1.00  0.00     0.199 C 
BRANCH   4   5
HETATM    5  O3  UNL     1      16.718 -38.912   4.016  1.00  0.00    -0.328 OA
BRANCH   5   6
HETATM    6  C10 UNL     1      16.674 -37.562   3.717  1.00  0.00     0.194 A 
HETATM    7  C7  UNL     1      15.721 -36.862   3.006  1.00  0.00     0.005 A 
HETATM    8  C8  UNL     1      16.112 -35.545   2.973  1.00  0.00     0.076 A 
HETATM    9  C9  UNL     1      17.310 -35.494   3.678  1.00  0.00     0.186 A 
HETATM   10  O2  UNL     1      17.574 -36.692   4.078  1.00  0.00    -0.264 OA
BRANCH   7  11
HETATM   11  C6  UNL     1      14.507 -37.448   2.430  1.00  0.00     0.044 C 
BRANCH  11  12
HETATM   12  C5  UNL     1      13.636 -36.589   1.606  1.00  0.00     0.013 C 
BRANCH  12  13
HETATM   13  C2  UNL     1      13.677 -36.696   0.139  1.00  0.00    -0.051 C 
HETATM   14  C1  UNL     1      14.910 -36.306  -0.579  1.00  0.00     0.014 C 
HETATM   15  C3  UNL     1      13.404 -38.181  -0.198  1.00  0.00     0.014 C 
HETATM   16  C4  UNL     1      12.452 -35.969  -0.471  1.00  0.00     0.014 C 
ENDBRANCH  12  13
ENDBRANCH  11  12
ENDBRANCH   7  11
BRANCH   9  17
HETATM   17  O1  UNL     1      18.103 -34.378   3.927  1.00  0.00    -0.341 OA
ATOM     18  H1  UNL     1      18.996 -34.223   3.639  1.00  0.00     0.220 HD
ENDBRANCH   9  17
ENDBRANCH   5   6
ENDBRANCH   4   5
ENDBRANCH   1   4
BRANCH   1  19
HETATM   19  C14 UNL     1      19.547 -38.845   6.036  1.00  0.00     0.189 C 
BRANCH  19  20
HETATM   20  O4  UNL     1      20.308 -37.948   5.478  1.00  0.00    -0.379 OA
BRANCH  20  21
HETATM   21  C15 UNL     1      21.106 -38.107   4.396  1.00  0.00     0.189 C 
HETATM   22  C16 UNL     1      22.344 -38.822   4.823  1.00  0.00     0.181 C 
HETATM   23  C17 UNL     1      23.655 -38.249   4.403  1.00  0.00     0.178 C 
HETATM   24  C18 UNL     1      23.695 -37.344   3.251  1.00  0.00     0.152 C 
HETATM   25  C19 UNL     1      22.375 -37.214   2.536  1.00  0.00     0.077 C 
HETATM   26  C20 UNL     1      21.311 -36.883   3.556  1.00  0.00     0.110 C 
BRANCH  22  27
HETATM   27  O5  UNL     1      22.302 -40.120   4.302  1.00  0.00    -0.390 OA
ATOM     28  H5  UNL     1      22.612 -40.719   4.971  1.00  0.00     0.210 HD
ENDBRANCH  22  27
BRANCH  23  29
HETATM   29  O6  UNL     1      24.594 -39.296   4.252  1.00  0.00    -0.390 OA
ATOM     30  H6  UNL     1      25.386 -39.077   4.728  1.00  0.00     0.210 HD
ENDBRANCH  23  29
BRANCH  24  31
HETATM   31  O7  UNL     1      24.599 -37.844   2.307  1.00  0.00    -0.393 OA
ATOM     32  H7  UNL     1      24.532 -37.330   1.510  1.00  0.00     0.210 HD
ENDBRANCH  24  31
BRANCH  26  33
HETATM   33  O8  UNL     1      20.152 -36.681   2.802  1.00  0.00    -0.385 OA
ATOM     34  H8  UNL     1      19.921 -35.761   2.862  1.00  0.00     0.210 HD
ENDBRANCH  26  33
BRANCH  26  35
HETATM   35  C21 UNL     1      21.724 -35.658   4.302  1.00  0.00     0.204 C 
BRANCH  35  36
HETATM   36  O9  UNL     1      20.650 -34.867   4.700  1.00  0.00    -0.398 OA
ATOM     37  H9  UNL     1      20.899 -34.163   5.289  1.00  0.00     0.209 HD
ENDBRANCH  35  36
ENDBRANCH  26  35
ENDBRANCH  20  21
ENDBRANCH  19  20
ENDBRANCH   1  19
TORSDOF 16
ENDMDL
MODEL 2
REMARK VINA RESULT: -8.647830731      0.961      2.269
REMARK  16 active torsions:
REMARK  status: ('A' for Active; 'I' for Inactive)
REMARK    1  A    between atoms: C2_2  and  C5_5 
REMARK    2  A    between atoms: C5_5  and  C6_6 
REMARK    3  A    between atoms: C6_6  and  C7_7 
REMARK    4  A    between atoms: C9_9  and  O1_10 
REMARK    5  A    between atoms: C10_13  and  O3_14 
REMARK    6  A    between atoms: O3_14  and  C11_15 
REMARK    7  A    between atoms: C11_15  and  C12_16 
REMARK    8  A    between atoms: C12_16  and  C14_19 
REMARK    9  A    between atoms: C14_19  and  O4_20 
REMARK   10  A    between atoms: O4_20  and  C15_21 
REMARK   11  A    between atoms: C16_22  and  O5_23 
REMARK   12  A    between atoms: C17_25  and  O6_26 
REMARK   13  A    between atoms: C18_28  and  O7_29 
REMARK   14  A    between atoms: C20_32  and  O8_33 
REMARK   15  A    between atoms: C20_32  and  C21_35 
REMARK   16  A    between atoms: C21_35  and  O9_36 
ROOT
HETATM    1  C12 UNL     1      18.461 -40.217   4.981  1.00  0.00     0.141 C 
HETATM    2  C13 UNL     1      18.369 -41.332   5.948  1.00  0.00     0.068 C 
HETATM    3  N1  UNL     1      18.316 -42.217   6.708  1.00  0.00    -0.197 NA
ENDROOT
BRANCH   1   4
HETATM    4  C11 UNL     1      17.105 -39.522   5.087  1.00  0.00     0.199 C 
BRANCH   4   5
HETATM    5  O3  UNL     1      16.711 -38.910   3.899  1.00  0.00    -0.328 OA
BRANCH   5   6
HETATM    6  C10 UNL     1      16.690 -37.543   3.690  1.00  0.00     0.194 A 
HETATM    7  C7  UNL     1      15.739 -36.778   3.048  1.00  0.00     0.005 A 
HETATM    8  C8  UNL     1      16.159 -35.470   3.094  1.00  0.00     0.076 A 
HETATM    9  C9  UNL     1      17.372 -35.491   3.774  1.00  0.00     0.186 A 
HETATM   10  O2  UNL     1      17.617 -36.718   4.088  1.00  0.00    -0.264 OA
BRANCH   7  11
HETATM   11  C6  UNL     1      14.501 -37.299   2.462  1.00  0.00     0.044 C 
BRANCH  11  12
HETATM   12  C5  UNL     1      13.739 -36.431   1.544  1.00  0.00     0.013 C 
BRANCH  12  13
HETATM   13  C2  UNL     1      13.832 -36.641   0.091  1.00  0.00    -0.051 C 
HETATM   14  C1  UNL     1      15.094 -36.310  -0.607  1.00  0.00     0.014 C 
HETATM   15  C3  UNL     1      13.558 -38.144  -0.152  1.00  0.00     0.014 C 
HETATM   16  C4  UNL     1      12.637 -35.950  -0.614  1.00  0.00     0.014 C 
ENDBRANCH  12  13
ENDBRANCH  11  12
ENDBRANCH   7  11
BRANCH   9  17
HETATM   17  O1  UNL     1      18.194 -34.410   4.078  1.00  0.00    -0.341 OA
ATOM     18  H1  UNL     1      18.851 -34.355   4.763  1.00  0.00     0.220 HD
ENDBRANCH   9  17
ENDBRANCH   5   6
ENDBRANCH   4   5
ENDBRANCH   1   4
BRANCH   1  19
HETATM   19  C14 UNL     1      19.568 -39.313   5.450  1.00  0.00     0.189 C 
BRANCH  19  20
HETATM   20  O4  UNL     1      20.530 -39.171   4.583  1.00  0.00    -0.379 OA
BRANCH  20  21
HETATM   21  C15 UNL     1      21.433 -38.164   4.515  1.00  0.00     0.189 C 
HETATM   22  C16 UNL     1      21.272 -37.472   3.204  1.00  0.00     0.181 C 
HETATM   23  C17 UNL     1      22.499 -37.227   2.394  1.00  0.00     0.178 C 
HETATM   24  C18 UNL     1      23.801 -37.221   3.067  1.00  0.00     0.152 C 
HETATM   25  C19 UNL     1      23.709 -37.337   4.567  1.00  0.00     0.077 C 
HETATM   26  C20 UNL     1      22.835 -38.524   4.900  1.00  0.00     0.110 C 
BRANCH  22  27
HETATM   27  O5  UNL     1      20.702 -36.215   3.438  1.00  0.00    -0.390 OA
ATOM     28  H5  UNL     1      20.159 -35.991   2.692  1.00  0.00     0.210 HD
ENDBRANCH  22  27
BRANCH  23  29
HETATM   29  O6  UNL     1      22.325 -36.050   1.629  1.00  0.00    -0.390 OA
ATOM     30  H6  UNL     1      22.174 -36.286   0.722  1.00  0.00     0.210 HD
ENDBRANCH  23  29
BRANCH  24  31
HETATM   31  O7  UNL     1      24.444 -36.005   2.812  1.00  0.00    -0.393 OA
ATOM     32  H7  UNL     1      25.380 -36.117   2.932  1.00  0.00     0.210 HD
ENDBRANCH  24  31
BRANCH  26  33
HETATM   33  O8  UNL     1      22.887 -38.617   6.294  1.00  0.00    -0.385 OA
ATOM     34  H8  UNL     1      23.539 -39.271   6.518  1.00  0.00     0.210 HD
ENDBRANCH  26  33
BRANCH  26  35
HETATM   35  C21 UNL     1      23.392 -39.735   4.228  1.00  0.00     0.204 C 
BRANCH  35  36
HETATM   36  O9  UNL     1      22.815 -40.923   4.667  1.00  0.00    -0.398 OA
ATOM     37  H9  UNL     1      23.450 -41.607   4.843  1.00  0.00     0.209 HD
ENDBRANCH  35  36
ENDBRANCH  26  35
ENDBRANCH  20  21
ENDBRANCH  19  20
ENDBRANCH   1  19
TORSDOF 16
ENDMDL
MODEL 3
REMARK VINA RESULT: -8.440780852      2.181      3.244
REMARK  16 active torsions:
REMARK  status: ('A' for Active; 'I' for Inactive)
REMARK    1  A    between atoms: C2_2  and  C5_5 
REMARK    2  A    between atoms: C5_5  and  C6_6 
REMARK    3  A    between atoms: C6_6  and  C7_7 
REMARK    4  A    between atoms: C9_9  and  O1_10 
REMARK    5  A    between atoms: C10_13  and  O3_14 
REMARK    6  A    between atoms: O3_14  and  C11_15 
REMARK    7  A    between atoms: C11_15  and  C12_16 
REMARK    8  A    between atoms: C12_16  and  C14_19 
REMARK    9  A    between atoms: C14_19  and  O4_20 
REMARK   10  A    between atoms: O4_20  and  C15_21 
REMARK   11  A    between atoms: C16_22  and  O5_23 
REMARK   12  A    between atoms: C17_25  and  O6_26 
REMARK   13  A    between atoms: C18_28  and  O7_29 
REMARK   14  A    between atoms: C20_32  and  O8_33 
REMARK   15  A    between atoms: C20_32  and  C21_35 
REMARK   16  A    between atoms: C21_35  and  O9_36 
ROOT
HETATM    1  C12 UNL     1      17.939 -37.585   3.877  1.00  0.00     0.141 C 
HETATM    2  C13 UNL     1      18.200 -38.463   5.038  1.00  0.00     0.068 C 
HETATM    3  N1  UNL     1      18.423 -39.163   5.946  1.00  0.00    -0.197 NA
ENDROOT
BRANCH   1   4
HETATM    4  C11 UNL     1      16.677 -36.820   4.267  1.00  0.00     0.199 C 
BRANCH   4   5
HETATM    5  O3  UNL     1      16.353 -35.806   3.368  1.00  0.00    -0.328 OA
BRANCH   5   6
HETATM    6  C10 UNL     1      15.781 -36.013   2.126  1.00  0.00     0.194 A 
HETATM    7  C7  UNL     1      14.497 -36.414   1.818  1.00  0.00     0.005 A 
HETATM    8  C8  UNL     1      14.400 -36.478   0.449  1.00  0.00     0.076 A 
HETATM    9  C9  UNL     1      15.652 -36.108  -0.032  1.00  0.00     0.186 A 
HETATM   10  O2  UNL     1      16.398 -35.854   0.989  1.00  0.00    -0.264 OA
BRANCH   7  11
HETATM   11  C6  UNL     1      13.445 -36.682   2.802  1.00  0.00     0.044 C 
BRANCH  11  12
HETATM   12  C5  UNL     1      12.471 -35.615   3.098  1.00  0.00     0.013 C 
BRANCH  12  13
HETATM   13  C2  UNL     1      11.029 -35.887   2.987  1.00  0.00    -0.051 C 
HETATM   14  C1  UNL     1      10.357 -36.666   4.050  1.00  0.00     0.014 C 
HETATM   15  C3  UNL     1      10.329 -34.509   2.920  1.00  0.00     0.014 C 
HETATM   16  C4  UNL     1      10.719 -36.503   1.599  1.00  0.00     0.014 C 
ENDBRANCH  12  13
ENDBRANCH  11  12
ENDBRANCH   7  11
BRANCH   9  17
HETATM   17  O1  UNL     1      16.059 -36.017  -1.360  1.00  0.00    -0.341 OA
ATOM     18  H1  UNL     1      16.450 -36.698  -1.896  1.00  0.00     0.220 HD
ENDBRANCH   9  17
ENDBRANCH   5   6
ENDBRANCH   4   5
ENDBRANCH   1   4
BRANCH   1  19
HETATM   19  C14 UNL     1      19.116 -36.655   3.751  1.00  0.00     0.189 C 
BRANCH  19  20
HETATM   20  O4  UNL     1      20.268 -37.259   3.801  1.00  0.00    -0.379 OA
BRANCH  20  21
HETATM   21  C15 UNL     1      21.474 -36.759   3.442  1.00  0.00     0.189 C 
HETATM   22  C16 UNL     1      22.044 -37.621   2.367  1.00  0.00     0.181 C 
HETATM   23  C17 UNL     1      23.451 -38.085   2.523  1.00  0.00     0.178 C 
HETATM   24  C18 UNL     1      24.347 -37.339   3.411  1.00  0.00     0.152 C 
HETATM   25  C19 UNL     1      23.738 -36.078   3.967  1.00  0.00     0.077 C 
HETATM   26  C20 UNL     1      22.398 -36.422   4.572  1.00  0.00     0.110 C 
BRANCH  22  27
HETATM   27  O5  UNL     1      22.000 -36.908   1.163  1.00  0.00    -0.390 OA
ATOM     28  H5  UNL     1      22.598 -36.173   1.231  1.00  0.00     0.210 HD
ENDBRANCH  22  27
BRANCH  23  29
HETATM   29  O6  UNL     1      24.033 -38.246   1.243  1.00  0.00    -0.390 OA
ATOM     30  H6  UNL     1      24.906 -37.870   1.248  1.00  0.00     0.210 HD
ENDBRANCH  23  29
BRANCH  24  31
HETATM   31  O7  UNL     1      25.478 -36.939   2.691  1.00  0.00    -0.393 OA
ATOM     32  H7  UNL     1      25.672 -36.032   2.896  1.00  0.00     0.210 HD
ENDBRANCH  24  31
BRANCH  26  33
HETATM   33  O8  UNL     1      21.956 -35.228   5.148  1.00  0.00    -0.385 OA
ATOM     34  H8  UNL     1      21.573 -35.435   5.993  1.00  0.00     0.210 HD
ENDBRANCH  26  33
BRANCH  26  35
HETATM   35  C21 UNL     1      22.591 -37.503   5.584  1.00  0.00     0.204 C 
BRANCH  35  36
HETATM   36  O9  UNL     1      21.399 -37.946   6.151  1.00  0.00    -0.398 OA
ATOM     37  H9  UNL     1      20.776 -37.247   6.310  1.00  0.00     0.209 HD
ENDBRANCH  35  36
ENDBRANCH  26  35
ENDBRANCH  20  21
ENDBRANCH  19  20
ENDBRANCH   1  19
TORSDOF 16
ENDMDL
MODEL 4
REMARK VINA RESULT: -8.427014966      1.315      2.588
REMARK  16 active torsions:
REMARK  status: ('A' for Active; 'I' for Inactive)
REMARK    1  A    between atoms: C2_2  and  C5_5 
REMARK    2  A    between atoms: C5_5  and  C6_6 
REMARK    3  A    between atoms: C6_6  and  C7_7 
REMARK    4  A    between atoms: C9_9  and  O1_10 
REMARK    5  A    between atoms: C10_13  and  O3_14 
REMARK    6  A    between atoms: O3_14  and  C11_15 
REMARK    7  A    between atoms: C11_15  and  C12_16 
REMARK    8  A    between atoms: C12_16  and  C14_19 
REMARK    9  A    between atoms: C14_19  and  O4_20 
REMARK   10  A    between atoms: O4_20  and  C15_21 
REMARK   11  A    between atoms: C16_22  and  O5_23 
REMARK   12  A    between atoms: C17_25  and  O6_26 
REMARK   13  A    between atoms: C18_28  and  O7_29 
REMARK   14  A    between atoms: C20_32  and  O8_33 
REMARK   15  A    between atoms: C20_32  and  C21_35 
REMARK   16  A    between atoms: C21_35  and  O9_36 
ROOT
HETATM    1  C12 UNL     1      17.867 -40.420   4.855  1.00  0.00     0.141 C 
HETATM    2  C13 UNL     1      17.104 -41.167   5.878  1.00  0.00     0.068 C 
HETATM    3  N1  UNL     1      16.519 -41.762   6.694  1.00  0.00    -0.197 NA
ENDROOT
BRANCH   1   4
HETATM    4  C11 UNL     1      16.795 -39.689   4.051  1.00  0.00     0.199 C 
BRANCH   4   5
HETATM    5  O3  UNL     1      16.323 -38.543   4.686  1.00  0.00    -0.328 OA
BRANCH   5   6
HETATM    6  C10 UNL     1      16.439 -37.261   4.177  1.00  0.00     0.194 A 
HETATM    7  C7  UNL     1      15.615 -36.604   3.287  1.00  0.00     0.005 A 
HETATM    8  C8  UNL     1      16.141 -35.351   3.084  1.00  0.00     0.076 A 
HETATM    9  C9  UNL     1      17.285 -35.293   3.873  1.00  0.00     0.186 A 
HETATM   10  O2  UNL     1      17.396 -36.429   4.475  1.00  0.00    -0.264 OA
BRANCH   7  11
HETATM   11  C6  UNL     1      14.391 -37.164   2.708  1.00  0.00     0.044 C 
BRANCH  11  12
HETATM   12  C5  UNL     1      13.685 -36.386   1.672  1.00  0.00     0.013 C 
BRANCH  12  13
HETATM   13  C2  UNL     1      13.758 -36.806   0.263  1.00  0.00    -0.051 C 
HETATM   14  C1  UNL     1      13.592 -38.236  -0.074  1.00  0.00     0.014 C 
HETATM   15  C3  UNL     1      12.646 -36.029  -0.481  1.00  0.00     0.014 C 
HETATM   16  C4  UNL     1      15.057 -36.254  -0.378  1.00  0.00     0.014 C 
ENDBRANCH  12  13
ENDBRANCH  11  12
ENDBRANCH   7  11
BRANCH   9  17
HETATM   17  O1  UNL     1      18.169 -34.227   4.012  1.00  0.00    -0.341 OA
ATOM     18  H1  UNL     1      18.864 -33.967   3.417  1.00  0.00     0.220 HD
ENDBRANCH   9  17
ENDBRANCH   5   6
ENDBRANCH   4   5
ENDBRANCH   1   4
BRANCH   1  19
HETATM   19  C14 UNL     1      18.752 -39.446   5.585  1.00  0.00     0.189 C 
BRANCH  19  20
HETATM   20  O4  UNL     1      19.807 -39.089   4.909  1.00  0.00    -0.379 OA
BRANCH  20  21
HETATM   21  C15 UNL     1      20.740 -38.176   5.265  1.00  0.00     0.189 C 
HETATM   22  C16 UNL     1      20.938 -37.232   4.127  1.00  0.00     0.181 C 
HETATM   23  C17 UNL     1      22.336 -36.949   3.695  1.00  0.00     0.178 C 
HETATM   24  C18 UNL     1      23.430 -37.194   4.639  1.00  0.00     0.152 C 
HETATM   25  C19 UNL     1      22.966 -37.588   6.017  1.00  0.00     0.077 C 
HETATM   26  C20 UNL     1      21.988 -38.731   5.882  1.00  0.00     0.110 C 
BRANCH  22  27
HETATM   27  O5  UNL     1      20.382 -35.996   4.480  1.00  0.00    -0.390 OA
ATOM     28  H5  UNL     1      20.647 -35.795   5.370  1.00  0.00     0.210 HD
ENDBRANCH  22  27
BRANCH  23  29
HETATM   29  O6  UNL     1      22.407 -35.636   3.174  1.00  0.00    -0.390 OA
ATOM     30  H6  UNL     1      22.463 -35.678   2.227  1.00  0.00     0.210 HD
ENDBRANCH  23  29
BRANCH  24  31
HETATM   31  O7  UNL     1      24.168 -36.017   4.800  1.00  0.00    -0.393 OA
ATOM     32  H7  UNL     1      25.039 -36.143   4.441  1.00  0.00     0.210 HD
ENDBRANCH  24  31
BRANCH  26  33
HETATM   33  O8  UNL     1      21.690 -39.096   7.198  1.00  0.00    -0.385 OA
ATOM     34  H8  UNL     1      20.768 -38.924   7.347  1.00  0.00     0.210 HD
ENDBRANCH  26  33
BRANCH  26  35
HETATM   35  C21 UNL     1      22.641 -39.835   5.119  1.00  0.00     0.204 C 
BRANCH  35  36
HETATM   36  O9  UNL     1      21.994 -41.060   5.261  1.00  0.00    -0.398 OA
ATOM     37  H9  UNL     1      21.934 -41.351   6.164  1.00  0.00     0.209 HD
ENDBRANCH  35  36
ENDBRANCH  26  35
ENDBRANCH  20  21
ENDBRANCH  19  20
ENDBRANCH   1  19
TORSDOF 16
ENDMDL
MODEL 5
REMARK VINA RESULT: -8.408338224      3.805      5.806
REMARK  16 active torsions:
REMARK  status: ('A' for Active; 'I' for Inactive)
REMARK    1  A    between atoms: C2_2  and  C5_5 
REMARK    2  A    between atoms: C5_5  and  C6_6 
REMARK    3  A    between atoms: C6_6  and  C7_7 
REMARK    4  A    between atoms: C9_9  and  O1_10 
REMARK    5  A    between atoms: C10_13  and  O3_14 
REMARK    6  A    between atoms: O3_14  and  C11_15 
REMARK    7  A    between atoms: C11_15  and  C12_16 
REMARK    8  A    between atoms: C12_16  and  C14_19 
REMARK    9  A    between atoms: C14_19  and  O4_20 
REMARK   10  A    between atoms: O4_20  and  C15_21 
REMARK   11  A    between atoms: C16_22  and  O5_23 
REMARK   12  A    between atoms: C17_25  and  O6_26 
REMARK   13  A    between atoms: C18_28  and  O7_29 
REMARK   14  A    between atoms: C20_32  and  O8_33 
REMARK   15  A    between atoms: C20_32  and  C21_35 
REMARK   16  A    between atoms: C21_35  and  O9_36 
ROOT
HETATM    1  C12 UNL     1      15.728 -36.414   3.500  1.00  0.00     0.141 C 
HETATM    2  C13 UNL     1      16.454 -35.966   2.292  1.00  0.00     0.068 C 
HETATM    3  N1  UNL     1      17.044 -35.623   1.346  1.00  0.00    -0.197 NA
ENDROOT
BRANCH   1   4
HETATM    4  C11 UNL     1      14.291 -35.957   3.260  1.00  0.00     0.199 C 
BRANCH   4   5
HETATM    5  O3  UNL     1      13.696 -36.578   2.164  1.00  0.00    -0.328 OA
BRANCH   5   6
HETATM    6  C10 UNL     1      12.492 -36.191   1.603  1.00  0.00     0.194 A 
HETATM    7  C7  UNL     1      11.262 -36.037   2.209  1.00  0.00     0.005 A 
HETATM    8  C8  UNL     1      10.371 -35.638   1.242  1.00  0.00     0.076 A 
HETATM    9  C9  UNL     1      11.106 -35.565   0.063  1.00  0.00     0.186 A 
HETATM   10  O2  UNL     1      12.321 -35.897   0.345  1.00  0.00    -0.264 OA
BRANCH   7  11
HETATM   11  C6  UNL     1      11.000 -36.240   3.636  1.00  0.00     0.044 C 
BRANCH  11  12
HETATM   12  C5  UNL     1       9.662 -35.906   4.159  1.00  0.00     0.013 C 
BRANCH  12  13
HETATM   13  C2  UNL     1       9.024 -36.782   5.154  1.00  0.00    -0.051 C 
HETATM   14  C1  UNL     1       8.455 -36.186   6.382  1.00  0.00     0.014 C 
HETATM   15  C3  UNL     1       7.869 -37.506   4.422  1.00  0.00     0.014 C 
HETATM   16  C4  UNL     1       9.985 -37.942   5.520  1.00  0.00     0.014 C 
ENDBRANCH  12  13
ENDBRANCH  11  12
ENDBRANCH   7  11
BRANCH   9  17
HETATM   17  O1  UNL     1      10.652 -35.204  -1.202  1.00  0.00    -0.341 OA
ATOM     18  H1  UNL     1      10.785 -35.668  -2.021  1.00  0.00     0.220 HD
ENDBRANCH   9  17
ENDBRANCH   5   6
ENDBRANCH   4   5
ENDBRANCH   1   4
BRANCH   1  19
HETATM   19  C14 UNL     1      15.816 -37.915   3.541  1.00  0.00     0.189 C 
BRANCH  19  20
HETATM   20  O4  UNL     1      17.030 -38.365   3.678  1.00  0.00    -0.379 OA
BRANCH  20  21
HETATM   21  C15 UNL     1      17.848 -38.210   4.746  1.00  0.00     0.189 C 
HETATM   22  C16 UNL     1      19.147 -37.653   4.271  1.00  0.00     0.181 C 
HETATM   23  C17 UNL     1      20.397 -38.322   4.731  1.00  0.00     0.178 C 
HETATM   24  C18 UNL     1      20.355 -39.142   5.945  1.00  0.00     0.152 C 
HETATM   25  C19 UNL     1      19.033 -39.090   6.666  1.00  0.00     0.077 C 
HETATM   26  C20 UNL     1      17.935 -39.385   5.671  1.00  0.00     0.110 C 
BRANCH  22  27
HETATM   27  O5  UNL     1      19.238 -36.323   4.697  1.00  0.00    -0.390 OA
ATOM     28  H5  UNL     1      20.111 -36.007   4.502  1.00  0.00     0.210 HD
ENDBRANCH  22  27
BRANCH  23  29
HETATM   29  O6  UNL     1      21.436 -37.365   4.808  1.00  0.00    -0.390 OA
ATOM     30  H6  UNL     1      21.630 -37.188   5.721  1.00  0.00     0.210 HD
ENDBRANCH  23  29
BRANCH  24  31
HETATM   31  O7  UNL     1      21.309 -38.669   6.852  1.00  0.00    -0.393 OA
ATOM     32  H7  UNL     1      20.953 -38.716   7.732  1.00  0.00     0.210 HD
ENDBRANCH  24  31
BRANCH  26  33
HETATM   33  O8  UNL     1      16.767 -39.417   6.437  1.00  0.00    -0.385 OA
ATOM     34  H8  UNL     1      16.683 -40.289   6.806  1.00  0.00     0.210 HD
ENDBRANCH  26  33
BRANCH  26  35
HETATM   35  C21 UNL     1      18.221 -40.695   5.015  1.00  0.00     0.204 C 
BRANCH  35  36
HETATM   36  O9  UNL     1      17.076 -41.342   4.557  1.00  0.00    -0.398 OA
ATOM     37  H9  UNL     1      16.999 -41.344   3.610  1.00  0.00     0.209 HD
ENDBRANCH  35  36
ENDBRANCH  26  35
ENDBRANCH  20  21
ENDBRANCH  19  20
ENDBRANCH   1  19
TORSDOF 16
ENDMDL
