MODEL 1
REMARK VINA RESULT: -8.596346336      0.000      0.000
REMARK  14 active torsions:
REMARK  status: ('A' for Active; 'I' for Inactive)
REMARK    1  A    between atoms: C2_2  and  C3_3 
REMARK    2  A    between atoms: C3_3  and  C4_4 
REMARK    3  A    between atoms: C4_4  and  C5_5 
REMARK    4  A    between atoms: C5_5  and  C6_6 
REMARK    5  A    between atoms: C6_6  and  O1_7 
REMARK    6  A    between atoms: O1_7  and  C7_8 
REMARK    7  A    between atoms: C7_8  and  O2_9 
REMARK    8  A    between atoms: O2_9  and  C8_10 
REMARK    9  A    between atoms: C11_14  and  O4_15 
REMARK   10  A    between atoms: C14_19  and  O5_20 
REMARK   11  A    between atoms: C15_23  and  O7_24 
REMARK   12  A    between atoms: C19_29  and  O8_30 
REMARK   13  A    between atoms: C20_32  and  O9_33 
REMARK   14  A    between atoms: C21_35  and  O10_36 
ROOT
HETATM    1  C8  UNL     1      16.734 -37.109   3.635  1.00  0.00     0.293 C 
HETATM    2  O3  UNL     1      16.611 -38.056   4.675  1.00  0.00    -0.353 OA
HETATM    3  C9  UNL     1      17.341 -39.146   4.279  1.00  0.00     0.135 C 
HETATM    4  C10 UNL     1      16.905 -40.453   4.819  1.00  0.00     0.073 C 
HETATM    5  C11 UNL     1      17.713 -40.933   6.008  1.00  0.00     0.090 C 
HETATM    6  C12 UNL     1      18.876 -41.770   5.578  1.00  0.00     0.085 C 
HETATM    7  C13 UNL     1      20.184 -41.174   5.902  1.00  0.00     0.015 A 
HETATM    8  C14 UNL     1      21.415 -41.754   6.042  1.00  0.00     0.192 A 
HETATM    9  O6  UNL     1      22.277 -40.805   6.336  1.00  0.00    -0.264 OA
HETATM   10  C15 UNL     1      21.695 -39.639   6.398  1.00  0.00     0.193 A 
HETATM   11  C16 UNL     1      20.381 -39.824   6.132  1.00  0.00     0.019 A 
HETATM   12  C17 UNL     1      19.150 -38.968   6.032  1.00  0.00     0.065 C 
HETATM   13  C18 UNL     1      18.805 -38.841   4.565  1.00  0.00     0.057 C 
HETATM   14  C19 UNL     1      19.206 -37.514   4.009  1.00  0.00     0.159 C 
HETATM   15  C20 UNL     1      18.125 -36.805   3.247  1.00  0.00     0.202 C 
HETATM   16  C21 UNL     1      18.081 -39.732   6.812  1.00  0.00     0.162 C 
ENDROOT
BRANCH   1  17
HETATM   17  O2  UNL     1      16.053 -35.952   4.023  1.00  0.00    -0.335 OA
BRANCH  17  18
HETATM   18  C7  UNL     1      15.060 -35.644   3.079  1.00  0.00     0.341 C 
BRANCH  18  19
HETATM   19  O1  UNL     1      14.015 -36.536   3.181  1.00  0.00    -0.367 OA
BRANCH  19  20
HETATM   20  C6  UNL     1      13.378 -36.717   1.993  1.00  0.00     0.170 C 
BRANCH  20  21
HETATM   21  C5  UNL     1      13.985 -37.828   1.198  1.00  0.00     0.026 C 
BRANCH  21  22
HETATM   22  C4  UNL     1      13.648 -37.660  -0.251  1.00  0.00     0.002 C 
BRANCH  22  23
HETATM   23  C3  UNL     1      14.212 -36.394  -0.789  1.00  0.00    -0.000 C 
BRANCH  23  24
HETATM   24  C2  UNL     1      13.359 -35.860  -1.899  1.00  0.00    -0.005 C 
HETATM   25  C1  UNL     1      11.942 -35.718  -1.346  1.00  0.00     0.005 C 
ENDBRANCH  23  24
ENDBRANCH  22  23
ENDBRANCH  21  22
ENDBRANCH  20  21
ENDBRANCH  19  20
ENDBRANCH  18  19
ENDBRANCH  17  18
ENDBRANCH   1  17
BRANCH  15  26
HETATM   26  O9  UNL     1      18.305 -35.402   3.323  1.00  0.00    -0.388 OA
ATOM     27  H9  UNL     1      18.084 -35.030   2.477  1.00  0.00     0.210 HD
ENDBRANCH  15  26
BRANCH  14  28
HETATM   28  O8  UNL     1      19.593 -36.683   5.059  1.00  0.00    -0.392 OA
ATOM     29  H8  UNL     1      18.819 -36.271   5.426  1.00  0.00     0.210 HD
ENDBRANCH  14  28
BRANCH   5  30
HETATM   30  O4  UNL     1      16.873 -41.737   6.791  1.00  0.00    -0.387 OA
ATOM     31  H4  UNL     1      17.111 -41.598   7.700  1.00  0.00     0.210 HD
ENDBRANCH   5  30
BRANCH  16  32
HETATM   32  O10 UNL     1      18.642 -40.048   8.048  1.00  0.00    -0.392 OA
ATOM     33  H10 UNL     1      17.997 -40.291   8.701  1.00  0.00     0.210 HD
ENDBRANCH  16  32
BRANCH  10  34
HETATM   34  O7  UNL     1      22.263 -38.393   6.682  1.00  0.00    -0.340 OA
ATOM     35  H7  UNL     1      22.932 -38.176   7.320  1.00  0.00     0.220 HD
ENDBRANCH  10  34
BRANCH   8  36
HETATM   36  O5  UNL     1      21.771 -43.096   5.913  1.00  0.00    -0.340 OA
ATOM     37  H5  UNL     1      22.216 -43.528   5.194  1.00  0.00     0.220 HD
ENDBRANCH   8  36
TORSDOF 14
ENDMDL
MODEL 2
REMARK VINA RESULT: -8.492075611      1.712      2.234
REMARK  14 active torsions:
REMARK  status: ('A' for Active; 'I' for Inactive)
REMARK    1  A    between atoms: C2_2  and  C3_3 
REMARK    2  A    between atoms: C3_3  and  C4_4 
REMARK    3  A    between atoms: C4_4  and  C5_5 
REMARK    4  A    between atoms: C5_5  and  C6_6 
REMARK    5  A    between atoms: C6_6  and  O1_7 
REMARK    6  A    between atoms: O1_7  and  C7_8 
REMARK    7  A    between atoms: C7_8  and  O2_9 
REMARK    8  A    between atoms: O2_9  and  C8_10 
REMARK    9  A    between atoms: C11_14  and  O4_15 
REMARK   10  A    between atoms: C14_19  and  O5_20 
REMARK   11  A    between atoms: C15_23  and  O7_24 
REMARK   12  A    between atoms: C19_29  and  O8_30 
REMARK   13  A    between atoms: C20_32  and  O9_33 
REMARK   14  A    between atoms: C21_35  and  O10_36 
ROOT
HETATM    1  C8  UNL     1      18.599 -37.094   3.989  1.00  0.00     0.293 C 
HETATM    2  O3  UNL     1      17.858 -37.941   4.842  1.00  0.00    -0.353 OA
HETATM    3  C9  UNL     1      18.233 -39.219   4.521  1.00  0.00     0.135 C 
HETATM    4  C10 UNL     1      17.228 -40.275   4.771  1.00  0.00     0.073 C 
HETATM    5  C11 UNL     1      17.440 -41.040   6.062  1.00  0.00     0.090 C 
HETATM    6  C12 UNL     1      18.300 -42.245   5.849  1.00  0.00     0.085 C 
HETATM    7  C13 UNL     1      19.585 -42.188   6.567  1.00  0.00     0.015 A 
HETATM    8  C14 UNL     1      20.436 -43.189   6.949  1.00  0.00     0.192 A 
HETATM    9  O6  UNL     1      21.458 -42.636   7.566  1.00  0.00    -0.264 OA
HETATM   10  C15 UNL     1      21.337 -41.338   7.615  1.00  0.00     0.193 A 
HETATM   11  C16 UNL     1      20.176 -41.013   6.999  1.00  0.00     0.019 A 
HETATM   12  C17 UNL     1      19.411 -39.757   6.688  1.00  0.00     0.065 C 
HETATM   13  C18 UNL     1      19.565 -39.489   5.207  1.00  0.00     0.057 C 
HETATM   14  C19 UNL     1      20.551 -38.401   4.935  1.00  0.00     0.159 C 
HETATM   15  C20 UNL     1      20.056 -37.327   4.011  1.00  0.00     0.202 C 
HETATM   16  C21 UNL     1      17.968 -40.076   7.070  1.00  0.00     0.162 C 
ENDROOT
BRANCH   1  17
HETATM   17  O2  UNL     1      18.294 -35.771   4.324  1.00  0.00    -0.335 OA
BRANCH  17  18
HETATM   18  C7  UNL     1      17.144 -35.358   3.633  1.00  0.00     0.341 C 
BRANCH  18  19
HETATM   19  O1  UNL     1      17.308 -35.553   2.278  1.00  0.00    -0.367 OA
BRANCH  19  20
HETATM   20  C6  UNL     1      16.149 -35.921   1.670  1.00  0.00     0.170 C 
BRANCH  20  21
HETATM   21  C5  UNL     1      15.318 -36.807   2.540  1.00  0.00     0.026 C 
BRANCH  21  22
HETATM   22  C4  UNL     1      14.230 -37.441   1.730  1.00  0.00     0.002 C 
BRANCH  22  23
HETATM   23  C3  UNL     1      12.982 -36.636   1.785  1.00  0.00    -0.000 C 
BRANCH  23  24
HETATM   24  C2  UNL     1      12.786 -36.049   3.150  1.00  0.00    -0.005 C 
HETATM   25  C1  UNL     1      11.343 -35.556   3.223  1.00  0.00     0.005 C 
ENDBRANCH  23  24
ENDBRANCH  22  23
ENDBRANCH  21  22
ENDBRANCH  20  21
ENDBRANCH  19  20
ENDBRANCH  18  19
ENDBRANCH  17  18
ENDBRANCH   1  17
BRANCH  15  26
HETATM   26  O9  UNL     1      20.694 -36.096   4.297  1.00  0.00    -0.388 OA
ATOM     27  H9  UNL     1      21.603 -36.164   4.025  1.00  0.00     0.210 HD
ENDBRANCH  15  26
BRANCH  14  28
HETATM   28  O8  UNL     1      20.894 -37.790   6.141  1.00  0.00    -0.392 OA
ATOM     29  H8  UNL     1      21.827 -37.900   6.287  1.00  0.00     0.210 HD
ENDBRANCH  14  28
BRANCH   5  30
HETATM   30  O4  UNL     1      16.185 -41.482   6.501  1.00  0.00    -0.387 OA
ATOM     31  H4  UNL     1      15.606 -40.729   6.519  1.00  0.00     0.210 HD
ENDBRANCH   5  30
BRANCH  16  32
HETATM   32  O10 UNL     1      18.005 -40.597   8.362  1.00  0.00    -0.392 OA
ATOM     33  H10 UNL     1      17.792 -39.957   9.031  1.00  0.00     0.210 HD
ENDBRANCH  16  32
BRANCH  10  34
HETATM   34  O7  UNL     1      22.206 -40.399   8.181  1.00  0.00    -0.340 OA
ATOM     35  H7  UNL     1      22.040 -39.788   8.888  1.00  0.00     0.220 HD
ENDBRANCH  10  34
BRANCH   8  36
HETATM   36  O5  UNL     1      20.312 -44.564   6.757  1.00  0.00    -0.340 OA
ATOM     37  H5  UNL     1      20.161 -45.245   7.402  1.00  0.00     0.220 HD
ENDBRANCH   8  36
TORSDOF 14
ENDMDL
MODEL 3
REMARK VINA RESULT: -8.448158476      2.582      8.907
REMARK  14 active torsions:
REMARK  status: ('A' for Active; 'I' for Inactive)
REMARK    1  A    between atoms: C2_2  and  C3_3 
REMARK    2  A    between atoms: C3_3  and  C4_4 
REMARK    3  A    between atoms: C4_4  and  C5_5 
REMARK    4  A    between atoms: C5_5  and  C6_6 
REMARK    5  A    between atoms: C6_6  and  O1_7 
REMARK    6  A    between atoms: O1_7  and  C7_8 
REMARK    7  A    between atoms: C7_8  and  O2_9 
REMARK    8  A    between atoms: O2_9  and  C8_10 
REMARK    9  A    between atoms: C11_14  and  O4_15 
REMARK   10  A    between atoms: C14_19  and  O5_20 
REMARK   11  A    between atoms: C15_23  and  O7_24 
REMARK   12  A    between atoms: C19_29  and  O8_30 
REMARK   13  A    between atoms: C20_32  and  O9_33 
REMARK   14  A    between atoms: C21_35  and  O10_36 
ROOT
HETATM    1  C8  UNL     1      16.054 -36.103   3.672  1.00  0.00     0.293 C 
HETATM    2  O3  UNL     1      14.943 -36.852   3.230  1.00  0.00    -0.353 OA
HETATM    3  C9  UNL     1      14.091 -35.953   2.642  1.00  0.00     0.135 C 
HETATM    4  C10 UNL     1      12.655 -36.306   2.664  1.00  0.00     0.073 C 
HETATM    5  C11 UNL     1      12.148 -36.916   1.372  1.00  0.00     0.090 C 
HETATM    6  C12 UNL     1      11.629 -35.868   0.439  1.00  0.00     0.085 C 
HETATM    7  C13 UNL     1      12.401 -35.756  -0.811  1.00  0.00     0.015 A 
HETATM    8  C14 UNL     1      12.050 -35.244  -2.031  1.00  0.00     0.192 A 
HETATM    9  O6  UNL     1      13.083 -35.370  -2.834  1.00  0.00    -0.264 OA
HETATM   10  C15 UNL     1      14.091 -35.932  -2.225  1.00  0.00     0.193 A 
HETATM   11  C16 UNL     1      13.707 -36.191  -0.953  1.00  0.00     0.019 A 
HETATM   12  C17 UNL     1      14.317 -36.803   0.276  1.00  0.00     0.065 C 
HETATM   13  C18 UNL     1      14.617 -35.677   1.241  1.00  0.00     0.057 C 
HETATM   14  C19 UNL     1      16.070 -35.329   1.260  1.00  0.00     0.159 C 
HETATM   15  C20 UNL     1      16.677 -35.262   2.631  1.00  0.00     0.202 C 
HETATM   16  C21 UNL     1      13.247 -37.752   0.811  1.00  0.00     0.162 C 
ENDROOT
BRANCH   1  17
HETATM   17  O2  UNL     1      16.981 -36.990   4.226  1.00  0.00    -0.335 OA
BRANCH  17  18
HETATM   18  C7  UNL     1      16.375 -38.238   4.442  1.00  0.00     0.341 C 
BRANCH  18  19
HETATM   19  O1  UNL     1      17.157 -39.243   3.916  1.00  0.00    -0.367 OA
BRANCH  19  20
HETATM   20  C6  UNL     1      17.647 -40.069   4.879  1.00  0.00     0.170 C 
BRANCH  20  21
HETATM   21  C5  UNL     1      17.134 -39.711   6.237  1.00  0.00     0.026 C 
BRANCH  21  22
HETATM   22  C4  UNL     1      18.259 -39.718   7.224  1.00  0.00     0.002 C 
BRANCH  22  23
HETATM   23  C3  UNL     1      19.522 -39.243   6.602  1.00  0.00    -0.000 C 
BRANCH  23  24
HETATM   24  C2  UNL     1      20.668 -39.366   7.559  1.00  0.00    -0.005 C 
HETATM   25  C1  UNL     1      20.134 -40.063   8.809  1.00  0.00     0.005 C 
ENDBRANCH  23  24
ENDBRANCH  22  23
ENDBRANCH  21  22
ENDBRANCH  20  21
ENDBRANCH  19  20
ENDBRANCH  18  19
ENDBRANCH  17  18
ENDBRANCH   1  17
BRANCH  15  26
HETATM   26  O9  UNL     1      18.056 -35.579   2.577  1.00  0.00    -0.388 OA
ATOM     27  H9  UNL     1      18.360 -35.423   1.690  1.00  0.00     0.210 HD
ENDBRANCH  15  26
BRANCH  14  28
HETATM   28  O8  UNL     1      16.775 -36.291   0.537  1.00  0.00    -0.392 OA
ATOM     29  H8  UNL     1      17.419 -36.693   1.107  1.00  0.00     0.210 HD
ENDBRANCH  14  28
BRANCH   5  30
HETATM   30  O4  UNL     1      11.081 -37.764   1.697  1.00  0.00    -0.387 OA
ATOM     31  H4  UNL     1      11.287 -38.179   2.527  1.00  0.00     0.210 HD
ENDBRANCH   5  30
BRANCH  16  32
HETATM   32  O10 UNL     1      12.843 -38.541  -0.264  1.00  0.00    -0.392 OA
ATOM     33  H10 UNL     1      12.793 -39.466  -0.053  1.00  0.00     0.210 HD
ENDBRANCH  16  32
BRANCH  10  34
HETATM   34  O7  UNL     1      15.359 -36.238  -2.731  1.00  0.00    -0.340 OA
ATOM     35  H7  UNL     1      16.200 -35.874  -2.485  1.00  0.00     0.220 HD
ENDBRANCH  10  34
BRANCH   8  36
HETATM   36  O5  UNL     1      10.840 -34.675  -2.426  1.00  0.00    -0.340 OA
ATOM     37  H5  UNL     1      10.687 -33.856  -2.882  1.00  0.00     0.220 HD
ENDBRANCH   8  36
TORSDOF 14
ENDMDL
MODEL 4
REMARK VINA RESULT: -8.419352853      1.323      1.920
REMARK  14 active torsions:
REMARK  status: ('A' for Active; 'I' for Inactive)
REMARK    1  A    between atoms: C2_2  and  C3_3 
REMARK    2  A    between atoms: C3_3  and  C4_4 
REMARK    3  A    between atoms: C4_4  and  C5_5 
REMARK    4  A    between atoms: C5_5  and  C6_6 
REMARK    5  A    between atoms: C6_6  and  O1_7 
REMARK    6  A    between atoms: O1_7  and  C7_8 
REMARK    7  A    between atoms: C7_8  and  O2_9 
REMARK    8  A    between atoms: O2_9  and  C8_10 
REMARK    9  A    between atoms: C11_14  and  O4_15 
REMARK   10  A    between atoms: C14_19  and  O5_20 
REMARK   11  A    between atoms: C15_23  and  O7_24 
REMARK   12  A    between atoms: C19_29  and  O8_30 
REMARK   13  A    between atoms: C20_32  and  O9_33 
REMARK   14  A    between atoms: C21_35  and  O10_36 
ROOT
HETATM    1  C8  UNL     1      18.500 -37.004   3.987  1.00  0.00     0.293 C 
HETATM    2  O3  UNL     1      17.779 -37.879   4.828  1.00  0.00    -0.353 OA
HETATM    3  C9  UNL     1      18.157 -39.146   4.465  1.00  0.00     0.135 C 
HETATM    4  C10 UNL     1      17.163 -40.215   4.702  1.00  0.00     0.073 C 
HETATM    5  C11 UNL     1      17.401 -41.014   5.968  1.00  0.00     0.090 C 
HETATM    6  C12 UNL     1      18.266 -42.207   5.708  1.00  0.00     0.085 C 
HETATM    7  C13 UNL     1      19.562 -42.160   6.406  1.00  0.00     0.015 A 
HETATM    8  C14 UNL     1      20.426 -43.165   6.747  1.00  0.00     0.192 A 
HETATM    9  O6  UNL     1      21.454 -42.622   7.362  1.00  0.00    -0.264 OA
HETATM   10  C15 UNL     1      21.325 -41.327   7.449  1.00  0.00     0.193 A 
HETATM   11  C16 UNL     1      20.152 -40.993   6.861  1.00  0.00     0.019 A 
HETATM   12  C17 UNL     1      19.374 -39.735   6.598  1.00  0.00     0.065 C 
HETATM   13  C18 UNL     1      19.502 -39.425   5.122  1.00  0.00     0.057 C 
HETATM   14  C19 UNL     1      20.476 -38.323   4.864  1.00  0.00     0.159 C 
HETATM   15  C20 UNL     1      19.959 -37.228   3.979  1.00  0.00     0.202 C 
HETATM   16  C21 UNL     1      17.939 -40.074   6.994  1.00  0.00     0.162 C 
ENDROOT
BRANCH   1  17
HETATM   17  O2  UNL     1      18.191 -35.694   4.362  1.00  0.00    -0.335 OA
BRANCH  17  18
HETATM   18  C7  UNL     1      17.057 -35.252   3.664  1.00  0.00     0.341 C 
BRANCH  18  19
HETATM   19  O1  UNL     1      17.156 -35.594   2.332  1.00  0.00    -0.367 OA
BRANCH  19  20
HETATM   20  C6  UNL     1      15.958 -35.971   1.810  1.00  0.00     0.170 C 
BRANCH  20  21
HETATM   21  C5  UNL     1      14.890 -36.042   2.854  1.00  0.00     0.026 C 
BRANCH  21  22
HETATM   22  C4  UNL     1      13.692 -36.753   2.308  1.00  0.00     0.002 C 
BRANCH  22  23
HETATM   23  C3  UNL     1      14.082 -37.739   1.266  1.00  0.00    -0.000 C 
BRANCH  23  24
HETATM   24  C2  UNL     1      13.071 -37.773   0.160  1.00  0.00    -0.005 C 
HETATM   25  C1  UNL     1      13.605 -36.886  -0.962  1.00  0.00     0.005 C 
ENDBRANCH  23  24
ENDBRANCH  22  23
ENDBRANCH  21  22
ENDBRANCH  20  21
ENDBRANCH  19  20
ENDBRANCH  18  19
ENDBRANCH  17  18
ENDBRANCH   1  17
BRANCH  15  26
HETATM   26  O9  UNL     1      20.593 -36.000   4.288  1.00  0.00    -0.388 OA
ATOM     27  H9  UNL     1      20.954 -36.067   5.165  1.00  0.00     0.210 HD
ENDBRANCH  15  26
BRANCH  14  28
HETATM   28  O8  UNL     1      20.835 -37.743   6.081  1.00  0.00    -0.392 OA
ATOM     29  H8  UNL     1      21.051 -36.829   5.934  1.00  0.00     0.210 HD
ENDBRANCH  14  28
BRANCH   5  30
HETATM   30  O4  UNL     1      16.157 -41.477   6.415  1.00  0.00    -0.387 OA
ATOM     31  H4  UNL     1      16.224 -41.618   7.352  1.00  0.00     0.210 HD
ENDBRANCH   5  30
BRANCH  16  32
HETATM   32  O10 UNL     1      18.001 -40.631   8.270  1.00  0.00    -0.392 OA
ATOM     33  H10 UNL     1      17.152 -40.887   8.609  1.00  0.00     0.210 HD
ENDBRANCH  16  32
BRANCH  10  34
HETATM   34  O7  UNL     1      22.197 -40.398   8.026  1.00  0.00    -0.340 OA
ATOM     35  H7  UNL     1      22.056 -39.845   8.785  1.00  0.00     0.220 HD
ENDBRANCH  10  34
BRANCH   8  36
HETATM   36  O5  UNL     1      20.308 -44.535   6.519  1.00  0.00    -0.340 OA
ATOM     37  H5  UNL     1      19.829 -45.184   7.021  1.00  0.00     0.220 HD
ENDBRANCH   8  36
TORSDOF 14
ENDMDL
MODEL 5
REMARK VINA RESULT: -8.385999715      1.839      2.547
REMARK  14 active torsions:
REMARK  status: ('A' for Active; 'I' for Inactive)
REMARK    1  A    between atoms: C2_2  and  C3_3 
REMARK    2  A    between atoms: C3_3  and  C4_4 
REMARK    3  A    between atoms: C4_4  and  C5_5 
REMARK    4  A    between atoms: C5_5  and  C6_6 
REMARK    5  A    between atoms: C6_6  and  O1_7 
REMARK    6  A    between atoms: O1_7  and  C7_8 
REMARK    7  A    between atoms: C7_8  and  O2_9 
REMARK    8  A    between atoms: O2_9  and  C8_10 
REMARK    9  A    between atoms: C11_14  and  O4_15 
REMARK   10  A    between atoms: C14_19  and  O5_20 
REMARK   11  A    between atoms: C15_23  and  O7_24 
REMARK   12  A    between atoms: C19_29  and  O8_30 
REMARK   13  A    between atoms: C20_32  and  O9_33 
REMARK   14  A    between atoms: C21_35  and  O10_36 
ROOT
HETATM    1  C8  UNL     1      16.692 -37.117   3.635  1.00  0.00     0.293 C 
HETATM    2  O3  UNL     1      16.586 -38.058   4.681  1.00  0.00    -0.353 OA
HETATM    3  C9  UNL     1      17.317 -39.147   4.284  1.00  0.00     0.135 C 
HETATM    4  C10 UNL     1      16.894 -40.452   4.836  1.00  0.00     0.073 C 
HETATM    5  C11 UNL     1      17.717 -40.921   6.019  1.00  0.00     0.090 C 
HETATM    6  C12 UNL     1      18.879 -41.755   5.581  1.00  0.00     0.085 C 
HETATM    7  C13 UNL     1      20.188 -41.151   5.886  1.00  0.00     0.015 A 
HETATM    8  C14 UNL     1      21.424 -41.724   6.016  1.00  0.00     0.192 A 
HETATM    9  O6  UNL     1      22.284 -40.769   6.294  1.00  0.00    -0.264 OA
HETATM   10  C15 UNL     1      21.697 -39.606   6.356  1.00  0.00     0.193 A 
HETATM   11  C16 UNL     1      20.381 -39.798   6.106  1.00  0.00     0.019 A 
HETATM   12  C17 UNL     1      19.144 -38.950   6.015  1.00  0.00     0.065 C 
HETATM   13  C18 UNL     1      18.783 -38.833   4.551  1.00  0.00     0.057 C 
HETATM   14  C19 UNL     1      19.170 -37.507   3.982  1.00  0.00     0.159 C 
HETATM   15  C20 UNL     1      18.077 -36.808   3.229  1.00  0.00     0.202 C 
HETATM   16  C21 UNL     1      18.088 -39.713   6.812  1.00  0.00     0.162 C 
ENDROOT
BRANCH   1  17
HETATM   17  O2  UNL     1      16.010 -35.960   4.023  1.00  0.00    -0.335 OA
BRANCH  17  18
HETATM   18  C7  UNL     1      14.932 -35.729   3.155  1.00  0.00     0.341 C 
BRANCH  18  19
HETATM   19  O1  UNL     1      13.848 -36.493   3.530  1.00  0.00    -0.367 OA
BRANCH  19  20
HETATM   20  C6  UNL     1      12.832 -36.419   2.628  1.00  0.00     0.170 C 
BRANCH  20  21
HETATM   21  C5  UNL     1      11.666 -35.651   3.160  1.00  0.00     0.026 C 
BRANCH  21  22
HETATM   22  C4  UNL     1      10.392 -36.359   2.817  1.00  0.00     0.002 C 
BRANCH  22  23
HETATM   23  C3  UNL     1       9.450 -36.354   3.967  1.00  0.00    -0.000 C 
BRANCH  23  24
HETATM   24  C2  UNL     1       8.854 -37.713   4.173  1.00  0.00    -0.005 C 
HETATM   25  C1  UNL     1       7.383 -37.507   4.528  1.00  0.00     0.005 C 
ENDBRANCH  23  24
ENDBRANCH  22  23
ENDBRANCH  21  22
ENDBRANCH  20  21
ENDBRANCH  19  20
ENDBRANCH  18  19
ENDBRANCH  17  18
ENDBRANCH   1  17
BRANCH  15  26
HETATM   26  O9  UNL     1      18.252 -35.404   3.294  1.00  0.00    -0.388 OA
ATOM     27  H9  UNL     1      18.967 -35.168   2.714  1.00  0.00     0.210 HD
ENDBRANCH  15  26
BRANCH  14  28
HETATM   28  O8  UNL     1      19.565 -36.668   5.023  1.00  0.00    -0.392 OA
ATOM     29  H8  UNL     1      20.364 -37.010   5.408  1.00  0.00     0.210 HD
ENDBRANCH  14  28
BRANCH   5  30
HETATM   30  O4  UNL     1      16.891 -41.725   6.816  1.00  0.00    -0.387 OA
ATOM     31  H4  UNL     1      17.302 -42.579   6.884  1.00  0.00     0.210 HD
ENDBRANCH   5  30
BRANCH  16  32
HETATM   32  O10 UNL     1      18.665 -40.019   8.043  1.00  0.00    -0.392 OA
ATOM     33  H10 UNL     1      18.249 -40.753   8.479  1.00  0.00     0.210 HD
ENDBRANCH  16  32
BRANCH  10  34
HETATM   34  O7  UNL     1      22.262 -38.355   6.626  1.00  0.00    -0.340 OA
ATOM     35  H7  UNL     1      23.175 -38.097   6.597  1.00  0.00     0.220 HD
ENDBRANCH  10  34
BRANCH   8  36
HETATM   36  O5  UNL     1      21.784 -43.065   5.891  1.00  0.00    -0.340 OA
ATOM     37  H5  UNL     1      22.482 -43.538   6.328  1.00  0.00     0.220 HD
ENDBRANCH   8  36
TORSDOF 14
ENDMDL
