MODEL 1
REMARK VINA RESULT: -8.430289844      0.000      0.000
REMARK  15 active torsions:
REMARK  status: ('A' for Active; 'I' for Inactive)
REMARK    1  A    between atoms: O1_2  and  C2_3 
REMARK    2  A    between atoms: C4_5  and  O2_6 
REMARK    3  A    between atoms: C4_5  and  O3_8 
REMARK    4  A    between atoms: O3_8  and  C6_9 
REMARK    5  A    between atoms: C6_9  and  C7_10 
REMARK    6  A    between atoms: C7_10  and  C8_11 
REMARK    7  A    between atoms: C9_12  and  C10_13 
REMARK    8  A    between atoms: C10_13  and  C11_14 
REMARK    9  A    between atoms: C11_14  and  C12_15 
REMARK   10  A    between atoms: C14_17  and  O4_18 
REMARK   11  A    between atoms: C16_21  and  O5_22 
REMARK   12  A    between atoms: C17_24  and  O6_25 
REMARK   13  A    between atoms: C19_29  and  O8_30 
REMARK   14  A    between atoms: C20_32  and  O9_33 
REMARK   15  A    between atoms: C21_35  and  O10_36 
ROOT
HETATM    1  C6  UNL     1      18.319 -39.745   5.024  1.00  0.00     0.203 C 
HETATM    2  O7  UNL     1      18.364 -39.012   6.218  1.00  0.00    -0.349 OA
HETATM    3  C18 UNL     1      17.843 -39.737   7.264  1.00  0.00     0.206 C 
HETATM    4  C19 UNL     1      18.904 -40.756   7.649  1.00  0.00     0.173 C 
HETATM    5  C20 UNL     1      19.398 -41.503   6.458  1.00  0.00     0.183 C 
HETATM    6  C21 UNL     1      18.695 -41.156   5.179  1.00  0.00     0.212 C 
ENDROOT
BRANCH   1   7
HETATM    7  O3  UNL     1      19.185 -39.015   4.145  1.00  0.00    -0.287 OA
BRANCH   7   8
HETATM    8  C4  UNL     1      20.092 -38.151   4.732  1.00  0.00     0.212 C 
HETATM    9  C2  UNL     1      21.339 -38.539   4.961  1.00  0.00     0.100 C 
HETATM   10  C3  UNL     1      22.341 -37.632   5.592  1.00  0.00     0.081 C 
BRANCH   9  11
HETATM   11  O1  UNL     1      21.695 -39.816   4.598  1.00  0.00    -0.356 OA
HETATM   12  C1  UNL     1      22.745 -40.541   5.199  1.00  0.00     0.209 C 
ENDBRANCH   9  11
BRANCH   8  13
HETATM   13  O2  UNL     1      19.744 -36.877   5.096  1.00  0.00    -0.334 OA
HETATM   14  C5  UNL     1      19.200 -35.900   4.233  1.00  0.00     0.212 C 
ENDBRANCH   8  13
ENDBRANCH   7   8
ENDBRANCH   1   7
BRANCH   1  15
HETATM   15  C7  UNL     1      16.933 -39.517   4.467  1.00  0.00     0.098 C 
BRANCH  15  16
HETATM   16  C8  UNL     1      16.691 -38.138   4.003  1.00  0.00    -0.025 C 
HETATM   17  C9  UNL     1      15.706 -37.880   3.159  1.00  0.00    -0.030 C 
BRANCH  17  18
HETATM   18  C10 UNL     1      15.383 -36.532   2.635  1.00  0.00     0.027 C 
BRANCH  18  19
HETATM   19  C11 UNL     1      14.758 -36.589   1.259  1.00  0.00     0.011 C 
BRANCH  19  20
HETATM   20  C12 UNL     1      13.480 -37.389   1.216  1.00  0.00     0.019 C 
HETATM   21  C13 UNL     1      12.386 -36.578   1.836  1.00  0.00     0.039 C 
HETATM   22  C14 UNL     1      11.171 -36.475   0.929  1.00  0.00     0.121 C 
HETATM   23  C15 UNL     1      11.658 -35.773  -0.327  1.00  0.00     0.066 C 
HETATM   24  C16 UNL     1      12.603 -36.683  -1.033  1.00  0.00     0.149 C 
HETATM   25  C17 UNL     1      13.222 -37.758  -0.216  1.00  0.00     0.151 C 
BRANCH  22  26
HETATM   26  O4  UNL     1      10.170 -35.787   1.574  1.00  0.00    -0.395 OA
ATOM     27  H4  UNL     1       9.329 -36.026   1.204  1.00  0.00     0.210 HD
ENDBRANCH  22  26
BRANCH  24  28
HETATM   28  O5  UNL     1      13.647 -35.866  -1.524  1.00  0.00    -0.393 OA
ATOM     29  H5  UNL     1      14.458 -36.300  -1.286  1.00  0.00     0.210 HD
ENDBRANCH  24  28
BRANCH  25  30
HETATM   30  O6  UNL     1      14.370 -38.250  -0.829  1.00  0.00    -0.393 OA
ATOM     31  H6  UNL     1      14.178 -39.009  -1.367  1.00  0.00     0.210 HD
ENDBRANCH  25  30
ENDBRANCH  19  20
ENDBRANCH  18  19
ENDBRANCH  17  18
ENDBRANCH  15  16
ENDBRANCH   1  15
BRANCH   6  32
HETATM   32  O10 UNL     1      17.594 -41.992   5.019  1.00  0.00    -0.387 OA
ATOM     33  H10 UNL     1      17.672 -42.770   5.557  1.00  0.00     0.210 HD
ENDBRANCH   6  32
BRANCH   5  34
HETATM   34  O9  UNL     1      19.178 -42.875   6.696  1.00  0.00    -0.390 OA
ATOM     35  H9  UNL     1      19.968 -43.339   6.445  1.00  0.00     0.210 HD
ENDBRANCH   5  34
BRANCH   4  36
HETATM   36  O8  UNL     1      18.363 -41.568   8.631  1.00  0.00    -0.391 OA
ATOM     37  H8  UNL     1      18.956 -42.300   8.756  1.00  0.00     0.210 HD
ENDBRANCH   4  36
TORSDOF 15
ENDMDL
MODEL 2
REMARK VINA RESULT: -8.388670415      3.593      7.127
REMARK  15 active torsions:
REMARK  status: ('A' for Active; 'I' for Inactive)
REMARK    1  A    between atoms: O1_2  and  C2_3 
REMARK    2  A    between atoms: C4_5  and  O2_6 
REMARK    3  A    between atoms: C4_5  and  O3_8 
REMARK    4  A    between atoms: O3_8  and  C6_9 
REMARK    5  A    between atoms: C6_9  and  C7_10 
REMARK    6  A    between atoms: C7_10  and  C8_11 
REMARK    7  A    between atoms: C9_12  and  C10_13 
REMARK    8  A    between atoms: C10_13  and  C11_14 
REMARK    9  A    between atoms: C11_14  and  C12_15 
REMARK   10  A    between atoms: C14_17  and  O4_18 
REMARK   11  A    between atoms: C16_21  and  O5_22 
REMARK   12  A    between atoms: C17_24  and  O6_25 
REMARK   13  A    between atoms: C19_29  and  O8_30 
REMARK   14  A    between atoms: C20_32  and  O9_33 
REMARK   15  A    between atoms: C21_35  and  O10_36 
ROOT
HETATM    1  C6  UNL     1      15.224 -36.847   2.729  1.00  0.00     0.203 C 
HETATM    2  O7  UNL     1      15.425 -35.510   2.358  1.00  0.00    -0.349 OA
HETATM    3  C18 UNL     1      16.131 -34.830   3.321  1.00  0.00     0.206 C 
HETATM    4  C19 UNL     1      17.581 -35.266   3.178  1.00  0.00     0.173 C 
HETATM    5  C20 UNL     1      17.700 -36.751   3.142  1.00  0.00     0.183 C 
HETATM    6  C21 UNL     1      16.402 -37.478   3.337  1.00  0.00     0.212 C 
ENDROOT
BRANCH   1   7
HETATM    7  O3  UNL     1      14.802 -37.477   1.512  1.00  0.00    -0.287 OA
BRANCH   7   8
HETATM    8  C4  UNL     1      14.519 -36.647   0.441  1.00  0.00     0.212 C 
HETATM    9  C2  UNL     1      13.370 -36.760  -0.211  1.00  0.00     0.100 C 
HETATM   10  C3  UNL     1      13.034 -35.883  -1.368  1.00  0.00     0.081 C 
BRANCH   9  11
HETATM   11  O1  UNL     1      12.480 -37.720   0.210  1.00  0.00    -0.356 OA
HETATM   12  C1  UNL     1      11.079 -37.589   0.114  1.00  0.00     0.209 C 
ENDBRANCH   9  11
BRANCH   8  13
HETATM   13  O2  UNL     1      15.401 -35.689   0.017  1.00  0.00    -0.334 OA
HETATM   14  C5  UNL     1      16.643 -35.940  -0.606  1.00  0.00     0.212 C 
ENDBRANCH   8  13
ENDBRANCH   7   8
ENDBRANCH   1   7
BRANCH   1  15
HETATM   15  C7  UNL     1      13.990 -36.838   3.601  1.00  0.00     0.098 C 
BRANCH  15  16
HETATM   16  C8  UNL     1      12.961 -35.872   3.176  1.00  0.00    -0.025 C 
HETATM   17  C9  UNL     1      11.678 -36.133   3.368  1.00  0.00    -0.030 C 
BRANCH  17  18
HETATM   18  C10 UNL     1      10.571 -35.229   2.977  1.00  0.00     0.027 C 
BRANCH  18  19
HETATM   19  C11 UNL     1       9.274 -35.581   3.672  1.00  0.00     0.011 C 
BRANCH  19  20
HETATM   20  C12 UNL     1       9.463 -36.476   4.871  1.00  0.00     0.019 C 
HETATM   21  C13 UNL     1       8.999 -35.748   6.091  1.00  0.00     0.039 C 
HETATM   22  C14 UNL     1       8.002 -36.566   6.897  1.00  0.00     0.121 C 
HETATM   23  C15 UNL     1       6.818 -36.791   5.973  1.00  0.00     0.066 C 
HETATM   24  C16 UNL     1       7.256 -37.682   4.862  1.00  0.00     0.149 C 
HETATM   25  C17 UNL     1       8.716 -37.752   4.607  1.00  0.00     0.151 C 
BRANCH  22  26
HETATM   26  O4  UNL     1       7.666 -35.885   8.043  1.00  0.00    -0.395 OA
ATOM     27  H4  UNL     1       8.049 -36.320   8.796  1.00  0.00     0.210 HD
ENDBRANCH  22  26
BRANCH  24  28
HETATM   28  O5  UNL     1       6.642 -37.184   3.690  1.00  0.00    -0.393 OA
ATOM     29  H5  UNL     1       6.150 -37.908   3.320  1.00  0.00     0.210 HD
ENDBRANCH  24  28
BRANCH  25  30
HETATM   30  O6  UNL     1       8.976 -38.239   3.329  1.00  0.00    -0.393 OA
ATOM     31  H6  UNL     1       8.592 -37.682   2.662  1.00  0.00     0.210 HD
ENDBRANCH  25  30
ENDBRANCH  19  20
ENDBRANCH  18  19
ENDBRANCH  17  18
ENDBRANCH  15  16
ENDBRANCH   1  15
BRANCH   6  32
HETATM   32  O10 UNL     1      16.206 -37.710   4.695  1.00  0.00    -0.387 OA
ATOM     33  H10 UNL     1      16.275 -38.634   4.899  1.00  0.00     0.210 HD
ENDBRANCH   6  32
BRANCH   5  34
HETATM   34  O9  UNL     1      18.556 -37.134   4.195  1.00  0.00    -0.390 OA
ATOM     35  H9  UNL     1      18.704 -38.069   4.117  1.00  0.00     0.210 HD
ENDBRANCH   5  34
BRANCH   4  36
HETATM   36  O8  UNL     1      18.296 -34.675   4.206  1.00  0.00    -0.391 OA
ATOM     37  H8  UNL     1      18.134 -33.739   4.165  1.00  0.00     0.210 HD
ENDBRANCH   4  36
TORSDOF 15
ENDMDL
MODEL 3
REMARK VINA RESULT: -8.114926135      1.186      2.098
REMARK  15 active torsions:
REMARK  status: ('A' for Active; 'I' for Inactive)
REMARK    1  A    between atoms: O1_2  and  C2_3 
REMARK    2  A    between atoms: C4_5  and  O2_6 
REMARK    3  A    between atoms: C4_5  and  O3_8 
REMARK    4  A    between atoms: O3_8  and  C6_9 
REMARK    5  A    between atoms: C6_9  and  C7_10 
REMARK    6  A    between atoms: C7_10  and  C8_11 
REMARK    7  A    between atoms: C9_12  and  C10_13 
REMARK    8  A    between atoms: C10_13  and  C11_14 
REMARK    9  A    between atoms: C11_14  and  C12_15 
REMARK   10  A    between atoms: C14_17  and  O4_18 
REMARK   11  A    between atoms: C16_21  and  O5_22 
REMARK   12  A    between atoms: C17_24  and  O6_25 
REMARK   13  A    between atoms: C19_29  and  O8_30 
REMARK   14  A    between atoms: C20_32  and  O9_33 
REMARK   15  A    between atoms: C21_35  and  O10_36 
ROOT
HETATM    1  C6  UNL     1      18.959 -39.989   5.364  1.00  0.00     0.203 C 
HETATM    2  O7  UNL     1      18.888 -39.069   6.419  1.00  0.00    -0.349 OA
HETATM    3  C18 UNL     1      18.633 -39.703   7.612  1.00  0.00     0.206 C 
HETATM    4  C19 UNL     1      19.940 -40.352   8.040  1.00  0.00     0.173 C 
HETATM    5  C20 UNL     1      20.536 -41.155   6.935  1.00  0.00     0.183 C 
HETATM    6  C21 UNL     1      19.692 -41.218   5.696  1.00  0.00     0.212 C 
ENDROOT
BRANCH   1   7
HETATM    7  O3  UNL     1      19.557 -39.237   4.299  1.00  0.00    -0.287 OA
BRANCH   7   8
HETATM    8  C4  UNL     1      20.335 -38.150   4.657  1.00  0.00     0.212 C 
HETATM    9  C2  UNL     1      21.658 -38.240   4.648  1.00  0.00     0.100 C 
HETATM   10  C3  UNL     1      22.525 -37.088   5.028  1.00  0.00     0.081 C 
BRANCH   9  11
HETATM   11  O1  UNL     1      22.222 -39.436   4.275  1.00  0.00    -0.356 OA
HETATM   12  C1  UNL     1      23.397 -39.965   4.849  1.00  0.00     0.209 C 
ENDBRANCH   9  11
BRANCH   8  13
HETATM   13  O2  UNL     1      19.779 -36.955   5.029  1.00  0.00    -0.334 OA
HETATM   14  C5  UNL     1      19.036 -36.101   4.185  1.00  0.00     0.212 C 
ENDBRANCH   8  13
ENDBRANCH   7   8
ENDBRANCH   1   7
BRANCH   1  15
HETATM   15  C7  UNL     1      17.530 -40.204   4.923  1.00  0.00     0.098 C 
BRANCH  15  16
HETATM   16  C8  UNL     1      16.751 -38.959   4.783  1.00  0.00    -0.025 C 
HETATM   17  C9  UNL     1      16.263 -38.605   3.606  1.00  0.00    -0.030 C 
BRANCH  17  18
HETATM   18  C10 UNL     1      15.470 -37.377   3.363  1.00  0.00     0.027 C 
BRANCH  18  19
HETATM   19  C11 UNL     1      14.587 -37.500   2.141  1.00  0.00     0.011 C 
BRANCH  19  20
HETATM   20  C12 UNL     1      14.439 -36.207   1.378  1.00  0.00     0.019 C 
HETATM   21  C13 UNL     1      15.461 -36.174   0.287  1.00  0.00     0.039 C 
HETATM   22  C14 UNL     1      14.837 -35.877  -1.067  1.00  0.00     0.121 C 
HETATM   23  C15 UNL     1      13.868 -37.016  -1.329  1.00  0.00     0.066 C 
HETATM   24  C16 UNL     1      12.751 -36.914  -0.348  1.00  0.00     0.149 C 
HETATM   25  C17 UNL     1      13.023 -36.130   0.884  1.00  0.00     0.151 C 
BRANCH  22  26
HETATM   26  O4  UNL     1      15.825 -35.783  -2.020  1.00  0.00    -0.395 OA
ATOM     27  H4  UNL     1      15.652 -35.040  -2.586  1.00  0.00     0.210 HD
ENDBRANCH  22  26
BRANCH  24  28
HETATM   28  O5  UNL     1      12.449 -38.237   0.047  1.00  0.00    -0.393 OA
ATOM     29  H5  UNL     1      11.684 -38.178   0.608  1.00  0.00     0.210 HD
ENDBRANCH  24  28
BRANCH  25  30
HETATM   30  O6  UNL     1      12.116 -36.452   1.889  1.00  0.00    -0.393 OA
ATOM     31  H6  UNL     1      11.429 -35.799   1.958  1.00  0.00     0.210 HD
ENDBRANCH  25  30
ENDBRANCH  19  20
ENDBRANCH  18  19
ENDBRANCH  17  18
ENDBRANCH  15  16
ENDBRANCH   1  15
BRANCH   6  32
HETATM   32  O10 UNL     1      18.834 -42.309   5.780  1.00  0.00    -0.387 OA
ATOM     33  H10 UNL     1      19.297 -43.123   5.624  1.00  0.00     0.210 HD
ENDBRANCH   6  32
BRANCH   5  34
HETATM   34  O9  UNL     1      20.688 -42.476   7.404  1.00  0.00    -0.390 OA
ATOM     35  H9  UNL     1      21.229 -42.941   6.776  1.00  0.00     0.210 HD
ENDBRANCH   5  34
BRANCH   4  36
HETATM   36  O8  UNL     1      19.684 -41.086   9.186  1.00  0.00    -0.391 OA
ATOM     37  H8  UNL     1      19.961 -41.980   9.021  1.00  0.00     0.210 HD
ENDBRANCH   4  36
TORSDOF 15
ENDMDL
MODEL 4
REMARK VINA RESULT: -8.083011826      0.931      1.008
REMARK  15 active torsions:
REMARK  status: ('A' for Active; 'I' for Inactive)
REMARK    1  A    between atoms: O1_2  and  C2_3 
REMARK    2  A    between atoms: C4_5  and  O2_6 
REMARK    3  A    between atoms: C4_5  and  O3_8 
REMARK    4  A    between atoms: O3_8  and  C6_9 
REMARK    5  A    between atoms: C6_9  and  C7_10 
REMARK    6  A    between atoms: C7_10  and  C8_11 
REMARK    7  A    between atoms: C9_12  and  C10_13 
REMARK    8  A    between atoms: C10_13  and  C11_14 
REMARK    9  A    between atoms: C11_14  and  C12_15 
REMARK   10  A    between atoms: C14_17  and  O4_18 
REMARK   11  A    between atoms: C16_21  and  O5_22 
REMARK   12  A    between atoms: C17_24  and  O6_25 
REMARK   13  A    between atoms: C19_29  and  O8_30 
REMARK   14  A    between atoms: C20_32  and  O9_33 
REMARK   15  A    between atoms: C21_35  and  O10_36 
ROOT
HETATM    1  C6  UNL     1      18.024 -39.803   5.442  1.00  0.00     0.203 C 
HETATM    2  O7  UNL     1      18.573 -39.393   6.664  1.00  0.00    -0.349 OA
HETATM    3  C18 UNL     1      18.011 -40.079   7.715  1.00  0.00     0.206 C 
HETATM    4  C19 UNL     1      18.636 -41.466   7.704  1.00  0.00     0.173 C 
HETATM    5  C20 UNL     1      18.567 -42.083   6.349  1.00  0.00     0.183 C 
HETATM    6  C21 UNL     1      17.836 -41.256   5.333  1.00  0.00     0.212 C 
ENDROOT
BRANCH   1   7
HETATM    7  O3  UNL     1      18.930 -39.270   4.467  1.00  0.00    -0.287 OA
BRANCH   7   8
HETATM    8  C4  UNL     1      19.967 -38.483   4.938  1.00  0.00     0.212 C 
HETATM    9  C2  UNL     1      21.148 -39.019   5.209  1.00  0.00     0.100 C 
HETATM   10  C3  UNL     1      22.285 -38.200   5.717  1.00  0.00     0.081 C 
BRANCH   9  11
HETATM   11  O1  UNL     1      21.305 -40.370   5.008  1.00  0.00    -0.356 OA
HETATM   12  C1  UNL     1      22.265 -41.159   5.678  1.00  0.00     0.209 C 
ENDBRANCH   9  11
BRANCH   8  13
HETATM   13  O2  UNL     1      19.817 -37.136   5.139  1.00  0.00    -0.334 OA
HETATM   14  C5  UNL     1      19.424 -36.201   4.156  1.00  0.00     0.212 C 
ENDBRANCH   8  13
ENDBRANCH   7   8
ENDBRANCH   1   7
BRANCH   1  15
HETATM   15  C7  UNL     1      16.763 -38.988   5.276  1.00  0.00     0.098 C 
BRANCH  15  16
HETATM   16  C8  UNL     1      16.589 -38.420   3.926  1.00  0.00    -0.025 C 
HETATM   17  C9  UNL     1      15.883 -37.315   3.751  1.00  0.00    -0.030 C 
BRANCH  17  18
HETATM   18  C10 UNL     1      15.650 -36.668   2.439  1.00  0.00     0.027 C 
BRANCH  18  19
HETATM   19  C11 UNL     1      14.318 -35.953   2.383  1.00  0.00     0.011 C 
BRANCH  19  20
HETATM   20  C12 UNL     1      13.136 -36.884   2.496  1.00  0.00     0.019 C 
HETATM   21  C13 UNL     1      11.990 -36.133   3.096  1.00  0.00     0.039 C 
HETATM   22  C14 UNL     1      10.729 -36.254   2.256  1.00  0.00     0.121 C 
HETATM   23  C15 UNL     1      11.074 -35.641   0.910  1.00  0.00     0.066 C 
HETATM   24  C16 UNL     1      12.079 -36.515   0.243  1.00  0.00     0.149 C 
HETATM   25  C17 UNL     1      12.852 -37.426   1.125  1.00  0.00     0.151 C 
BRANCH  22  26
HETATM   26  O4  UNL     1       9.690 -35.612   2.888  1.00  0.00    -0.395 OA
ATOM     27  H4  UNL     1       8.917 -35.635   2.335  1.00  0.00     0.210 HD
ENDBRANCH  22  26
BRANCH  24  28
HETATM   28  O5  UNL     1      13.001 -35.648  -0.387  1.00  0.00    -0.393 OA
ATOM     29  H5  UNL     1      13.231 -36.060  -1.212  1.00  0.00     0.210 HD
ENDBRANCH  24  28
BRANCH  25  30
HETATM   30  O6  UNL     1      14.017 -37.856   0.497  1.00  0.00    -0.393 OA
ATOM     31  H6  UNL     1      13.955 -37.770  -0.447  1.00  0.00     0.210 HD
ENDBRANCH  25  30
ENDBRANCH  19  20
ENDBRANCH  18  19
ENDBRANCH  17  18
ENDBRANCH  15  16
ENDBRANCH   1  15
BRANCH   6  32
HETATM   32  O10 UNL     1      16.486 -41.592   5.355  1.00  0.00    -0.387 OA
ATOM     33  H10 UNL     1      16.294 -42.283   4.733  1.00  0.00     0.210 HD
ENDBRANCH   6  32
BRANCH   5  34
HETATM   34  O9  UNL     1      17.872 -43.303   6.473  1.00  0.00    -0.390 OA
ATOM     35  H9  UNL     1      16.956 -43.096   6.617  1.00  0.00     0.210 HD
ENDBRANCH   5  34
BRANCH   4  36
HETATM   36  O8  UNL     1      18.009 -42.212   8.688  1.00  0.00    -0.391 OA
ATOM     37  H8  UNL     1      18.665 -42.777   9.080  1.00  0.00     0.210 HD
ENDBRANCH   4  36
TORSDOF 15
ENDMDL
MODEL 5
REMARK VINA RESULT: -8.064985023      1.261      2.073
REMARK  15 active torsions:
REMARK  status: ('A' for Active; 'I' for Inactive)
REMARK    1  A    between atoms: O1_2  and  C2_3 
REMARK    2  A    between atoms: C4_5  and  O2_6 
REMARK    3  A    between atoms: C4_5  and  O3_8 
REMARK    4  A    between atoms: O3_8  and  C6_9 
REMARK    5  A    between atoms: C6_9  and  C7_10 
REMARK    6  A    between atoms: C7_10  and  C8_11 
REMARK    7  A    between atoms: C9_12  and  C10_13 
REMARK    8  A    between atoms: C10_13  and  C11_14 
REMARK    9  A    between atoms: C11_14  and  C12_15 
REMARK   10  A    between atoms: C14_17  and  O4_18 
REMARK   11  A    between atoms: C16_21  and  O5_22 
REMARK   12  A    between atoms: C17_24  and  O6_25 
REMARK   13  A    between atoms: C19_29  and  O8_30 
REMARK   14  A    between atoms: C20_32  and  O9_33 
REMARK   15  A    between atoms: C21_35  and  O10_36 
ROOT
HETATM    1  C6  UNL     1      18.061 -40.453   5.412  1.00  0.00     0.203 C 
HETATM    2  O7  UNL     1      18.200 -40.132   6.769  1.00  0.00    -0.349 OA
HETATM    3  C18 UNL     1      17.439 -40.964   7.555  1.00  0.00     0.206 C 
HETATM    4  C19 UNL     1      18.179 -42.292   7.617  1.00  0.00     0.173 C 
HETATM    5  C20 UNL     1      18.557 -42.767   6.256  1.00  0.00     0.183 C 
HETATM    6  C21 UNL     1      18.060 -41.896   5.140  1.00  0.00     0.212 C 
ENDROOT
BRANCH   1   7
HETATM    7  O3  UNL     1      19.146 -39.754   4.785  1.00  0.00    -0.287 OA
BRANCH   7   8
HETATM    8  C4  UNL     1      20.306 -39.604   5.525  1.00  0.00     0.212 C 
HETATM    9  C2  UNL     1      20.837 -38.403   5.704  1.00  0.00     0.100 C 
HETATM   10  C3  UNL     1      22.085 -38.206   6.495  1.00  0.00     0.081 C 
BRANCH   9  11
HETATM   11  O1  UNL     1      20.201 -37.324   5.137  1.00  0.00    -0.356 OA
HETATM   12  C1  UNL     1      20.491 -36.827   3.849  1.00  0.00     0.209 C 
ENDBRANCH   9  11
BRANCH   8  13
HETATM   13  O2  UNL     1      20.944 -40.674   6.093  1.00  0.00    -0.334 OA
HETATM   14  C5  UNL     1      21.997 -41.407   5.502  1.00  0.00     0.212 C 
ENDBRANCH   8  13
ENDBRANCH   7   8
ENDBRANCH   1   7
BRANCH   1  15
HETATM   15  C7  UNL     1      16.822 -39.721   4.953  1.00  0.00     0.098 C 
BRANCH  15  16
HETATM   16  C8  UNL     1      17.099 -38.500   4.173  1.00  0.00    -0.025 C 
HETATM   17  C9  UNL     1      16.113 -37.848   3.580  1.00  0.00    -0.030 C 
BRANCH  17  18
HETATM   18  C10 UNL     1      16.289 -36.615   2.776  1.00  0.00     0.027 C 
BRANCH  18  19
HETATM   19  C11 UNL     1      15.067 -36.299   1.942  1.00  0.00     0.011 C 
BRANCH  19  20
HETATM   20  C12 UNL     1      13.846 -37.087   2.349  1.00  0.00     0.019 C 
HETATM   21  C13 UNL     1      12.979 -36.219   3.205  1.00  0.00     0.039 C 
HETATM   22  C14 UNL     1      11.546 -36.174   2.702  1.00  0.00     0.121 C 
HETATM   23  C15 UNL     1      11.621 -35.577   1.307  1.00  0.00     0.066 C 
HETATM   24  C16 UNL     1      12.322 -36.549   0.421  1.00  0.00     0.149 C 
HETATM   25  C17 UNL     1      13.173 -37.563   1.094  1.00  0.00     0.151 C 
BRANCH  22  26
HETATM   26  O4  UNL     1      10.777 -35.428   3.564  1.00  0.00    -0.395 OA
ATOM     27  H4  UNL     1      10.437 -35.987   4.253  1.00  0.00     0.210 HD
ENDBRANCH  22  26
BRANCH  24  28
HETATM   28  O5  UNL     1      13.158 -35.783  -0.423  1.00  0.00    -0.393 OA
ATOM     29  H5  UNL     1      13.489 -36.382  -1.083  1.00  0.00     0.210 HD
ENDBRANCH  24  28
BRANCH  25  30
HETATM   30  O6  UNL     1      14.089 -38.113   0.203  1.00  0.00    -0.393 OA
ATOM     31  H6  UNL     1      14.463 -37.450  -0.365  1.00  0.00     0.210 HD
ENDBRANCH  25  30
ENDBRANCH  19  20
ENDBRANCH  18  19
ENDBRANCH  17  18
ENDBRANCH  15  16
ENDBRANCH   1  15
BRANCH   6  32
HETATM   32  O10 UNL     1      16.800 -42.333   4.743  1.00  0.00    -0.387 OA
ATOM     33  H10 UNL     1      16.849 -42.845   3.945  1.00  0.00     0.210 HD
ENDBRANCH   6  32
BRANCH   5  34
HETATM   34  O9  UNL     1      17.983 -44.042   6.077  1.00  0.00    -0.390 OA
ATOM     35  H9  UNL     1      17.827 -44.158   5.147  1.00  0.00     0.210 HD
ENDBRANCH   5  34
BRANCH   4  36
HETATM   36  O8  UNL     1      17.380 -43.180   8.316  1.00  0.00    -0.391 OA
ATOM     37  H8  UNL     1      16.728 -42.672   8.784  1.00  0.00     0.210 HD
ENDBRANCH   4  36
TORSDOF 15
ENDMDL
