MODEL 1
REMARK VINA RESULT: -6.960734250      0.000      0.000
REMARK  6 active torsions:
REMARK  status: ('A' for Active; 'I' for Inactive)
REMARK    1  A    between atoms: O1_2  and  C2_3 
REMARK    2  A    between atoms: C4_6  and  C5_7 
REMARK    3  A    between atoms: C5_7  and  O3_9 
REMARK    4  A    between atoms: O3_9  and  C6_10 
REMARK    5  A    between atoms: C6_10  and  C7_11 
REMARK       I    between atoms: C7_11  and  N1_13 
REMARK    6  A    between atoms: N1_13  and  C8_15 
ROOT
HETATM    1  O3  UNL     1      -4.742   0.512  12.758  1.00  0.00    -0.308 OA
ENDROOT
BRANCH   1   2
HETATM    2  C5  UNL     1      -4.213   0.679  11.512  1.00  0.00     0.302 C 
HETATM    3  O2  UNL     1      -4.688   0.123  10.525  1.00  0.00    -0.259 OA
BRANCH   2   4
HETATM    4  C4  UNL     1      -3.035   1.552  11.337  1.00  0.00     0.100 A 
HETATM    5  S1  UNL     1      -1.437   1.101  10.955  1.00  0.00    -0.092 SA
HETATM    6  C3  UNL     1      -0.708   2.635  10.936  1.00  0.00     0.088 A 
HETATM    7  C2  UNL     1      -1.743   3.472  11.232  1.00  0.00     0.093 A 
HETATM    8  C13 UNL     1      -2.958   2.913  11.443  1.00  0.00     0.068 A 
HETATM    9 BR1  UNL     1      -4.569   3.937  11.881  1.00  0.00    -0.046 Br
BRANCH   7  10
HETATM   10  O1  UNL     1      -1.544   4.873  11.315  1.00  0.00    -0.354 OA
HETATM   11  C1  UNL     1      -0.865   5.466  12.372  1.00  0.00     0.210 C 
ENDBRANCH   7  10
ENDBRANCH   2   4
ENDBRANCH   1   2
BRANCH   1  12
HETATM   12  C6  UNL     1      -4.052  -0.056  13.848  1.00  0.00     0.281 C 
BRANCH  12  13
HETATM   13  C7  UNL     1      -4.088   0.759  15.080  1.00  0.00     0.242 C 
HETATM   14  O4  UNL     1      -3.663   0.268  16.148  1.00  0.00    -0.271 OA
HETATM   15  N1  UNL     1      -4.589   2.061  15.056  1.00  0.00    -0.355 N 
ATOM     16  H1  UNL     1      -4.926   2.424  14.164  1.00  0.00     0.162 HD
BRANCH  15  17
HETATM   17  C8  UNL     1      -4.664   2.936  16.209  1.00  0.00     0.084 C 
HETATM   18  C9  UNL     1      -4.722   4.351  15.675  1.00  0.00     0.025 C 
HETATM   19  C10 UNL     1      -6.131   4.834  15.958  1.00  0.00     0.002 C 
HETATM   20  C11 UNL     1      -6.591   4.007  17.141  1.00  0.00     0.002 C 
HETATM   21  C12 UNL     1      -5.865   2.695  17.053  1.00  0.00     0.025 C 
ENDBRANCH  15  17
ENDBRANCH  12  13
ENDBRANCH   1  12
TORSDOF 6
ENDMDL
MODEL 2
REMARK VINA RESULT: -6.941722319      1.817      2.168
REMARK  6 active torsions:
REMARK  status: ('A' for Active; 'I' for Inactive)
REMARK    1  A    between atoms: O1_2  and  C2_3 
REMARK    2  A    between atoms: C4_6  and  C5_7 
REMARK    3  A    between atoms: C5_7  and  O3_9 
REMARK    4  A    between atoms: O3_9  and  C6_10 
REMARK    5  A    between atoms: C6_10  and  C7_11 
REMARK       I    between atoms: C7_11  and  N1_13 
REMARK    6  A    between atoms: N1_13  and  C8_15 
ROOT
HETATM    1  O3  UNL     1      -4.773   1.553  11.879  1.00  0.00    -0.308 OA
ENDROOT
BRANCH   1   2
HETATM    2  C5  UNL     1      -4.290   2.634  11.202  1.00  0.00     0.302 C 
HETATM    3  O2  UNL     1      -4.596   2.859  10.034  1.00  0.00    -0.259 OA
BRANCH   2   4
HETATM    4  C4  UNL     1      -3.371   3.564  11.887  1.00  0.00     0.100 A 
HETATM    5  S1  UNL     1      -1.671   3.630  11.788  1.00  0.00    -0.092 SA
HETATM    6  C3  UNL     1      -1.378   4.932  12.838  1.00  0.00     0.088 A 
HETATM    7  C2  UNL     1      -2.629   5.288  13.245  1.00  0.00     0.093 A 
HETATM    8  C13 UNL     1      -3.672   4.578  12.754  1.00  0.00     0.068 A 
HETATM    9 BR1  UNL     1      -5.543   4.927  13.214  1.00  0.00    -0.046 Br
BRANCH   7  10
HETATM   10  O1  UNL     1      -2.821   6.361  14.151  1.00  0.00    -0.354 OA
HETATM   11  C1  UNL     1      -1.881   7.371  14.317  1.00  0.00     0.210 C 
ENDBRANCH   7  10
ENDBRANCH   2   4
ENDBRANCH   1   2
BRANCH   1  12
HETATM   12  C6  UNL     1      -3.972   0.618  12.565  1.00  0.00     0.281 C 
BRANCH  12  13
HETATM   13  C7  UNL     1      -4.245   0.536  14.016  1.00  0.00     0.242 C 
HETATM   14  O4  UNL     1      -4.302  -0.587  14.562  1.00  0.00    -0.271 OA
HETATM   15  N1  UNL     1      -4.437   1.694  14.770  1.00  0.00    -0.355 N 
ATOM     16  H1  UNL     1      -4.383   2.591  14.285  1.00  0.00     0.162 HD
BRANCH  15  17
HETATM   17  C8  UNL     1      -4.708   1.715  16.193  1.00  0.00     0.084 C 
HETATM   18  C9  UNL     1      -4.942   3.163  16.568  1.00  0.00     0.025 C 
HETATM   19  C10 UNL     1      -6.421   3.266  16.885  1.00  0.00     0.002 C 
HETATM   20  C11 UNL     1      -6.823   1.867  17.303  1.00  0.00     0.002 C 
HETATM   21  C12 UNL     1      -5.909   0.924  16.575  1.00  0.00     0.025 C 
ENDBRANCH  15  17
ENDBRANCH  12  13
ENDBRANCH   1  12
TORSDOF 6
ENDMDL
MODEL 3
REMARK VINA RESULT: -6.771878410      1.315      1.492
REMARK  6 active torsions:
REMARK  status: ('A' for Active; 'I' for Inactive)
REMARK    1  A    between atoms: O1_2  and  C2_3 
REMARK    2  A    between atoms: C4_6  and  C5_7 
REMARK    3  A    between atoms: C5_7  and  O3_9 
REMARK    4  A    between atoms: O3_9  and  C6_10 
REMARK    5  A    between atoms: C6_10  and  C7_11 
REMARK       I    between atoms: C7_11  and  N1_13 
REMARK    6  A    between atoms: N1_13  and  C8_15 
ROOT
HETATM    1  O3  UNL     1      -4.674   1.317  11.977  1.00  0.00    -0.308 OA
ENDROOT
BRANCH   1   2
HETATM    2  C5  UNL     1      -4.131   2.221  11.111  1.00  0.00     0.302 C 
HETATM    3  O2  UNL     1      -4.708   2.562  10.082  1.00  0.00    -0.259 OA
BRANCH   2   4
HETATM    4  C4  UNL     1      -2.811   2.810  11.416  1.00  0.00     0.100 A 
HETATM    5  S1  UNL     1      -1.277   2.283  10.895  1.00  0.00    -0.092 SA
HETATM    6  C3  UNL     1      -0.306   3.454  11.651  1.00  0.00     0.088 A 
HETATM    7  C2  UNL     1      -1.215   4.236  12.300  1.00  0.00     0.093 A 
HETATM    8  C13 UNL     1      -2.522   3.906  12.181  1.00  0.00     0.068 A 
HETATM    9 BR1  UNL     1      -3.980   4.898  13.033  1.00  0.00    -0.046 Br
BRANCH   7  10
HETATM   10  O1  UNL     1      -0.796   5.352  13.068  1.00  0.00    -0.354 OA
HETATM   11  C1  UNL     1      -0.539   6.592  12.497  1.00  0.00     0.210 C 
ENDBRANCH   7  10
ENDBRANCH   2   4
ENDBRANCH   1   2
BRANCH   1  12
HETATM   12  C6  UNL     1      -3.929   0.392  12.736  1.00  0.00     0.281 C 
BRANCH  12  13
HETATM   13  C7  UNL     1      -4.210   0.434  14.187  1.00  0.00     0.242 C 
HETATM   14  O4  UNL     1      -4.255  -0.638  14.829  1.00  0.00    -0.271 OA
HETATM   15  N1  UNL     1      -4.422   1.651  14.835  1.00  0.00    -0.355 N 
ATOM     16  H1  UNL     1      -4.376   2.502  14.274  1.00  0.00     0.162 HD
BRANCH  15  17
HETATM   17  C8  UNL     1      -4.702   1.792  16.250  1.00  0.00     0.084 C 
HETATM   18  C9  UNL     1      -4.951   3.265  16.496  1.00  0.00     0.025 C 
HETATM   19  C10 UNL     1      -6.432   3.382  16.795  1.00  0.00     0.002 C 
HETATM   20  C11 UNL     1      -6.825   2.020  17.330  1.00  0.00     0.002 C 
HETATM   21  C12 UNL     1      -5.898   1.026  16.692  1.00  0.00     0.025 C 
ENDBRANCH  15  17
ENDBRANCH  12  13
ENDBRANCH   1  12
TORSDOF 6
ENDMDL
MODEL 4
REMARK VINA RESULT: -6.657294584      1.554      1.700
REMARK  6 active torsions:
REMARK  status: ('A' for Active; 'I' for Inactive)
REMARK    1  A    between atoms: O1_2  and  C2_3 
REMARK    2  A    between atoms: C4_6  and  C5_7 
REMARK    3  A    between atoms: C5_7  and  O3_9 
REMARK    4  A    between atoms: O3_9  and  C6_10 
REMARK    5  A    between atoms: C6_10  and  C7_11 
REMARK       I    between atoms: C7_11  and  N1_13 
REMARK    6  A    between atoms: N1_13  and  C8_15 
ROOT
HETATM    1  O3  UNL     1      -4.790   0.749  12.484  1.00  0.00    -0.308 OA
ENDROOT
BRANCH   1   2
HETATM    2  C5  UNL     1      -4.287   1.354  11.369  1.00  0.00     0.302 C 
HETATM    3  O2  UNL     1      -4.288   0.799  10.273  1.00  0.00    -0.259 OA
BRANCH   2   4
HETATM    4  C4  UNL     1      -3.724   2.715  11.478  1.00  0.00     0.100 A 
HETATM    5  S1  UNL     1      -4.544   4.170  11.815  1.00  0.00    -0.092 SA
HETATM    6  C3  UNL     1      -3.233   5.249  11.766  1.00  0.00     0.088 A 
HETATM    7  C2  UNL     1      -2.175   4.436  11.483  1.00  0.00     0.093 A 
HETATM    8  C13 UNL     1      -2.425   3.115  11.332  1.00  0.00     0.068 A 
HETATM    9 BR1  UNL     1      -1.048   1.784  10.923  1.00  0.00    -0.046 Br
BRANCH   7  10
HETATM   10  O1  UNL     1      -0.866   4.966  11.355  1.00  0.00    -0.354 OA
HETATM   11  C1  UNL     1      -0.315   5.821  12.300  1.00  0.00     0.210 C 
ENDBRANCH   7  10
ENDBRANCH   2   4
ENDBRANCH   1   2
BRANCH   1  12
HETATM   12  C6  UNL     1      -4.006   0.148  13.488  1.00  0.00     0.281 C 
BRANCH  12  13
HETATM   13  C7  UNL     1      -4.019   0.867  14.779  1.00  0.00     0.242 C 
HETATM   14  O4  UNL     1      -3.509   0.326  15.784  1.00  0.00    -0.271 OA
HETATM   15  N1  UNL     1      -4.590   2.137  14.880  1.00  0.00    -0.355 N 
ATOM     16  H1  UNL     1      -4.996   2.543  14.036  1.00  0.00     0.162 HD
BRANCH  15  17
HETATM   17  C8  UNL     1      -4.649   2.918  16.099  1.00  0.00     0.084 C 
HETATM   18  C9  UNL     1      -4.787   4.366  15.677  1.00  0.00     0.025 C 
HETATM   19  C10 UNL     1      -6.200   4.766  16.052  1.00  0.00     0.002 C 
HETATM   20  C11 UNL     1      -6.574   3.835  17.186  1.00  0.00     0.002 C 
HETATM   21  C12 UNL     1      -5.802   2.565  16.969  1.00  0.00     0.025 C 
ENDBRANCH  15  17
ENDBRANCH  12  13
ENDBRANCH   1  12
TORSDOF 6
ENDMDL
MODEL 5
REMARK VINA RESULT: -6.642336942      2.018      2.397
REMARK  6 active torsions:
REMARK  status: ('A' for Active; 'I' for Inactive)
REMARK    1  A    between atoms: O1_2  and  C2_3 
REMARK    2  A    between atoms: C4_6  and  C5_7 
REMARK    3  A    between atoms: C5_7  and  O3_9 
REMARK    4  A    between atoms: O3_9  and  C6_10 
REMARK    5  A    between atoms: C6_10  and  C7_11 
REMARK       I    between atoms: C7_11  and  N1_13 
REMARK    6  A    between atoms: N1_13  and  C8_15 
ROOT
HETATM    1  O3  UNL     1      -4.868   1.439  11.896  1.00  0.00    -0.308 OA
ENDROOT
BRANCH   1   2
HETATM    2  C5  UNL     1      -4.458   2.558  11.232  1.00  0.00     0.302 C 
HETATM    3  O2  UNL     1      -4.621   2.690  10.022  1.00  0.00    -0.259 OA
BRANCH   2   4
HETATM    4  C4  UNL     1      -3.798   3.644  11.984  1.00  0.00     0.100 A 
HETATM    5  S1  UNL     1      -4.523   4.866  12.923  1.00  0.00    -0.092 SA
HETATM    6  C3  UNL     1      -3.129   5.690  13.437  1.00  0.00     0.088 A 
HETATM    7  C2  UNL     1      -2.120   4.982  12.854  1.00  0.00     0.093 A 
HETATM    8  C13 UNL     1      -2.462   3.915  12.095  1.00  0.00     0.068 A 
HETATM    9 BR1  UNL     1      -1.167   2.770  11.174  1.00  0.00    -0.046 Br
BRANCH   7  10
HETATM   10  O1  UNL     1      -0.766   5.358  13.042  1.00  0.00    -0.354 OA
HETATM   11  C1  UNL     1      -0.139   6.302  12.239  1.00  0.00     0.210 C 
ENDBRANCH   7  10
ENDBRANCH   2   4
ENDBRANCH   1   2
BRANCH   1  12
HETATM   12  C6  UNL     1      -4.009   0.561  12.586  1.00  0.00     0.281 C 
BRANCH  12  13
HETATM   13  C7  UNL     1      -4.255   0.491  14.042  1.00  0.00     0.242 C 
HETATM   14  O4  UNL     1      -4.291  -0.627  14.601  1.00  0.00    -0.271 OA
HETATM   15  N1  UNL     1      -4.444   1.655  14.788  1.00  0.00    -0.355 N 
ATOM     16  H1  UNL     1      -4.407   2.547  14.292  1.00  0.00     0.162 HD
BRANCH  15  17
HETATM   17  C8  UNL     1      -4.690   1.687  16.215  1.00  0.00     0.084 C 
HETATM   18  C9  UNL     1      -4.962   3.133  16.574  1.00  0.00     0.025 C 
HETATM   19  C10 UNL     1      -6.437   3.195  16.917  1.00  0.00     0.002 C 
HETATM   20  C11 UNL     1      -6.788   1.791  17.362  1.00  0.00     0.002 C 
HETATM   21  C12 UNL     1      -5.858   0.866  16.630  1.00  0.00     0.025 C 
ENDBRANCH  15  17
ENDBRANCH  12  13
ENDBRANCH   1  12
TORSDOF 6
ENDMDL
