MODEL 1
REMARK VINA RESULT: -8.564843964      0.000      0.000
REMARK  4 active torsions:
REMARK  status: ('A' for Active; 'I' for Inactive)
REMARK    1  A    between atoms: C4_5  and  O1_6 
REMARK    2  A    between atoms: O1_6  and  C5_7 
REMARK    3  A    between atoms: C5_7  and  C6_8 
REMARK    4  A    between atoms: C8_10  and  N1_11 
ROOT
HETATM    1  N1  UNL     1      -3.435   3.432  11.714  1.00  0.00    -0.341 N 
HETATM    2  C9  UNL     1      -4.145   3.292  10.507  1.00  0.00     0.140 C 
HETATM    3  C10 UNL     1      -4.331   4.423   9.637  1.00  0.00     0.118 A 
HETATM    4  C11 UNL     1      -3.390   4.960   8.795  1.00  0.00     0.043 A 
HETATM    5  C12 UNL     1      -3.975   6.046   8.131  1.00  0.00     0.027 A 
HETATM    6  C13 UNL     1      -5.272   6.082   8.640  1.00  0.00     0.142 A 
HETATM    7  O2  UNL     1      -5.430   5.117   9.515  1.00  0.00    -0.319 OA
HETATM    8  N2  UNL     1      -4.641   2.115  10.218  1.00  0.00    -0.341 N 
ATOM      9  H2  UNL     1      -5.163   1.964   9.355  1.00  0.00     0.167 HD
HETATM   10  C14 UNL     1      -4.430   1.045  11.149  1.00  0.00     0.156 C 
HETATM   11  N3  UNL     1      -3.227   1.058  11.892  1.00  0.00    -0.231 NA
HETATM   12  C15 UNL     1      -2.227   0.158  11.395  1.00  0.00     0.331 C 
HETATM   13  N4  UNL     1      -1.440   0.992  10.512  1.00  0.00    -0.060 N 
ATOM     14  H41 UNL     1      -1.813   1.088   9.568  1.00  0.00     0.278 HD
ATOM     15  H42 UNL     1      -0.547   0.589  10.226  1.00  0.00     0.278 HD
HETATM   16  C16 UNL     1      -1.337   2.249  11.268  1.00  0.00     0.275 C 
HETATM   17  C17 UNL     1      -2.578   2.294  12.100  1.00  0.00     0.194 C 
ENDROOT
BRANCH   1  18
HETATM   18  C8  UNL     1      -3.547   4.601  12.506  1.00  0.00     0.088 C 
HETATM   19  C7  UNL     1      -2.953   4.605  13.891  1.00  0.00     0.032 C 
HETATM   20  C6  UNL     1      -4.073   5.613  14.233  1.00  0.00     0.014 C 
HETATM   21  C18 UNL     1      -4.900   4.793  13.211  1.00  0.00     0.032 C 
BRANCH  20  22
HETATM   22  C5  UNL     1      -4.579   5.496  15.628  1.00  0.00     0.180 C 
BRANCH  22  23
HETATM   23  O1  UNL     1      -5.562   4.565  15.758  1.00  0.00    -0.351 OA
BRANCH  23  24
HETATM   24  C4  UNL     1      -5.643   3.312  16.242  1.00  0.00     0.069 A 
HETATM   25  C3  UNL     1      -6.726   2.847  16.938  1.00  0.00     0.040 A 
HETATM   26  C2  UNL     1      -6.803   1.556  17.431  1.00  0.00     0.045 A 
HETATM   27  C1  UNL     1      -5.740   0.714  17.205  1.00  0.00     0.116 A 
HETATM   28  F1  UNL     1      -5.814  -0.551  17.689  1.00  0.00    -0.206 F 
HETATM   29  C20 UNL     1      -4.622   1.119  16.514  1.00  0.00     0.045 A 
HETATM   30  C19 UNL     1      -4.588   2.407  16.044  1.00  0.00     0.040 A 
ENDBRANCH  23  24
ENDBRANCH  22  23
ENDBRANCH  20  22
ENDBRANCH   1  18
TORSDOF 4
ENDMDL
MODEL 2
REMARK VINA RESULT: -8.544744124      2.406      3.609
REMARK  4 active torsions:
REMARK  status: ('A' for Active; 'I' for Inactive)
REMARK    1  A    between atoms: C4_5  and  O1_6 
REMARK    2  A    between atoms: O1_6  and  C5_7 
REMARK    3  A    between atoms: C5_7  and  C6_8 
REMARK    4  A    between atoms: C8_10  and  N1_11 
ROOT
HETATM    1  N1  UNL     1      -3.802   4.851   9.653  1.00  0.00    -0.341 N 
HETATM    2  C9  UNL     1      -4.459   5.885   8.960  1.00  0.00     0.140 C 
HETATM    3  C10 UNL     1      -5.433   6.706   9.629  1.00  0.00     0.118 A 
HETATM    4  C11 UNL     1      -5.166   7.728  10.504  1.00  0.00     0.043 A 
HETATM    5  C12 UNL     1      -6.389   8.266  10.926  1.00  0.00     0.027 A 
HETATM    6  C13 UNL     1      -7.335   7.499  10.248  1.00  0.00     0.142 A 
HETATM    7  O2  UNL     1      -6.729   6.603   9.505  1.00  0.00    -0.319 OA
HETATM    8  N2  UNL     1      -4.170   6.057   7.694  1.00  0.00    -0.341 N 
ATOM      9  H2  UNL     1      -4.619   6.792   7.149  1.00  0.00     0.167 HD
HETATM   10  C14 UNL     1      -3.205   5.181   7.097  1.00  0.00     0.156 C 
HETATM   11  N3  UNL     1      -2.161   4.703   7.923  1.00  0.00    -0.231 NA
HETATM   12  C15 UNL     1      -0.914   5.389   7.743  1.00  0.00     0.331 C 
HETATM   13  N4  UNL     1      -0.954   6.422   8.756  1.00  0.00    -0.060 N 
ATOM     14  H41 UNL     1      -1.453   7.269   8.484  1.00  0.00     0.278 HD
ATOM     15  H42 UNL     1      -0.062   6.883   8.932  1.00  0.00     0.278 HD
HETATM   16  C16 UNL     1      -1.524   5.713   9.912  1.00  0.00     0.275 C 
HETATM   17  C17 UNL     1      -2.381   4.643   9.316  1.00  0.00     0.194 C 
ENDROOT
BRANCH   1  18
HETATM   18  C8  UNL     1      -4.477   4.063  10.617  1.00  0.00     0.088 C 
HETATM   19  C7  UNL     1      -4.176   4.276  12.078  1.00  0.00     0.032 C 
HETATM   20  C6  UNL     1      -4.527   2.779  12.240  1.00  0.00     0.014 C 
HETATM   21  C18 UNL     1      -3.910   2.649  10.825  1.00  0.00     0.032 C 
BRANCH  20  22
HETATM   22  C5  UNL     1      -3.734   2.090  13.294  1.00  0.00     0.180 C 
BRANCH  22  23
HETATM   23  O1  UNL     1      -4.510   1.437  14.200  1.00  0.00    -0.351 OA
BRANCH  23  24
HETATM   24  C4  UNL     1      -4.979   1.702  15.433  1.00  0.00     0.069 A 
HETATM   25  C3  UNL     1      -5.347   2.957  15.841  1.00  0.00     0.040 A 
HETATM   26  C2  UNL     1      -5.831   3.222  17.109  1.00  0.00     0.045 A 
HETATM   27  C1  UNL     1      -5.943   2.171  17.990  1.00  0.00     0.116 A 
HETATM   28  F1  UNL     1      -6.417   2.430  19.234  1.00  0.00    -0.206 F 
HETATM   29  C20 UNL     1      -5.590   0.888  17.644  1.00  0.00     0.045 A 
HETATM   30  C19 UNL     1      -5.115   0.671  16.376  1.00  0.00     0.040 A 
ENDBRANCH  23  24
ENDBRANCH  22  23
ENDBRANCH  20  22
ENDBRANCH   1  18
TORSDOF 4
ENDMDL
MODEL 3
REMARK VINA RESULT: -8.523799083      2.366      3.502
REMARK  4 active torsions:
REMARK  status: ('A' for Active; 'I' for Inactive)
REMARK    1  A    between atoms: C4_5  and  O1_6 
REMARK    2  A    between atoms: O1_6  and  C5_7 
REMARK    3  A    between atoms: C5_7  and  C6_8 
REMARK    4  A    between atoms: C8_10  and  N1_11 
ROOT
HETATM    1  N1  UNL     1      -3.526   5.173   9.736  1.00  0.00    -0.341 N 
HETATM    2  C9  UNL     1      -4.403   5.968   8.977  1.00  0.00     0.140 C 
HETATM    3  C10 UNL     1      -5.354   6.830   9.629  1.00  0.00     0.118 A 
HETATM    4  C11 UNL     1      -5.080   8.038  10.217  1.00  0.00     0.043 A 
HETATM    5  C12 UNL     1      -6.279   8.549  10.733  1.00  0.00     0.027 A 
HETATM    6  C13 UNL     1      -7.218   7.574  10.405  1.00  0.00     0.142 A 
HETATM    7  O2  UNL     1      -6.631   6.592   9.762  1.00  0.00    -0.319 OA
HETATM    8  N2  UNL     1      -4.339   5.882   7.671  1.00  0.00    -0.341 N 
ATOM      9  H2  UNL     1      -4.954   6.439   7.078  1.00  0.00     0.167 HD
HETATM   10  C14 UNL     1      -3.379   4.983   7.101  1.00  0.00     0.156 C 
HETATM   11  N3  UNL     1      -2.169   4.789   7.807  1.00  0.00    -0.231 NA
HETATM   12  C15 UNL     1      -1.059   5.523   7.272  1.00  0.00     0.331 C 
HETATM   13  N4  UNL     1      -1.066   6.746   8.046  1.00  0.00    -0.060 N 
ATOM     14  H41 UNL     1      -1.700   7.467   7.702  1.00  0.00     0.278 HD
ATOM     15  H42 UNL     1      -0.220   7.310   7.964  1.00  0.00     0.278 HD
HETATM   16  C16 UNL     1      -1.357   6.262   9.404  1.00  0.00     0.275 C 
HETATM   17  C17 UNL     1      -2.160   5.018   9.199  1.00  0.00     0.194 C 
ENDROOT
BRANCH   1  18
HETATM   18  C8  UNL     1      -3.941   4.560  10.943  1.00  0.00     0.088 C 
HETATM   19  C7  UNL     1      -3.862   5.346  12.227  1.00  0.00     0.032 C 
HETATM   20  C6  UNL     1      -3.651   3.974  12.908  1.00  0.00     0.014 C 
HETATM   21  C18 UNL     1      -2.913   3.619  11.592  1.00  0.00     0.032 C 
BRANCH  20  22
HETATM   22  C5  UNL     1      -2.750   4.027  14.091  1.00  0.00     0.180 C 
BRANCH  22  23
HETATM   23  O1  UNL     1      -2.999   3.038  14.991  1.00  0.00    -0.351 OA
BRANCH  23  24
HETATM   24  C4  UNL     1      -4.086   2.574  15.634  1.00  0.00     0.069 A 
HETATM   25  C3  UNL     1      -5.095   3.384  16.080  1.00  0.00     0.040 A 
HETATM   26  C2  UNL     1      -6.212   2.900  16.739  1.00  0.00     0.045 A 
HETATM   27  C1  UNL     1      -6.299   1.544  16.949  1.00  0.00     0.116 A 
HETATM   28  F1  UNL     1      -7.393   1.068  17.595  1.00  0.00    -0.206 F 
HETATM   29  C20 UNL     1      -5.320   0.675  16.527  1.00  0.00     0.045 A 
HETATM   30  C19 UNL     1      -4.231   1.199  15.879  1.00  0.00     0.040 A 
ENDBRANCH  23  24
ENDBRANCH  22  23
ENDBRANCH  20  22
ENDBRANCH   1  18
TORSDOF 4
ENDMDL
MODEL 4
REMARK VINA RESULT: -8.448757733      1.876      3.444
REMARK  4 active torsions:
REMARK  status: ('A' for Active; 'I' for Inactive)
REMARK    1  A    between atoms: C4_5  and  O1_6 
REMARK    2  A    between atoms: O1_6  and  C5_7 
REMARK    3  A    between atoms: C5_7  and  C6_8 
REMARK    4  A    between atoms: C8_10  and  N1_11 
ROOT
HETATM    1  N1  UNL     1      -2.935   3.965  11.517  1.00  0.00    -0.341 N 
HETATM    2  C9  UNL     1      -2.274   2.723  11.528  1.00  0.00     0.140 C 
HETATM    3  C10 UNL     1      -3.027   1.497  11.521  1.00  0.00     0.118 A 
HETATM    4  C11 UNL     1      -3.647   0.935  10.434  1.00  0.00     0.043 A 
HETATM    5  C12 UNL     1      -4.266  -0.249  10.854  1.00  0.00     0.027 A 
HETATM    6  C13 UNL     1      -3.960  -0.314  12.212  1.00  0.00     0.142 A 
HETATM    7  O2  UNL     1      -3.236   0.726  12.553  1.00  0.00    -0.319 OA
HETATM    8  N2  UNL     1      -0.964   2.724  11.566  1.00  0.00    -0.341 N 
ATOM      9  H2  UNL     1      -0.439   1.850  11.576  1.00  0.00     0.167 HD
HETATM   10  C14 UNL     1      -0.290   3.989  11.595  1.00  0.00     0.156 C 
HETATM   11  N3  UNL     1      -0.903   5.068  10.915  1.00  0.00    -0.231 NA
HETATM   12  C15 UNL     1      -0.326   5.351   9.633  1.00  0.00     0.331 C 
HETATM   13  N4  UNL     1      -1.151   4.588   8.722  1.00  0.00    -0.060 N 
ATOM     14  H41 UNL     1      -0.884   3.609   8.619  1.00  0.00     0.278 HD
ATOM     15  H42 UNL     1      -1.036   4.826   7.737  1.00  0.00     0.278 HD
HETATM   16  C16 UNL     1      -2.504   4.806   9.257  1.00  0.00     0.275 C 
HETATM   17  C17 UNL     1      -2.300   5.033  10.720  1.00  0.00     0.194 C 
ENDROOT
BRANCH   1  18
HETATM   18  C8  UNL     1      -4.140   4.167  12.233  1.00  0.00     0.088 C 
HETATM   19  C7  UNL     1      -4.390   5.504  12.882  1.00  0.00     0.032 C 
HETATM   20  C6  UNL     1      -5.213   4.706  13.919  1.00  0.00     0.014 C 
HETATM   21  C18 UNL     1      -4.160   3.600  13.662  1.00  0.00     0.032 C 
BRANCH  20  22
HETATM   22  C5  UNL     1      -5.149   5.271  15.295  1.00  0.00     0.180 C 
BRANCH  22  23
HETATM   23  O1  UNL     1      -5.845   4.534  16.203  1.00  0.00    -0.351 OA
BRANCH  23  24
HETATM   24  C4  UNL     1      -5.882   3.240  16.565  1.00  0.00     0.069 A 
HETATM   25  C3  UNL     1      -7.036   2.595  16.924  1.00  0.00     0.040 A 
HETATM   26  C2  UNL     1      -7.067   1.262  17.293  1.00  0.00     0.045 A 
HETATM   27  C1  UNL     1      -5.882   0.565  17.295  1.00  0.00     0.116 A 
HETATM   28  F1  UNL     1      -5.911  -0.742  17.657  1.00  0.00    -0.206 F 
HETATM   29  C20 UNL     1      -4.688   1.153  16.946  1.00  0.00     0.045 A 
HETATM   30  C19 UNL     1      -4.704   2.476  16.587  1.00  0.00     0.040 A 
ENDBRANCH  23  24
ENDBRANCH  22  23
ENDBRANCH  20  22
ENDBRANCH   1  18
TORSDOF 4
ENDMDL
MODEL 5
REMARK VINA RESULT: -8.300791295      2.273      3.562
REMARK  4 active torsions:
REMARK  status: ('A' for Active; 'I' for Inactive)
REMARK    1  A    between atoms: C4_5  and  O1_6 
REMARK    2  A    between atoms: O1_6  and  C5_7 
REMARK    3  A    between atoms: C5_7  and  C6_8 
REMARK    4  A    between atoms: C8_10  and  N1_11 
ROOT
HETATM    1  N1  UNL     1      -3.477   5.667   9.798  1.00  0.00    -0.341 N 
HETATM    2  C9  UNL     1      -4.007   5.706   8.495  1.00  0.00     0.140 C 
HETATM    3  C10 UNL     1      -5.374   6.099   8.277  1.00  0.00     0.118 A 
HETATM    4  C11 UNL     1      -5.862   7.381   8.303  1.00  0.00     0.043 A 
HETATM    5  C12 UNL     1      -7.237   7.324   8.043  1.00  0.00     0.027 A 
HETATM    6  C13 UNL     1      -7.484   5.963   7.873  1.00  0.00     0.142 A 
HETATM    7  O2  UNL     1      -6.366   5.290   8.019  1.00  0.00    -0.319 OA
HETATM    8  N2  UNL     1      -3.227   5.357   7.503  1.00  0.00    -0.341 N 
ATOM      9  H2  UNL     1      -3.565   5.369   6.541  1.00  0.00     0.167 HD
HETATM   10  C14 UNL     1      -1.884   4.956   7.808  1.00  0.00     0.156 C 
HETATM   11  N3  UNL     1      -1.258   5.572   8.917  1.00  0.00    -0.231 NA
HETATM   12  C15 UNL     1      -0.338   6.613   8.562  1.00  0.00     0.331 C 
HETATM   13  N4  UNL     1      -1.149   7.810   8.628  1.00  0.00    -0.060 N 
ATOM     14  H41 UNL     1      -1.689   8.008   7.785  1.00  0.00     0.278 HD
ATOM     15  H42 UNL     1      -0.624   8.684   8.618  1.00  0.00     0.278 HD
HETATM   16  C16 UNL     1      -1.953   7.584   9.838  1.00  0.00     0.275 C 
HETATM   17  C17 UNL     1      -2.073   6.098   9.942  1.00  0.00     0.194 C 
ENDROOT
BRANCH   1  18
HETATM   18  C8  UNL     1      -4.256   5.236  10.900  1.00  0.00     0.088 C 
HETATM   19  C7  UNL     1      -4.566   6.214  12.003  1.00  0.00     0.032 C 
HETATM   20  C6  UNL     1      -4.597   4.973  12.925  1.00  0.00     0.014 C 
HETATM   21  C18 UNL     1      -3.494   4.443  11.975  1.00  0.00     0.032 C 
BRANCH  20  22
HETATM   22  C5  UNL     1      -4.107   5.241  14.304  1.00  0.00     0.180 C 
BRANCH  22  23
HETATM   23  O1  UNL     1      -4.936   4.751  15.265  1.00  0.00    -0.351 OA
BRANCH  23  24
HETATM   24  C4  UNL     1      -5.108   3.563  15.872  1.00  0.00     0.069 A 
HETATM   25  C3  UNL     1      -4.300   2.481  15.644  1.00  0.00     0.040 A 
HETATM   26  C2  UNL     1      -4.482   1.262  16.273  1.00  0.00     0.045 A 
HETATM   27  C1  UNL     1      -5.523   1.145  17.164  1.00  0.00     0.116 A 
HETATM   28  F1  UNL     1      -5.702  -0.050  17.781  1.00  0.00    -0.206 F 
HETATM   29  C20 UNL     1      -6.372   2.192  17.437  1.00  0.00     0.045 A 
HETATM   30  C19 UNL     1      -6.154   3.382  16.791  1.00  0.00     0.040 A 
ENDBRANCH  23  24
ENDBRANCH  22  23
ENDBRANCH  20  22
ENDBRANCH   1  18
TORSDOF 4
ENDMDL
