MODEL 1
REMARK VINA RESULT: -8.073553265      0.000      0.000
REMARK  6 active torsions:
REMARK  status: ('A' for Active; 'I' for Inactive)
REMARK    1  A    between atoms: C2_2  and  N1_4 
REMARK       I    between atoms: N1_4  and  C4_5 
REMARK    2  A    between atoms: N1_4  and  C15_26 
REMARK       I    between atoms: C4_5  and  N2_7 
REMARK    3  A    between atoms: N2_7  and  C5_9 
REMARK    4  A    between atoms: C5_9  and  C6_10 
REMARK    5  A    between atoms: C9_15  and  O4_16 
REMARK    6  A    between atoms: O4_16  and  C10_17 
ROOT
HETATM    1  C6  UNL     1      -3.547   3.922  11.469  1.00  0.00     0.036 C 
HETATM    2  C7  UNL     1      -4.120   2.840  10.663  1.00  0.00     0.178 C 
HETATM    3  O2  UNL     1      -4.576   1.921  11.661  1.00  0.00    -0.360 OA
HETATM    4  C8  UNL     1      -5.193   2.725  12.612  1.00  0.00     0.267 C 
HETATM    5  O3  UNL     1      -4.877   2.276  13.856  1.00  0.00    -0.331 OA
HETATM    6  C9  UNL     1      -3.781   2.990  14.327  1.00  0.00     0.273 C 
HETATM    7  C13 UNL     1      -4.074   4.404  13.869  1.00  0.00     0.071 C 
HETATM    8  C14 UNL     1      -4.681   4.115  12.511  1.00  0.00     0.053 C 
ENDROOT
BRANCH   1   9
HETATM    9  C5  UNL     1      -3.366   5.229  10.840  1.00  0.00     0.131 C 
BRANCH   9  10
HETATM   10  N2  UNL     1      -4.480   6.054  10.555  1.00  0.00    -0.343 N 
HETATM   11  C4  UNL     1      -5.273   6.068   9.420  1.00  0.00     0.319 C 
HETATM   12  N1  UNL     1      -6.353   7.006   9.300  1.00  0.00    -0.326 N 
HETATM   13  O1  UNL     1      -5.115   5.288   8.441  1.00  0.00    -0.247 OA
ATOM     14  H2  UNL     1      -4.732   6.725  11.281  1.00  0.00     0.164 HD
BRANCH  12  15
HETATM   15  C2  UNL     1      -6.701   7.979  10.298  1.00  0.00     0.081 C 
HETATM   16  C1  UNL     1      -5.719   9.104  10.439  1.00  0.00     0.032 C 
HETATM   17  C3  UNL     1      -7.012   7.399  11.652  1.00  0.00     0.032 C 
ENDBRANCH  12  15
BRANCH  12  18
HETATM   18  C15 UNL     1      -7.144   6.956   8.073  1.00  0.00     0.081 C 
HETATM   19  C16 UNL     1      -6.408   7.755   7.006  1.00  0.00     0.032 C 
HETATM   20  C17 UNL     1      -8.499   7.568   8.299  1.00  0.00     0.032 C 
ENDBRANCH  12  18
ENDBRANCH   9  10
ENDBRANCH   1   9
BRANCH   6  21
HETATM   21  O4  UNL     1      -3.809   2.870  15.731  1.00  0.00    -0.284 OA
BRANCH  21  22
HETATM   22  C10 UNL     1      -4.711   1.984  16.295  1.00  0.00     0.273 A 
HETATM   23  N3  UNL     1      -6.050   2.197  16.376  1.00  0.00    -0.291 N 
HETATM   24  C11 UNL     1      -6.636   1.145  16.978  1.00  0.00     0.214 A 
ATOM     25  H3  UNL     1      -6.537   3.025  16.033  1.00  0.00     0.172 HD
HETATM   26  F1  UNL     1      -7.941   0.926  17.268  1.00  0.00    -0.184 F 
HETATM   27  C12 UNL     1      -5.602   0.278  17.266  1.00  0.00     0.207 A 
HETATM   28  O5  UNL     1      -4.486   0.810  16.847  1.00  0.00    -0.281 OA
ENDBRANCH  21  22
ENDBRANCH   6  21
TORSDOF 6
ENDMDL
MODEL 2
REMARK VINA RESULT: -8.048024528      2.998      7.441
REMARK  6 active torsions:
REMARK  status: ('A' for Active; 'I' for Inactive)
REMARK    1  A    between atoms: C2_2  and  N1_4 
REMARK       I    between atoms: N1_4  and  C4_5 
REMARK    2  A    between atoms: N1_4  and  C15_26 
REMARK       I    between atoms: C4_5  and  N2_7 
REMARK    3  A    between atoms: N2_7  and  C5_9 
REMARK    4  A    between atoms: C5_9  and  C6_10 
REMARK    5  A    between atoms: C9_15  and  O4_16 
REMARK    6  A    between atoms: O4_16  and  C10_17 
ROOT
HETATM    1  C6  UNL     1      -3.038   1.104  11.534  1.00  0.00     0.036 C 
HETATM    2  C7  UNL     1      -1.632   0.952  11.147  1.00  0.00     0.178 C 
HETATM    3  O2  UNL     1      -1.447   2.033  10.228  1.00  0.00    -0.360 OA
HETATM    4  C8  UNL     1      -2.076   3.112  10.836  1.00  0.00     0.267 C 
HETATM    5  O3  UNL     1      -2.753   3.828   9.899  1.00  0.00    -0.331 OA
HETATM    6  C9  UNL     1      -4.074   3.395   9.871  1.00  0.00     0.273 C 
HETATM    7  C13 UNL     1      -4.398   3.196  11.337  1.00  0.00     0.071 C 
HETATM    8  C14 UNL     1      -3.078   2.628  11.819  1.00  0.00     0.053 C 
ENDROOT
BRANCH   1   9
HETATM    9  C5  UNL     1      -3.486   0.462  12.768  1.00  0.00     0.131 C 
BRANCH   9  10
HETATM   10  N2  UNL     1      -4.042   1.229  13.820  1.00  0.00    -0.343 N 
HETATM   11  C4  UNL     1      -4.612   0.785  15.001  1.00  0.00     0.319 C 
HETATM   12  N1  UNL     1      -5.153   1.722  15.945  1.00  0.00    -0.326 N 
HETATM   13  O1  UNL     1      -4.695  -0.431  15.329  1.00  0.00    -0.247 OA
ATOM     14  H2  UNL     1      -4.020   2.241  13.691  1.00  0.00     0.164 HD
BRANCH  12  15
HETATM   15  C2  UNL     1      -5.160   3.147  15.763  1.00  0.00     0.081 C 
HETATM   16  C1  UNL     1      -6.179   3.645  14.781  1.00  0.00     0.032 C 
HETATM   17  C3  UNL     1      -3.813   3.741  15.448  1.00  0.00     0.032 C 
ENDBRANCH  12  15
BRANCH  12  18
HETATM   18  C15 UNL     1      -5.734   1.175  17.167  1.00  0.00     0.081 C 
HETATM   19  C16 UNL     1      -7.206   0.891  16.903  1.00  0.00     0.032 C 
HETATM   20  C17 UNL     1      -5.618   2.168  18.291  1.00  0.00     0.032 C 
ENDBRANCH  12  18
ENDBRANCH   9  10
ENDBRANCH   1   9
BRANCH   6  21
HETATM   21  O4  UNL     1      -4.819   4.447   9.299  1.00  0.00    -0.284 OA
BRANCH  21  22
HETATM   22  C10 UNL     1      -4.865   5.657   9.971  1.00  0.00     0.273 A 
HETATM   23  N3  UNL     1      -3.818   6.516  10.080  1.00  0.00    -0.291 N 
HETATM   24  C11 UNL     1      -4.196   7.594  10.794  1.00  0.00     0.214 A 
ATOM     25  H3  UNL     1      -2.890   6.368   9.683  1.00  0.00     0.172 HD
HETATM   26  F1  UNL     1      -3.487   8.693  11.148  1.00  0.00    -0.184 F 
HETATM   27  C12 UNL     1      -5.516   7.361  11.119  1.00  0.00     0.207 A 
HETATM   28  O5  UNL     1      -5.871   6.210  10.616  1.00  0.00    -0.281 OA
ENDBRANCH  21  22
ENDBRANCH   6  21
TORSDOF 6
ENDMDL
MODEL 3
REMARK VINA RESULT: -8.014966590      3.789      8.111
REMARK  6 active torsions:
REMARK  status: ('A' for Active; 'I' for Inactive)
REMARK    1  A    between atoms: C2_2  and  N1_4 
REMARK       I    between atoms: N1_4  and  C4_5 
REMARK    2  A    between atoms: N1_4  and  C15_26 
REMARK       I    between atoms: C4_5  and  N2_7 
REMARK    3  A    between atoms: N2_7  and  C5_9 
REMARK    4  A    between atoms: C5_9  and  C6_10 
REMARK    5  A    between atoms: C9_15  and  O4_16 
REMARK    6  A    between atoms: O4_16  and  C10_17 
ROOT
HETATM    1  C6  UNL     1      -3.134   0.903  11.673  1.00  0.00     0.036 C 
HETATM    2  C7  UNL     1      -1.768   0.627  11.217  1.00  0.00     0.178 C 
HETATM    3  O2  UNL     1      -1.543   1.674  10.268  1.00  0.00    -0.360 OA
HETATM    4  C8  UNL     1      -2.045   2.812  10.887  1.00  0.00     0.267 C 
HETATM    5  O3  UNL     1      -2.709   3.568   9.972  1.00  0.00    -0.331 OA
HETATM    6  C9  UNL     1      -4.061   3.248  10.021  1.00  0.00     0.273 C 
HETATM    7  C13 UNL     1      -4.322   3.100  11.506  1.00  0.00     0.071 C 
HETATM    8  C14 UNL     1      -3.031   2.430  11.930  1.00  0.00     0.053 C 
ENDROOT
BRANCH   1   9
HETATM    9  C5  UNL     1      -3.568   0.320  12.941  1.00  0.00     0.131 C 
BRANCH   9  10
HETATM   10  N2  UNL     1      -4.062   1.143  13.982  1.00  0.00    -0.343 N 
HETATM   11  C4  UNL     1      -4.640   0.761  15.180  1.00  0.00     0.319 C 
HETATM   12  N1  UNL     1      -5.111   1.750  16.108  1.00  0.00    -0.326 N 
HETATM   13  O1  UNL     1      -4.792  -0.440  15.537  1.00  0.00    -0.247 OA
ATOM     14  H2  UNL     1      -3.980   2.148  13.829  1.00  0.00     0.164 HD
BRANCH  12  15
HETATM   15  C2  UNL     1      -5.035   3.168  15.894  1.00  0.00     0.081 C 
HETATM   16  C1  UNL     1      -6.104   3.722  14.999  1.00  0.00     0.032 C 
HETATM   17  C3  UNL     1      -3.685   3.658  15.441  1.00  0.00     0.032 C 
ENDBRANCH  12  15
BRANCH  12  18
HETATM   18  C15 UNL     1      -5.707   1.266  17.350  1.00  0.00     0.081 C 
HETATM   19  C16 UNL     1      -7.131   0.820  17.047  1.00  0.00     0.032 C 
HETATM   20  C17 UNL     1      -5.743   2.366  18.376  1.00  0.00     0.032 C 
ENDBRANCH  12  18
ENDBRANCH   9  10
ENDBRANCH   1   9
BRANCH   6  21
HETATM   21  O4  UNL     1      -4.745   4.350   9.468  1.00  0.00    -0.284 OA
BRANCH  21  22
HETATM   22  C10 UNL     1      -4.148   5.034   8.422  1.00  0.00     0.273 A 
HETATM   23  N3  UNL     1      -3.573   6.260   8.534  1.00  0.00    -0.291 N 
HETATM   24  C11 UNL     1      -3.089   6.638   7.335  1.00  0.00     0.214 A 
ATOM     25  H3  UNL     1      -3.516   6.809   9.391  1.00  0.00     0.172 HD
HETATM   26  F1  UNL     1      -2.441   7.774   6.980  1.00  0.00    -0.184 F 
HETATM   27  C12 UNL     1      -3.391   5.596   6.484  1.00  0.00     0.207 A 
HETATM   28  O5  UNL     1      -4.014   4.672   7.164  1.00  0.00    -0.281 OA
ENDBRANCH  21  22
ENDBRANCH   6  21
TORSDOF 6
ENDMDL
MODEL 4
REMARK VINA RESULT: -7.947763847      1.403      1.721
REMARK  6 active torsions:
REMARK  status: ('A' for Active; 'I' for Inactive)
REMARK    1  A    between atoms: C2_2  and  N1_4 
REMARK       I    between atoms: N1_4  and  C4_5 
REMARK    2  A    between atoms: N1_4  and  C15_26 
REMARK       I    between atoms: C4_5  and  N2_7 
REMARK    3  A    between atoms: N2_7  and  C5_9 
REMARK    4  A    between atoms: C5_9  and  C6_10 
REMARK    5  A    between atoms: C9_15  and  O4_16 
REMARK    6  A    between atoms: O4_16  and  C10_17 
ROOT
HETATM    1  C6  UNL     1      -3.432   4.884  12.480  1.00  0.00     0.036 C 
HETATM    2  C7  UNL     1      -2.112   4.321  12.783  1.00  0.00     0.178 C 
HETATM    3  O2  UNL     1      -2.265   3.888  14.138  1.00  0.00    -0.360 OA
HETATM    4  C8  UNL     1      -3.508   3.266  14.161  1.00  0.00     0.267 C 
HETATM    5  O3  UNL     1      -4.158   3.599  15.309  1.00  0.00    -0.331 OA
HETATM    6  C9  UNL     1      -4.985   4.688  15.057  1.00  0.00     0.273 C 
HETATM    7  C13 UNL     1      -5.561   4.369  13.692  1.00  0.00     0.071 C 
HETATM    8  C14 UNL     1      -4.342   3.755  13.034  1.00  0.00     0.053 C 
ENDROOT
BRANCH   1   9
HETATM    9  C5  UNL     1      -3.809   5.039  11.077  1.00  0.00     0.131 C 
BRANCH   9  10
HETATM   10  N2  UNL     1      -4.801   5.975  10.696  1.00  0.00    -0.343 N 
HETATM   11  C4  UNL     1      -5.537   6.020   9.525  1.00  0.00     0.319 C 
HETATM   12  N1  UNL     1      -6.488   7.073   9.303  1.00  0.00    -0.326 N 
HETATM   13  O1  UNL     1      -5.435   5.171   8.596  1.00  0.00    -0.247 OA
ATOM     14  H2  UNL     1      -4.999   6.712  11.373  1.00  0.00     0.164 HD
BRANCH  12  15
HETATM   15  C2  UNL     1      -6.754   8.137  10.232  1.00  0.00     0.081 C 
HETATM   16  C1  UNL     1      -5.659   9.155  10.344  1.00  0.00     0.032 C 
HETATM   17  C3  UNL     1      -7.167   7.676  11.604  1.00  0.00     0.032 C 
ENDBRANCH  12  15
BRANCH  12  18
HETATM   18  C15 UNL     1      -7.226   7.049   8.044  1.00  0.00     0.081 C 
HETATM   19  C16 UNL     1      -6.416   7.815   7.008  1.00  0.00     0.032 C 
HETATM   20  C17 UNL     1      -8.566   7.712   8.210  1.00  0.00     0.032 C 
ENDBRANCH  12  18
ENDBRANCH   9  10
ENDBRANCH   1   9
BRANCH   6  21
HETATM   21  O4  UNL     1      -5.970   4.673  16.066  1.00  0.00    -0.284 OA
BRANCH  21  22
HETATM   22  C10 UNL     1      -6.121   3.520  16.817  1.00  0.00     0.273 A 
HETATM   23  N3  UNL     1      -6.442   2.304  16.303  1.00  0.00    -0.291 N 
HETATM   24  C11 UNL     1      -6.511   1.401  17.300  1.00  0.00     0.214 A 
ATOM     25  H3  UNL     1      -6.606   2.106  15.316  1.00  0.00     0.172 HD
HETATM   26  F1  UNL     1      -6.797   0.077  17.254  1.00  0.00    -0.184 F 
HETATM   27  C12 UNL     1      -6.220   2.112  18.445  1.00  0.00     0.207 A 
HETATM   28  O5  UNL     1      -5.997   3.355  18.117  1.00  0.00    -0.281 OA
ENDBRANCH  21  22
ENDBRANCH   6  21
TORSDOF 6
ENDMDL
MODEL 5
REMARK VINA RESULT: -7.936499249      1.127      1.168
REMARK  6 active torsions:
REMARK  status: ('A' for Active; 'I' for Inactive)
REMARK    1  A    between atoms: C2_2  and  N1_4 
REMARK       I    between atoms: N1_4  and  C4_5 
REMARK    2  A    between atoms: N1_4  and  C15_26 
REMARK       I    between atoms: C4_5  and  N2_7 
REMARK    3  A    between atoms: N2_7  and  C5_9 
REMARK    4  A    between atoms: C5_9  and  C6_10 
REMARK    5  A    between atoms: C9_15  and  O4_16 
REMARK    6  A    between atoms: O4_16  and  C10_17 
ROOT
HETATM    1  C6  UNL     1      -2.438   3.418  11.842  1.00  0.00     0.036 C 
HETATM    2  C7  UNL     1      -2.393   2.055  11.303  1.00  0.00     0.178 C 
HETATM    3  O2  UNL     1      -3.001   1.291  12.348  1.00  0.00    -0.360 OA
HETATM    4  C8  UNL     1      -4.104   2.046  12.729  1.00  0.00     0.267 C 
HETATM    5  O3  UNL     1      -4.225   2.019  14.083  1.00  0.00    -0.331 OA
HETATM    6  C9  UNL     1      -3.590   3.137  14.613  1.00  0.00     0.273 C 
HETATM    7  C13 UNL     1      -3.971   4.236  13.643  1.00  0.00     0.071 C 
HETATM    8  C14 UNL     1      -3.906   3.465  12.340  1.00  0.00     0.053 C 
ENDROOT
BRANCH   1   9
HETATM    9  C5  UNL     1      -2.304   4.534  10.906  1.00  0.00     0.131 C 
BRANCH   9  10
HETATM   10  N2  UNL     1      -3.437   5.287  10.515  1.00  0.00    -0.343 N 
HETATM   11  C4  UNL     1      -4.179   5.184   9.351  1.00  0.00     0.319 C 
HETATM   12  N1  UNL     1      -5.290   6.064   9.116  1.00  0.00    -0.326 N 
HETATM   13  O1  UNL     1      -3.947   4.342   8.440  1.00  0.00    -0.247 OA
ATOM     14  H2  UNL     1      -3.748   5.998  11.178  1.00  0.00     0.164 HD
BRANCH  12  15
HETATM   15  C2  UNL     1      -5.719   7.091  10.024  1.00  0.00     0.081 C 
HETATM   16  C1  UNL     1      -4.773   8.248  10.148  1.00  0.00     0.032 C 
HETATM   17  C3  UNL     1      -6.101   6.593  11.393  1.00  0.00     0.032 C 
ENDBRANCH  12  15
BRANCH  12  18
HETATM   18  C15 UNL     1      -6.022   5.890   7.865  1.00  0.00     0.081 C 
HETATM   19  C16 UNL     1      -5.392   6.799   6.820  1.00  0.00     0.032 C 
HETATM   20  C17 UNL     1      -7.465   6.275   8.047  1.00  0.00     0.032 C 
ENDBRANCH  12  18
ENDBRANCH   9  10
ENDBRANCH   1   9
BRANCH   6  21
HETATM   21  O4  UNL     1      -4.151   3.337  15.891  1.00  0.00    -0.284 OA
BRANCH  21  22
HETATM   22  C10 UNL     1      -4.949   2.337  16.420  1.00  0.00     0.273 A 
HETATM   23  N3  UNL     1      -6.304   2.305  16.331  1.00  0.00    -0.291 N 
HETATM   24  C11 UNL     1      -6.769   1.202  16.948  1.00  0.00     0.214 A 
ATOM     25  H3  UNL     1      -6.881   3.008  15.868  1.00  0.00     0.172 HD
HETATM   26  F1  UNL     1      -8.042   0.766  17.105  1.00  0.00    -0.184 F 
HETATM   27  C12 UNL     1      -5.644   0.559  17.421  1.00  0.00     0.207 A 
HETATM   28  O5  UNL     1      -4.594   1.259  17.089  1.00  0.00    -0.281 OA
ENDBRANCH  21  22
ENDBRANCH   6  21
TORSDOF 6
ENDMDL
