MODEL 1
REMARK VINA RESULT: -7.603897981      0.000      0.000
REMARK  6 active torsions:
REMARK  status: ('A' for Active; 'I' for Inactive)
REMARK    1  A    between atoms: C2_2  and  O1_3 
REMARK    2  A    between atoms: O1_3  and  C3_4 
REMARK    3  A    between atoms: C3_4  and  C4_6 
REMARK    4  A    between atoms: N1_8  and  C6_9 
REMARK    5  A    between atoms: C6_9  and  C7_10 
REMARK       I    between atoms: C7_10  and  N2_12 
REMARK    6  A    between atoms: N2_12  and  C8_14 
ROOT
HETATM    1  C7  UNL     1      -3.961   4.601  11.035  1.00  0.00     0.238 C 
HETATM    2  O3  UNL     1      -4.893   4.045  10.427  1.00  0.00    -0.272 OA
HETATM    3  N2  UNL     1      -3.781   5.982  11.094  1.00  0.00    -0.350 N 
ATOM      4  H2  UNL     1      -2.991   6.359  11.617  1.00  0.00     0.163 HD
ENDROOT
BRANCH   1   5
HETATM    5  C6  UNL     1      -3.001   3.674  11.732  1.00  0.00     0.252 C 
BRANCH   5   6
HETATM    6  N1  UNL     1      -3.651   3.115  12.892  1.00  0.00    -0.278 N 
HETATM    7  C5  UNL     1      -3.470   1.883  13.410  1.00  0.00     0.149 A 
HETATM    8  C4  UNL     1      -4.284   1.756  14.515  1.00  0.00     0.141 A 
HETATM    9  N4  UNL     1      -4.933   2.935  14.622  1.00  0.00    -0.279 N 
HETATM   10  N3  UNL     1      -4.543   3.727  13.650  1.00  0.00    -0.240 N 
ATOM     11  H4  UNL     1      -5.615   3.172  15.342  1.00  0.00     0.189 HD
ATOM     12  H3  UNL     1      -4.881   4.679  13.501  1.00  0.00     0.208 HD
BRANCH   8  13
HETATM   13  C3  UNL     1      -4.441   0.611  15.406  1.00  0.00     0.312 C 
HETATM   14  O2  UNL     1      -4.521  -0.548  14.927  1.00  0.00    -0.258 OA
BRANCH  13  15
HETATM   15  O1  UNL     1      -4.501   0.790  16.760  1.00  0.00    -0.317 OA
BRANCH  15  16
HETATM   16  C2  UNL     1      -5.696   0.737  17.518  1.00  0.00     0.175 C 
HETATM   17  C1  UNL     1      -6.025   2.148  17.952  1.00  0.00     0.034 C 
ENDBRANCH  15  16
ENDBRANCH  13  15
ENDBRANCH   8  13
ENDBRANCH   5   6
ENDBRANCH   1   5
BRANCH   3  18
HETATM   18  C8  UNL     1      -4.690   6.892  10.431  1.00  0.00     0.034 C 
HETATM   19  C9  UNL     1      -4.071   8.307  10.445  1.00  0.00     0.035 C 
HETATM   20  C10 UNL     1      -4.988   9.200   9.675  1.00  0.00    -0.012 C 
HETATM   21  C11 UNL     1      -6.302   9.294  10.423  1.00  0.00     0.009 C 
HETATM   22  C15 UNL     1      -5.285   8.742   8.284  1.00  0.00     0.009 C 
HETATM   23  C12 UNL     1      -6.909   7.920  10.495  1.00  0.00    -0.012 C 
HETATM   24  C13 UNL     1      -7.144   7.347   9.097  1.00  0.00     0.009 C 
HETATM   25  C17 UNL     1      -5.970   6.952  11.188  1.00  0.00     0.035 C 
HETATM   26  C14 UNL     1      -5.869   7.342   8.315  1.00  0.00    -0.012 C 
HETATM   27  C16 UNL     1      -4.828   6.468   8.992  1.00  0.00     0.035 C 
ENDBRANCH   3  18
TORSDOF 6
ENDMDL
MODEL 2
REMARK VINA RESULT: -7.586811057      0.910      1.048
REMARK  6 active torsions:
REMARK  status: ('A' for Active; 'I' for Inactive)
REMARK    1  A    between atoms: C2_2  and  O1_3 
REMARK    2  A    between atoms: O1_3  and  C3_4 
REMARK    3  A    between atoms: C3_4  and  C4_6 
REMARK    4  A    between atoms: N1_8  and  C6_9 
REMARK    5  A    between atoms: C6_9  and  C7_10 
REMARK       I    between atoms: C7_10  and  N2_12 
REMARK    6  A    between atoms: N2_12  and  C8_14 
ROOT
HETATM    1  C7  UNL     1      -3.628   4.965  12.003  1.00  0.00     0.238 C 
HETATM    2  O3  UNL     1      -4.511   4.214  11.552  1.00  0.00    -0.272 OA
HETATM    3  N2  UNL     1      -3.531   6.323  11.707  1.00  0.00    -0.350 N 
ATOM      4  H2  UNL     1      -2.777   6.870  12.121  1.00  0.00     0.163 HD
ENDROOT
BRANCH   1   5
HETATM    5  C6  UNL     1      -2.630   4.308  12.921  1.00  0.00     0.252 C 
BRANCH   5   6
HETATM    6  N1  UNL     1      -3.168   3.046  13.368  1.00  0.00    -0.278 N 
HETATM    7  C5  UNL     1      -3.639   2.755  14.597  1.00  0.00     0.149 A 
HETATM    8  C4  UNL     1      -4.056   1.440  14.599  1.00  0.00     0.141 A 
HETATM    9  N4  UNL     1      -3.816   0.986  13.351  1.00  0.00    -0.279 N 
HETATM   10  N3  UNL     1      -3.289   1.953  12.636  1.00  0.00    -0.240 N 
ATOM     11  H4  UNL     1      -4.013   0.042  13.016  1.00  0.00     0.189 HD
ATOM     12  H3  UNL     1      -3.013   1.873  11.657  1.00  0.00     0.208 HD
BRANCH   8  13
HETATM   13  C3  UNL     1      -4.637   0.668  15.692  1.00  0.00     0.312 C 
HETATM   14  O2  UNL     1      -4.848  -0.562  15.545  1.00  0.00    -0.258 OA
BRANCH  13  15
HETATM   15  O1  UNL     1      -4.954   1.274  16.876  1.00  0.00    -0.317 OA
BRANCH  15  16
HETATM   16  C2  UNL     1      -6.267   1.644  17.255  1.00  0.00     0.175 C 
HETATM   17  C1  UNL     1      -6.366   3.149  17.148  1.00  0.00     0.034 C 
ENDBRANCH  15  16
ENDBRANCH  13  15
ENDBRANCH   8  13
ENDBRANCH   5   6
ENDBRANCH   1   5
BRANCH   3  18
HETATM   18  C8  UNL     1      -4.477   6.974  10.826  1.00  0.00     0.034 C 
HETATM   19  C9  UNL     1      -4.047   8.445  10.639  1.00  0.00     0.035 C 
HETATM   20  C10 UNL     1      -4.988   9.062   9.657  1.00  0.00    -0.012 C 
HETATM   21  C11 UNL     1      -6.371   9.089  10.273  1.00  0.00     0.009 C 
HETATM   22  C15 UNL     1      -5.084   8.344   8.349  1.00  0.00     0.009 C 
HETATM   23  C12 UNL     1      -6.804   7.673  10.538  1.00  0.00    -0.012 C 
HETATM   24  C13 UNL     1      -6.822   6.852   9.247  1.00  0.00     0.009 C 
HETATM   25  C17 UNL     1      -5.823   6.975  11.460  1.00  0.00     0.035 C 
HETATM   26  C14 UNL     1      -5.486   6.900   8.580  1.00  0.00    -0.012 C 
HETATM   27  C16 UNL     1      -4.415   6.306   9.478  1.00  0.00     0.035 C 
ENDBRANCH   3  18
TORSDOF 6
ENDMDL
MODEL 3
REMARK VINA RESULT: -7.550760210      0.917      1.845
REMARK  6 active torsions:
REMARK  status: ('A' for Active; 'I' for Inactive)
REMARK    1  A    between atoms: C2_2  and  O1_3 
REMARK    2  A    between atoms: O1_3  and  C3_4 
REMARK    3  A    between atoms: C3_4  and  C4_6 
REMARK    4  A    between atoms: N1_8  and  C6_9 
REMARK    5  A    between atoms: C6_9  and  C7_10 
REMARK       I    between atoms: C7_10  and  N2_12 
REMARK    6  A    between atoms: N2_12  and  C8_14 
ROOT
HETATM    1  C7  UNL     1      -3.655   5.066  12.073  1.00  0.00     0.238 C 
HETATM    2  O3  UNL     1      -4.506   4.295  11.596  1.00  0.00    -0.272 OA
HETATM    3  N2  UNL     1      -3.579   6.425  11.776  1.00  0.00    -0.350 N 
ATOM      4  H2  UNL     1      -2.851   6.990  12.211  1.00  0.00     0.163 HD
ENDROOT
BRANCH   1   5
HETATM    5  C6  UNL     1      -2.672   4.435  13.024  1.00  0.00     0.252 C 
BRANCH   5   6
HETATM    6  N1  UNL     1      -3.173   3.141  13.420  1.00  0.00    -0.278 N 
HETATM    7  C5  UNL     1      -3.661   2.795  14.629  1.00  0.00     0.149 A 
HETATM    8  C4  UNL     1      -4.029   1.467  14.582  1.00  0.00     0.141 A 
HETATM    9  N4  UNL     1      -3.745   1.060  13.327  1.00  0.00    -0.279 N 
HETATM   10  N3  UNL     1      -3.238   2.067  12.654  1.00  0.00    -0.240 N 
ATOM     11  H4  UNL     1      -3.900   0.120  12.960  1.00  0.00     0.189 HD
ATOM     12  H3  UNL     1      -2.937   2.026  11.679  1.00  0.00     0.208 HD
BRANCH   8  13
HETATM   13  C3  UNL     1      -4.606   0.642  15.638  1.00  0.00     0.312 C 
HETATM   14  O2  UNL     1      -4.777  -0.589  15.447  1.00  0.00    -0.258 OA
BRANCH  13  15
HETATM   15  O1  UNL     1      -4.962   1.198  16.835  1.00  0.00    -0.317 OA
BRANCH  15  16
HETATM   16  C2  UNL     1      -6.284   1.569  17.179  1.00  0.00     0.175 C 
HETATM   17  C1  UNL     1      -6.349   3.080  17.178  1.00  0.00     0.034 C 
ENDBRANCH  15  16
ENDBRANCH  13  15
ENDBRANCH   8  13
ENDBRANCH   5   6
ENDBRANCH   1   5
BRANCH   3  18
HETATM   18  C8  UNL     1      -4.511   7.053  10.863  1.00  0.00     0.034 C 
HETATM   19  C9  UNL     1      -4.530   6.250   9.545  1.00  0.00     0.035 C 
HETATM   20  C10 UNL     1      -5.565   6.869   8.663  1.00  0.00    -0.012 C 
HETATM   21  C11 UNL     1      -5.115   8.271   8.310  1.00  0.00     0.009 C 
HETATM   22  C15 UNL     1      -6.927   6.964   9.270  1.00  0.00     0.009 C 
HETATM   23  C12 UNL     1      -5.015   9.073   9.578  1.00  0.00    -0.012 C 
HETATM   24  C13 UNL     1      -6.359   9.123  10.307  1.00  0.00     0.009 C 
HETATM   25  C17 UNL     1      -4.041   8.429  10.547  1.00  0.00     0.035 C 
HETATM   26  C14 UNL     1      -6.859   7.740  10.572  1.00  0.00    -0.012 C 
HETATM   27  C16 UNL     1      -5.891   6.980  11.462  1.00  0.00     0.035 C 
ENDBRANCH   3  18
TORSDOF 6
ENDMDL
MODEL 4
REMARK VINA RESULT: -7.512746112      0.898      1.806
REMARK  6 active torsions:
REMARK  status: ('A' for Active; 'I' for Inactive)
REMARK    1  A    between atoms: C2_2  and  O1_3 
REMARK    2  A    between atoms: O1_3  and  C3_4 
REMARK    3  A    between atoms: C3_4  and  C4_6 
REMARK    4  A    between atoms: N1_8  and  C6_9 
REMARK    5  A    between atoms: C6_9  and  C7_10 
REMARK       I    between atoms: C7_10  and  N2_12 
REMARK    6  A    between atoms: N2_12  and  C8_14 
ROOT
HETATM    1  C7  UNL     1      -3.648   5.033  12.028  1.00  0.00     0.238 C 
HETATM    2  O3  UNL     1      -4.542   4.279  11.605  1.00  0.00    -0.272 OA
HETATM    3  N2  UNL     1      -3.539   6.381  11.691  1.00  0.00    -0.350 N 
ATOM      4  H2  UNL     1      -2.776   6.932  12.083  1.00  0.00     0.163 HD
ENDROOT
BRANCH   1   5
HETATM    5  C6  UNL     1      -2.650   4.394  12.958  1.00  0.00     0.252 C 
BRANCH   5   6
HETATM    6  N1  UNL     1      -3.165   3.116  13.386  1.00  0.00    -0.278 N 
HETATM    7  C5  UNL     1      -3.622   2.795  14.613  1.00  0.00     0.149 A 
HETATM    8  C4  UNL     1      -4.018   1.474  14.594  1.00  0.00     0.141 A 
HETATM    9  N4  UNL     1      -3.781   1.046  13.336  1.00  0.00    -0.279 N 
HETATM   10  N3  UNL     1      -3.274   2.035  12.635  1.00  0.00    -0.240 N 
ATOM     11  H4  UNL     1      -3.965   0.106  12.986  1.00  0.00     0.189 HD
ATOM     12  H3  UNL     1      -3.004   1.976  11.653  1.00  0.00     0.208 HD
BRANCH   8  13
HETATM   13  C3  UNL     1      -4.579   0.674  15.677  1.00  0.00     0.312 C 
HETATM   14  O2  UNL     1      -4.817  -0.547  15.494  1.00  0.00    -0.258 OA
BRANCH  13  15
HETATM   15  O1  UNL     1      -4.847   1.242  16.892  1.00  0.00    -0.317 OA
BRANCH  15  16
HETATM   16  C2  UNL     1      -6.145   1.589  17.339  1.00  0.00     0.175 C 
HETATM   17  C1  UNL     1      -6.279   3.092  17.228  1.00  0.00     0.034 C 
ENDBRANCH  15  16
ENDBRANCH  13  15
ENDBRANCH   8  13
ENDBRANCH   5   6
ENDBRANCH   1   5
BRANCH   3  18
HETATM   18  C8  UNL     1      -4.485   7.016  10.798  1.00  0.00     0.034 C 
HETATM   19  C9  UNL     1      -5.875   7.017  11.468  1.00  0.00     0.035 C 
HETATM   20  C10 UNL     1      -6.805   7.758  10.564  1.00  0.00    -0.012 C 
HETATM   21  C11 UNL     1      -6.944   6.973   9.276  1.00  0.00     0.009 C 
HETATM   22  C15 UNL     1      -6.362   9.141  10.211  1.00  0.00     0.009 C 
HETATM   23  C12 UNL     1      -5.594   6.886   8.621  1.00  0.00    -0.012 C 
HETATM   24  C13 UNL     1      -5.033   8.279   8.326  1.00  0.00     0.009 C 
HETATM   25  C17 UNL     1      -4.589   6.223   9.543  1.00  0.00     0.035 C 
HETATM   26  C14 UNL     1      -4.985   9.097   9.577  1.00  0.00    -0.012 C 
HETATM   27  C16 UNL     1      -4.071   8.451  10.604  1.00  0.00     0.035 C 
ENDBRANCH   3  18
TORSDOF 6
ENDMDL
MODEL 5
REMARK VINA RESULT: -7.509746697      0.113      1.507
REMARK  6 active torsions:
REMARK  status: ('A' for Active; 'I' for Inactive)
REMARK    1  A    between atoms: C2_2  and  O1_3 
REMARK    2  A    between atoms: O1_3  and  C3_4 
REMARK    3  A    between atoms: C3_4  and  C4_6 
REMARK    4  A    between atoms: N1_8  and  C6_9 
REMARK    5  A    between atoms: C6_9  and  C7_10 
REMARK       I    between atoms: C7_10  and  N2_12 
REMARK    6  A    between atoms: N2_12  and  C8_14 
ROOT
HETATM    1  C7  UNL     1      -3.894   4.587  11.006  1.00  0.00     0.238 C 
HETATM    2  O3  UNL     1      -4.832   4.057  10.385  1.00  0.00    -0.272 OA
HETATM    3  N2  UNL     1      -3.687   5.963  11.082  1.00  0.00    -0.350 N 
ATOM      4  H2  UNL     1      -2.893   6.318  11.614  1.00  0.00     0.163 HD
ENDROOT
BRANCH   1   5
HETATM    5  C6  UNL     1      -2.957   3.633  11.699  1.00  0.00     0.252 C 
BRANCH   5   6
HETATM    6  N1  UNL     1      -3.624   3.081  12.854  1.00  0.00    -0.278 N 
HETATM    7  C5  UNL     1      -3.476   1.841  13.360  1.00  0.00     0.149 A 
HETATM    8  C4  UNL     1      -4.295   1.724  14.463  1.00  0.00     0.141 A 
HETATM    9  N4  UNL     1      -4.912   2.919  14.580  1.00  0.00    -0.279 N 
HETATM   10  N3  UNL     1      -4.501   3.710  13.615  1.00  0.00    -0.240 N 
ATOM     11  H4  UNL     1      -5.589   3.168  15.301  1.00  0.00     0.189 HD
ATOM     12  H3  UNL     1      -4.814   4.671  13.474  1.00  0.00     0.208 HD
BRANCH   8  13
HETATM   13  C3  UNL     1      -4.483   0.576  15.344  1.00  0.00     0.312 C 
HETATM   14  O2  UNL     1      -4.599  -0.576  14.854  1.00  0.00    -0.258 OA
BRANCH  13  15
HETATM   15  O1  UNL     1      -4.533   0.744  16.700  1.00  0.00    -0.317 OA
BRANCH  15  16
HETATM   16  C2  UNL     1      -5.722   0.675  17.467  1.00  0.00     0.175 C 
HETATM   17  C1  UNL     1      -6.060   2.081  17.911  1.00  0.00     0.034 C 
ENDBRANCH  15  16
ENDBRANCH  13  15
ENDBRANCH   8  13
ENDBRANCH   5   6
ENDBRANCH   1   5
BRANCH   3  18
HETATM   18  C8  UNL     1      -4.573   6.899  10.423  1.00  0.00     0.034 C 
HETATM   19  C9  UNL     1      -5.911   6.939  11.191  1.00  0.00     0.035 C 
HETATM   20  C10 UNL     1      -6.766   7.977  10.541  1.00  0.00    -0.012 C 
HETATM   21  C11 UNL     1      -7.087   7.519   9.134  1.00  0.00     0.009 C 
HETATM   22  C15 UNL     1      -6.141   9.332  10.450  1.00  0.00     0.009 C 
HETATM   23  C12 UNL     1      -5.800   7.398   8.366  1.00  0.00    -0.012 C 
HETATM   24  C13 UNL     1      -5.055   8.734   8.324  1.00  0.00     0.009 C 
HETATM   25  C17 UNL     1      -4.859   6.420   9.043  1.00  0.00     0.035 C 
HETATM   26  C14 UNL     1      -4.821   9.244   9.709  1.00  0.00    -0.012 C 
HETATM   27  C16 UNL     1      -3.961   8.273  10.500  1.00  0.00     0.035 C 
ENDBRANCH   3  18
TORSDOF 6
ENDMDL
