MODEL 1
REMARK VINA RESULT: -7.655440498      0.000      0.000
REMARK  5 active torsions:
REMARK  status: ('A' for Active; 'I' for Inactive)
REMARK    1  A    between atoms: O1_2  and  C2_3 
REMARK       I    between atoms: N2_8  and  C6_9 
REMARK       I    between atoms: C6_9  and  N3_11 
REMARK    2  A    between atoms: N3_11  and  C7_13 
REMARK    3  A    between atoms: C10_18  and  O3_19 
REMARK    4  A    between atoms: O3_19  and  C11_20 
REMARK    5  A    between atoms: C11_20  and  C12_21 
ROOT
HETATM    1  C2  UNL     1      12.104 -12.324  13.396  1.00  0.00     0.151 C 
HETATM    2  C3  UNL     1      11.019 -11.689  14.125  1.00  0.00     0.098 C 
HETATM    3  N1  UNL     1      10.163 -11.192  14.714  1.00  0.00    -0.194 NA
HETATM    4  C4  UNL     1      13.321 -11.425  13.520  1.00  0.00     0.074 C 
HETATM    5  C5  UNL     1      13.383 -10.369  12.438  1.00  0.00     0.131 C 
HETATM    6  N2  UNL     1      13.430 -11.036  11.167  1.00  0.00    -0.334 N 
HETATM    7  C6  UNL     1      13.916 -10.341  10.021  1.00  0.00     0.322 C 
HETATM    8  O2  UNL     1      13.937 -11.002   8.964  1.00  0.00    -0.247 OA
HETATM    9  N3  UNL     1      14.327  -9.022  10.120  1.00  0.00    -0.307 N 
ATOM     10  H3  UNL     1      14.272  -8.574  11.035  1.00  0.00     0.170 HD
HETATM   11  C17 UNL     1      12.961 -12.424  11.106  1.00  0.00     0.131 C 
HETATM   12  C18 UNL     1      11.685 -12.443  11.931  1.00  0.00     0.074 C 
ENDROOT
BRANCH   1  13
HETATM   13  O1  UNL     1      12.463 -13.548  13.849  1.00  0.00    -0.370 OA
HETATM   14  C1  UNL     1      13.574 -13.691  14.607  1.00  0.00     0.204 C 
ENDBRANCH   1  13
BRANCH   9  15
HETATM   15  C7  UNL     1      14.818  -8.254   9.041  1.00  0.00     0.054 A 
HETATM   16  C8  UNL     1      16.056  -8.631   8.465  1.00  0.00     0.117 A 
HETATM   17  N4  UNL     1      16.531  -7.910   7.470  1.00  0.00    -0.370 N 
HETATM   18  C9  UNL     1      15.882  -6.819   6.973  1.00  0.00     0.124 A 
ATOM     19  H4  UNL     1      17.422  -8.178   7.053  1.00  0.00     0.164 HD
HETATM   20  C10 UNL     1      14.686  -6.434   7.512  1.00  0.00     0.086 A 
HETATM   21  C16 UNL     1      14.142  -7.172   8.574  1.00  0.00     0.069 A 
BRANCH  20  22
HETATM   22  O3  UNL     1      13.965  -5.317   7.043  1.00  0.00    -0.349 OA
BRANCH  22  23
HETATM   23  C11 UNL     1      12.785  -4.933   7.744  1.00  0.00     0.182 C 
BRANCH  23  24
HETATM   24  C12 UNL     1      12.260  -3.664   7.110  1.00  0.00     0.036 C 
HETATM   25  C13 UNL     1      12.096  -2.594   8.139  1.00  0.00     0.035 C 
HETATM   26  C14 UNL     1      12.675  -1.392   7.405  1.00  0.00     0.168 C 
HETATM   27  O4  UNL     1      13.631  -1.921   6.553  1.00  0.00    -0.391 OA
HETATM   28  C15 UNL     1      13.211  -3.144   6.102  1.00  0.00     0.174 C 
ENDBRANCH  23  24
ENDBRANCH  22  23
ENDBRANCH  20  22
ENDBRANCH   9  15
TORSDOF 5
ENDMDL
MODEL 2
REMARK VINA RESULT: -7.550874250      0.950      1.044
REMARK  5 active torsions:
REMARK  status: ('A' for Active; 'I' for Inactive)
REMARK    1  A    between atoms: O1_2  and  C2_3 
REMARK       I    between atoms: N2_8  and  C6_9 
REMARK       I    between atoms: C6_9  and  N3_11 
REMARK    2  A    between atoms: N3_11  and  C7_13 
REMARK    3  A    between atoms: C10_18  and  O3_19 
REMARK    4  A    between atoms: O3_19  and  C11_20 
REMARK    5  A    between atoms: C11_20  and  C12_21 
ROOT
HETATM    1  C2  UNL     1      11.358 -11.591  14.050  1.00  0.00     0.151 C 
HETATM    2  C3  UNL     1      11.082 -10.746  15.199  1.00  0.00     0.098 C 
HETATM    3  N1  UNL     1      10.865 -10.087  16.118  1.00  0.00    -0.194 NA
HETATM    4  C4  UNL     1      12.845 -11.493  13.762  1.00  0.00     0.074 C 
HETATM    5  C5  UNL     1      13.190 -10.344  12.839  1.00  0.00     0.131 C 
HETATM    6  N2  UNL     1      12.493 -10.544  11.599  1.00  0.00    -0.334 N 
HETATM    7  C6  UNL     1      12.944  -9.882  10.420  1.00  0.00     0.322 C 
HETATM    8  O2  UNL     1      12.289 -10.126   9.387  1.00  0.00    -0.247 OA
HETATM    9  N3  UNL     1      14.038  -9.034  10.463  1.00  0.00    -0.307 N 
ATOM     10  H3  UNL     1      14.505  -8.907  11.361  1.00  0.00     0.170 HD
HETATM   11  C17 UNL     1      11.324 -11.431  11.608  1.00  0.00     0.131 C 
HETATM   12  C18 UNL     1      10.556 -11.054  12.863  1.00  0.00     0.074 C 
ENDROOT
BRANCH   1  13
HETATM   13  O1  UNL     1      11.068 -12.902  14.216  1.00  0.00    -0.370 OA
HETATM   14  C1  UNL     1      12.061 -13.793  14.438  1.00  0.00     0.204 C 
ENDBRANCH   1  13
BRANCH   9  15
HETATM   15  C7  UNL     1      14.552  -8.335   9.350  1.00  0.00     0.054 A 
HETATM   16  C8  UNL     1      15.724  -8.836   8.732  1.00  0.00     0.117 A 
HETATM   17  N4  UNL     1      16.223  -8.180   7.704  1.00  0.00    -0.370 N 
HETATM   18  C9  UNL     1      15.658  -7.042   7.211  1.00  0.00     0.124 A 
ATOM     19  H4  UNL     1      17.067  -8.538   7.257  1.00  0.00     0.164 HD
HETATM   20  C10 UNL     1      14.527  -6.537   7.789  1.00  0.00     0.086 A 
HETATM   21  C16 UNL     1      13.961  -7.202   8.887  1.00  0.00     0.069 A 
BRANCH  20  22
HETATM   22  O3  UNL     1      13.894  -5.366   7.326  1.00  0.00    -0.349 OA
BRANCH  22  23
HETATM   23  C11 UNL     1      12.634  -5.011   7.890  1.00  0.00     0.182 C 
BRANCH  23  24
HETATM   24  C12 UNL     1      12.160  -3.745   7.212  1.00  0.00     0.036 C 
HETATM   25  C13 UNL     1      12.095  -2.620   8.193  1.00  0.00     0.035 C 
HETATM   26  C14 UNL     1      12.715  -1.490   7.382  1.00  0.00     0.168 C 
HETATM   27  O4  UNL     1      13.609  -2.114   6.527  1.00  0.00    -0.391 OA
HETATM   28  C15 UNL     1      13.104  -3.329   6.150  1.00  0.00     0.174 C 
ENDBRANCH  23  24
ENDBRANCH  22  23
ENDBRANCH  20  22
ENDBRANCH   9  15
TORSDOF 5
ENDMDL
MODEL 3
REMARK VINA RESULT: -7.408605593      3.890      5.061
REMARK  5 active torsions:
REMARK  status: ('A' for Active; 'I' for Inactive)
REMARK    1  A    between atoms: O1_2  and  C2_3 
REMARK       I    between atoms: N2_8  and  C6_9 
REMARK       I    between atoms: C6_9  and  N3_11 
REMARK    2  A    between atoms: N3_11  and  C7_13 
REMARK    3  A    between atoms: C10_18  and  O3_19 
REMARK    4  A    between atoms: O3_19  and  C11_20 
REMARK    5  A    between atoms: C11_20  and  C12_21 
ROOT
HETATM    1  C2  UNL     1       9.575 -13.038   7.593  1.00  0.00     0.151 C 
HETATM    2  C3  UNL     1       8.801 -12.892   6.372  1.00  0.00     0.098 C 
HETATM    3  N1  UNL     1       8.181 -12.787   5.408  1.00  0.00    -0.194 NA
HETATM    4  C4  UNL     1       8.838 -12.293   8.690  1.00  0.00     0.074 C 
HETATM    5  C5  UNL     1       9.225 -10.832   8.770  1.00  0.00     0.131 C 
HETATM    6  N2  UNL     1      10.636 -10.760   9.032  1.00  0.00    -0.334 N 
HETATM    7  C6  UNL     1      11.194  -9.566   9.576  1.00  0.00     0.322 C 
HETATM    8  O2  UNL     1      12.423  -9.598   9.786  1.00  0.00    -0.247 OA
HETATM    9  N3  UNL     1      10.390  -8.468   9.837  1.00  0.00    -0.307 N 
ATOM     10  H3  UNL     1       9.394  -8.549   9.631  1.00  0.00     0.170 HD
HETATM   11  C17 UNL     1      11.450 -11.938   8.716  1.00  0.00     0.131 C 
HETATM   12  C18 UNL     1      10.949 -12.409   7.361  1.00  0.00     0.074 C 
ENDROOT
BRANCH   1  13
HETATM   13  O1  UNL     1       9.744 -14.311   8.018  1.00  0.00    -0.370 OA
HETATM   14  C1  UNL     1      10.331 -15.224   7.210  1.00  0.00     0.204 C 
ENDBRANCH   1  13
BRANCH   9  15
HETATM   15  C7  UNL     1      10.854  -7.246  10.370  1.00  0.00     0.054 A 
HETATM   16  C8  UNL     1      10.910  -7.114  11.779  1.00  0.00     0.117 A 
HETATM   17  N4  UNL     1      11.325  -5.969  12.286  1.00  0.00    -0.370 N 
HETATM   18  C9  UNL     1      11.700  -4.913  11.513  1.00  0.00     0.124 A 
ATOM     19  H4  UNL     1      11.366  -5.871  13.300  1.00  0.00     0.164 HD
HETATM   20  C10 UNL     1      11.654  -5.015  10.150  1.00  0.00     0.086 A 
HETATM   21  C16 UNL     1      11.219  -6.213   9.565  1.00  0.00     0.069 A 
BRANCH  20  22
HETATM   22  O3  UNL     1      12.030  -3.959   9.295  1.00  0.00    -0.349 OA
BRANCH  22  23
HETATM   23  C11 UNL     1      11.004  -3.127   8.759  1.00  0.00     0.182 C 
BRANCH  23  24
HETATM   24  C12 UNL     1      11.352  -2.829   7.318  1.00  0.00     0.036 C 
HETATM   25  C13 UNL     1      12.097  -1.538   7.217  1.00  0.00     0.035 C 
HETATM   26  C14 UNL     1      13.199  -1.912   6.236  1.00  0.00     0.168 C 
HETATM   27  O4  UNL     1      13.423  -3.263   6.449  1.00  0.00    -0.391 OA
HETATM   28  C15 UNL     1      12.238  -3.875   6.761  1.00  0.00     0.174 C 
ENDBRANCH  23  24
ENDBRANCH  22  23
ENDBRANCH  20  22
ENDBRANCH   9  15
TORSDOF 5
ENDMDL
MODEL 4
REMARK VINA RESULT: -7.375109945      1.600      2.166
REMARK  5 active torsions:
REMARK  status: ('A' for Active; 'I' for Inactive)
REMARK    1  A    between atoms: O1_2  and  C2_3 
REMARK       I    between atoms: N2_8  and  C6_9 
REMARK       I    between atoms: C6_9  and  N3_11 
REMARK    2  A    between atoms: N3_11  and  C7_13 
REMARK    3  A    between atoms: C10_18  and  O3_19 
REMARK    4  A    between atoms: O3_19  and  C11_20 
REMARK    5  A    between atoms: C11_20  and  C12_21 
ROOT
HETATM    1  C2  UNL     1      13.086 -13.433  12.332  1.00  0.00     0.151 C 
HETATM    2  C3  UNL     1      14.002 -14.559  12.289  1.00  0.00     0.098 C 
HETATM    3  N1  UNL     1      14.718 -15.460  12.256  1.00  0.00    -0.194 NA
HETATM    4  C4  UNL     1      12.657 -13.142  10.906  1.00  0.00     0.074 C 
HETATM    5  C5  UNL     1      13.593 -12.188  10.194  1.00  0.00     0.131 C 
HETATM    6  N2  UNL     1      13.615 -10.954  10.930  1.00  0.00    -0.334 N 
HETATM    7  C6  UNL     1      14.051  -9.758  10.290  1.00  0.00     0.322 C 
HETATM    8  O2  UNL     1      14.022  -8.732  10.999  1.00  0.00    -0.247 OA
HETATM    9  N3  UNL     1      14.470  -9.777   8.970  1.00  0.00    -0.307 N 
ATOM     10  H3  UNL     1      14.451 -10.671   8.479  1.00  0.00     0.170 HD
HETATM   11  C17 UNL     1      13.186 -10.988  12.332  1.00  0.00     0.131 C 
HETATM   12  C18 UNL     1      13.836 -12.233  12.912  1.00  0.00     0.074 C 
ENDROOT
BRANCH   1  13
HETATM   13  O1  UNL     1      11.960 -13.634  13.055  1.00  0.00    -0.370 OA
HETATM   14  C1  UNL     1      12.041 -14.109  14.319  1.00  0.00     0.204 C 
ENDBRANCH   1  13
BRANCH   9  15
HETATM   15  C7  UNL     1      14.921  -8.645   8.257  1.00  0.00     0.054 A 
HETATM   16  C8  UNL     1      16.242  -8.664   7.747  1.00  0.00     0.117 A 
HETATM   17  N4  UNL     1      16.679  -7.604   7.096  1.00  0.00    -0.370 N 
HETATM   18  C9  UNL     1      15.914  -6.496   6.893  1.00  0.00     0.124 A 
ATOM     19  H4  UNL     1      17.631  -7.614   6.728  1.00  0.00     0.164 HD
HETATM   20  C10 UNL     1      14.635  -6.453   7.375  1.00  0.00     0.086 A 
HETATM   21  C16 UNL     1      14.128  -7.557   8.075  1.00  0.00     0.069 A 
BRANCH  20  22
HETATM   22  O3  UNL     1      13.792  -5.336   7.198  1.00  0.00    -0.349 OA
BRANCH  22  23
HETATM   23  C11 UNL     1      12.720  -5.148   8.117  1.00  0.00     0.182 C 
BRANCH  23  24
HETATM   24  C12 UNL     1      11.676  -4.286   7.444  1.00  0.00     0.036 C 
HETATM   25  C13 UNL     1      11.410  -3.058   8.252  1.00  0.00     0.035 C 
HETATM   26  C14 UNL     1      11.376  -1.994   7.164  1.00  0.00     0.168 C 
HETATM   27  O4  UNL     1      12.231  -2.462   6.179  1.00  0.00    -0.391 OA
HETATM   28  C15 UNL     1      12.144  -3.828   6.116  1.00  0.00     0.174 C 
ENDBRANCH  23  24
ENDBRANCH  22  23
ENDBRANCH  20  22
ENDBRANCH   9  15
TORSDOF 5
ENDMDL
MODEL 5
REMARK VINA RESULT: -7.295141074      3.197      4.103
REMARK  5 active torsions:
REMARK  status: ('A' for Active; 'I' for Inactive)
REMARK    1  A    between atoms: O1_2  and  C2_3 
REMARK       I    between atoms: N2_8  and  C6_9 
REMARK       I    between atoms: C6_9  and  N3_11 
REMARK    2  A    between atoms: N3_11  and  C7_13 
REMARK    3  A    between atoms: C10_18  and  O3_19 
REMARK    4  A    between atoms: O3_19  and  C11_20 
REMARK    5  A    between atoms: C11_20  and  C12_21 
ROOT
HETATM    1  C2  UNL     1      10.239 -14.433   8.068  1.00  0.00     0.151 C 
HETATM    2  C3  UNL     1      10.350 -15.193   6.835  1.00  0.00     0.098 C 
HETATM    3  N1  UNL     1      10.426 -15.799   5.859  1.00  0.00    -0.194 NA
HETATM    4  C4  UNL     1       9.810 -13.025   7.696  1.00  0.00     0.074 C 
HETATM    5  C5  UNL     1      10.982 -12.116   7.392  1.00  0.00     0.131 C 
HETATM    6  N2  UNL     1      11.811 -12.051   8.563  1.00  0.00    -0.334 N 
HETATM    7  C6  UNL     1      12.723 -10.968   8.725  1.00  0.00     0.322 C 
HETATM    8  O2  UNL     1      13.391 -10.984   9.778  1.00  0.00    -0.247 OA
HETATM    9  N3  UNL     1      12.829  -9.986   7.753  1.00  0.00    -0.307 N 
ATOM     10  H3  UNL     1      12.233 -10.067   6.929  1.00  0.00     0.170 HD
HETATM   11  C17 UNL     1      11.681 -13.127   9.552  1.00  0.00     0.131 C 
HETATM   12  C18 UNL     1      11.615 -14.406   8.735  1.00  0.00     0.074 C 
ENDROOT
BRANCH   1  13
HETATM   13  O1  UNL     1       9.333 -14.905   8.956  1.00  0.00    -0.370 OA
HETATM   14  C1  UNL     1       8.063 -14.439   8.942  1.00  0.00     0.204 C 
ENDBRANCH   1  13
BRANCH   9  15
HETATM   15  C7  UNL     1      13.706  -8.881   7.825  1.00  0.00     0.054 A 
HETATM   16  C8  UNL     1      15.098  -9.131   7.746  1.00  0.00     0.117 A 
HETATM   17  N4  UNL     1      15.925  -8.108   7.831  1.00  0.00    -0.370 N 
HETATM   18  C9  UNL     1      15.497  -6.824   7.990  1.00  0.00     0.124 A 
ATOM     19  H4  UNL     1      16.928  -8.284   7.775  1.00  0.00     0.164 HD
HETATM   20  C10 UNL     1      14.158  -6.557   8.069  1.00  0.00     0.086 A 
HETATM   21  C16 UNL     1      13.240  -7.614   7.984  1.00  0.00     0.069 A 
BRANCH  20  22
HETATM   22  O3  UNL     1      13.651  -5.252   8.232  1.00  0.00    -0.349 OA
BRANCH  22  23
HETATM   23  C11 UNL     1      12.239  -5.065   8.181  1.00  0.00     0.182 C 
BRANCH  23  24
HETATM   24  C12 UNL     1      11.960  -3.859   7.312  1.00  0.00     0.036 C 
HETATM   25  C13 UNL     1      12.069  -2.602   8.112  1.00  0.00     0.035 C 
HETATM   26  C14 UNL     1      12.851  -1.713   7.154  1.00  0.00     0.168 C 
HETATM   27  O4  UNL     1      13.638  -2.585   6.419  1.00  0.00    -0.391 OA
HETATM   28  C15 UNL     1      12.953  -3.754   6.219  1.00  0.00     0.174 C 
ENDBRANCH  23  24
ENDBRANCH  22  23
ENDBRANCH  20  22
ENDBRANCH   9  15
TORSDOF 5
ENDMDL
