MODEL 1
REMARK VINA RESULT: -7.725842648      0.000      0.000
REMARK  7 active torsions:
REMARK  status: ('A' for Active; 'I' for Inactive)
REMARK    1  A    between atoms: O1_2  and  C2_3 
REMARK    2  A    between atoms: C5_7  and  N1_8 
REMARK    3  A    between atoms: N2_10  and  C6_12 
REMARK    4  A    between atoms: C6_12  and  C7_13 
REMARK    5  A    between atoms: C7_13  and  O2_14 
REMARK    6  A    between atoms: C7_13  and  N3_16 
REMARK    7  A    between atoms: C16_27  and  N5_28 
ROOT
HETATM    1  C2  UNL     1      11.203  -7.081  12.996  1.00  0.00     0.134 A 
HETATM    2  C3  UNL     1      11.331  -5.774  12.584  1.00  0.00     0.154 A 
HETATM    3  F1  UNL     1      11.234  -4.727  13.449  1.00  0.00    -0.203 F 
HETATM    4  C4  UNL     1      11.566  -5.546  11.245  1.00  0.00     0.076 A 
HETATM    5  C5  UNL     1      11.673  -6.590  10.331  1.00  0.00     0.059 A 
HETATM    6  C12 UNL     1      11.545  -7.909  10.740  1.00  0.00     0.002 A 
HETATM    7  C13 UNL     1      11.311  -8.116  12.077  1.00  0.00     0.077 A 
HETATM    8  N4  UNL     1      11.150  -9.401  12.700  1.00  0.00    -0.367 N 
ATOM      9  H4  UNL     1      10.663  -9.408  13.596  1.00  0.00     0.165 HD
HETATM   10  C14 UNL     1      11.546 -10.547  12.262  1.00  0.00     0.063 C 
HETATM   11  C15 UNL     1      12.279 -10.787  10.976  1.00  0.00     0.069 C 
HETATM   12  C16 UNL     1      11.476 -10.239   9.825  1.00  0.00     0.087 C 
HETATM   13  C19 UNL     1      11.702  -8.791   9.561  1.00  0.00     0.068 C 
ENDROOT
BRANCH   5  14
HETATM   14  N1  UNL     1      11.917  -6.311   8.946  1.00  0.00    -0.304 N 
HETATM   15  N2  UNL     1      12.937  -5.622   8.659  1.00  0.00    -0.332 N 
ATOM     16  H2  UNL     1      13.527  -5.305   9.429  1.00  0.00     0.180 HD
ATOM     17  H1  UNL     1      11.291  -6.656   8.218  1.00  0.00     0.186 HD
BRANCH  15  18
HETATM   18  C6  UNL     1      13.319  -5.258   7.334  1.00  0.00     0.203 C 
BRANCH  18  19
HETATM   19  C7  UNL     1      12.435  -4.182   6.780  1.00  0.00     0.375 C 
BRANCH  19  20
HETATM   20  O2  UNL     1      12.609  -3.969   5.433  1.00  0.00    -0.366 OA
ATOM     21  H2  UNL     1      12.107  -4.562   4.887  1.00  0.00     0.212 HD
ENDBRANCH  19  20
BRANCH  19  22
HETATM   22  N3  UNL     1      12.478  -2.980   7.585  1.00  0.00     0.118 N 
HETATM   23  C8  UNL     1      11.291  -2.830   8.369  1.00  0.00     0.276 C 
HETATM   24  C9  UNL     1      10.705  -1.472   8.053  1.00  0.00     0.032 C 
HETATM   25  C10 UNL     1      11.270  -1.239   6.657  1.00  0.00     0.032 C 
HETATM   26  C11 UNL     1      12.679  -1.781   6.830  1.00  0.00     0.276 C 
ENDBRANCH  19  22
ENDBRANCH  18  19
ENDBRANCH  15  18
ENDBRANCH   5  14
BRANCH   1  27
HETATM   27  O1  UNL     1      10.966  -7.353  14.335  1.00  0.00    -0.351 OA
HETATM   28  C1  UNL     1      12.086  -7.545  15.212  1.00  0.00     0.210 C 
ENDBRANCH   1  27
BRANCH  12  29
HETATM   29  N5  UNL     1      11.673 -10.955   8.606  1.00  0.00    -0.416 N 
HETATM   30  C17 UNL     1      12.555 -10.338   7.674  1.00  0.00     0.143 C 
HETATM   31  C18 UNL     1      11.802 -12.370   8.741  1.00  0.00     0.143 C 
ENDBRANCH  12  29
TORSDOF 7
ENDMDL
MODEL 2
REMARK VINA RESULT: -7.410936967      1.671      2.105
REMARK  7 active torsions:
REMARK  status: ('A' for Active; 'I' for Inactive)
REMARK    1  A    between atoms: O1_2  and  C2_3 
REMARK    2  A    between atoms: C5_7  and  N1_8 
REMARK    3  A    between atoms: N2_10  and  C6_12 
REMARK    4  A    between atoms: C6_12  and  C7_13 
REMARK    5  A    between atoms: C7_13  and  O2_14 
REMARK    6  A    between atoms: C7_13  and  N3_16 
REMARK    7  A    between atoms: C16_27  and  N5_28 
ROOT
HETATM    1  C2  UNL     1      12.373  -8.497  13.792  1.00  0.00     0.134 A 
HETATM    2  C3  UNL     1      11.811  -7.273  14.075  1.00  0.00     0.154 A 
HETATM    3  F1  UNL     1      11.707  -6.798  15.347  1.00  0.00    -0.203 F 
HETATM    4  C4  UNL     1      11.345  -6.523  13.017  1.00  0.00     0.076 A 
HETATM    5  C5  UNL     1      11.433  -6.974  11.703  1.00  0.00     0.059 A 
HETATM    6  C12 UNL     1      11.999  -8.207  11.411  1.00  0.00     0.002 A 
HETATM    7  C13 UNL     1      12.457  -8.939  12.478  1.00  0.00     0.077 A 
HETATM    8  N4  UNL     1      13.074 -10.234  12.390  1.00  0.00    -0.367 N 
ATOM      9  H4  UNL     1      13.060 -10.797  13.241  1.00  0.00     0.165 HD
HETATM   10  C14 UNL     1      13.643 -10.770  11.365  1.00  0.00     0.063 C 
HETATM   11  C15 UNL     1      13.785 -10.138  10.012  1.00  0.00     0.069 C 
HETATM   12  C16 UNL     1      12.425  -9.752   9.488  1.00  0.00     0.087 C 
HETATM   13  C19 UNL     1      11.954  -8.416   9.947  1.00  0.00     0.068 C 
ENDROOT
BRANCH   5  14
HETATM   14  N1  UNL     1      10.936  -6.165  10.630  1.00  0.00    -0.304 N 
HETATM   15  N2  UNL     1      11.306  -4.958  10.588  1.00  0.00    -0.332 N 
ATOM     16  H2  UNL     1      11.938  -4.628  11.319  1.00  0.00     0.180 HD
ATOM     17  H1  UNL     1      10.306  -6.548   9.925  1.00  0.00     0.186 HD
BRANCH  15  18
HETATM   18  C6  UNL     1      10.903  -4.022   9.588  1.00  0.00     0.203 C 
BRANCH  18  19
HETATM   19  C7  UNL     1      11.424  -4.402   8.235  1.00  0.00     0.375 C 
BRANCH  19  20
HETATM   20  O2  UNL     1      12.675  -4.973   8.269  1.00  0.00    -0.366 OA
ATOM     21  H2  UNL     1      13.177  -4.833   7.475  1.00  0.00     0.212 HD
ENDBRANCH  19  20
BRANCH  19  22
HETATM   22  N3  UNL     1      11.287  -3.324   7.280  1.00  0.00     0.118 N 
HETATM   23  C8  UNL     1      12.325  -3.358   6.296  1.00  0.00     0.276 C 
HETATM   24  C9  UNL     1      13.006  -2.007   6.307  1.00  0.00     0.032 C 
HETATM   25  C10 UNL     1      12.700  -1.548   7.727  1.00  0.00     0.032 C 
HETATM   26  C11 UNL     1      11.263  -2.021   7.872  1.00  0.00     0.276 C 
ENDBRANCH  19  22
ENDBRANCH  18  19
ENDBRANCH  15  18
ENDBRANCH   5  14
BRANCH   1  27
HETATM   27  O1  UNL     1      12.854  -9.282  14.829  1.00  0.00    -0.351 OA
HETATM   28  C1  UNL     1      11.916  -9.931  15.700  1.00  0.00     0.210 C 
ENDBRANCH   1  27
BRANCH  12  29
HETATM   29  N5  UNL     1      12.335  -9.799   8.064  1.00  0.00    -0.416 N 
HETATM   30  C17 UNL     1      13.539  -9.493   7.369  1.00  0.00     0.143 C 
HETATM   31  C18 UNL     1      11.569 -10.878   7.534  1.00  0.00     0.143 C 
ENDBRANCH  12  29
TORSDOF 7
ENDMDL
MODEL 3
REMARK VINA RESULT: -7.349958907      2.971      6.570
REMARK  7 active torsions:
REMARK  status: ('A' for Active; 'I' for Inactive)
REMARK    1  A    between atoms: O1_2  and  C2_3 
REMARK    2  A    between atoms: C5_7  and  N1_8 
REMARK    3  A    between atoms: N2_10  and  C6_12 
REMARK    4  A    between atoms: C6_12  and  C7_13 
REMARK    5  A    between atoms: C7_13  and  O2_14 
REMARK    6  A    between atoms: C7_13  and  N3_16 
REMARK    7  A    between atoms: C16_27  and  N5_28 
ROOT
HETATM    1  C2  UNL     1      12.016  -2.665   7.419  1.00  0.00     0.134 A 
HETATM    2  C3  UNL     1      13.003  -2.909   6.490  1.00  0.00     0.154 A 
HETATM    3  F1  UNL     1      13.419  -1.961   5.606  1.00  0.00    -0.203 F 
HETATM    4  C4  UNL     1      13.572  -4.164   6.478  1.00  0.00     0.076 A 
HETATM    5  C5  UNL     1      13.174  -5.158   7.366  1.00  0.00     0.059 A 
HETATM    6  C12 UNL     1      12.180  -4.918   8.304  1.00  0.00     0.002 A 
HETATM    7  C13 UNL     1      11.625  -3.663   8.301  1.00  0.00     0.077 A 
HETATM    8  N4  UNL     1      10.588  -3.215   9.188  1.00  0.00    -0.367 N 
ATOM      9  H4  UNL     1      10.047  -2.408   8.875  1.00  0.00     0.165 HD
HETATM   10  C14 UNL     1      10.259  -3.708  10.333  1.00  0.00     0.063 C 
HETATM   11  C15 UNL     1      10.906  -4.886  10.997  1.00  0.00     0.069 C 
HETATM   12  C16 UNL     1      10.850  -6.080  10.078  1.00  0.00     0.087 C 
HETATM   13  C19 UNL     1      11.971  -6.148   9.101  1.00  0.00     0.068 C 
ENDROOT
BRANCH   5  14
HETATM   14  N1  UNL     1      13.791  -6.452   7.320  1.00  0.00    -0.304 N 
HETATM   15  N2  UNL     1      15.053  -6.497   7.292  1.00  0.00    -0.332 N 
ATOM     16  H2  UNL     1      15.561  -5.612   7.304  1.00  0.00     0.180 HD
ATOM     17  H1  UNL     1      13.231  -7.305   7.311  1.00  0.00     0.186 HD
BRANCH  15  18
HETATM   18  C6  UNL     1      15.818  -7.702   7.245  1.00  0.00     0.203 C 
BRANCH  18  19
HETATM   19  C7  UNL     1      15.678  -8.493   8.510  1.00  0.00     0.375 C 
BRANCH  19  20
HETATM   20  O2  UNL     1      16.865  -8.666   9.183  1.00  0.00    -0.366 OA
ATOM     21  H2  UNL     1      16.762  -8.713  10.127  1.00  0.00     0.212 HD
ENDBRANCH  19  20
BRANCH  19  22
HETATM   22  N3  UNL     1      14.927  -9.713   8.304  1.00  0.00     0.118 N 
HETATM   23  C8  UNL     1      13.984  -9.576   7.237  1.00  0.00     0.276 C 
HETATM   24  C9  UNL     1      12.621  -9.939   7.784  1.00  0.00     0.032 C 
HETATM   25  C10 UNL     1      12.824  -9.642   9.265  1.00  0.00     0.032 C 
HETATM   26  C11 UNL     1      14.233 -10.173   9.468  1.00  0.00     0.276 C 
ENDBRANCH  19  22
ENDBRANCH  18  19
ENDBRANCH  15  18
ENDBRANCH   5  14
BRANCH   1  27
HETATM   27  O1  UNL     1      11.418  -1.414   7.464  1.00  0.00    -0.351 OA
HETATM   28  C1  UNL     1      10.713  -0.941   6.307  1.00  0.00     0.210 C 
ENDBRANCH   1  27
BRANCH  12  29
HETATM   29  N5  UNL     1      10.781  -7.325  10.773  1.00  0.00    -0.416 N 
HETATM   30  C17 UNL     1      11.220  -7.290  12.128  1.00  0.00     0.143 C 
HETATM   31  C18 UNL     1       9.614  -8.105  10.519  1.00  0.00     0.143 C 
ENDBRANCH  12  29
TORSDOF 7
ENDMDL
MODEL 4
REMARK VINA RESULT: -7.152481747      3.930      6.496
REMARK  7 active torsions:
REMARK  status: ('A' for Active; 'I' for Inactive)
REMARK    1  A    between atoms: O1_2  and  C2_3 
REMARK    2  A    between atoms: C5_7  and  N1_8 
REMARK    3  A    between atoms: N2_10  and  C6_12 
REMARK    4  A    between atoms: C6_12  and  C7_13 
REMARK    5  A    between atoms: C7_13  and  O2_14 
REMARK    6  A    between atoms: C7_13  and  N3_16 
REMARK    7  A    between atoms: C16_27  and  N5_28 
ROOT
HETATM    1  C2  UNL     1      12.362  -4.527   8.266  1.00  0.00     0.134 A 
HETATM    2  C3  UNL     1      11.148  -4.109   8.763  1.00  0.00     0.154 A 
HETATM    3  F1  UNL     1      10.698  -2.834   8.603  1.00  0.00    -0.203 F 
HETATM    4  C4  UNL     1      10.381  -5.033   9.439  1.00  0.00     0.076 A 
HETATM    5  C5  UNL     1      10.807  -6.345   9.622  1.00  0.00     0.059 A 
HETATM    6  C12 UNL     1      12.029  -6.773   9.124  1.00  0.00     0.002 A 
HETATM    7  C13 UNL     1      12.778  -5.838   8.454  1.00  0.00     0.077 A 
HETATM    8  N4  UNL     1      14.066  -6.078   7.863  1.00  0.00    -0.367 N 
ATOM      9  H4  UNL     1      14.645  -5.254   7.700  1.00  0.00     0.165 HD
HETATM   10  C14 UNL     1      14.578  -7.208   7.516  1.00  0.00     0.063 C 
HETATM   11  C15 UNL     1      13.920  -8.548   7.658  1.00  0.00     0.069 C 
HETATM   12  C16 UNL     1      13.535  -8.773   9.098  1.00  0.00     0.087 C 
HETATM   13  C19 UNL     1      12.211  -8.201   9.469  1.00  0.00     0.068 C 
ENDROOT
BRANCH   5  14
HETATM   14  N1  UNL     1       9.981  -7.277  10.332  1.00  0.00    -0.304 N 
HETATM   15  N2  UNL     1       8.842  -7.535   9.850  1.00  0.00    -0.332 N 
ATOM     16  H2  UNL     1       8.575  -7.066   8.984  1.00  0.00     0.180 HD
ATOM     17  H1  UNL     1      10.300  -7.717  11.196  1.00  0.00     0.186 HD
BRANCH  15  18
HETATM   18  C6  UNL     1       7.902  -8.436  10.434  1.00  0.00     0.203 C 
BRANCH  18  19
HETATM   19  C7  UNL     1       6.707  -8.635   9.551  1.00  0.00     0.375 C 
BRANCH  19  20
HETATM   20  O2  UNL     1       6.308  -7.491   8.901  1.00  0.00    -0.366 OA
ATOM     21  H2  UNL     1       6.015  -7.643   8.010  1.00  0.00     0.212 HD
ENDBRANCH  19  20
BRANCH  19  22
HETATM   22  N3  UNL     1       5.641  -9.336  10.234  1.00  0.00     0.118 N 
HETATM   23  C8  UNL     1       4.386  -9.157   9.571  1.00  0.00     0.276 C 
HETATM   24  C9  UNL     1       3.408  -8.609  10.587  1.00  0.00     0.032 C 
HETATM   25  C10 UNL     1       4.364  -7.942  11.567  1.00  0.00     0.032 C 
HETATM   26  C11 UNL     1       5.487  -8.965  11.608  1.00  0.00     0.276 C 
ENDBRANCH  19  22
ENDBRANCH  18  19
ENDBRANCH  15  18
ENDBRANCH   5  14
BRANCH   1  27
HETATM   27  O1  UNL     1      13.162  -3.627   7.579  1.00  0.00    -0.351 OA
HETATM   28  C1  UNL     1      12.798  -3.255   6.242  1.00  0.00     0.210 C 
ENDBRANCH   1  27
BRANCH  12  29
HETATM   29  N5  UNL     1      13.555 -10.148   9.479  1.00  0.00    -0.416 N 
HETATM   30  C17 UNL     1      13.550 -10.390  10.883  1.00  0.00     0.143 C 
HETATM   31  C18 UNL     1      12.733 -11.013   8.698  1.00  0.00     0.143 C 
ENDBRANCH  12  29
TORSDOF 7
ENDMDL
MODEL 5
REMARK VINA RESULT: -7.115859516      2.534      3.088
REMARK  7 active torsions:
REMARK  status: ('A' for Active; 'I' for Inactive)
REMARK    1  A    between atoms: O1_2  and  C2_3 
REMARK    2  A    between atoms: C5_7  and  N1_8 
REMARK    3  A    between atoms: N2_10  and  C6_12 
REMARK    4  A    between atoms: C6_12  and  C7_13 
REMARK    5  A    between atoms: C7_13  and  O2_14 
REMARK    6  A    between atoms: C7_13  and  N3_16 
REMARK    7  A    between atoms: C16_27  and  N5_28 
ROOT
HETATM    1  C2  UNL     1       9.715 -10.051  11.502  1.00  0.00     0.134 A 
HETATM    2  C3  UNL     1       8.765  -9.059  11.421  1.00  0.00     0.154 A 
HETATM    3  F1  UNL     1       7.560  -9.154  12.048  1.00  0.00    -0.203 F 
HETATM    4  C4  UNL     1       9.069  -7.941  10.673  1.00  0.00     0.076 A 
HETATM    5  C5  UNL     1      10.289  -7.807  10.019  1.00  0.00     0.059 A 
HETATM    6  C12 UNL     1      11.251  -8.804  10.096  1.00  0.00     0.002 A 
HETATM    7  C13 UNL     1      10.930  -9.908  10.845  1.00  0.00     0.077 A 
HETATM    8  N4  UNL     1      11.784 -11.045  11.051  1.00  0.00    -0.367 N 
ATOM      9  H4  UNL     1      11.321 -11.910  11.330  1.00  0.00     0.165 HD
HETATM   10  C14 UNL     1      13.066 -11.104  10.926  1.00  0.00     0.063 C 
HETATM   11  C15 UNL     1      13.960  -9.968  10.528  1.00  0.00     0.069 C 
HETATM   12  C16 UNL     1      13.510  -9.410   9.202  1.00  0.00     0.087 C 
HETATM   13  C19 UNL     1      12.432  -8.388   9.307  1.00  0.00     0.068 C 
ENDROOT
BRANCH   5  14
HETATM   14  N1  UNL     1      10.567  -6.629   9.250  1.00  0.00    -0.304 N 
HETATM   15  N2  UNL     1      10.527  -5.517   9.849  1.00  0.00    -0.332 N 
ATOM     16  H2  UNL     1      10.299  -5.521  10.843  1.00  0.00     0.180 HD
ATOM     17  H1  UNL     1      10.790  -6.686   8.256  1.00  0.00     0.186 HD
BRANCH  15  18
HETATM   18  C6  UNL     1      10.778  -4.256   9.229  1.00  0.00     0.203 C 
BRANCH  18  19
HETATM   19  C7  UNL     1      11.495  -4.416   7.923  1.00  0.00     0.375 C 
BRANCH  19  20
HETATM   20  O2  UNL     1      12.787  -4.868   8.058  1.00  0.00    -0.366 OA
ATOM     21  H2  UNL     1      13.174  -5.159   7.241  1.00  0.00     0.212 HD
ENDBRANCH  19  20
BRANCH  19  22
HETATM   22  N3  UNL     1      11.357  -3.245   7.084  1.00  0.00     0.118 N 
HETATM   23  C8  UNL     1      12.419  -3.156   6.129  1.00  0.00     0.276 C 
HETATM   24  C9  UNL     1      13.071  -1.801   6.299  1.00  0.00     0.032 C 
HETATM   25  C10 UNL     1      12.722  -1.501   7.751  1.00  0.00     0.032 C 
HETATM   26  C11 UNL     1      11.292  -2.013   7.809  1.00  0.00     0.276 C 
ENDBRANCH  19  22
ENDBRANCH  18  19
ENDBRANCH  15  18
ENDBRANCH   5  14
BRANCH   1  27
HETATM   27  O1  UNL     1       9.448 -11.191  12.244  1.00  0.00    -0.351 OA
HETATM   28  C1  UNL     1       9.498 -11.114  13.676  1.00  0.00     0.210 C 
ENDBRANCH   1  27
BRANCH  12  29
HETATM   29  N5  UNL     1      14.577  -8.863   8.428  1.00  0.00    -0.416 N 
HETATM   30  C17 UNL     1      14.436  -8.997   7.017  1.00  0.00     0.143 C 
HETATM   31  C18 UNL     1      15.087  -7.612   8.885  1.00  0.00     0.143 C 
ENDBRANCH  12  29
TORSDOF 7
ENDMDL
