MODEL 1
REMARK VINA RESULT: -8.102803409      0.000      0.000
REMARK  5 active torsions:
REMARK  status: ('A' for Active; 'I' for Inactive)
REMARK    1  A    between atoms: C2_3  and  C3_4 
REMARK       I    between atoms: C3_4  and  N2_6 
REMARK    2  A    between atoms: N2_6  and  C4_8 
REMARK    3  A    between atoms: C4_8  and  C5_9 
REMARK    4  A    between atoms: N3_11  and  C7_12 
REMARK    5  A    between atoms: C10_16  and  C11_17 
ROOT
HETATM    1  N1  UNL     1      13.205 -10.547   7.880  1.00  0.00    -0.197 NA
HETATM    2  C1  UNL     1      13.591 -10.459   8.982  1.00  0.00     0.068 C 
HETATM    3  C2  UNL     1      14.057 -10.359  10.359  1.00  0.00     0.226 C 
ENDROOT
BRANCH   3   4
HETATM    4  C3  UNL     1      12.960  -9.949  11.276  1.00  0.00     0.230 C 
HETATM    5  O1  UNL     1      13.253  -9.272  12.283  1.00  0.00    -0.273 OA
HETATM    6  N2  UNL     1      11.609 -10.299  11.046  1.00  0.00    -0.358 N 
ATOM      7  H2  UNL     1      11.388 -10.853  10.218  1.00  0.00     0.162 HD
BRANCH   6   8
HETATM    8  C4  UNL     1      10.532  -9.917  11.915  1.00  0.00     0.156 C 
BRANCH   8   9
HETATM    9  C5  UNL     1       9.940  -8.599  11.506  1.00  0.00     0.170 C 
HETATM   10  C6  UNL     1      10.502  -8.026  10.245  1.00  0.00     0.169 C 
HETATM   11  N3  UNL     1      10.979  -6.715  10.613  1.00  0.00    -0.284 N 
HETATM   12  C17 UNL     1      11.091  -6.679  12.017  1.00  0.00     0.368 C 
HETATM   13  O2  UNL     1      11.817  -5.913  12.739  1.00  0.00    -0.238 OA
HETATM   14  O3  UNL     1      10.253  -7.648  12.518  1.00  0.00    -0.295 OA
BRANCH  11  15
HETATM   15  C7  UNL     1      11.299  -5.621   9.751  1.00  0.00     0.089 A 
HETATM   16  S1  UNL     1      10.666  -4.010   9.804  1.00  0.00    -0.073 SA
HETATM   17  C8  UNL     1      11.514  -3.340   8.498  1.00  0.00     0.025 A 
HETATM   18  C9  UNL     1      12.272  -4.386   8.049  1.00  0.00    -0.032 A 
HETATM   19  C16 UNL     1      11.521  -1.987   7.899  1.00  0.00     0.210 C 
HETATM   20  C10 UNL     1      12.163  -5.556   8.689  1.00  0.00    -0.004 A 
HETATM   21  C13 UNL     1      13.129  -3.995   6.854  1.00  0.00     0.040 C 
HETATM   22  C14 UNL     1      12.141  -3.361   5.881  1.00  0.00     0.008 C 
HETATM   23  C15 UNL     1      11.803  -2.004   6.422  1.00  0.00     0.043 C 
HETATM   24  F1  UNL     1      12.507  -1.248   8.551  1.00  0.00    -0.244 F 
BRANCH  20  25
HETATM   25  C11 UNL     1      12.947  -6.793   8.301  1.00  0.00     0.165 C 
HETATM   26  C12 UNL     1      14.199  -6.825   9.046  1.00  0.00     0.063 C 
HETATM   27  N4  UNL     1      15.182  -6.840   9.610  1.00  0.00    -0.197 NA
ENDBRANCH  20  25
ENDBRANCH  11  15
ENDBRANCH   8   9
ENDBRANCH   6   8
ENDBRANCH   3   4
TORSDOF 5
ENDMDL
MODEL 2
REMARK VINA RESULT: -7.856237200      2.592      3.526
REMARK  5 active torsions:
REMARK  status: ('A' for Active; 'I' for Inactive)
REMARK    1  A    between atoms: C2_3  and  C3_4 
REMARK       I    between atoms: C3_4  and  N2_6 
REMARK    2  A    between atoms: N2_6  and  C4_8 
REMARK    3  A    between atoms: C4_8  and  C5_9 
REMARK    4  A    between atoms: N3_11  and  C7_12 
REMARK    5  A    between atoms: C10_16  and  C11_17 
ROOT
HETATM    1  N1  UNL     1      11.793  -9.462  18.733  1.00  0.00    -0.197 NA
HETATM    2  C1  UNL     1      12.052  -9.676  17.611  1.00  0.00     0.068 C 
HETATM    3  C2  UNL     1      12.374  -9.926  16.212  1.00  0.00     0.226 C 
ENDROOT
BRANCH   3   4
HETATM    4  C3  UNL     1      11.592  -9.042  15.307  1.00  0.00     0.230 C 
HETATM    5  O1  UNL     1      11.703  -7.806  15.446  1.00  0.00    -0.273 OA
HETATM    6  N2  UNL     1      10.735  -9.552  14.304  1.00  0.00    -0.358 N 
ATOM      7  H2  UNL     1      10.657 -10.564  14.205  1.00  0.00     0.162 HD
BRANCH   6   8
HETATM    8  C4  UNL     1       9.969  -8.721  13.418  1.00  0.00     0.156 C 
BRANCH   8   9
HETATM    9  C5  UNL     1      10.654  -8.561  12.091  1.00  0.00     0.170 C 
HETATM   10  C6  UNL     1      11.216  -7.199  11.837  1.00  0.00     0.169 C 
HETATM   11  N3  UNL     1      10.610  -6.773  10.599  1.00  0.00    -0.284 N 
HETATM   12  C17 UNL     1       9.487  -7.591  10.368  1.00  0.00     0.368 C 
HETATM   13  O2  UNL     1       8.456  -7.347   9.651  1.00  0.00    -0.238 OA
HETATM   14  O3  UNL     1       9.680  -8.758  11.071  1.00  0.00    -0.295 OA
BRANCH  11  15
HETATM   15  C7  UNL     1      11.029  -5.716   9.733  1.00  0.00     0.089 A 
HETATM   16  S1  UNL     1      10.449  -4.085   9.693  1.00  0.00    -0.073 SA
HETATM   17  C8  UNL     1      11.413  -3.483   8.435  1.00  0.00     0.025 A 
HETATM   18  C9  UNL     1      12.166  -4.566   8.073  1.00  0.00    -0.032 A 
HETATM   19  C16 UNL     1      11.510  -2.149   7.801  1.00  0.00     0.210 C 
HETATM   20  C10 UNL     1      11.970  -5.711   8.736  1.00  0.00    -0.004 A 
HETATM   21  C13 UNL     1      13.121  -4.239   6.936  1.00  0.00     0.040 C 
HETATM   22  C14 UNL     1      12.229  -3.603   5.874  1.00  0.00     0.008 C 
HETATM   23  C15 UNL     1      11.899  -2.220   6.350  1.00  0.00     0.043 C 
HETATM   24  F1  UNL     1      12.470  -1.423   8.503  1.00  0.00    -0.244 F 
BRANCH  20  25
HETATM   25  C11 UNL     1      12.738  -6.984   8.443  1.00  0.00     0.165 C 
HETATM   26  C12 UNL     1      14.048  -6.915   9.076  1.00  0.00     0.063 C 
HETATM   27  N4  UNL     1      15.076  -6.853   9.552  1.00  0.00    -0.197 NA
ENDBRANCH  20  25
ENDBRANCH  11  15
ENDBRANCH   8   9
ENDBRANCH   6   8
ENDBRANCH   3   4
TORSDOF 5
ENDMDL
MODEL 3
REMARK VINA RESULT: -7.725028955      3.861      7.101
REMARK  5 active torsions:
REMARK  status: ('A' for Active; 'I' for Inactive)
REMARK    1  A    between atoms: C2_3  and  C3_4 
REMARK       I    between atoms: C3_4  and  N2_6 
REMARK    2  A    between atoms: N2_6  and  C4_8 
REMARK    3  A    between atoms: C4_8  and  C5_9 
REMARK    4  A    between atoms: N3_11  and  C7_12 
REMARK    5  A    between atoms: C10_16  and  C11_17 
ROOT
HETATM    1  N1  UNL     1      13.657  -2.197   5.811  1.00  0.00    -0.197 NA
HETATM    2  C1  UNL     1      12.646  -1.917   6.333  1.00  0.00     0.068 C 
HETATM    3  C2  UNL     1      11.397  -1.568   6.997  1.00  0.00     0.226 C 
ENDROOT
BRANCH   3   4
HETATM    4  C3  UNL     1      11.226  -2.324   8.266  1.00  0.00     0.230 C 
HETATM    5  O1  UNL     1      10.368  -1.926   9.081  1.00  0.00    -0.273 OA
HETATM    6  N2  UNL     1      11.998  -3.468   8.577  1.00  0.00    -0.358 N 
ATOM      7  H2  UNL     1      12.694  -3.779   7.900  1.00  0.00     0.162 HD
BRANCH   6   8
HETATM    8  C4  UNL     1      11.853  -4.215   9.795  1.00  0.00     0.156 C 
BRANCH   8   9
HETATM    9  C5  UNL     1      12.420  -5.599   9.658  1.00  0.00     0.170 C 
HETATM   10  C6  UNL     1      11.692  -6.481   8.695  1.00  0.00     0.169 C 
HETATM   11  N3  UNL     1      11.323  -7.644   9.463  1.00  0.00    -0.284 N 
HETATM   12  C17 UNL     1      11.428  -7.308  10.827  1.00  0.00     0.368 C 
HETATM   13  O2  UNL     1      10.847  -7.851  11.829  1.00  0.00    -0.238 OA
HETATM   14  O3  UNL     1      12.298  -6.247  10.920  1.00  0.00    -0.295 OA
BRANCH  11  15
HETATM   15  C7  UNL     1      10.914  -8.925   8.978  1.00  0.00     0.089 A 
HETATM   16  S1  UNL     1       9.311  -9.443   8.576  1.00  0.00    -0.073 SA
HETATM   17  C8  UNL     1       9.650 -11.032   8.094  1.00  0.00     0.025 A 
HETATM   18  C9  UNL     1      11.005 -11.125   8.256  1.00  0.00    -0.032 A 
HETATM   19  C16 UNL     1       8.791 -12.133   7.603  1.00  0.00     0.210 C 
HETATM   20  C10 UNL     1      11.654 -10.047   8.710  1.00  0.00    -0.004 A 
HETATM   21  C13 UNL     1      11.530 -12.500   7.871  1.00  0.00     0.040 C 
HETATM   22  C14 UNL     1      10.650 -13.466   8.657  1.00  0.00     0.008 C 
HETATM   23  C15 UNL     1       9.313 -13.492   7.978  1.00  0.00     0.043 C 
HETATM   24  F1  UNL     1       8.730 -12.026   6.215  1.00  0.00    -0.244 F 
BRANCH  20  25
HETATM   25  C11 UNL     1      13.153 -10.009   8.930  1.00  0.00     0.165 C 
HETATM   26  C12 UNL     1      13.801  -9.455   7.749  1.00  0.00     0.063 C 
HETATM   27  N4  UNL     1      14.308  -9.043   6.823  1.00  0.00    -0.197 NA
ENDBRANCH  20  25
ENDBRANCH  11  15
ENDBRANCH   8   9
ENDBRANCH   6   8
ENDBRANCH   3   4
TORSDOF 5
ENDMDL
MODEL 4
REMARK VINA RESULT: -7.619777037      1.382      1.482
REMARK  5 active torsions:
REMARK  status: ('A' for Active; 'I' for Inactive)
REMARK    1  A    between atoms: C2_3  and  C3_4 
REMARK       I    between atoms: C3_4  and  N2_6 
REMARK    2  A    between atoms: N2_6  and  C4_8 
REMARK    3  A    between atoms: C4_8  and  C5_9 
REMARK    4  A    between atoms: N3_11  and  C7_12 
REMARK    5  A    between atoms: C10_16  and  C11_17 
ROOT
HETATM    1  N1  UNL     1      14.093 -10.562   9.098  1.00  0.00    -0.197 NA
HETATM    2  C1  UNL     1      13.093 -11.099   8.809  1.00  0.00     0.068 C 
HETATM    3  C2  UNL     1      11.841 -11.753   8.453  1.00  0.00     0.226 C 
ENDROOT
BRANCH   3   4
HETATM    4  C3  UNL     1      10.754 -11.404   9.407  1.00  0.00     0.230 C 
HETATM    5  O1  UNL     1       9.624 -11.901   9.224  1.00  0.00    -0.273 OA
HETATM    6  N2  UNL     1      10.960 -10.536  10.504  1.00  0.00    -0.358 N 
ATOM      7  H2  UNL     1      11.889 -10.139  10.639  1.00  0.00     0.162 HD
BRANCH   6   8
HETATM    8  C4  UNL     1       9.928 -10.183  11.440  1.00  0.00     0.156 C 
BRANCH   8   9
HETATM    9  C5  UNL     1       9.509  -8.751  11.276  1.00  0.00     0.170 C 
HETATM   10  C6  UNL     1       9.957  -8.109  10.003  1.00  0.00     0.169 C 
HETATM   11  N3  UNL     1      10.696  -6.941  10.416  1.00  0.00    -0.284 N 
HETATM   12  C17 UNL     1      11.028  -7.103  11.775  1.00  0.00     0.368 C 
HETATM   13  O2  UNL     1      11.975  -6.552  12.436  1.00  0.00    -0.238 OA
HETATM   14  O3  UNL     1      10.128  -7.994  12.311  1.00  0.00    -0.295 OA
BRANCH  11  15
HETATM   15  C7  UNL     1      11.057  -5.805   9.628  1.00  0.00     0.089 A 
HETATM   16  S1  UNL     1      10.378  -4.213   9.691  1.00  0.00    -0.073 SA
HETATM   17  C8  UNL     1      11.314  -3.469   8.489  1.00  0.00     0.025 A 
HETATM   18  C9  UNL     1      12.135  -4.477   8.064  1.00  0.00    -0.032 A 
HETATM   19  C16 UNL     1      11.334  -2.091   7.947  1.00  0.00     0.210 C 
HETATM   20  C10 UNL     1      12.005  -5.674   8.646  1.00  0.00    -0.004 A 
HETATM   21  C13 UNL     1      13.078  -4.015   6.964  1.00  0.00     0.040 C 
HETATM   22  C14 UNL     1      12.158  -3.364   5.936  1.00  0.00     0.008 C 
HETATM   23  C15 UNL     1      11.738  -2.039   6.500  1.00  0.00     0.043 C 
HETATM   24  F1  UNL     1      12.241  -1.357   8.709  1.00  0.00    -0.244 F 
BRANCH  20  25
HETATM   25  C11 UNL     1      12.852  -6.875   8.277  1.00  0.00     0.165 C 
HETATM   26  C12 UNL     1      14.078  -6.862   9.064  1.00  0.00     0.063 C 
HETATM   27  N4  UNL     1      15.042  -6.841   9.662  1.00  0.00    -0.197 NA
ENDBRANCH  20  25
ENDBRANCH  11  15
ENDBRANCH   8   9
ENDBRANCH   6   8
ENDBRANCH   3   4
TORSDOF 5
ENDMDL
MODEL 5
REMARK VINA RESULT: -7.559809479      1.578      2.338
REMARK  5 active torsions:
REMARK  status: ('A' for Active; 'I' for Inactive)
REMARK    1  A    between atoms: C2_3  and  C3_4 
REMARK       I    between atoms: C3_4  and  N2_6 
REMARK    2  A    between atoms: N2_6  and  C4_8 
REMARK    3  A    between atoms: C4_8  and  C5_9 
REMARK    4  A    between atoms: N3_11  and  C7_12 
REMARK    5  A    between atoms: C10_16  and  C11_17 
ROOT
HETATM    1  N1  UNL     1      12.068  -7.916  15.915  1.00  0.00    -0.197 NA
HETATM    2  C1  UNL     1      12.568  -8.735  15.243  1.00  0.00     0.068 C 
HETATM    3  C2  UNL     1      13.189  -9.743  14.394  1.00  0.00     0.226 C 
ENDROOT
BRANCH   3   4
HETATM    4  C3  UNL     1      12.511  -9.834  13.073  1.00  0.00     0.230 C 
HETATM    5  O1  UNL     1      13.203  -9.703  12.043  1.00  0.00    -0.273 OA
HETATM    6  N2  UNL     1      11.121 -10.063  12.949  1.00  0.00    -0.358 N 
ATOM      7  H2  UNL     1      10.570 -10.167  13.801  1.00  0.00     0.162 HD
BRANCH   6   8
HETATM    8  C4  UNL     1      10.442 -10.155  11.687  1.00  0.00     0.156 C 
BRANCH   8   9
HETATM    9  C5  UNL     1       9.854  -8.833  11.284  1.00  0.00     0.170 C 
HETATM   10  C6  UNL     1      10.449  -8.234  10.051  1.00  0.00     0.169 C 
HETATM   11  N3  UNL     1      10.906  -6.927  10.457  1.00  0.00    -0.284 N 
HETATM   12  C17 UNL     1      10.977  -6.916  11.863  1.00  0.00     0.368 C 
HETATM   13  O2  UNL     1      11.677  -6.159  12.620  1.00  0.00    -0.238 OA
HETATM   14  O3  UNL     1      10.131  -7.899  12.322  1.00  0.00    -0.295 OA
BRANCH  11  15
HETATM   15  C7  UNL     1      11.243  -5.816   9.624  1.00  0.00     0.089 A 
HETATM   16  S1  UNL     1      10.563  -4.224   9.654  1.00  0.00    -0.073 SA
HETATM   17  C8  UNL     1      11.465  -3.517   8.405  1.00  0.00     0.025 A 
HETATM   18  C9  UNL     1      12.277  -4.537   7.992  1.00  0.00    -0.032 A 
HETATM   19  C16 UNL     1      11.469  -2.157   7.820  1.00  0.00     0.210 C 
HETATM   20  C10 UNL     1      12.165  -5.715   8.614  1.00  0.00    -0.004 A 
HETATM   21  C13 UNL     1      13.191  -4.109   6.852  1.00  0.00     0.040 C 
HETATM   22  C14 UNL     1      12.242  -3.492   5.829  1.00  0.00     0.008 C 
HETATM   23  C15 UNL     1      11.835  -2.151   6.362  1.00  0.00     0.043 C 
HETATM   24  F1  UNL     1      12.394  -1.398   8.534  1.00  0.00    -0.244 F 
BRANCH  20  25
HETATM   25  C11 UNL     1      13.005  -6.926   8.262  1.00  0.00     0.165 C 
HETATM   26  C12 UNL     1      14.240  -6.899   9.034  1.00  0.00     0.063 C 
HETATM   27  N4  UNL     1      15.211  -6.867   9.619  1.00  0.00    -0.197 NA
ENDBRANCH  20  25
ENDBRANCH  11  15
ENDBRANCH   8   9
ENDBRANCH   6   8
ENDBRANCH   3   4
TORSDOF 5
ENDMDL
