MODEL 1
REMARK VINA RESULT: -7.589143061      0.000      0.000
REMARK  6 active torsions:
REMARK  status: ('A' for Active; 'I' for Inactive)
REMARK    1  A    between atoms: O1_1  and  C1_3 
REMARK    2  A    between atoms: C1_3  and  C2_4 
REMARK    3  A    between atoms: C2_4  and  C3_5 
REMARK    4  A    between atoms: C3_5  and  N1_6 
REMARK    5  A    between atoms: C6_10  and  C7_11 
REMARK    6  A    between atoms: C11_16  and  C12_17 
ROOT
HETATM    1  N1  UNL     1      -7.311   1.691  17.588  1.00  0.00    -0.366 N 
HETATM    2  C4  UNL     1      -6.072   1.847  18.152  1.00  0.00     0.089 C 
HETATM    3  C5  UNL     1      -6.102   1.585  19.645  1.00  0.00     0.213 C 
HETATM    4  O2  UNL     1      -6.885   0.621  20.107  1.00  0.00    -0.373 OA
HETATM    5  C6  UNL     1      -7.841   0.023  19.321  1.00  0.00     0.189 C 
HETATM    6  C15 UNL     1      -8.185   0.685  18.058  1.00  0.00     0.165 C 
ENDROOT
BRANCH   5   7
HETATM    7  C7  UNL     1      -7.420  -1.430  19.135  1.00  0.00     0.040 A 
HETATM    8  C8  UNL     1      -7.443  -2.238  20.260  1.00  0.00     0.031 A 
HETATM    9  C9  UNL     1      -7.127  -3.556  20.119  1.00  0.00     0.046 A 
HETATM   10  C10 UNL     1      -6.807  -4.024  18.898  1.00  0.00     0.139 A 
HETATM   11  F1  UNL     1      -6.505  -5.340  18.747  1.00  0.00    -0.204 F 
HETATM   12  C11 UNL     1      -6.772  -3.213  17.725  1.00  0.00     0.052 A 
HETATM   13  N2  UNL     1      -7.086  -1.928  17.927  1.00  0.00    -0.358 N 
ATOM     14  H2  UNL     1      -7.070  -1.293  17.129  1.00  0.00     0.165 HD
BRANCH  12  15
HETATM   15  C12 UNL     1      -6.509  -3.942  16.492  1.00  0.00     0.039 A 
HETATM   16  C13 UNL     1      -5.341  -4.719  16.016  1.00  0.00     0.011 A 
HETATM   17  C14 UNL     1      -5.378  -3.276  15.651  1.00  0.00     0.011 A 
ENDBRANCH  12  15
ENDBRANCH   5   7
BRANCH   1  18
HETATM   18  C3  UNL     1      -7.397   1.781  16.190  1.00  0.00     0.103 C 
BRANCH  18  19
HETATM   19  C2  UNL     1      -8.173   2.871  15.563  1.00  0.00     0.114 C 
HETATM   20  C16 UNL     1      -7.757   4.266  15.789  1.00  0.00     0.048 C 
HETATM   21  C17 UNL     1      -9.014   4.983  16.245  1.00  0.00     0.030 C 
HETATM   22  C18 UNL     1      -9.957   3.831  16.484  1.00  0.00     0.169 C 
HETATM   23  O3  UNL     1      -9.566   2.774  15.677  1.00  0.00    -0.372 OA
BRANCH  19  24
HETATM   24  C1  UNL     1      -7.967   2.633  14.025  1.00  0.00     0.207 C 
BRANCH  24  25
HETATM   25  O1  UNL     1      -9.194   2.275  13.465  1.00  0.00    -0.398 OA
ATOM     26  H1  UNL     1      -9.051   1.554  12.864  1.00  0.00     0.209 HD
ENDBRANCH  24  25
ENDBRANCH  19  24
ENDBRANCH  18  19
ENDBRANCH   1  18
TORSDOF 6
ENDMDL
MODEL 2
REMARK VINA RESULT: -7.171969307      2.039      2.866
REMARK  6 active torsions:
REMARK  status: ('A' for Active; 'I' for Inactive)
REMARK    1  A    between atoms: O1_1  and  C1_3 
REMARK    2  A    between atoms: C1_3  and  C2_4 
REMARK    3  A    between atoms: C2_4  and  C3_5 
REMARK    4  A    between atoms: C3_5  and  N1_6 
REMARK    5  A    between atoms: C6_10  and  C7_11 
REMARK    6  A    between atoms: C11_16  and  C12_17 
ROOT
HETATM    1  N1  UNL     1      -9.027   1.390  16.529  1.00  0.00    -0.366 N 
HETATM    2  C4  UNL     1      -9.291   0.587  15.450  1.00  0.00     0.089 C 
HETATM    3  C5  UNL     1      -8.015   0.098  14.793  1.00  0.00     0.213 C 
HETATM    4  O2  UNL     1      -6.978  -0.204  15.561  1.00  0.00    -0.373 OA
HETATM    5  C6  UNL     1      -6.936   0.139  16.891  1.00  0.00     0.189 C 
HETATM    6  C15 UNL     1      -7.923   1.115  17.367  1.00  0.00     0.165 C 
ENDROOT
BRANCH   5   7
HETATM    7  C7  UNL     1      -6.953  -1.160  17.687  1.00  0.00     0.040 A 
HETATM    8  C8  UNL     1      -7.628  -1.144  18.897  1.00  0.00     0.031 A 
HETATM    9  C9  UNL     1      -7.712  -2.303  19.609  1.00  0.00     0.046 A 
HETATM   10  C10 UNL     1      -7.140  -3.417  19.113  1.00  0.00     0.139 A 
HETATM   11  F1  UNL     1      -7.232  -4.579  19.810  1.00  0.00    -0.204 F 
HETATM   12  C11 UNL     1      -6.436  -3.459  17.873  1.00  0.00     0.052 A 
HETATM   13  N2  UNL     1      -6.383  -2.290  17.223  1.00  0.00    -0.358 N 
ATOM     14  H2  UNL     1      -5.886  -2.252  16.333  1.00  0.00     0.165 HD
BRANCH  12  15
HETATM   15  C12 UNL     1      -5.992  -4.787  17.473  1.00  0.00     0.039 A 
HETATM   16  C13 UNL     1      -5.445  -5.322  16.204  1.00  0.00     0.011 A 
HETATM   17  C14 UNL     1      -6.921  -5.410  16.386  1.00  0.00     0.011 A 
ENDBRANCH  12  15
ENDBRANCH   5   7
BRANCH   1  18
HETATM   18  C3  UNL     1     -10.121   1.807  17.304  1.00  0.00     0.103 C 
BRANCH  18  19
HETATM   19  C2  UNL     1     -10.506   3.233  17.336  1.00  0.00     0.114 C 
HETATM   20  C16 UNL     1     -10.210   4.080  16.167  1.00  0.00     0.048 C 
HETATM   21  C17 UNL     1      -9.494   5.292  16.730  1.00  0.00     0.030 C 
HETATM   22  C18 UNL     1      -9.225   4.860  18.149  1.00  0.00     0.169 C 
HETATM   23  O3  UNL     1     -10.185   3.927  18.509  1.00  0.00    -0.372 OA
BRANCH  19  24
HETATM   24  C1  UNL     1     -12.073   3.190  17.416  1.00  0.00     0.207 C 
BRANCH  24  25
HETATM   25  O1  UNL     1     -12.476   1.856  17.484  1.00  0.00    -0.398 OA
ATOM     26  H1  UNL     1     -13.143   1.710  16.823  1.00  0.00     0.209 HD
ENDBRANCH  24  25
ENDBRANCH  19  24
ENDBRANCH  18  19
ENDBRANCH   1  18
TORSDOF 6
ENDMDL
MODEL 3
REMARK VINA RESULT: -7.166815210      0.987      1.933
REMARK  6 active torsions:
REMARK  status: ('A' for Active; 'I' for Inactive)
REMARK    1  A    between atoms: O1_1  and  C1_3 
REMARK    2  A    between atoms: C1_3  and  C2_4 
REMARK    3  A    between atoms: C2_4  and  C3_5 
REMARK    4  A    between atoms: C3_5  and  N1_6 
REMARK    5  A    between atoms: C6_10  and  C7_11 
REMARK    6  A    between atoms: C11_16  and  C12_17 
ROOT
HETATM    1  N1  UNL     1      -7.152   1.751  17.223  1.00  0.00    -0.366 N 
HETATM    2  C4  UNL     1      -6.183   2.036  18.150  1.00  0.00     0.089 C 
HETATM    3  C5  UNL     1      -6.709   1.905  19.566  1.00  0.00     0.213 C 
HETATM    4  O2  UNL     1      -7.572   0.937  19.837  1.00  0.00    -0.373 OA
HETATM    5  C6  UNL     1      -8.186   0.212  18.844  1.00  0.00     0.189 C 
HETATM    6  C15 UNL     1      -8.102   0.737  17.477  1.00  0.00     0.165 C 
ENDROOT
BRANCH   5   7
HETATM    7  C7  UNL     1      -7.682  -1.222  18.962  1.00  0.00     0.040 A 
HETATM    8  C8  UNL     1      -7.634  -1.765  20.235  1.00  0.00     0.031 A 
HETATM    9  C9  UNL     1      -7.241  -3.063  20.372  1.00  0.00     0.046 A 
HETATM   10  C10 UNL     1      -6.919  -3.768  19.270  1.00  0.00     0.139 A 
HETATM   11  F1  UNL     1      -6.541  -5.066  19.398  1.00  0.00    -0.204 F 
HETATM   12  C11 UNL     1      -6.957  -3.231  17.950  1.00  0.00     0.052 A 
HETATM   13  N2  UNL     1      -7.343  -1.951  17.880  1.00  0.00    -0.358 N 
ATOM     14  H2  UNL     1      -7.383  -1.506  16.963  1.00  0.00     0.165 HD
BRANCH  12  15
HETATM   15  C12 UNL     1      -6.676  -4.195  16.895  1.00  0.00     0.039 A 
HETATM   16  C13 UNL     1      -5.490  -5.028  16.588  1.00  0.00     0.011 A 
HETATM   17  C14 UNL     1      -5.559  -3.694  15.929  1.00  0.00     0.011 A 
ENDBRANCH  12  15
ENDBRANCH   5   7
BRANCH   1  18
HETATM   18  C3  UNL     1      -6.762   1.712  15.876  1.00  0.00     0.103 C 
BRANCH  18  19
HETATM   19  C2  UNL     1      -7.739   2.019  14.811  1.00  0.00     0.114 C 
HETATM   20  C16 UNL     1      -8.929   1.162  14.665  1.00  0.00     0.048 C 
HETATM   21  C17 UNL     1      -8.958   0.775  13.198  1.00  0.00     0.030 C 
HETATM   22  C18 UNL     1      -7.607   1.250  12.727  1.00  0.00     0.169 C 
HETATM   23  O3  UNL     1      -7.202   2.291  13.547  1.00  0.00    -0.372 OA
BRANCH  19  24
HETATM   24  C1  UNL     1      -8.303   3.425  15.221  1.00  0.00     0.207 C 
BRANCH  24  25
HETATM   25  O1  UNL     1      -9.685   3.319  15.376  1.00  0.00    -0.398 OA
ATOM     26  H1  UNL     1      -9.889   3.361  16.303  1.00  0.00     0.209 HD
ENDBRANCH  24  25
ENDBRANCH  19  24
ENDBRANCH  18  19
ENDBRANCH   1  18
TORSDOF 6
ENDMDL
MODEL 4
REMARK VINA RESULT: -7.121679007      2.337      3.414
REMARK  6 active torsions:
REMARK  status: ('A' for Active; 'I' for Inactive)
REMARK    1  A    between atoms: O1_1  and  C1_3 
REMARK    2  A    between atoms: C1_3  and  C2_4 
REMARK    3  A    between atoms: C2_4  and  C3_5 
REMARK    4  A    between atoms: C3_5  and  N1_6 
REMARK    5  A    between atoms: C6_10  and  C7_11 
REMARK    6  A    between atoms: C11_16  and  C12_17 
ROOT
HETATM    1  N1  UNL     1      -9.447   1.803  18.188  1.00  0.00    -0.366 N 
HETATM    2  C4  UNL     1      -9.496   1.424  16.872  1.00  0.00     0.089 C 
HETATM    3  C5  UNL     1      -8.110   1.339  16.264  1.00  0.00     0.213 C 
HETATM    4  O2  UNL     1      -7.114   0.884  17.011  1.00  0.00    -0.373 OA
HETATM    5  C6  UNL     1      -7.241   0.723  18.370  1.00  0.00     0.189 C 
HETATM    6  C15 UNL     1      -8.396   1.355  19.018  1.00  0.00     0.165 C 
ENDROOT
BRANCH   5   7
HETATM    7  C7  UNL     1      -7.145  -0.771  18.653  1.00  0.00     0.040 A 
HETATM    8  C8  UNL     1      -7.440  -1.184  19.942  1.00  0.00     0.031 A 
HETATM    9  C9  UNL     1      -7.418  -2.519  20.217  1.00  0.00     0.046 A 
HETATM   10  C10 UNL     1      -7.115  -3.384  19.230  1.00  0.00     0.139 A 
HETATM   11  F1  UNL     1      -7.106  -4.717  19.492  1.00  0.00    -0.204 F 
HETATM   12  C11 UNL     1      -6.804  -2.984  17.896  1.00  0.00     0.052 A 
HETATM   13  N2  UNL     1      -6.835  -1.662  17.690  1.00  0.00    -0.358 N 
ATOM     14  H2  UNL     1      -6.613  -1.312  16.758  1.00  0.00     0.165 HD
BRANCH  12  15
HETATM   15  C12 UNL     1      -6.614  -4.085  16.963  1.00  0.00     0.039 A 
HETATM   16  C13 UNL     1      -5.519  -5.068  16.780  1.00  0.00     0.011 A 
HETATM   17  C14 UNL     1      -5.437  -3.817  15.976  1.00  0.00     0.011 A 
ENDBRANCH  12  15
ENDBRANCH   5   7
BRANCH   1  18
HETATM   18  C3  UNL     1     -10.655   1.798  18.904  1.00  0.00     0.103 C 
BRANCH  18  19
HETATM   19  C2  UNL     1     -11.583   2.943  18.801  1.00  0.00     0.114 C 
HETATM   20  C16 UNL     1     -12.844   2.776  18.058  1.00  0.00     0.048 C 
HETATM   21  C17 UNL     1     -12.886   3.939  17.085  1.00  0.00     0.030 C 
HETATM   22  C18 UNL     1     -11.490   4.493  17.207  1.00  0.00     0.169 C 
HETATM   23  O3  UNL     1     -11.003   4.173  18.464  1.00  0.00    -0.372 OA
BRANCH  19  24
HETATM   24  C1  UNL     1     -12.021   3.199  20.286  1.00  0.00     0.207 C 
BRANCH  24  25
HETATM   25  O1  UNL     1     -12.382   1.979  20.856  1.00  0.00    -0.398 OA
ATOM     26  H1  UNL     1     -13.326   1.968  20.972  1.00  0.00     0.209 HD
ENDBRANCH  24  25
ENDBRANCH  19  24
ENDBRANCH  18  19
ENDBRANCH   1  18
TORSDOF 6
ENDMDL
MODEL 5
REMARK VINA RESULT: -7.109657823      1.544      2.116
REMARK  6 active torsions:
REMARK  status: ('A' for Active; 'I' for Inactive)
REMARK    1  A    between atoms: O1_1  and  C1_3 
REMARK    2  A    between atoms: C1_3  and  C2_4 
REMARK    3  A    between atoms: C2_4  and  C3_5 
REMARK    4  A    between atoms: C3_5  and  N1_6 
REMARK    5  A    between atoms: C6_10  and  C7_11 
REMARK    6  A    between atoms: C11_16  and  C12_17 
ROOT
HETATM    1  N1  UNL     1      -8.355   1.805  18.041  1.00  0.00    -0.366 N 
HETATM    2  C4  UNL     1      -7.129   1.965  17.449  1.00  0.00     0.089 C 
HETATM    3  C5  UNL     1      -6.001   1.820  18.452  1.00  0.00     0.213 C 
HETATM    4  O2  UNL     1      -6.119   0.918  19.416  1.00  0.00    -0.373 OA
HETATM    5  C6  UNL     1      -7.313   0.292  19.682  1.00  0.00     0.189 C 
HETATM    6  C15 UNL     1      -8.523   0.866  19.082  1.00  0.00     0.165 C 
ENDROOT
BRANCH   5   7
HETATM    7  C7  UNL     1      -7.128  -1.183  19.348  1.00  0.00     0.040 A 
HETATM    8  C8  UNL     1      -7.326  -2.088  20.378  1.00  0.00     0.031 A 
HETATM    9  C9  UNL     1      -7.223  -3.419  20.102  1.00  0.00     0.046 A 
HETATM   10  C10 UNL     1      -6.935  -3.804  18.844  1.00  0.00     0.139 A 
HETATM   11  F1  UNL     1      -6.845  -5.129  18.557  1.00  0.00    -0.204 F 
HETATM   12  C11 UNL     1      -6.723  -2.893  17.767  1.00  0.00     0.052 A 
HETATM   13  N2  UNL     1      -6.831  -1.602  18.101  1.00  0.00    -0.358 N 
ATOM     14  H2  UNL     1      -6.682  -0.899  17.377  1.00  0.00     0.165 HD
BRANCH  12  15
HETATM   15  C12 UNL     1      -6.533  -3.524  16.468  1.00  0.00     0.039 A 
HETATM   16  C13 UNL     1      -5.549  -4.511  15.966  1.00  0.00     0.011 A 
HETATM   17  C14 UNL     1      -5.204  -3.072  15.789  1.00  0.00     0.011 A 
ENDBRANCH  12  15
ENDBRANCH   5   7
BRANCH   1  18
HETATM   18  C3  UNL     1      -9.478   1.790  17.200  1.00  0.00     0.103 C 
BRANCH  18  19
HETATM   19  C2  UNL     1     -10.652   2.630  17.515  1.00  0.00     0.114 C 
HETATM   20  C16 UNL     1     -10.701   3.333  18.810  1.00  0.00     0.048 C 
HETATM   21  C17 UNL     1     -12.050   2.974  19.402  1.00  0.00     0.030 C 
HETATM   22  C18 UNL     1     -12.510   1.875  18.479  1.00  0.00     0.169 C 
HETATM   23  O3  UNL     1     -11.902   2.059  17.247  1.00  0.00    -0.372 OA
BRANCH  19  24
HETATM   24  C1  UNL     1     -10.591   3.771  16.439  1.00  0.00     0.207 C 
BRANCH  24  25
HETATM   25  O1  UNL     1      -9.873   3.302  15.339  1.00  0.00    -0.398 OA
ATOM     26  H1  UNL     1      -9.693   4.036  14.763  1.00  0.00     0.209 HD
ENDBRANCH  24  25
ENDBRANCH  19  24
ENDBRANCH  18  19
ENDBRANCH   1  18
TORSDOF 6
ENDMDL
