MODEL 1
REMARK VINA RESULT: -7.007208456      0.000      0.000
REMARK  5 active torsions:
REMARK  status: ('A' for Active; 'I' for Inactive)
REMARK    1  A    between atoms: O1_2  and  C2_3 
REMARK    2  A    between atoms: C6_9  and  C7_10 
REMARK       I    between atoms: C7_10  and  N2_12 
REMARK    3  A    between atoms: N2_12  and  C8_14 
REMARK    4  A    between atoms: C13_20  and  O4_21 
REMARK    5  A    between atoms: C15_23  and  O5_24 
ROOT
HETATM    1  C2  UNL     1      -6.378   2.564  20.564  1.00  0.00     0.128 A 
HETATM    2  C3  UNL     1      -6.378   1.386  21.254  1.00  0.00     0.120 A 
HETATM    3  C4  UNL     1      -6.090   1.371  22.668  1.00  0.00     0.105 C 
HETATM    4  N1  UNL     1      -5.856   1.344  23.812  1.00  0.00    -0.191 NA
HETATM    5  C5  UNL     1      -6.655   0.174  20.597  1.00  0.00     0.158 A 
HETATM    6  F1  UNL     1      -6.646  -0.952  21.368  1.00  0.00    -0.203 F 
HETATM    7  C6  UNL     1      -6.935   0.122  19.259  1.00  0.00     0.108 A 
HETATM    8  C13 UNL     1      -6.932   1.327  18.567  1.00  0.00     0.123 A 
HETATM    9  C15 UNL     1      -6.657   2.526  19.221  1.00  0.00     0.138 A 
ENDROOT
BRANCH   1  10
HETATM   10  O1  UNL     1      -6.107   3.751  21.208  1.00  0.00    -0.351 OA
HETATM   11  C1  UNL     1      -7.067   4.626  21.738  1.00  0.00     0.210 C 
ENDBRANCH   1  10
BRANCH   9  12
HETATM   12  O5  UNL     1      -6.657   3.718  18.533  1.00  0.00    -0.351 OA
HETATM   13  C16 UNL     1      -5.467   4.161  17.913  1.00  0.00     0.210 C 
ENDBRANCH   9  12
BRANCH   7  14
HETATM   14  C7  UNL     1      -7.216  -1.120  18.575  1.00  0.00     0.258 C 
HETATM   15  O2  UNL     1      -8.416  -1.575  18.690  1.00  0.00    -0.267 OA
HETATM   16  N2  UNL     1      -6.356  -1.908  17.793  1.00  0.00    -0.350 N 
ATOM     17  H2  UNL     1      -5.390  -1.612  17.651  1.00  0.00     0.163 HD
BRANCH  16  18
HETATM   18  C8  UNL     1      -6.840  -3.167  17.171  1.00  0.00     0.108 C 
HETATM   19  C9  UNL     1      -6.588  -4.244  18.191  1.00  0.00     0.029 C 
HETATM   20  C10 UNL     1      -5.655  -5.283  17.617  1.00  0.00     0.028 C 
HETATM   21  C11 UNL     1      -6.151  -5.636  16.244  1.00  0.00     0.167 C 
HETATM   22  O3  UNL     1      -6.121  -4.591  15.358  1.00  0.00    -0.389 OA
HETATM   23  C12 UNL     1      -6.045  -3.345  15.917  1.00  0.00     0.192 C 
ENDBRANCH  16  18
ENDBRANCH   7  14
BRANCH   8  24
HETATM   24  O4  UNL     1      -7.199   1.342  17.220  1.00  0.00    -0.352 OA
HETATM   25  C14 UNL     1      -8.507   1.585  16.711  1.00  0.00     0.210 C 
ENDBRANCH   8  24
TORSDOF 5
ENDMDL
MODEL 2
REMARK VINA RESULT: -6.878880618      0.924      1.022
REMARK  5 active torsions:
REMARK  status: ('A' for Active; 'I' for Inactive)
REMARK    1  A    between atoms: O1_2  and  C2_3 
REMARK    2  A    between atoms: C6_9  and  C7_10 
REMARK       I    between atoms: C7_10  and  N2_12 
REMARK    3  A    between atoms: N2_12  and  C8_14 
REMARK    4  A    between atoms: C13_20  and  O4_21 
REMARK    5  A    between atoms: C15_23  and  O5_24 
ROOT
HETATM    1  C2  UNL     1      -6.868   2.407  20.889  1.00  0.00     0.128 A 
HETATM    2  C3  UNL     1      -6.529   1.228  21.487  1.00  0.00     0.120 A 
HETATM    3  C4  UNL     1      -5.951   1.222  22.811  1.00  0.00     0.105 C 
HETATM    4  N1  UNL     1      -5.480   1.205  23.879  1.00  0.00    -0.191 NA
HETATM    5  C5  UNL     1      -6.735   0.006  20.824  1.00  0.00     0.158 A 
HETATM    6  F1  UNL     1      -6.379  -1.123  21.503  1.00  0.00    -0.203 F 
HETATM    7  C6  UNL     1      -7.278  -0.056  19.570  1.00  0.00     0.108 A 
HETATM    8  C13 UNL     1      -7.619   1.150  18.971  1.00  0.00     0.123 A 
HETATM    9  C15 UNL     1      -7.414   2.360  19.631  1.00  0.00     0.138 A 
ENDROOT
BRANCH   1  10
HETATM   10  O1  UNL     1      -6.667   3.604  21.540  1.00  0.00    -0.351 OA
HETATM   11  C1  UNL     1      -5.557   4.446  21.368  1.00  0.00     0.210 C 
ENDBRANCH   1  10
BRANCH   9  12
HETATM   12  O5  UNL     1      -7.755   3.553  19.036  1.00  0.00    -0.351 OA
HETATM   13  C16 UNL     1      -9.059   4.067  19.211  1.00  0.00     0.210 C 
ENDBRANCH   9  12
BRANCH   7  14
HETATM   14  C7  UNL     1      -7.489  -1.308  18.880  1.00  0.00     0.258 C 
HETATM   15  O2  UNL     1      -8.644  -1.857  19.034  1.00  0.00    -0.267 OA
HETATM   16  N2  UNL     1      -6.602  -2.016  18.052  1.00  0.00    -0.350 N 
ATOM     17  H2  UNL     1      -5.668  -1.644  17.877  1.00  0.00     0.163 HD
BRANCH  16  18
HETATM   18  C8  UNL     1      -7.011  -3.302  17.430  1.00  0.00     0.108 C 
HETATM   19  C9  UNL     1      -6.593  -4.371  18.403  1.00  0.00     0.029 C 
HETATM   20  C10 UNL     1      -5.611  -5.308  17.742  1.00  0.00     0.028 C 
HETATM   21  C11 UNL     1      -6.165  -5.677  16.395  1.00  0.00     0.167 C 
HETATM   22  O3  UNL     1      -6.291  -4.617  15.537  1.00  0.00    -0.389 OA
HETATM   23  C12 UNL     1      -6.290  -3.380  16.123  1.00  0.00     0.192 C 
ENDBRANCH  16  18
ENDBRANCH   7  14
BRANCH   8  24
HETATM   24  O4  UNL     1      -8.163   1.157  17.710  1.00  0.00    -0.352 OA
HETATM   25  C14 UNL     1      -7.376   1.404  16.548  1.00  0.00     0.210 C 
ENDBRANCH   8  24
TORSDOF 5
ENDMDL
MODEL 3
REMARK VINA RESULT: -6.605625926      3.242      7.219
REMARK  5 active torsions:
REMARK  status: ('A' for Active; 'I' for Inactive)
REMARK    1  A    between atoms: O1_2  and  C2_3 
REMARK    2  A    between atoms: C6_9  and  C7_10 
REMARK       I    between atoms: C7_10  and  N2_12 
REMARK    3  A    between atoms: N2_12  and  C8_14 
REMARK    4  A    between atoms: C13_20  and  O4_21 
REMARK    5  A    between atoms: C15_23  and  O5_24 
ROOT
HETATM    1  C2  UNL     1      -6.890  -3.606  17.677  1.00  0.00     0.128 A 
HETATM    2  C3  UNL     1      -6.423  -3.319  16.426  1.00  0.00     0.120 A 
HETATM    3  C4  UNL     1      -5.707  -4.318  15.670  1.00  0.00     0.105 C 
HETATM    4  N1  UNL     1      -5.122  -5.116  15.048  1.00  0.00    -0.191 NA
HETATM    5  C5  UNL     1      -6.633  -2.050  15.861  1.00  0.00     0.158 A 
HETATM    6  F1  UNL     1      -6.144  -1.856  14.602  1.00  0.00    -0.203 F 
HETATM    7  C6  UNL     1      -7.304  -1.061  16.527  1.00  0.00     0.108 A 
HETATM    8  C13 UNL     1      -7.773  -1.364  17.798  1.00  0.00     0.123 A 
HETATM    9  C15 UNL     1      -7.564  -2.624  18.356  1.00  0.00     0.138 A 
ENDROOT
BRANCH   1  10
HETATM   10  O1  UNL     1      -6.685  -4.851  18.230  1.00  0.00    -0.351 OA
HETATM   11  C1  UNL     1      -5.457  -5.340  18.701  1.00  0.00     0.210 C 
ENDBRANCH   1  10
BRANCH   9  12
HETATM   12  O5  UNL     1      -8.033  -2.922  19.616  1.00  0.00    -0.351 OA
HETATM   13  C16 UNL     1      -7.198  -2.707  20.735  1.00  0.00     0.210 C 
ENDBRANCH   9  12
BRANCH   7  14
HETATM   14  C7  UNL     1      -7.519   0.249  15.954  1.00  0.00     0.258 C 
HETATM   15  O2  UNL     1      -8.120   0.281  14.814  1.00  0.00    -0.267 OA
HETATM   16  N2  UNL     1      -7.163   1.504  16.473  1.00  0.00    -0.350 N 
ATOM     17  H2  UNL     1      -6.688   1.563  17.373  1.00  0.00     0.163 HD
BRANCH  16  18
HETATM   18  C8  UNL     1      -7.473   2.748  15.722  1.00  0.00     0.108 C 
HETATM   19  C9  UNL     1      -6.301   3.662  15.954  1.00  0.00     0.029 C 
HETATM   20  C10 UNL     1      -6.766   4.930  16.629  1.00  0.00     0.028 C 
HETATM   21  C11 UNL     1      -7.982   5.421  15.895  1.00  0.00     0.167 C 
HETATM   22  O3  UNL     1      -9.049   4.563  15.953  1.00  0.00    -0.389 OA
HETATM   23  C12 UNL     1      -8.751   3.272  16.294  1.00  0.00     0.192 C 
ENDBRANCH  16  18
ENDBRANCH   7  14
BRANCH   8  24
HETATM   24  O4  UNL     1      -8.450  -0.413  18.522  1.00  0.00    -0.352 OA
HETATM   25  C14 UNL     1      -7.802   0.395  19.501  1.00  0.00     0.210 C 
ENDBRANCH   8  24
TORSDOF 5
ENDMDL
MODEL 4
REMARK VINA RESULT: -6.511872915      3.002      3.569
REMARK  5 active torsions:
REMARK  status: ('A' for Active; 'I' for Inactive)
REMARK    1  A    between atoms: O1_2  and  C2_3 
REMARK    2  A    between atoms: C6_9  and  C7_10 
REMARK       I    between atoms: C7_10  and  N2_12 
REMARK    3  A    between atoms: N2_12  and  C8_14 
REMARK    4  A    between atoms: C13_20  and  O4_21 
REMARK    5  A    between atoms: C15_23  and  O5_24 
ROOT
HETATM    1  C2  UNL     1     -10.135   2.498  17.911  1.00  0.00     0.128 A 
HETATM    2  C3  UNL     1      -9.954   1.754  19.042  1.00  0.00     0.120 A 
HETATM    3  C4  UNL     1     -10.733   2.028  20.226  1.00  0.00     0.105 C 
HETATM    4  N1  UNL     1     -11.355   2.242  21.191  1.00  0.00    -0.191 NA
HETATM    5  C5  UNL     1      -9.007   0.715  19.069  1.00  0.00     0.158 A 
HETATM    6  F1  UNL     1      -8.904   0.016  20.236  1.00  0.00    -0.203 F 
HETATM    7  C6  UNL     1      -8.238   0.406  17.980  1.00  0.00     0.108 A 
HETATM    8  C13 UNL     1      -8.430   1.170  16.836  1.00  0.00     0.123 A 
HETATM    9  C15 UNL     1      -9.370   2.199  16.812  1.00  0.00     0.138 A 
ENDROOT
BRANCH   1  10
HETATM   10  O1  UNL     1     -11.063   3.515  17.885  1.00  0.00    -0.351 OA
HETATM   11  C1  UNL     1     -12.365   3.415  17.371  1.00  0.00     0.210 C 
ENDBRANCH   1  10
BRANCH   9  12
HETATM   12  O5  UNL     1      -9.559   2.952  15.676  1.00  0.00    -0.351 OA
HETATM   13  C16 UNL     1      -8.721   4.063  15.433  1.00  0.00     0.210 C 
ENDBRANCH   9  12
BRANCH   7  14
HETATM   14  C7  UNL     1      -7.259  -0.657  18.002  1.00  0.00     0.258 C 
HETATM   15  O2  UNL     1      -6.168  -0.415  18.643  1.00  0.00    -0.267 OA
HETATM   16  N2  UNL     1      -7.334  -1.932  17.417  1.00  0.00    -0.350 N 
ATOM     17  H2  UNL     1      -8.168  -2.201  16.896  1.00  0.00     0.163 HD
BRANCH  16  18
HETATM   18  C8  UNL     1      -6.208  -2.892  17.551  1.00  0.00     0.108 C 
HETATM   19  C9  UNL     1      -5.965  -3.424  16.165  1.00  0.00     0.029 C 
HETATM   20  C10 UNL     1      -6.161  -4.922  16.151  1.00  0.00     0.028 C 
HETATM   21  C11 UNL     1      -5.422  -5.492  17.327  1.00  0.00     0.167 C 
HETATM   22  O3  UNL     1      -5.901  -5.073  18.540  1.00  0.00    -0.389 OA
HETATM   23  C12 UNL     1      -6.667  -3.940  18.513  1.00  0.00     0.192 C 
ENDBRANCH  16  18
ENDBRANCH   7  14
BRANCH   8  24
HETATM   24  O4  UNL     1      -7.685   0.915  15.711  1.00  0.00    -0.352 OA
HETATM   25  C14 UNL     1      -8.198   0.154  14.621  1.00  0.00     0.210 C 
ENDBRANCH   8  24
TORSDOF 5
ENDMDL
MODEL 5
REMARK VINA RESULT: -6.453519280      2.412      3.447
REMARK  5 active torsions:
REMARK  status: ('A' for Active; 'I' for Inactive)
REMARK    1  A    between atoms: O1_2  and  C2_3 
REMARK    2  A    between atoms: C6_9  and  C7_10 
REMARK       I    between atoms: C7_10  and  N2_12 
REMARK    3  A    between atoms: N2_12  and  C8_14 
REMARK    4  A    between atoms: C13_20  and  O4_21 
REMARK    5  A    between atoms: C15_23  and  O5_24 
ROOT
HETATM    1  C2  UNL     1      -7.382   3.224  19.013  1.00  0.00     0.128 A 
HETATM    2  C3  UNL     1      -7.029   3.126  17.698  1.00  0.00     0.120 A 
HETATM    3  C4  UNL     1      -6.678   4.309  16.948  1.00  0.00     0.105 C 
HETATM    4  N1  UNL     1      -6.395   5.259  16.330  1.00  0.00    -0.191 NA
HETATM    5  C5  UNL     1      -7.005   1.876  17.057  1.00  0.00     0.158 A 
HETATM    6  F1  UNL     1      -6.627   1.871  15.745  1.00  0.00    -0.203 F 
HETATM    7  C6  UNL     1      -7.327   0.719  17.712  1.00  0.00     0.108 A 
HETATM    8  C13 UNL     1      -7.685   0.830  19.049  1.00  0.00     0.123 A 
HETATM    9  C15 UNL     1      -7.708   2.072  19.682  1.00  0.00     0.138 A 
ENDROOT
BRANCH   1  10
HETATM   10  O1  UNL     1      -7.405   4.450  19.641  1.00  0.00    -0.351 OA
HETATM   11  C1  UNL     1      -8.542   5.253  19.815  1.00  0.00     0.210 C 
ENDBRANCH   1  10
BRANCH   9  12
HETATM   12  O5  UNL     1      -8.061   2.179  21.008  1.00  0.00    -0.351 OA
HETATM   13  C16 UNL     1      -7.049   2.231  21.993  1.00  0.00     0.210 C 
ENDBRANCH   9  12
BRANCH   7  14
HETATM   14  C7  UNL     1      -7.308  -0.571  17.059  1.00  0.00     0.258 C 
HETATM   15  O2  UNL     1      -8.153  -0.736  16.100  1.00  0.00    -0.267 OA
HETATM   16  N2  UNL     1      -6.488  -1.679  17.325  1.00  0.00    -0.350 N 
ATOM     17  H2  UNL     1      -5.791  -1.625  18.067  1.00  0.00     0.163 HD
BRANCH  16  18
HETATM   18  C8  UNL     1      -6.627  -2.930  16.534  1.00  0.00     0.108 C 
HETATM   19  C9  UNL     1      -6.727  -4.038  17.547  1.00  0.00     0.029 C 
HETATM   20  C10 UNL     1      -5.589  -5.012  17.351  1.00  0.00     0.028 C 
HETATM   21  C11 UNL     1      -5.501  -5.326  15.885  1.00  0.00     0.167 C 
HETATM   22  O3  UNL     1      -5.192  -4.243  15.104  1.00  0.00    -0.389 OA
HETATM   23  C12 UNL     1      -5.404  -3.020  15.679  1.00  0.00     0.192 C 
ENDBRANCH  16  18
ENDBRANCH   7  14
BRANCH   8  24
HETATM   24  O4  UNL     1      -8.025  -0.293  19.762  1.00  0.00    -0.352 OA
HETATM   25  C14 UNL     1      -7.069  -1.023  20.525  1.00  0.00     0.210 C 
ENDBRANCH   8  24
TORSDOF 5
ENDMDL
