MODEL 1
REMARK VINA RESULT: -6.426390848      0.000      0.000
REMARK  5 active torsions:
REMARK  status: ('A' for Active; 'I' for Inactive)
REMARK    1  A    between atoms: N1_2  and  C3_4 
REMARK    2  A    between atoms: C3_4  and  C4_5 
REMARK    3  A    between atoms: C4_5  and  C7_8 
REMARK    4  A    between atoms: C7_8  and  N2_9 
REMARK    5  A    between atoms: N2_9  and  C8_11 
ROOT
HETATM    1  C8  UNL     1      -6.591  -1.364  15.669  1.00  0.00     0.078 C 
HETATM    2  C9  UNL     1      -7.055  -0.790  14.370  1.00  0.00     0.029 C 
HETATM    3  C10 UNL     1      -7.284   0.683  14.540  1.00  0.00     0.067 C 
HETATM    4  C11 UNL     1      -7.491   1.177  15.895  1.00  0.00     0.173 C 
HETATM    5  O1  UNL     1      -6.407   1.986  16.292  1.00  0.00    -0.351 OA
HETATM    6  C12 UNL     1      -6.579   3.199  15.633  1.00  0.00     0.231 C 
HETATM    7  C13 UNL     1      -8.035   3.418  15.777  1.00  0.00     0.074 A 
HETATM    8  C14 UNL     1      -9.057   4.341  15.817  1.00  0.00     0.137 A 
HETATM    9  N3  UNL     1     -10.180   3.627  15.998  1.00  0.00    -0.295 N 
ATOM     10  H3  UNL     1     -11.122   4.010  16.071  1.00  0.00     0.187 HD
HETATM   11  N4  UNL     1      -9.869   2.362  16.063  1.00  0.00    -0.238 N 
ATOM     12  H4  UNL     1     -10.541   1.607  16.198  1.00  0.00     0.208 HD
HETATM   13  N5  UNL     1      -8.560   2.191  15.931  1.00  0.00    -0.242 N 
HETATM   14  C15 UNL     1      -7.780   0.233  16.997  1.00  0.00     0.141 C 
HETATM   15 CL1  UNL     1      -6.546   0.394  18.300  1.00  0.00    -0.120 Cl
HETATM   16  C16 UNL     1      -7.756  -1.234  16.623  1.00  0.00     0.050 C 
ENDROOT
BRANCH   1  17
HETATM   17  N2  UNL     1      -6.077  -2.660  15.672  1.00  0.00    -0.416 N 
ATOM     18  H2  UNL     1      -6.186  -3.250  14.847  1.00  0.00     0.153 HD
BRANCH  17  19
HETATM   19  C7  UNL     1      -5.424  -3.154  16.784  1.00  0.00     0.124 C 
BRANCH  19  20
HETATM   20  C4  UNL     1      -6.025  -4.488  17.246  1.00  0.00    -0.006 C 
HETATM   21  C5  UNL     1      -4.977  -5.440  17.730  1.00  0.00     0.018 C 
HETATM   22  C6  UNL     1      -6.607  -5.115  15.966  1.00  0.00     0.018 C 
BRANCH  20  23
HETATM   23  C3  UNL     1      -7.114  -4.227  18.241  1.00  0.00     0.281 C 
BRANCH  23  24
HETATM   24  N1  UNL     1      -6.713  -3.908  19.581  1.00  0.00     0.080 N 
HETATM   25  C1  UNL     1      -7.171  -4.995  20.501  1.00  0.00     0.309 C 
HETATM   26  C2  UNL     1      -7.507  -2.756  20.062  1.00  0.00     0.309 C 
ENDBRANCH  23  24
ENDBRANCH  20  23
ENDBRANCH  19  20
ENDBRANCH  17  19
ENDBRANCH   1  17
TORSDOF 5
ENDMDL
MODEL 2
REMARK VINA RESULT: -6.082890487      5.111      7.318
REMARK  5 active torsions:
REMARK  status: ('A' for Active; 'I' for Inactive)
REMARK    1  A    between atoms: N1_2  and  C3_4 
REMARK    2  A    between atoms: C3_4  and  C4_5 
REMARK    3  A    between atoms: C4_5  and  C7_8 
REMARK    4  A    between atoms: C7_8  and  N2_9 
REMARK    5  A    between atoms: N2_9  and  C8_11 
ROOT
HETATM    1  C8  UNL     1     -10.796   2.745  18.322  1.00  0.00     0.078 C 
HETATM    2  C9  UNL     1     -12.004   3.042  17.495  1.00  0.00     0.029 C 
HETATM    3  C10 UNL     1     -13.183   3.235  18.402  1.00  0.00     0.067 C 
HETATM    4  C11 UNL     1     -13.097   2.669  19.742  1.00  0.00     0.173 C 
HETATM    5  O1  UNL     1     -13.045   3.696  20.705  1.00  0.00    -0.351 OA
HETATM    6  C12 UNL     1     -14.343   4.189  20.803  1.00  0.00     0.231 C 
HETATM    7  C13 UNL     1     -15.142   2.943  20.780  1.00  0.00     0.074 A 
HETATM    8  C14 UNL     1     -16.324   2.333  21.137  1.00  0.00     0.137 A 
HETATM    9  N3  UNL     1     -16.226   1.070  20.689  1.00  0.00    -0.295 N 
ATOM     10  H3  UNL     1     -16.939   0.347  20.790  1.00  0.00     0.187 HD
HETATM   11  N4  UNL     1     -15.071   0.919  20.103  1.00  0.00    -0.238 N 
ATOM     12  H4  UNL     1     -14.748   0.051  19.677  1.00  0.00     0.208 HD
HETATM   13  N5  UNL     1     -14.374   2.048  20.136  1.00  0.00    -0.242 N 
HETATM   14  C15 UNL     1     -12.041   1.685  20.070  1.00  0.00     0.141 C 
HETATM   15 CL1  UNL     1     -11.037   2.279  21.443  1.00  0.00    -0.120 Cl
HETATM   16  C16 UNL     1     -11.049   1.400  18.963  1.00  0.00     0.050 C 
ENDROOT
BRANCH   1  17
HETATM   17  N2  UNL     1      -9.546   2.783  17.705  1.00  0.00    -0.416 N 
ATOM     18  H2  UNL     1      -8.755   3.207  18.189  1.00  0.00     0.153 HD
BRANCH  17  19
HETATM   19  C7  UNL     1      -9.371   2.253  16.442  1.00  0.00     0.124 C 
BRANCH  19  20
HETATM   20  C4  UNL     1      -8.028   1.520  16.319  1.00  0.00    -0.006 C 
HETATM   21  C5  UNL     1      -7.538   1.017  17.641  1.00  0.00     0.018 C 
HETATM   22  C6  UNL     1      -7.030   2.610  15.886  1.00  0.00     0.018 C 
BRANCH  20  23
HETATM   23  C3  UNL     1      -8.132   0.460  15.268  1.00  0.00     0.281 C 
BRANCH  23  24
HETATM   24  N1  UNL     1      -7.744   0.820  13.935  1.00  0.00     0.080 N 
HETATM   25  C1  UNL     1      -8.971   0.976  13.094  1.00  0.00     0.309 C 
HETATM   26  C2  UNL     1      -7.088  -0.340  13.292  1.00  0.00     0.309 C 
ENDBRANCH  23  24
ENDBRANCH  20  23
ENDBRANCH  19  20
ENDBRANCH  17  19
ENDBRANCH   1  17
TORSDOF 5
ENDMDL
MODEL 3
REMARK VINA RESULT: -6.043283218      4.196      5.956
REMARK  5 active torsions:
REMARK  status: ('A' for Active; 'I' for Inactive)
REMARK    1  A    between atoms: N1_2  and  C3_4 
REMARK    2  A    between atoms: C3_4  and  C4_5 
REMARK    3  A    between atoms: C4_5  and  C7_8 
REMARK    4  A    between atoms: C7_8  and  N2_9 
REMARK    5  A    between atoms: N2_9  and  C8_11 
ROOT
HETATM    1  C8  UNL     1      -8.392   2.921  19.009  1.00  0.00     0.078 C 
HETATM    2  C9  UNL     1      -9.695   2.300  18.623  1.00  0.00     0.029 C 
HETATM    3  C10 UNL     1      -9.514   1.541  17.342  1.00  0.00     0.067 C 
HETATM    4  C11 UNL     1      -8.378   1.900  16.504  1.00  0.00     0.173 C 
HETATM    5  O1  UNL     1      -7.441   0.848  16.472  1.00  0.00    -0.351 OA
HETATM    6  C12 UNL     1      -7.984  -0.116  15.629  1.00  0.00     0.231 C 
HETATM    7  C13 UNL     1      -8.525   0.713  14.529  1.00  0.00     0.074 A 
HETATM    8  C14 UNL     1      -8.884   0.762  13.200  1.00  0.00     0.137 A 
HETATM    9  N3  UNL     1      -9.325   2.014  12.992  1.00  0.00    -0.295 N 
ATOM     10  H3  UNL     1      -9.669   2.383  12.106  1.00  0.00     0.187 HD
HETATM   11  N4  UNL     1      -9.241   2.681  14.110  1.00  0.00    -0.238 N 
ATOM     12  H4  UNL     1      -9.512   3.657  14.223  1.00  0.00     0.208 HD
HETATM   13  N5  UNL     1      -8.755   1.917  15.080  1.00  0.00    -0.242 N 
HETATM   14  C15 UNL     1      -7.638   3.158  16.750  1.00  0.00     0.141 C 
HETATM   15 CL1  UNL     1      -5.898   2.811  17.065  1.00  0.00    -0.120 Cl
HETATM   16  C16 UNL     1      -8.094   3.959  17.952  1.00  0.00     0.050 C 
ENDROOT
BRANCH   1  17
HETATM   17  N2  UNL     1      -8.270   3.456  20.291  1.00  0.00    -0.416 N 
ATOM     18  H2  UNL     1      -8.243   4.468  20.416  1.00  0.00     0.153 HD
BRANCH  17  19
HETATM   19  C7  UNL     1      -8.184   2.628  21.393  1.00  0.00     0.124 C 
BRANCH  19  20
HETATM   20  C4  UNL     1      -6.747   2.540  21.922  1.00  0.00    -0.006 C 
HETATM   21  C5  UNL     1      -5.787   3.317  21.076  1.00  0.00     0.018 C 
HETATM   22  C6  UNL     1      -6.360   1.059  21.747  1.00  0.00     0.018 C 
BRANCH  20  23
HETATM   23  C3  UNL     1      -6.723   2.918  23.370  1.00  0.00     0.281 C 
BRANCH  23  24
HETATM   24  N1  UNL     1      -6.027   2.039  24.265  1.00  0.00     0.080 N 
HETATM   25  C1  UNL     1      -6.721   2.041  25.590  1.00  0.00     0.309 C 
HETATM   26  C2  UNL     1      -4.720   2.637  24.612  1.00  0.00     0.309 C 
ENDBRANCH  23  24
ENDBRANCH  20  23
ENDBRANCH  19  20
ENDBRANCH  17  19
ENDBRANCH   1  17
TORSDOF 5
ENDMDL
MODEL 4
REMARK VINA RESULT: -5.841617681      3.804      5.959
REMARK  5 active torsions:
REMARK  status: ('A' for Active; 'I' for Inactive)
REMARK    1  A    between atoms: N1_2  and  C3_4 
REMARK    2  A    between atoms: C3_4  and  C4_5 
REMARK    3  A    between atoms: C4_5  and  C7_8 
REMARK    4  A    between atoms: C7_8  and  N2_9 
REMARK    5  A    between atoms: N2_9  and  C8_11 
ROOT
HETATM    1  C8  UNL     1      -8.179   3.356  18.791  1.00  0.00     0.078 C 
HETATM    2  C9  UNL     1      -9.486   2.683  18.523  1.00  0.00     0.029 C 
HETATM    3  C10 UNL     1      -9.346   1.808  17.313  1.00  0.00     0.067 C 
HETATM    4  C11 UNL     1      -8.253   2.103  16.396  1.00  0.00     0.173 C 
HETATM    5  O1  UNL     1      -7.299   1.066  16.421  1.00  0.00    -0.351 OA
HETATM    6  C12 UNL     1      -7.860   0.018  15.698  1.00  0.00     0.231 C 
HETATM    7  C13 UNL     1      -8.463   0.731  14.549  1.00  0.00     0.074 A 
HETATM    8  C14 UNL     1      -8.880   0.648  13.239  1.00  0.00     0.137 A 
HETATM    9  N3  UNL     1      -9.352   1.869  12.934  1.00  0.00    -0.295 N 
ATOM     10  H3  UNL     1      -9.740   2.147  12.033  1.00  0.00     0.187 HD
HETATM   11  N4  UNL     1      -9.232   2.640  13.979  1.00  0.00    -0.238 N 
ATOM     12  H4  UNL     1      -9.516   3.619  14.011  1.00  0.00     0.208 HD
HETATM   13  N5  UNL     1      -8.691   1.978  14.994  1.00  0.00    -0.242 N 
HETATM   14  C15 UNL     1      -7.527   3.389  16.489  1.00  0.00     0.141 C 
HETATM   15 CL1  UNL     1      -5.769   3.098  16.757  1.00  0.00    -0.120 Cl
HETATM   16  C16 UNL     1      -7.946   4.293  17.628  1.00  0.00     0.050 C 
ENDROOT
BRANCH   1  17
HETATM   17  N2  UNL     1      -8.012   4.013  20.010  1.00  0.00    -0.416 N 
ATOM     18  H2  UNL     1      -8.820   4.177  20.611  1.00  0.00     0.153 HD
BRANCH  17  19
HETATM   19  C7  UNL     1      -6.763   4.443  20.410  1.00  0.00     0.124 C 
BRANCH  19  20
HETATM   20  C4  UNL     1      -6.332   3.780  21.725  1.00  0.00    -0.006 C 
HETATM   21  C5  UNL     1      -7.417   3.814  22.756  1.00  0.00     0.018 C 
HETATM   22  C6  UNL     1      -5.208   4.683  22.265  1.00  0.00     0.018 C 
BRANCH  20  23
HETATM   23  C3  UNL     1      -5.807   2.406  21.443  1.00  0.00     0.281 C 
BRANCH  23  24
HETATM   24  N1  UNL     1      -6.606   1.298  21.881  1.00  0.00     0.080 N 
HETATM   25  C1  UNL     1      -5.776   0.413  22.756  1.00  0.00     0.309 C 
HETATM   26  C2  UNL     1      -6.875   0.410  20.729  1.00  0.00     0.309 C 
ENDBRANCH  23  24
ENDBRANCH  20  23
ENDBRANCH  19  20
ENDBRANCH  17  19
ENDBRANCH   1  17
TORSDOF 5
ENDMDL
MODEL 5
REMARK VINA RESULT: -5.825929249      4.173      6.614
REMARK  5 active torsions:
REMARK  status: ('A' for Active; 'I' for Inactive)
REMARK    1  A    between atoms: N1_2  and  C3_4 
REMARK    2  A    between atoms: C3_4  and  C4_5 
REMARK    3  A    between atoms: C4_5  and  C7_8 
REMARK    4  A    between atoms: C7_8  and  N2_9 
REMARK    5  A    between atoms: N2_9  and  C8_11 
ROOT
HETATM    1  C8  UNL     1     -10.689   2.727  17.843  1.00  0.00     0.078 C 
HETATM    2  C9  UNL     1     -10.626   3.678  16.692  1.00  0.00     0.029 C 
HETATM    3  C10 UNL     1     -11.584   4.806  16.937  1.00  0.00     0.067 C 
HETATM    4  C11 UNL     1     -12.667   4.573  17.884  1.00  0.00     0.173 C 
HETATM    5  O1  UNL     1     -12.491   5.368  19.034  1.00  0.00    -0.351 OA
HETATM    6  C12 UNL     1     -12.858   6.658  18.661  1.00  0.00     0.231 C 
HETATM    7  C13 UNL     1     -14.070   6.406  17.851  1.00  0.00     0.074 A 
HETATM    8  C14 UNL     1     -15.260   6.916  17.380  1.00  0.00     0.137 A 
HETATM    9  N3  UNL     1     -15.806   5.933  16.644  1.00  0.00    -0.295 N 
ATOM     10  H3  UNL     1     -16.696   5.987  16.150  1.00  0.00     0.187 HD
HETATM   11  N4  UNL     1     -15.010   4.901  16.664  1.00  0.00    -0.238 N 
ATOM     12  H4  UNL     1     -15.193   4.020  16.183  1.00  0.00     0.208 HD
HETATM   13  N5  UNL     1     -13.931   5.150  17.395  1.00  0.00    -0.242 N 
HETATM   14  C15 UNL     1     -12.985   3.197  18.327  1.00  0.00     0.141 C 
HETATM   15 CL1  UNL     1     -12.858   3.072  20.121  1.00  0.00    -0.120 Cl
HETATM   16  C16 UNL     1     -12.070   2.113  17.801  1.00  0.00     0.050 C 
ENDROOT
BRANCH   1  17
HETATM   17  N2  UNL     1      -9.703   1.747  17.944  1.00  0.00    -0.416 N 
ATOM     18  H2  UNL     1      -9.916   0.785  17.677  1.00  0.00     0.153 HD
BRANCH  17  19
HETATM   19  C7  UNL     1      -8.441   2.065  18.403  1.00  0.00     0.124 C 
BRANCH  19  20
HETATM   20  C4  UNL     1      -7.348   1.372  17.579  1.00  0.00    -0.006 C 
HETATM   21  C5  UNL     1      -6.429   0.557  18.435  1.00  0.00     0.018 C 
HETATM   22  C6  UNL     1      -6.494   2.524  17.020  1.00  0.00     0.018 C 
BRANCH  20  23
HETATM   23  C3  UNL     1      -7.980   0.600  16.462  1.00  0.00     0.281 C 
BRANCH  23  24
HETATM   24  N1  UNL     1      -7.603   0.958  15.125  1.00  0.00     0.080 N 
HETATM   25  C1  UNL     1      -8.808   1.462  14.396  1.00  0.00     0.309 C 
HETATM   26  C2  UNL     1      -7.288  -0.272  14.365  1.00  0.00     0.309 C 
ENDBRANCH  23  24
ENDBRANCH  20  23
ENDBRANCH  19  20
ENDBRANCH  17  19
ENDBRANCH   1  17
TORSDOF 5
ENDMDL
