MODEL 1
REMARK VINA RESULT: -7.605630218      0.000      0.000
REMARK  6 active torsions:
REMARK  status: ('A' for Active; 'I' for Inactive)
REMARK    1  A    between atoms: C4_6  and  C5_7 
REMARK    2  A    between atoms: C5_7  and  N2_8 
REMARK    3  A    between atoms: C6_9  and  N3_10 
REMARK    4  A    between atoms: N3_10  and  C7_12 
REMARK    5  A    between atoms: C7_12  and  C8_13 
REMARK    6  A    between atoms: C8_13  and  N4_14 
ROOT
HETATM    1  N2  UNL     1      -7.437  -0.287  18.109  1.00  0.00    -0.160 N 
HETATM    2  C6  UNL     1      -8.092  -0.364  19.323  1.00  0.00     0.686 A 
HETATM    3  N5  UNL     1      -8.006  -1.633  19.761  1.00  0.00    -0.184 N 
ATOM      4  H5  UNL     1      -8.400  -1.984  20.634  1.00  0.00     0.184 HD
HETATM    5  C11 UNL     1      -7.312  -2.373  18.860  1.00  0.00     0.133 A 
HETATM    6  C12 UNL     1      -6.951  -3.704  18.840  1.00  0.00     0.155 A 
HETATM    7  F1  UNL     1      -7.276  -4.568  19.830  1.00  0.00    -0.203 F 
HETATM    8  C13 UNL     1      -6.227  -4.138  17.751  1.00  0.00     0.001 A 
HETATM    9  C14 UNL     1      -5.805  -5.553  17.665  1.00  0.00     0.054 C 
HETATM   10  C15 UNL     1      -5.898  -3.264  16.749  1.00  0.00     0.016 A 
HETATM   11  C16 UNL     1      -5.110  -3.741  15.570  1.00  0.00     0.069 C 
HETATM   12  N6  UNL     1      -6.271  -1.978  16.812  1.00  0.00    -0.343 N 
ATOM     13  H6  UNL     1      -6.012  -1.349  16.053  1.00  0.00     0.167 HD
HETATM   14  C17 UNL     1      -6.982  -1.495  17.855  1.00  0.00     0.155 A 
ENDROOT
BRANCH   1  15
HETATM   15  C5  UNL     1      -7.304   0.909  17.321  1.00  0.00     0.216 C 
BRANCH  15  16
HETATM   16  C4  UNL     1      -7.805   0.654  15.941  1.00  0.00     0.089 A 
HETATM   17  C3  UNL     1      -9.073   0.625  15.454  1.00  0.00     0.124 A 
HETATM   18  N1  UNL     1      -8.970   0.348  14.128  1.00  0.00    -0.348 N 
HETATM   19  C2  UNL     1      -7.665   0.213  13.822  1.00  0.00     0.119 A 
ATOM     20  H1  UNL     1      -9.748   0.257  13.475  1.00  0.00     0.167 HD
HETATM   21  C1  UNL     1      -7.097  -0.097  12.461  1.00  0.00     0.098 C 
HETATM   22  O1  UNL     1      -6.994   0.402  14.925  1.00  0.00    -0.299 OA
ENDBRANCH  15  16
ENDBRANCH   1  15
BRANCH   2  23
HETATM   23  N3  UNL     1      -8.642   0.635  19.845  1.00  0.00    -0.203 N 
ATOM     24  H3  UNL     1      -7.926   1.262  20.213  1.00  0.00     0.183 HD
BRANCH  23  25
HETATM   25  C7  UNL     1      -9.891   1.175  20.090  1.00  0.00     0.108 C 
BRANCH  25  26
HETATM   26  C8  UNL     1     -10.478   1.886  18.919  1.00  0.00     0.316 C 
BRANCH  26  27
HETATM   27  N4  UNL     1     -11.880   1.588  18.713  1.00  0.00     0.084 N 
HETATM   28  C9  UNL     1     -12.619   1.534  19.950  1.00  0.00     0.309 C 
HETATM   29  C10 UNL     1     -12.504   2.372  17.702  1.00  0.00     0.309 C 
ENDBRANCH  26  27
ENDBRANCH  25  26
ENDBRANCH  23  25
ENDBRANCH   2  23
TORSDOF 6
ENDMDL
MODEL 2
REMARK VINA RESULT: -7.547536448      2.549      5.023
REMARK  6 active torsions:
REMARK  status: ('A' for Active; 'I' for Inactive)
REMARK    1  A    between atoms: C4_6  and  C5_7 
REMARK    2  A    between atoms: C5_7  and  N2_8 
REMARK    3  A    between atoms: C6_9  and  N3_10 
REMARK    4  A    between atoms: N3_10  and  C7_12 
REMARK    5  A    between atoms: C7_12  and  C8_13 
REMARK    6  A    between atoms: C8_13  and  N4_14 
ROOT
HETATM    1  N2  UNL     1      -7.922  -0.318  18.454  1.00  0.00    -0.160 N 
HETATM    2  C6  UNL     1      -7.754   0.301  17.231  1.00  0.00     0.686 A 
HETATM    3  N5  UNL     1      -7.166  -0.577  16.399  1.00  0.00    -0.184 N 
ATOM      4  H5  UNL     1      -6.920  -0.393  15.426  1.00  0.00     0.184 HD
HETATM    5  C11 UNL     1      -6.953  -1.745  17.055  1.00  0.00     0.133 A 
HETATM    6  C12 UNL     1      -6.394  -2.940  16.655  1.00  0.00     0.155 A 
HETATM    7  F1  UNL     1      -5.917  -3.146  15.406  1.00  0.00    -0.203 F 
HETATM    8  C13 UNL     1      -6.335  -3.947  17.594  1.00  0.00     0.001 A 
HETATM    9  C14 UNL     1      -5.749  -5.257  17.233  1.00  0.00     0.054 C 
HETATM   10  C15 UNL     1      -6.818  -3.739  18.859  1.00  0.00     0.016 A 
HETATM   11  C16 UNL     1      -6.753  -4.837  19.874  1.00  0.00     0.069 C 
HETATM   12  N6  UNL     1      -7.353  -2.560  19.202  1.00  0.00    -0.343 N 
ATOM     13  H6  UNL     1      -7.706  -2.432  20.150  1.00  0.00     0.167 HD
HETATM   14  C17 UNL     1      -7.438  -1.535  18.324  1.00  0.00     0.155 A 
ENDROOT
BRANCH   1  15
HETATM   15  C5  UNL     1      -8.522   0.292  19.610  1.00  0.00     0.216 C 
BRANCH  15  16
HETATM   16  C4  UNL     1      -7.470   0.971  20.418  1.00  0.00     0.089 A 
HETATM   17  C3  UNL     1      -7.010   2.249  20.372  1.00  0.00     0.124 A 
HETATM   18  N1  UNL     1      -6.046   2.345  21.325  1.00  0.00    -0.348 N 
HETATM   19  C2  UNL     1      -5.927   1.149  21.933  1.00  0.00     0.119 A 
ATOM     20  H1  UNL     1      -5.504   3.181  21.542  1.00  0.00     0.167 HD
HETATM   21  C1  UNL     1      -4.976   0.809  23.051  1.00  0.00     0.098 C 
HETATM   22  O1  UNL     1      -6.790   0.349  21.370  1.00  0.00    -0.299 OA
ENDBRANCH  15  16
ENDBRANCH   1  15
BRANCH   2  23
HETATM   23  N3  UNL     1      -8.119   1.484  17.031  1.00  0.00    -0.203 N 
ATOM     24  H3  UNL     1      -8.843   1.733  17.706  1.00  0.00     0.183 HD
BRANCH  23  25
HETATM   25  C7  UNL     1      -7.873   2.566  16.205  1.00  0.00     0.108 C 
BRANCH  25  26
HETATM   26  C8  UNL     1      -8.774   2.633  15.020  1.00  0.00     0.316 C 
BRANCH  26  27
HETATM   27  N4  UNL     1      -8.199   2.040  13.830  1.00  0.00     0.084 N 
HETATM   28  C9  UNL     1      -6.759   2.004  13.874  1.00  0.00     0.309 C 
HETATM   29  C10 UNL     1      -8.796   0.808  13.441  1.00  0.00     0.309 C 
ENDBRANCH  26  27
ENDBRANCH  25  26
ENDBRANCH  23  25
ENDBRANCH   2  23
TORSDOF 6
ENDMDL
MODEL 3
REMARK VINA RESULT: -7.438604029      1.722      2.816
REMARK  6 active torsions:
REMARK  status: ('A' for Active; 'I' for Inactive)
REMARK    1  A    between atoms: C4_6  and  C5_7 
REMARK    2  A    between atoms: C5_7  and  N2_8 
REMARK    3  A    between atoms: C6_9  and  N3_10 
REMARK    4  A    between atoms: N3_10  and  C7_12 
REMARK    5  A    between atoms: C7_12  and  C8_13 
REMARK    6  A    between atoms: C8_13  and  N4_14 
ROOT
HETATM    1  N2  UNL     1      -7.394  -0.187  18.143  1.00  0.00    -0.160 N 
HETATM    2  C6  UNL     1      -7.979  -0.237  19.393  1.00  0.00     0.686 A 
HETATM    3  N5  UNL     1      -7.897  -1.503  19.840  1.00  0.00    -0.184 N 
ATOM      4  H5  UNL     1      -8.248  -1.835  20.738  1.00  0.00     0.184 HD
HETATM    5  C11 UNL     1      -7.273  -2.268  18.909  1.00  0.00     0.133 A 
HETATM    6  C12 UNL     1      -6.944  -3.606  18.885  1.00  0.00     0.155 A 
HETATM    7  F1  UNL     1      -7.232  -4.452  19.901  1.00  0.00    -0.203 F 
HETATM    8  C13 UNL     1      -6.294  -4.069  17.761  1.00  0.00     0.001 A 
HETATM    9  C14 UNL     1      -5.910  -5.495  17.667  1.00  0.00     0.054 C 
HETATM   10  C15 UNL     1      -6.003  -3.213  16.732  1.00  0.00     0.016 A 
HETATM   11  C16 UNL     1      -5.295  -3.721  15.515  1.00  0.00     0.069 C 
HETATM   12  N6  UNL     1      -6.343  -1.919  16.801  1.00  0.00    -0.343 N 
ATOM     13  H6  UNL     1      -6.113  -1.303  16.021  1.00  0.00     0.167 HD
HETATM   14  C17 UNL     1      -6.981  -1.408  17.877  1.00  0.00     0.155 A 
ENDROOT
BRANCH   1  15
HETATM   15  C5  UNL     1      -7.279   0.997  17.335  1.00  0.00     0.216 C 
BRANCH  15  16
HETATM   16  C4  UNL     1      -7.789   0.716  15.963  1.00  0.00     0.089 A 
HETATM   17  C3  UNL     1      -9.061   0.671  15.487  1.00  0.00     0.124 A 
HETATM   18  N1  UNL     1      -8.965   0.371  14.165  1.00  0.00    -0.348 N 
HETATM   19  C2  UNL     1      -7.663   0.237  13.851  1.00  0.00     0.119 A 
ATOM     20  H1  UNL     1      -9.748   0.265  13.520  1.00  0.00     0.167 HD
HETATM   21  C1  UNL     1      -7.103  -0.095  12.492  1.00  0.00     0.098 C 
HETATM   22  O1  UNL     1      -6.984   0.449  14.945  1.00  0.00    -0.299 OA
ENDBRANCH  15  16
ENDBRANCH   1  15
BRANCH   2  23
HETATM   23  N3  UNL     1      -8.475   0.781  19.934  1.00  0.00    -0.203 N 
ATOM     24  H3  UNL     1      -9.474   0.821  19.728  1.00  0.00     0.183 HD
BRANCH  23  25
HETATM   25  C7  UNL     1      -8.126   1.867  20.716  1.00  0.00     0.108 C 
BRANCH  25  26
HETATM   26  C8  UNL     1      -6.662   1.971  20.977  1.00  0.00     0.316 C 
BRANCH  26  27
HETATM   27  N4  UNL     1      -6.315   1.792  22.371  1.00  0.00     0.084 N 
HETATM   28  C9  UNL     1      -5.867   0.452  22.659  1.00  0.00     0.309 C 
HETATM   29  C10 UNL     1      -5.472   2.809  22.902  1.00  0.00     0.309 C 
ENDBRANCH  26  27
ENDBRANCH  25  26
ENDBRANCH  23  25
ENDBRANCH   2  23
TORSDOF 6
ENDMDL
MODEL 4
REMARK VINA RESULT: -7.259430438      1.932      4.516
REMARK  6 active torsions:
REMARK  status: ('A' for Active; 'I' for Inactive)
REMARK    1  A    between atoms: C4_6  and  C5_7 
REMARK    2  A    between atoms: C5_7  and  N2_8 
REMARK    3  A    between atoms: C6_9  and  N3_10 
REMARK    4  A    between atoms: N3_10  and  C7_12 
REMARK    5  A    between atoms: C7_12  and  C8_13 
REMARK    6  A    between atoms: C8_13  and  N4_14 
ROOT
HETATM    1  N2  UNL     1      -7.893   0.096  18.656  1.00  0.00    -0.160 N 
HETATM    2  C6  UNL     1      -7.701   0.711  17.435  1.00  0.00     0.686 A 
HETATM    3  N5  UNL     1      -7.201  -0.202  16.583  1.00  0.00    -0.184 N 
ATOM      4  H5  UNL     1      -6.961  -0.029  15.607  1.00  0.00     0.184 HD
HETATM    5  C11 UNL     1      -7.068  -1.390  17.226  1.00  0.00     0.133 A 
HETATM    6  C12 UNL     1      -6.614  -2.622  16.806  1.00  0.00     0.155 A 
HETATM    7  F1  UNL     1      -6.180  -2.853  15.545  1.00  0.00    -0.203 F 
HETATM    8  C13 UNL     1      -6.617  -3.639  17.735  1.00  0.00     0.001 A 
HETATM    9  C14 UNL     1      -6.144  -4.987  17.352  1.00  0.00     0.054 C 
HETATM   10  C15 UNL     1      -7.056  -3.405  19.011  1.00  0.00     0.016 A 
HETATM   11  C16 UNL     1      -7.059  -4.515  20.016  1.00  0.00     0.069 C 
HETATM   12  N6  UNL     1      -7.490  -2.190  19.375  1.00  0.00    -0.343 N 
ATOM     13  H6  UNL     1      -7.812  -2.044  20.331  1.00  0.00     0.167 HD
HETATM   14  C17 UNL     1      -7.510  -1.154  18.507  1.00  0.00     0.155 A 
ENDROOT
BRANCH   1  15
HETATM   15  C5  UNL     1      -8.420   0.741  19.829  1.00  0.00     0.216 C 
BRANCH  15  16
HETATM   16  C4  UNL     1      -9.893   0.910  19.686  1.00  0.00     0.089 A 
HETATM   17  C3  UNL     1     -10.911   0.478  20.475  1.00  0.00     0.124 A 
HETATM   18  N1  UNL     1     -12.060   0.904  19.888  1.00  0.00    -0.348 N 
HETATM   19  C2  UNL     1     -11.741   1.580  18.768  1.00  0.00     0.119 A 
ATOM     20  H1  UNL     1     -13.004   0.740  20.236  1.00  0.00     0.167 HD
HETATM   21  C1  UNL     1     -12.709   2.226  17.810  1.00  0.00     0.098 C 
HETATM   22  O1  UNL     1     -10.439   1.567  18.674  1.00  0.00    -0.299 OA
ENDBRANCH  15  16
ENDBRANCH   1  15
BRANCH   2  23
HETATM   23  N3  UNL     1      -7.975   1.922  17.252  1.00  0.00    -0.203 N 
ATOM     24  H3  UNL     1      -8.423   2.298  18.088  1.00  0.00     0.183 HD
BRANCH  23  25
HETATM   25  C7  UNL     1      -7.877   2.919  16.298  1.00  0.00     0.108 C 
BRANCH  25  26
HETATM   26  C8  UNL     1      -8.853   2.778  15.180  1.00  0.00     0.316 C 
BRANCH  26  27
HETATM   27  N4  UNL     1      -8.260   2.258  13.966  1.00  0.00     0.084 N 
HETATM   28  C9  UNL     1      -6.819   2.252  14.015  1.00  0.00     0.309 C 
HETATM   29  C10 UNL     1      -8.827   1.034  13.514  1.00  0.00     0.309 C 
ENDBRANCH  26  27
ENDBRANCH  25  26
ENDBRANCH  23  25
ENDBRANCH   2  23
TORSDOF 6
ENDMDL
MODEL 5
REMARK VINA RESULT: -7.245274680      2.483      4.873
REMARK  6 active torsions:
REMARK  status: ('A' for Active; 'I' for Inactive)
REMARK    1  A    between atoms: C4_6  and  C5_7 
REMARK    2  A    between atoms: C5_7  and  N2_8 
REMARK    3  A    between atoms: C6_9  and  N3_10 
REMARK    4  A    between atoms: N3_10  and  C7_12 
REMARK    5  A    between atoms: C7_12  and  C8_13 
REMARK    6  A    between atoms: C8_13  and  N4_14 
ROOT
HETATM    1  N2  UNL     1      -7.857  -0.326  18.580  1.00  0.00    -0.160 N 
HETATM    2  C6  UNL     1      -7.714   0.315  17.365  1.00  0.00     0.686 A 
HETATM    3  N5  UNL     1      -7.170  -0.556  16.497  1.00  0.00    -0.184 N 
ATOM      4  H5  UNL     1      -6.951  -0.356  15.520  1.00  0.00     0.184 HD
HETATM    5  C11 UNL     1      -6.960  -1.742  17.122  1.00  0.00     0.133 A 
HETATM    6  C12 UNL     1      -6.437  -2.938  16.680  1.00  0.00     0.155 A 
HETATM    7  F1  UNL     1      -6.003  -3.127  15.412  1.00  0.00    -0.203 F 
HETATM    8  C13 UNL     1      -6.368  -3.965  17.596  1.00  0.00     0.001 A 
HETATM    9  C14 UNL     1      -5.820  -5.278  17.190  1.00  0.00     0.054 C 
HETATM   10  C15 UNL     1      -6.807  -3.775  18.880  1.00  0.00     0.016 A 
HETATM   11  C16 UNL     1      -6.732  -4.895  19.869  1.00  0.00     0.069 C 
HETATM   12  N6  UNL     1      -7.308  -2.593  19.264  1.00  0.00    -0.343 N 
ATOM     13  H6  UNL     1      -7.629  -2.478  20.225  1.00  0.00     0.167 HD
HETATM   14  C17 UNL     1      -7.400  -1.549  18.410  1.00  0.00     0.155 A 
ENDROOT
BRANCH   1  15
HETATM   15  C5  UNL     1      -8.408   0.271  19.767  1.00  0.00     0.216 C 
BRANCH  15  16
HETATM   16  C4  UNL     1      -7.355   1.064  20.460  1.00  0.00     0.089 A 
HETATM   17  C3  UNL     1      -6.498   0.714  21.455  1.00  0.00     0.124 A 
HETATM   18  N1  UNL     1      -5.747   1.815  21.720  1.00  0.00    -0.348 N 
HETATM   19  C2  UNL     1      -6.143   2.809  20.902  1.00  0.00     0.119 A 
ATOM     20  H1  UNL     1      -5.008   1.879  22.420  1.00  0.00     0.167 HD
HETATM   21  C1  UNL     1      -5.577   4.205  20.857  1.00  0.00     0.098 C 
HETATM   22  O1  UNL     1      -7.105   2.330  20.161  1.00  0.00    -0.299 OA
ENDBRANCH  15  16
ENDBRANCH   1  15
BRANCH   2  23
HETATM   23  N3  UNL     1      -8.063   1.509  17.201  1.00  0.00    -0.203 N 
ATOM     24  H3  UNL     1      -8.655   1.799  17.980  1.00  0.00     0.183 HD
BRANCH  23  25
HETATM   25  C7  UNL     1      -7.916   2.565  16.320  1.00  0.00     0.108 C 
BRANCH  25  26
HETATM   26  C8  UNL     1      -8.862   2.522  15.169  1.00  0.00     0.316 C 
BRANCH  26  27
HETATM   27  N4  UNL     1      -8.256   2.026  13.950  1.00  0.00     0.084 N 
HETATM   28  C9  UNL     1      -6.816   2.080  13.990  1.00  0.00     0.309 C 
HETATM   29  C10 UNL     1      -8.775   0.778  13.503  1.00  0.00     0.309 C 
ENDBRANCH  26  27
ENDBRANCH  25  26
ENDBRANCH  23  25
ENDBRANCH   2  23
TORSDOF 6
ENDMDL
