MODEL 1
REMARK VINA RESULT: -9.353948111      0.000      0.000
REMARK  12 active torsions:
REMARK  status: ('A' for Active; 'I' for Inactive)
REMARK    1  A    between atoms: N3_6  and  C3_7 
REMARK    2  A    between atoms: C5_9  and  N4_10 
REMARK    3  A    between atoms: C6_16  and  C7_17 
REMARK    4  A    between atoms: C7_17  and  N8_18 
REMARK    5  A    between atoms: C7_17  and  C12_32 
REMARK    6  A    between atoms: N8_18  and  C8_20 
REMARK    7  A    between atoms: C10_26  and  N11_27 
REMARK    8  A    between atoms: C12_32  and  O1_33 
REMARK    9  A    between atoms: C12_32  and  N13_35 
REMARK   10  A    between atoms: N13_35  and  C13_37 
REMARK   11  A    between atoms: C16_40  and  N14_41 
REMARK   12  A    between atoms: C18_49  and  N17_50 
ROOT
HETATM    1  C7  UNL     1      16.653  49.630  -7.635  1.00  0.00     0.107 C 
ENDROOT
BRANCH   1   2
HETATM    2  C6  UNL     1      15.485  48.945  -7.093  1.00  0.00     0.170 A 
HETATM    3  N4  UNL     1      15.495  47.784  -6.406  1.00  0.00    -0.203 N 
HETATM    4  N5  UNL     1      14.246  47.440  -6.094  1.00  0.00     0.004 NA
HETATM    5  N6  UNL     1      13.434  48.374  -6.575  1.00  0.00    -0.224 N 
HETATM    6  N7  UNL     1      14.193  49.265  -7.168  1.00  0.00    -0.269 N 
ATOM      7  H6  UNL     1      12.417  48.395  -6.498  1.00  0.00     0.205 HD
ATOM      8  H7  UNL     1      13.837  50.101  -7.632  1.00  0.00     0.190 HD
BRANCH   3   9
HETATM    9  C5  UNL     1      16.603  47.012  -6.029  1.00  0.00     0.147 A 
HETATM   10  C4  UNL     1      17.319  46.216  -6.898  1.00  0.00     0.103 A 
HETATM   11  C3  UNL     1      18.399  45.510  -6.427  1.00  0.00     0.162 A 
HETATM   12  N18 UNL     1      18.757  45.596  -5.112  1.00  0.00    -0.174 N 
HETATM   13  C18 UNL     1      18.065  46.367  -4.260  1.00  0.00     0.679 A 
ATOM     14  H18 UNL     1      19.561  45.067  -4.773  1.00  0.00     0.186 HD
HETATM   15  N16 UNL     1      17.022  47.039  -4.752  1.00  0.00    -0.175 N 
ATOM     16  H16 UNL     1      16.497  47.625  -4.103  1.00  0.00     0.186 HD
BRANCH  11  17
HETATM   17  N3  UNL     1      19.167  44.676  -7.293  1.00  0.00    -0.161 N 
HETATM   18  N2  UNL     1      18.970  43.398  -7.574  1.00  0.00     0.004 NA
HETATM   19  N1  UNL     1      19.885  42.958  -8.420  1.00  0.00    -0.270 N 
HETATM   20  C2  UNL     1      20.701  43.988  -8.694  1.00  0.00     0.106 A 
ATOM     21  H1  UNL     1      19.959  42.012  -8.794  1.00  0.00     0.185 HD
HETATM   22  C1  UNL     1      21.873  43.932  -9.607  1.00  0.00     0.091 C 
HETATM   23  N19 UNL     1      20.229  45.027  -7.985  1.00  0.00    -0.267 N 
ATOM     24  H19 UNL     1      20.640  45.960  -7.982  1.00  0.00     0.190 HD
ENDBRANCH  11  17
BRANCH  13  25
HETATM   25  N17 UNL     1      18.337  46.503  -3.007  1.00  0.00    -0.234 N 
ATOM     26 2H17 UNL     1      19.087  47.087  -2.636  1.00  0.00     0.174 HD
ATOM     27 1H17 UNL     1      17.764  45.993  -2.335  1.00  0.00     0.174 HD
ENDBRANCH  13  25
ENDBRANCH   3   9
ENDBRANCH   1   2
BRANCH   1  28
HETATM   28  N8  UNL     1      17.443  50.455  -6.794  1.00  0.00    -0.337 N 
ATOM     29  H8  UNL     1      18.433  50.359  -7.014  1.00  0.00     0.167 HD
BRANCH  28  30
HETATM   30  C8  UNL     1      17.247  51.362  -5.749  1.00  0.00     0.135 A 
HETATM   31  N9  UNL     1      17.032  51.056  -4.478  1.00  0.00    -0.337 N 
HETATM   32  C9  UNL     1      16.849  51.938  -3.475  1.00  0.00     0.183 A 
ATOM     33  H9  UNL     1      17.000  50.065  -4.237  1.00  0.00     0.168 HD
HETATM   34  N10 UNL     1      16.887  53.237  -3.774  1.00  0.00    -0.337 N 
HETATM   35  C10 UNL     1      17.094  53.648  -5.011  1.00  0.00     0.128 A 
ATOM     36  H10 UNL     1      16.754  53.925  -3.033  1.00  0.00     0.168 HD
HETATM   37  C11 UNL     1      17.279  52.744  -6.029  1.00  0.00     0.133 A 
HETATM   38  N12 UNL     1      17.502  53.233  -7.356  1.00  0.00    -0.094 NA
BRANCH  35  39
HETATM   39  N11 UNL     1      17.125  54.928  -5.286  1.00  0.00    -0.384 N 
ATOM     40 2H11 UNL     1      16.797  55.592  -4.584  1.00  0.00     0.157 HD
ATOM     41 1H11 UNL     1      17.473  55.253  -6.189  1.00  0.00     0.157 HD
ENDBRANCH  35  39
ENDBRANCH  28  30
ENDBRANCH   1  28
BRANCH   1  42
HETATM   42  C12 UNL     1      16.560  50.138  -9.025  1.00  0.00     0.273 C 
BRANCH  42  43
HETATM   43  O1  UNL     1      15.694  51.283  -9.067  1.00  0.00    -0.371 OA
ATOM     44  H1  UNL     1      15.868  51.790  -9.851  1.00  0.00     0.212 HD
ENDBRANCH  42  43
BRANCH  42  45
HETATM   45  N13 UNL     1      17.726  50.408  -9.778  1.00  0.00    -0.358 N 
ATOM     46  H13 UNL     1      18.039  51.369  -9.918  1.00  0.00     0.162 HD
BRANCH  45  47
HETATM   47  C13 UNL     1      18.479  49.300 -10.353  1.00  0.00     0.045 A 
HETATM   48  C14 UNL     1      17.838  48.124 -10.614  1.00  0.00     0.034 A 
HETATM   49  C15 UNL     1      18.585  47.079 -11.173  1.00  0.00     0.050 A 
HETATM   50  C16 UNL     1      19.916  47.302 -11.424  1.00  0.00     0.098 A 
HETATM   51  N15 UNL     1      20.527  48.468 -11.159  1.00  0.00    -0.351 N 
HETATM   52  C17 UNL     1      19.820  49.483 -10.621  1.00  0.00     0.119 A 
ATOM     53  H15 UNL     1      21.519  48.586 -11.362  1.00  0.00     0.166 HD
BRANCH  50  54
HETATM   54  N14 UNL     1      20.581  46.302 -11.947  1.00  0.00    -0.385 N 
ATOM     55 2H14 UNL     1      20.622  46.175 -12.958  1.00  0.00     0.157 HD
ATOM     56 1H14 UNL     1      21.044  45.676 -11.289  1.00  0.00     0.157 HD
ENDBRANCH  50  54
ENDBRANCH  45  47
ENDBRANCH  42  45
ENDBRANCH   1  42
TORSDOF 12
ENDMDL
MODEL 2
REMARK VINA RESULT: -9.282904148      0.450      1.225
REMARK  12 active torsions:
REMARK  status: ('A' for Active; 'I' for Inactive)
REMARK    1  A    between atoms: N3_6  and  C3_7 
REMARK    2  A    between atoms: C5_9  and  N4_10 
REMARK    3  A    between atoms: C6_16  and  C7_17 
REMARK    4  A    between atoms: C7_17  and  N8_18 
REMARK    5  A    between atoms: C7_17  and  C12_32 
REMARK    6  A    between atoms: N8_18  and  C8_20 
REMARK    7  A    between atoms: C10_26  and  N11_27 
REMARK    8  A    between atoms: C12_32  and  O1_33 
REMARK    9  A    between atoms: C12_32  and  N13_35 
REMARK   10  A    between atoms: N13_35  and  C13_37 
REMARK   11  A    between atoms: C16_40  and  N14_41 
REMARK   12  A    between atoms: C18_49  and  N17_50 
ROOT
HETATM    1  C7  UNL     1      16.675  49.694  -7.670  1.00  0.00     0.107 C 
ENDROOT
BRANCH   1   2
HETATM    2  C6  UNL     1      15.523  48.992  -7.114  1.00  0.00     0.170 A 
HETATM    3  N4  UNL     1      15.559  47.841  -6.411  1.00  0.00    -0.203 N 
HETATM    4  N5  UNL     1      14.319  47.476  -6.091  1.00  0.00     0.004 NA
HETATM    5  N6  UNL     1      13.486  48.385  -6.583  1.00  0.00    -0.224 N 
HETATM    6  N7  UNL     1      14.224  49.283  -7.192  1.00  0.00    -0.269 N 
ATOM      7  H6  UNL     1      12.469  48.385  -6.504  1.00  0.00     0.205 HD
ATOM      8  H7  UNL     1      13.850  50.105  -7.667  1.00  0.00     0.190 HD
BRANCH   3   9
HETATM    9  C5  UNL     1      16.684  47.099  -6.025  1.00  0.00     0.147 A 
HETATM   10  C4  UNL     1      17.389  46.271  -6.874  1.00  0.00     0.103 A 
HETATM   11  C3  UNL     1      18.487  45.598  -6.396  1.00  0.00     0.162 A 
HETATM   12  N18 UNL     1      18.875  45.748  -5.096  1.00  0.00    -0.174 N 
HETATM   13  C18 UNL     1      18.195  46.552  -4.264  1.00  0.00     0.679 A 
ATOM     14  H18 UNL     1      19.693  45.244  -4.753  1.00  0.00     0.186 HD
HETATM   15  N16 UNL     1      17.133  47.190  -4.762  1.00  0.00    -0.175 N 
ATOM     16  H16 UNL     1      16.618  47.800  -4.128  1.00  0.00     0.186 HD
BRANCH  11  17
HETATM   17  N3  UNL     1      19.243  44.732  -7.242  1.00  0.00    -0.161 N 
HETATM   18  N2  UNL     1      19.071  43.434  -7.437  1.00  0.00     0.004 NA
HETATM   19  N1  UNL     1      19.965  42.967  -8.291  1.00  0.00    -0.270 N 
HETATM   20  C2  UNL     1      20.740  43.998  -8.660  1.00  0.00     0.106 A 
ATOM     21  H1  UNL     1      20.049  42.002  -8.610  1.00  0.00     0.185 HD
HETATM   22  C1  UNL     1      21.876  43.916  -9.615  1.00  0.00     0.091 C 
HETATM   23  N19 UNL     1      20.268  45.066  -7.996  1.00  0.00    -0.267 N 
ATOM     24  H19 UNL     1      20.652  46.009  -8.065  1.00  0.00     0.190 HD
ENDBRANCH  11  17
BRANCH  13  25
HETATM   25  N17 UNL     1      18.495  46.749  -3.026  1.00  0.00    -0.234 N 
ATOM     26 2H17 UNL     1      18.235  47.577  -2.491  1.00  0.00     0.174 HD
ATOM     27 1H17 UNL     1      19.031  46.028  -2.543  1.00  0.00     0.174 HD
ENDBRANCH  13  25
ENDBRANCH   3   9
ENDBRANCH   1   2
BRANCH   1  28
HETATM   28  N8  UNL     1      17.446  50.550  -6.844  1.00  0.00    -0.337 N 
ATOM     29  H8  UNL     1      18.412  50.229  -6.786  1.00  0.00     0.167 HD
BRANCH  28  30
HETATM   30  C8  UNL     1      17.258  51.709  -6.088  1.00  0.00     0.135 A 
HETATM   31  N9  UNL     1      17.253  52.952  -6.549  1.00  0.00    -0.337 N 
HETATM   32  C9  UNL     1      17.065  54.065  -5.812  1.00  0.00     0.183 A 
ATOM     33  H9  UNL     1      17.404  53.076  -7.550  1.00  0.00     0.168 HD
HETATM   34  N10 UNL     1      16.867  53.918  -4.502  1.00  0.00    -0.337 N 
HETATM   35  C10 UNL     1      16.856  52.723  -3.942  1.00  0.00     0.128 A 
ATOM     36  H10 UNL     1      16.721  54.744  -3.922  1.00  0.00     0.168 HD
HETATM   37  C11 UNL     1      17.047  51.592  -4.697  1.00  0.00     0.133 A 
HETATM   38  N12 UNL     1      17.026  50.315  -4.050  1.00  0.00    -0.094 NA
BRANCH  35  39
HETATM   39  N11 UNL     1      16.661  52.599  -2.653  1.00  0.00    -0.384 N 
ATOM     40 2H11 UNL     1      16.404  53.424  -2.110  1.00  0.00     0.157 HD
ATOM     41 1H11 UNL     1      16.766  51.690  -2.201  1.00  0.00     0.157 HD
ENDBRANCH  35  39
ENDBRANCH  28  30
ENDBRANCH   1  28
BRANCH   1  42
HETATM   42  C12 UNL     1      16.569  50.175  -9.068  1.00  0.00     0.273 C 
BRANCH  42  43
HETATM   43  O1  UNL     1      15.705  51.321  -9.123  1.00  0.00    -0.371 OA
ATOM     44  H1  UNL     1      15.181  51.291  -9.915  1.00  0.00     0.212 HD
ENDBRANCH  42  43
BRANCH  42  45
HETATM   45  N13 UNL     1      17.729  50.428  -9.838  1.00  0.00    -0.358 N 
ATOM     46  H13 UNL     1      18.040  51.386 -10.002  1.00  0.00     0.162 HD
BRANCH  45  47
HETATM   47  C13 UNL     1      18.476  49.307 -10.395  1.00  0.00     0.045 A 
HETATM   48  C14 UNL     1      17.829  48.132 -10.641  1.00  0.00     0.034 A 
HETATM   49  C15 UNL     1      18.570  47.074 -11.183  1.00  0.00     0.050 A 
HETATM   50  C16 UNL     1      19.903  47.286 -11.434  1.00  0.00     0.098 A 
HETATM   51  N15 UNL     1      20.521  48.453 -11.184  1.00  0.00    -0.351 N 
HETATM   52  C17 UNL     1      19.819  49.479 -10.662  1.00  0.00     0.119 A 
ATOM     53  H15 UNL     1      21.514  48.561 -11.386  1.00  0.00     0.166 HD
BRANCH  50  54
HETATM   54  N14 UNL     1      20.564  46.274 -11.941  1.00  0.00    -0.385 N 
ATOM     55 2H14 UNL     1      20.471  46.033 -12.927  1.00  0.00     0.157 HD
ATOM     56 1H14 UNL     1      21.162  45.759 -11.296  1.00  0.00     0.157 HD
ENDBRANCH  50  54
ENDBRANCH  45  47
ENDBRANCH  42  45
ENDBRANCH   1  42
TORSDOF 12
ENDMDL
MODEL 3
REMARK VINA RESULT: -8.992256356      1.290      2.646
REMARK  12 active torsions:
REMARK  status: ('A' for Active; 'I' for Inactive)
REMARK    1  A    between atoms: N3_6  and  C3_7 
REMARK    2  A    between atoms: C5_9  and  N4_10 
REMARK    3  A    between atoms: C6_16  and  C7_17 
REMARK    4  A    between atoms: C7_17  and  N8_18 
REMARK    5  A    between atoms: C7_17  and  C12_32 
REMARK    6  A    between atoms: N8_18  and  C8_20 
REMARK    7  A    between atoms: C10_26  and  N11_27 
REMARK    8  A    between atoms: C12_32  and  O1_33 
REMARK    9  A    between atoms: C12_32  and  N13_35 
REMARK   10  A    between atoms: N13_35  and  C13_37 
REMARK   11  A    between atoms: C16_40  and  N14_41 
REMARK   12  A    between atoms: C18_49  and  N17_50 
ROOT
HETATM    1  C7  UNL     1      16.683  49.665  -7.804  1.00  0.00     0.107 C 
ENDROOT
BRANCH   1   2
HETATM    2  C6  UNL     1      15.586  48.895  -7.230  1.00  0.00     0.170 A 
HETATM    3  N4  UNL     1      15.680  47.663  -6.687  1.00  0.00    -0.203 N 
HETATM    4  N5  UNL     1      14.475  47.257  -6.293  1.00  0.00     0.004 NA
HETATM    5  N6  UNL     1      13.606  48.219  -6.578  1.00  0.00    -0.224 N 
HETATM    6  N7  UNL     1      14.288  49.190  -7.137  1.00  0.00    -0.269 N 
ATOM      7  H6  UNL     1      12.602  48.207  -6.396  1.00  0.00     0.205 HD
ATOM      8  H7  UNL     1      13.877  50.065  -7.463  1.00  0.00     0.190 HD
BRANCH   3   9
HETATM    9  C5  UNL     1      16.831  46.881  -6.516  1.00  0.00     0.147 A 
HETATM   10  C4  UNL     1      17.314  46.480  -5.287  1.00  0.00     0.103 A 
HETATM   11  C3  UNL     1      18.445  45.702  -5.232  1.00  0.00     0.162 A 
HETATM   12  N18 UNL     1      19.082  45.331  -6.381  1.00  0.00    -0.174 N 
HETATM   13  C18 UNL     1      18.618  45.717  -7.580  1.00  0.00     0.679 A 
ATOM     14  H18 UNL     1      19.921  44.752  -6.328  1.00  0.00     0.186 HD
HETATM   15  N16 UNL     1      17.518  46.472  -7.596  1.00  0.00    -0.175 N 
ATOM     16  H16 UNL     1      17.167  46.764  -8.508  1.00  0.00     0.186 HD
BRANCH  11  17
HETATM   17  N3  UNL     1      18.976  45.266  -3.982  1.00  0.00    -0.161 N 
HETATM   18  N2  UNL     1      18.498  45.499  -2.770  1.00  0.00     0.004 NA
HETATM   19  N1  UNL     1      19.259  44.935  -1.850  1.00  0.00    -0.270 N 
HETATM   20  C2  UNL     1      20.264  44.316  -2.489  1.00  0.00     0.106 A 
ATOM     21  H1  UNL     1      19.111  44.965  -0.841  1.00  0.00     0.185 HD
HETATM   22  C1  UNL     1      21.355  43.552  -1.829  1.00  0.00     0.091 C 
HETATM   23  N19 UNL     1      20.058  44.541  -3.797  1.00  0.00    -0.267 N 
ATOM     24  H19 UNL     1      20.659  44.197  -4.546  1.00  0.00     0.190 HD
ENDBRANCH  11  17
BRANCH  13  25
HETATM   25  N17 UNL     1      19.159  45.410  -8.709  1.00  0.00    -0.234 N 
ATOM     26 2H17 UNL     1      19.578  46.081  -9.353  1.00  0.00     0.174 HD
ATOM     27 1H17 UNL     1      19.172  44.427  -8.983  1.00  0.00     0.174 HD
ENDBRANCH  13  25
ENDBRANCH   3   9
ENDBRANCH   1   2
BRANCH   1  28
HETATM   28  N8  UNL     1      17.480  50.490  -6.970  1.00  0.00    -0.337 N 
ATOM     29  H8  UNL     1      18.463  50.439  -7.238  1.00  0.00     0.167 HD
BRANCH  28  30
HETATM   30  C8  UNL     1      17.301  51.351  -5.885  1.00  0.00     0.135 A 
HETATM   31  N9  UNL     1      17.114  50.992  -4.623  1.00  0.00    -0.337 N 
HETATM   32  C9  UNL     1      16.947  51.831  -3.582  1.00  0.00     0.183 A 
ATOM     33  H9  UNL     1      17.095  49.992  -4.423  1.00  0.00     0.168 HD
HETATM   34  N10 UNL     1      16.969  53.141  -3.827  1.00  0.00    -0.337 N 
HETATM   35  C10 UNL     1      17.147  53.604  -5.051  1.00  0.00     0.128 A 
ATOM     36  H10 UNL     1      16.847  53.797  -3.057  1.00  0.00     0.168 HD
HETATM   37  C11 UNL     1      17.317  52.745  -6.109  1.00  0.00     0.133 A 
HETATM   38  N12 UNL     1      17.509  53.289  -7.419  1.00  0.00    -0.094 NA
BRANCH  35  39
HETATM   39  N11 UNL     1      17.165  54.895  -5.274  1.00  0.00    -0.384 N 
ATOM     40 2H11 UNL     1      17.378  55.230  -6.213  1.00  0.00     0.157 HD
ATOM     41 1H11 UNL     1      16.969  55.551  -4.517  1.00  0.00     0.157 HD
ENDBRANCH  35  39
ENDBRANCH  28  30
ENDBRANCH   1  28
BRANCH   1  42
HETATM   42  C12 UNL     1      16.480  50.233  -9.159  1.00  0.00     0.273 C 
BRANCH  42  43
HETATM   43  O1  UNL     1      15.634  51.391  -9.079  1.00  0.00    -0.371 OA
ATOM     44  H1  UNL     1      15.559  51.793  -9.936  1.00  0.00     0.212 HD
ENDBRANCH  42  43
BRANCH  42  45
HETATM   45  N13 UNL     1      17.583  50.517  -9.999  1.00  0.00    -0.358 N 
ATOM     46  H13 UNL     1      17.806  51.481 -10.247  1.00  0.00     0.162 HD
BRANCH  45  47
HETATM   47  C13 UNL     1      18.397  49.420 -10.506  1.00  0.00     0.045 A 
HETATM   48  C14 UNL     1      17.785  48.283 -10.945  1.00  0.00     0.034 A 
HETATM   49  C15 UNL     1      18.592  47.248 -11.434  1.00  0.00     0.050 A 
HETATM   50  C16 UNL     1      19.951  47.442 -11.441  1.00  0.00     0.098 A 
HETATM   51  N15 UNL     1      20.534  48.570 -11.003  1.00  0.00    -0.351 N 
HETATM   52  C17 UNL     1      19.768  49.574 -10.531  1.00  0.00     0.119 A 
ATOM     53  H15 UNL     1      21.549  48.666 -11.028  1.00  0.00     0.166 HD
BRANCH  50  54
HETATM   54  N14 UNL     1      20.674  46.452 -11.905  1.00  0.00    -0.385 N 
ATOM     55 2H14 UNL     1      21.016  45.720 -11.283  1.00  0.00     0.157 HD
ATOM     56 1H14 UNL     1      20.864  46.465 -12.907  1.00  0.00     0.157 HD
ENDBRANCH  50  54
ENDBRANCH  45  47
ENDBRANCH  42  45
ENDBRANCH   1  42
TORSDOF 12
ENDMDL
MODEL 4
REMARK VINA RESULT: -8.785829219      1.262      1.402
REMARK  12 active torsions:
REMARK  status: ('A' for Active; 'I' for Inactive)
REMARK    1  A    between atoms: N3_6  and  C3_7 
REMARK    2  A    between atoms: C5_9  and  N4_10 
REMARK    3  A    between atoms: C6_16  and  C7_17 
REMARK    4  A    between atoms: C7_17  and  N8_18 
REMARK    5  A    between atoms: C7_17  and  C12_32 
REMARK    6  A    between atoms: N8_18  and  C8_20 
REMARK    7  A    between atoms: C10_26  and  N11_27 
REMARK    8  A    between atoms: C12_32  and  O1_33 
REMARK    9  A    between atoms: C12_32  and  N13_35 
REMARK   10  A    between atoms: N13_35  and  C13_37 
REMARK   11  A    between atoms: C16_40  and  N14_41 
REMARK   12  A    between atoms: C18_49  and  N17_50 
ROOT
HETATM    1  C7  UNL     1      16.583  49.499  -7.430  1.00  0.00     0.107 C 
ENDROOT
BRANCH   1   2
HETATM    2  C6  UNL     1      15.324  48.998  -6.892  1.00  0.00     0.170 A 
HETATM    3  N4  UNL     1      15.188  48.104  -5.892  1.00  0.00    -0.203 N 
HETATM    4  N5  UNL     1      13.896  47.856  -5.686  1.00  0.00     0.004 NA
HETATM    5  N6  UNL     1      13.199  48.587  -6.548  1.00  0.00    -0.224 N 
HETATM    6  N7  UNL     1      14.069  49.263  -7.260  1.00  0.00    -0.269 N 
ATOM      7  H6  UNL     1      12.183  48.618  -6.639  1.00  0.00     0.205 HD
ATOM      8  H7  UNL     1      13.818  49.912  -8.005  1.00  0.00     0.190 HD
BRANCH   3   9
HETATM    9  C5  UNL     1      16.199  47.499  -5.131  1.00  0.00     0.147 A 
HETATM   10  C4  UNL     1      16.955  46.429  -5.565  1.00  0.00     0.103 A 
HETATM   11  C3  UNL     1      17.931  45.920  -4.743  1.00  0.00     0.162 A 
HETATM   12  N18 UNL     1      18.149  46.468  -3.511  1.00  0.00    -0.174 N 
HETATM   13  C18 UNL     1      17.418  47.508  -3.082  1.00  0.00     0.679 A 
ATOM     14  H18 UNL     1      18.877  46.081  -2.910  1.00  0.00     0.186 HD
HETATM   15  N16 UNL     1      16.479  47.977  -3.906  1.00  0.00    -0.175 N 
ATOM     16  H16 UNL     1      15.924  48.767  -3.578  1.00  0.00     0.186 HD
BRANCH  11  17
HETATM   17  N3  UNL     1      18.735  44.815  -5.155  1.00  0.00    -0.161 N 
HETATM   18  N2  UNL     1      18.360  43.752  -5.848  1.00  0.00     0.004 NA
HETATM   19  N1  UNL     1      19.381  42.936  -6.041  1.00  0.00    -0.270 N 
HETATM   20  C2  UNL     1      20.451  43.490  -5.451  1.00  0.00     0.106 A 
ATOM     21  H1  UNL     1      19.359  42.048  -6.543  1.00  0.00     0.185 HD
HETATM   22  C1  UNL     1      21.816  42.901  -5.428  1.00  0.00     0.091 C 
HETATM   23  N19 UNL     1      20.017  44.644  -4.917  1.00  0.00    -0.267 N 
ATOM     24  H19 UNL     1      20.602  45.298  -4.397  1.00  0.00     0.190 HD
ENDBRANCH  11  17
BRANCH  13  25
HETATM   25  N17 UNL     1      17.561  48.081  -1.936  1.00  0.00    -0.234 N 
ATOM     26 2H17 UNL     1      16.825  48.166  -1.235  1.00  0.00     0.174 HD
ATOM     27 1H17 UNL     1      18.472  48.479  -1.710  1.00  0.00     0.174 HD
ENDBRANCH  13  25
ENDBRANCH   3   9
ENDBRANCH   1   2
BRANCH   1  28
HETATM   28  N8  UNL     1      17.387  50.371  -6.653  1.00  0.00    -0.337 N 
ATOM     29  H8  UNL     1      18.371  50.284  -6.905  1.00  0.00     0.167 HD
BRANCH  28  30
HETATM   30  C8  UNL     1      17.213  51.317  -5.640  1.00  0.00     0.135 A 
HETATM   31  N9  UNL     1      16.987  51.059  -4.359  1.00  0.00    -0.337 N 
HETATM   32  C9  UNL     1      16.826  51.978  -3.387  1.00  0.00     0.183 A 
ATOM     33  H9  UNL     1      16.932  50.078  -4.086  1.00  0.00     0.168 HD
HETATM   34  N10 UNL     1      16.895  53.265  -3.729  1.00  0.00    -0.337 N 
HETATM   35  C10 UNL     1      17.114  53.630  -4.978  1.00  0.00     0.128 A 
ATOM     36  H10 UNL     1      16.778  53.981  -3.012  1.00  0.00     0.168 HD
HETATM   37  C11 UNL     1      17.278  52.688  -5.966  1.00  0.00     0.133 A 
HETATM   38  N12 UNL     1      17.515  53.127  -7.308  1.00  0.00    -0.094 NA
BRANCH  35  39
HETATM   39  N11 UNL     1      17.177  54.899  -5.296  1.00  0.00    -0.384 N 
ATOM     40 2H11 UNL     1      16.823  55.199  -6.205  1.00  0.00     0.157 HD
ATOM     41 1H11 UNL     1      17.576  55.574  -4.643  1.00  0.00     0.157 HD
ENDBRANCH  35  39
ENDBRANCH  28  30
ENDBRANCH   1  28
BRANCH   1  42
HETATM   42  C12 UNL     1      16.631  49.803  -8.880  1.00  0.00     0.273 C 
BRANCH  42  43
HETATM   43  O1  UNL     1      15.656  50.809  -9.198  1.00  0.00    -0.371 OA
ATOM     44  H1  UNL     1      14.884  50.690  -8.659  1.00  0.00     0.212 HD
ENDBRANCH  42  43
BRANCH  42  45
HETATM   45  N13 UNL     1      17.854  50.122  -9.515  1.00  0.00    -0.358 N 
ATOM     46  H13 UNL     1      18.207  51.079  -9.504  1.00  0.00     0.162 HD
BRANCH  45  47
HETATM   47  C13 UNL     1      18.607  49.069 -10.186  1.00  0.00     0.045 A 
HETATM   48  C14 UNL     1      18.000  47.875 -10.442  1.00  0.00     0.034 A 
HETATM   49  C15 UNL     1      18.746  46.885 -11.094  1.00  0.00     0.050 A 
HETATM   50  C16 UNL     1      20.043  47.177 -11.436  1.00  0.00     0.098 A 
HETATM   51  N15 UNL     1      20.622  48.361 -11.173  1.00  0.00    -0.351 N 
HETATM   52  C17 UNL     1      19.915  49.323 -10.546  1.00  0.00     0.119 A 
ATOM     53  H15 UNL     1      21.590  48.530 -11.446  1.00  0.00     0.166 HD
BRANCH  50  54
HETATM   54  N14 UNL     1      20.709  46.227 -12.044  1.00  0.00    -0.385 N 
ATOM     55 2H14 UNL     1      20.695  45.271 -11.688  1.00  0.00     0.157 HD
ATOM     56 1H14 UNL     1      21.228  46.503 -12.877  1.00  0.00     0.157 HD
ENDBRANCH  50  54
ENDBRANCH  45  47
ENDBRANCH  42  45
ENDBRANCH   1  42
TORSDOF 12
ENDMDL
MODEL 5
REMARK VINA RESULT: -8.785821934      2.298      3.505
REMARK  12 active torsions:
REMARK  status: ('A' for Active; 'I' for Inactive)
REMARK    1  A    between atoms: N3_6  and  C3_7 
REMARK    2  A    between atoms: C5_9  and  N4_10 
REMARK    3  A    between atoms: C6_16  and  C7_17 
REMARK    4  A    between atoms: C7_17  and  N8_18 
REMARK    5  A    between atoms: C7_17  and  C12_32 
REMARK    6  A    between atoms: N8_18  and  C8_20 
REMARK    7  A    between atoms: C10_26  and  N11_27 
REMARK    8  A    between atoms: C12_32  and  O1_33 
REMARK    9  A    between atoms: C12_32  and  N13_35 
REMARK   10  A    between atoms: N13_35  and  C13_37 
REMARK   11  A    between atoms: C16_40  and  N14_41 
REMARK   12  A    between atoms: C18_49  and  N17_50 
ROOT
HETATM    1  C7  UNL     1      16.664  49.123  -8.027  1.00  0.00     0.107 C 
ENDROOT
BRANCH   1   2
HETATM    2  C6  UNL     1      16.314  47.809  -7.501  1.00  0.00     0.170 A 
HETATM    3  N4  UNL     1      17.158  46.770  -7.336  1.00  0.00    -0.203 N 
HETATM    4  N5  UNL     1      16.487  45.721  -6.863  1.00  0.00     0.004 NA
HETATM    5  N6  UNL     1      15.216  46.079  -6.723  1.00  0.00    -0.224 N 
HETATM    6  N7  UNL     1      15.132  47.330  -7.109  1.00  0.00    -0.269 N 
ATOM      7  H6  UNL     1      14.453  45.495  -6.381  1.00  0.00     0.205 HD
ATOM      8  H7  UNL     1      14.267  47.871  -7.111  1.00  0.00     0.190 HD
BRANCH   3   9
HETATM    9  C5  UNL     1      18.538  46.730  -7.583  1.00  0.00     0.147 A 
HETATM   10  C4  UNL     1      19.091  46.487  -8.823  1.00  0.00     0.103 A 
HETATM   11  C3  UNL     1      20.458  46.483  -8.958  1.00  0.00     0.162 A 
HETATM   12  N18 UNL     1      21.258  46.717  -7.877  1.00  0.00    -0.174 N 
HETATM   13  C18 UNL     1      20.728  46.954  -6.668  1.00  0.00     0.679 A 
ATOM     14  H18 UNL     1      22.272  46.712  -7.990  1.00  0.00     0.186 HD
HETATM   15  N16 UNL     1      19.396  46.950  -6.573  1.00  0.00    -0.175 N 
ATOM     16  H16 UNL     1      18.995  47.130  -5.653  1.00  0.00     0.186 HD
BRANCH  11  17
HETATM   17  N3  UNL     1      21.071  46.237 -10.224  1.00  0.00    -0.161 N 
HETATM   18  N2  UNL     1      20.661  46.637 -11.416  1.00  0.00     0.004 NA
HETATM   19  N1  UNL     1      21.484  46.217 -12.360  1.00  0.00    -0.270 N 
HETATM   20  C2  UNL     1      22.460  45.521 -11.756  1.00  0.00     0.106 A 
ATOM     21  H1  UNL     1      21.395  46.390 -13.361  1.00  0.00     0.185 HD
HETATM   22  C1  UNL     1      23.601  44.869 -12.450  1.00  0.00     0.091 C 
HETATM   23  N19 UNL     1      22.173  45.554 -10.444  1.00  0.00    -0.267 N 
ATOM     24  H19 UNL     1      22.734  45.109  -9.717  1.00  0.00     0.190 HD
ENDBRANCH  11  17
BRANCH  13  25
HETATM   25  N17 UNL     1      21.411  47.183  -5.599  1.00  0.00    -0.234 N 
ATOM     26 2H17 UNL     1      21.596  48.111  -5.217  1.00  0.00     0.174 HD
ATOM     27 1H17 UNL     1      21.796  46.384  -5.096  1.00  0.00     0.174 HD
ENDBRANCH  13  25
ENDBRANCH   3   9
ENDBRANCH   1   2
BRANCH   1  28
HETATM   28  N8  UNL     1      16.307  50.291  -7.307  1.00  0.00    -0.337 N 
ATOM     29  H8  UNL     1      15.716  50.902  -7.871  1.00  0.00     0.167 HD
BRANCH  28  30
HETATM   30  C8  UNL     1      16.535  50.842  -6.044  1.00  0.00     0.135 A 
HETATM   31  N9  UNL     1      16.269  50.267  -4.880  1.00  0.00    -0.337 N 
HETATM   32  C9  UNL     1      16.498  50.805  -3.665  1.00  0.00     0.183 A 
ATOM     33  H9  UNL     1      15.856  49.335  -4.906  1.00  0.00     0.168 HD
HETATM   34  N10 UNL     1      17.038  52.023  -3.615  1.00  0.00    -0.337 N 
HETATM   35  C10 UNL     1      17.338  52.684  -4.717  1.00  0.00     0.128 A 
ATOM     36  H10 UNL     1      17.222  52.452  -2.708  1.00  0.00     0.168 HD
HETATM   37  C11 UNL     1      17.104  52.130  -5.953  1.00  0.00     0.133 A 
HETATM   38  N12 UNL     1      17.446  52.881  -7.123  1.00  0.00    -0.094 NA
BRANCH  35  39
HETATM   39  N11 UNL     1      17.867  53.880  -4.648  1.00  0.00    -0.384 N 
ATOM     40 2H11 UNL     1      17.261  54.676  -4.449  1.00  0.00     0.157 HD
ATOM     41 1H11 UNL     1      18.868  54.010  -4.793  1.00  0.00     0.157 HD
ENDBRANCH  35  39
ENDBRANCH  28  30
ENDBRANCH   1  28
BRANCH   1  42
HETATM   42  C12 UNL     1      16.604  49.306  -9.497  1.00  0.00     0.273 C 
BRANCH  42  43
HETATM   43  O1  UNL     1      16.162  48.090 -10.121  1.00  0.00    -0.371 OA
ATOM     44  H1  UNL     1      16.743  47.867 -10.838  1.00  0.00     0.212 HD
ENDBRANCH  42  43
BRANCH  42  45
HETATM   45  N13 UNL     1      15.909  50.400 -10.065  1.00  0.00    -0.358 N 
ATOM     46  H13 UNL     1      14.890  50.392 -10.117  1.00  0.00     0.162 HD
BRANCH  45  47
HETATM   47  C13 UNL     1      16.662  51.539 -10.573  1.00  0.00     0.045 A 
HETATM   48  C14 UNL     1      16.198  52.801 -10.342  1.00  0.00     0.034 A 
HETATM   49  C15 UNL     1      16.946  53.878 -10.836  1.00  0.00     0.050 A 
HETATM   50  C16 UNL     1      18.101  53.596 -11.523  1.00  0.00     0.098 A 
HETATM   51  N15 UNL     1      18.539  52.345 -11.740  1.00  0.00    -0.351 N 
HETATM   52  C17 UNL     1      17.829  51.300 -11.269  1.00  0.00     0.119 A 
ATOM     53  H15 UNL     1      19.404  52.187 -12.257  1.00  0.00     0.166 HD
BRANCH  50  54
HETATM   54  N14 UNL     1      18.774  54.628 -11.969  1.00  0.00    -0.385 N 
ATOM     55 2H14 UNL     1      18.292  55.479 -12.257  1.00  0.00     0.157 HD
ATOM     56 1H14 UNL     1      19.787  54.522 -12.008  1.00  0.00     0.157 HD
ENDBRANCH  50  54
ENDBRANCH  45  47
ENDBRANCH  42  45
ENDBRANCH   1  42
TORSDOF 12
ENDMDL
