MODEL 1
REMARK VINA RESULT: -8.601728997      0.000      0.000
REMARK  9 active torsions:
REMARK  status: ('A' for Active; 'I' for Inactive)
REMARK    1  A    between atoms: C2_3  and  N2_4 
REMARK    2  A    between atoms: N2_4  and  C3_6 
REMARK    3  A    between atoms: C4_9  and  N4_10 
REMARK    4  A    between atoms: N4_10  and  C5_12 
REMARK    5  A    between atoms: C9_16  and  N5_17 
REMARK    6  A    between atoms: N5_17  and  C10_19 
REMARK    7  A    between atoms: N6_22  and  C13_23 
REMARK    8  A    between atoms: C13_23  and  C14_24 
REMARK    9  A    between atoms: C14_24  and  N7_25 
ROOT
HETATM    1  N1  UNL     1     -25.698  11.011  -4.030  1.00  0.00    -0.195 NA
HETATM    2  C1  UNL     1     -24.937  11.856  -4.294  1.00  0.00     0.091 C 
HETATM    3  C2  UNL     1     -23.963  12.915  -4.644  1.00  0.00     0.136 A 
HETATM    4  C21 UNL     1     -24.051  14.177  -3.773  1.00  0.00     0.051 A 
HETATM    5  C22 UNL     1     -24.555  14.188  -5.174  1.00  0.00     0.051 A 
ENDROOT
BRANCH   3   6
HETATM    6  N2  UNL     1     -22.634  12.508  -4.888  1.00  0.00    -0.204 N 
ATOM      7  H2  UNL     1     -22.118  13.138  -5.503  1.00  0.00     0.179 HD
BRANCH   6   8
HETATM    8  C3  UNL     1     -21.962  11.523  -4.495  1.00  0.00     0.682 A 
HETATM    9  N3  UNL     1     -21.607  11.378  -3.216  1.00  0.00    -0.177 N 
HETATM   10  C4  UNL     1     -20.890  10.327  -2.803  1.00  0.00     0.120 A 
ATOM     11  H3  UNL     1     -21.888  12.086  -2.538  1.00  0.00     0.185 HD
HETATM   12  C8  UNL     1     -20.500   9.349  -3.725  1.00  0.00     0.097 A 
HETATM   13  C9  UNL     1     -20.868   9.493  -5.071  1.00  0.00     0.120 A 
HETATM   14  N8  UNL     1     -21.579  10.567  -5.395  1.00  0.00    -0.177 N 
ATOM     15  H8  UNL     1     -21.854  10.686  -6.371  1.00  0.00     0.185 HD
BRANCH  10  16
HETATM   16  N4  UNL     1     -20.519  10.194  -1.447  1.00  0.00    -0.371 N 
ATOM     17  H4  UNL     1     -20.371   9.263  -1.058  1.00  0.00     0.161 HD
BRANCH  16  18
HETATM   18  C5  UNL     1     -20.346  11.343  -0.606  1.00  0.00     0.083 A 
HETATM   19  C6  UNL     1     -19.065  11.517   0.205  1.00  0.00     0.027 A 
HETATM   20  C7  UNL     1     -19.332  12.369  -1.018  1.00  0.00     0.027 A 
ENDBRANCH  16  18
ENDBRANCH  10  16
BRANCH  13  21
HETATM   21  N5  UNL     1     -20.480   8.568  -5.871  1.00  0.00    -0.371 N 
ATOM     22  H5  UNL     1     -20.285   7.645  -5.486  1.00  0.00     0.161 HD
BRANCH  21  23
HETATM   23  C10 UNL     1     -20.306   8.768  -7.280  1.00  0.00     0.086 C 
HETATM   24  C11 UNL     1     -20.388   7.455  -8.045  1.00  0.00     0.055 C 
HETATM   25  C12 UNL     1     -19.091   6.691  -7.994  1.00  0.00     0.274 C 
HETATM   26  N6  UNL     1     -18.055   7.569  -8.562  1.00  0.00     0.090 N 
HETATM   27  C19 UNL     1     -17.867   8.578  -7.496  1.00  0.00     0.274 C 
HETATM   28  C20 UNL     1     -19.035   9.521  -7.579  1.00  0.00     0.055 C 
BRANCH  26  29
HETATM   29  C13 UNL     1     -16.856   6.760  -8.668  1.00  0.00     0.291 C 
BRANCH  29  30
HETATM   30  C14 UNL     1     -17.197   5.305  -8.428  1.00  0.00     0.147 C 
BRANCH  30  31
HETATM   31  N7  UNL     1     -16.334   4.516  -9.273  1.00  0.00    -0.407 N 
HETATM   32  C15 UNL     1     -14.947   4.589  -8.987  1.00  0.00     0.143 C 
HETATM   33  C16 UNL     1     -14.263   3.438  -9.728  1.00  0.00     0.187 C 
HETATM   34  O1  UNL     1     -14.635   2.298  -9.057  1.00  0.00    -0.388 OA
HETATM   35  C17 UNL     1     -15.991   2.060  -9.125  1.00  0.00     0.187 C 
HETATM   36  C18 UNL     1     -16.838   3.203  -9.532  1.00  0.00     0.143 C 
ENDBRANCH  30  31
ENDBRANCH  29  30
ENDBRANCH  26  29
ENDBRANCH  21  23
ENDBRANCH  13  21
ENDBRANCH   6   8
ENDBRANCH   3   6
TORSDOF 9
ENDMDL
MODEL 2
REMARK VINA RESULT: -7.362186722      7.983     12.578
REMARK  9 active torsions:
REMARK  status: ('A' for Active; 'I' for Inactive)
REMARK    1  A    between atoms: C2_3  and  N2_4 
REMARK    2  A    between atoms: N2_4  and  C3_6 
REMARK    3  A    between atoms: C4_9  and  N4_10 
REMARK    4  A    between atoms: N4_10  and  C5_12 
REMARK    5  A    between atoms: C9_16  and  N5_17 
REMARK    6  A    between atoms: N5_17  and  C10_19 
REMARK    7  A    between atoms: N6_22  and  C13_23 
REMARK    8  A    between atoms: C13_23  and  C14_24 
REMARK    9  A    between atoms: C14_24  and  N7_25 
ROOT
HETATM    1  N1  UNL     1     -13.674   7.239  -8.138  1.00  0.00    -0.195 NA
HETATM    2  C1  UNL     1     -14.446   6.403  -8.400  1.00  0.00     0.091 C 
HETATM    3  C2  UNL     1     -15.412   5.329  -8.725  1.00  0.00     0.136 A 
HETATM    4  C21 UNL     1     -16.740   5.821  -9.317  1.00  0.00     0.051 A 
HETATM    5  C22 UNL     1     -16.675   5.328  -7.914  1.00  0.00     0.051 A 
ENDROOT
BRANCH   3   6
HETATM    6  N2  UNL     1     -14.905   4.190  -9.386  1.00  0.00    -0.204 N 
ATOM      7  H2  UNL     1     -15.577   3.745 -10.012  1.00  0.00     0.179 HD
BRANCH   6   8
HETATM    8  C3  UNL     1     -13.788   3.617  -9.355  1.00  0.00     0.682 A 
HETATM    9  N3  UNL     1     -12.661   4.254  -9.686  1.00  0.00    -0.177 N 
HETATM   10  C4  UNL     1     -11.474   3.639  -9.652  1.00  0.00     0.120 A 
ATOM     11  H3  UNL     1     -12.708   5.232  -9.971  1.00  0.00     0.185 HD
HETATM   12  C8  UNL     1     -11.399   2.297  -9.260  1.00  0.00     0.097 A 
HETATM   13  C9  UNL     1     -12.577   1.620  -8.911  1.00  0.00     0.120 A 
HETATM   14  N8  UNL     1     -13.714   2.306  -8.974  1.00  0.00    -0.177 N 
ATOM     15  H8  UNL     1     -14.579   1.827  -8.723  1.00  0.00     0.185 HD
BRANCH  10  16
HETATM   16  N4  UNL     1     -10.294   4.327 -10.010  1.00  0.00    -0.371 N 
ATOM     17  H4  UNL     1     -10.238   5.335  -9.863  1.00  0.00     0.161 HD
BRANCH  16  18
HETATM   18  C5  UNL     1      -9.172   3.636 -10.577  1.00  0.00     0.083 A 
HETATM   19  C6  UNL     1      -8.667   4.002 -11.970  1.00  0.00     0.027 A 
HETATM   20  C7  UNL     1      -7.887   4.394 -10.733  1.00  0.00     0.027 A 
ENDBRANCH  16  18
ENDBRANCH  10  16
BRANCH  13  21
HETATM   21  N5  UNL     1     -12.450   0.392  -8.564  1.00  0.00    -0.371 N 
ATOM     22  H5  UNL     1     -13.182  -0.265  -8.832  1.00  0.00     0.161 HD
BRANCH  21  23
HETATM   23  C10 UNL     1     -11.330  -0.104  -7.819  1.00  0.00     0.086 C 
HETATM   24  C11 UNL     1     -11.145  -1.600  -8.018  1.00  0.00     0.055 C 
HETATM   25  C12 UNL     1     -12.078  -2.405  -7.151  1.00  0.00     0.274 C 
HETATM   26  N6  UNL     1     -11.803  -2.021  -5.757  1.00  0.00     0.090 N 
HETATM   27  C19 UNL     1     -12.390  -0.665  -5.675  1.00  0.00     0.274 C 
HETATM   28  C20 UNL     1     -11.430   0.267  -6.361  1.00  0.00     0.055 C 
BRANCH  26  29
HETATM   29  C13 UNL     1     -12.580  -2.925  -4.930  1.00  0.00     0.291 C 
BRANCH  29  30
HETATM   30  C14 UNL     1     -13.287  -2.146  -3.843  1.00  0.00     0.147 C 
BRANCH  30  31
HETATM   31  N7  UNL     1     -12.653  -2.481  -2.591  1.00  0.00    -0.407 N 
HETATM   32  C15 UNL     1     -13.392  -2.178  -1.419  1.00  0.00     0.143 C 
HETATM   33  C16 UNL     1     -12.733  -2.919  -0.254  1.00  0.00     0.187 C 
HETATM   34  O1  UNL     1     -13.033  -4.246  -0.447  1.00  0.00    -0.388 OA
HETATM   35  C17 UNL     1     -12.478  -4.754  -1.602  1.00  0.00     0.187 C 
HETATM   36  C18 UNL     1     -12.017  -3.761  -2.600  1.00  0.00     0.143 C 
ENDBRANCH  30  31
ENDBRANCH  29  30
ENDBRANCH  26  29
ENDBRANCH  21  23
ENDBRANCH  13  21
ENDBRANCH   6   8
ENDBRANCH   3   6
TORSDOF 9
ENDMDL
MODEL 3
REMARK VINA RESULT: -7.247365587      7.868     12.483
REMARK  9 active torsions:
REMARK  status: ('A' for Active; 'I' for Inactive)
REMARK    1  A    between atoms: C2_3  and  N2_4 
REMARK    2  A    between atoms: N2_4  and  C3_6 
REMARK    3  A    between atoms: C4_9  and  N4_10 
REMARK    4  A    between atoms: N4_10  and  C5_12 
REMARK    5  A    between atoms: C9_16  and  N5_17 
REMARK    6  A    between atoms: N5_17  and  C10_19 
REMARK    7  A    between atoms: N6_22  and  C13_23 
REMARK    8  A    between atoms: C13_23  and  C14_24 
REMARK    9  A    between atoms: C14_24  and  N7_25 
ROOT
HETATM    1  N1  UNL     1     -13.683   7.229  -8.132  1.00  0.00    -0.195 NA
HETATM    2  C1  UNL     1     -14.494   6.422  -8.368  1.00  0.00     0.091 C 
HETATM    3  C2  UNL     1     -15.508   5.384  -8.661  1.00  0.00     0.136 A 
HETATM    4  C21 UNL     1     -16.812   5.919  -9.270  1.00  0.00     0.051 A 
HETATM    5  C22 UNL     1     -16.769   5.467  -7.853  1.00  0.00     0.051 A 
ENDROOT
BRANCH   3   6
HETATM    6  N2  UNL     1     -15.054   4.203  -9.286  1.00  0.00    -0.204 N 
ATOM      7  H2  UNL     1     -15.761   3.746  -9.863  1.00  0.00     0.179 HD
BRANCH   6   8
HETATM    8  C3  UNL     1     -13.950   3.605  -9.273  1.00  0.00     0.682 A 
HETATM    9  N3  UNL     1     -12.817   4.213  -9.632  1.00  0.00    -0.177 N 
HETATM   10  C4  UNL     1     -11.643   3.572  -9.616  1.00  0.00     0.120 A 
ATOM     11  H3  UNL     1     -12.846   5.189  -9.926  1.00  0.00     0.185 HD
HETATM   12  C8  UNL     1     -11.591   2.232  -9.213  1.00  0.00     0.097 A 
HETATM   13  C9  UNL     1     -12.776   1.586  -8.834  1.00  0.00     0.120 A 
HETATM   14  N8  UNL     1     -13.898   2.296  -8.880  1.00  0.00    -0.177 N 
ATOM     15  H8  UNL     1     -14.769   1.840  -8.607  1.00  0.00     0.185 HD
BRANCH  10  16
HETATM   16  N4  UNL     1     -10.456   4.229 -10.005  1.00  0.00    -0.371 N 
ATOM     17  H4  UNL     1     -10.383   5.240  -9.893  1.00  0.00     0.161 HD
BRANCH  16  18
HETATM   18  C5  UNL     1      -9.348   3.503 -10.555  1.00  0.00     0.083 A 
HETATM   19  C6  UNL     1      -8.808   3.854 -11.939  1.00  0.00     0.027 A 
HETATM   20  C7  UNL     1      -8.036   4.217 -10.688  1.00  0.00     0.027 A 
ENDBRANCH  16  18
ENDBRANCH  10  16
BRANCH  13  21
HETATM   21  N5  UNL     1     -12.669   0.358  -8.477  1.00  0.00    -0.371 N 
ATOM     22  H5  UNL     1     -13.455  -0.267  -8.654  1.00  0.00     0.161 HD
BRANCH  21  23
HETATM   23  C10 UNL     1     -11.502  -0.179  -7.843  1.00  0.00     0.086 C 
HETATM   24  C11 UNL     1     -11.405  -1.685  -8.034  1.00  0.00     0.055 C 
HETATM   25  C12 UNL     1     -12.278  -2.435  -7.062  1.00  0.00     0.274 C 
HETATM   26  N6  UNL     1     -11.844  -2.046  -5.710  1.00  0.00     0.090 N 
HETATM   27  C19 UNL     1     -12.358  -0.664  -5.592  1.00  0.00     0.274 C 
HETATM   28  C20 UNL     1     -11.434   0.214  -6.389  1.00  0.00     0.055 C 
BRANCH  26  29
HETATM   29  C13 UNL     1     -12.570  -2.903  -4.793  1.00  0.00     0.291 C 
BRANCH  29  30
HETATM   30  C14 UNL     1     -13.091  -2.085  -3.631  1.00  0.00     0.147 C 
BRANCH  30  31
HETATM   31  N7  UNL     1     -12.456  -2.582  -2.435  1.00  0.00    -0.407 N 
HETATM   32  C15 UNL     1     -11.126  -2.146  -2.210  1.00  0.00     0.143 C 
HETATM   33  C16 UNL     1     -10.772  -2.475  -0.758  1.00  0.00     0.187 C 
HETATM   34  O1  UNL     1     -11.496  -1.590   0.004  1.00  0.00    -0.388 OA
HETATM   35  C17 UNL     1     -12.857  -1.771  -0.121  1.00  0.00     0.187 C 
HETATM   36  C18 UNL     1     -13.309  -2.563  -1.288  1.00  0.00     0.143 C 
ENDBRANCH  30  31
ENDBRANCH  29  30
ENDBRANCH  26  29
ENDBRANCH  21  23
ENDBRANCH  13  21
ENDBRANCH   6   8
ENDBRANCH   3   6
TORSDOF 9
ENDMDL
MODEL 4
REMARK VINA RESULT: -7.239802321      7.929     12.383
REMARK  9 active torsions:
REMARK  status: ('A' for Active; 'I' for Inactive)
REMARK    1  A    between atoms: C2_3  and  N2_4 
REMARK    2  A    between atoms: N2_4  and  C3_6 
REMARK    3  A    between atoms: C4_9  and  N4_10 
REMARK    4  A    between atoms: N4_10  and  C5_12 
REMARK    5  A    between atoms: C9_16  and  N5_17 
REMARK    6  A    between atoms: N5_17  and  C10_19 
REMARK    7  A    between atoms: N6_22  and  C13_23 
REMARK    8  A    between atoms: C13_23  and  C14_24 
REMARK    9  A    between atoms: C14_24  and  N7_25 
ROOT
HETATM    1  N1  UNL     1     -13.663   7.232  -8.104  1.00  0.00    -0.195 NA
HETATM    2  C1  UNL     1     -14.427   6.396  -8.387  1.00  0.00     0.091 C 
HETATM    3  C2  UNL     1     -15.383   5.320  -8.737  1.00  0.00     0.136 A 
HETATM    4  C21 UNL     1     -16.676   5.809  -9.405  1.00  0.00     0.051 A 
HETATM    5  C22 UNL     1     -16.684   5.344  -7.991  1.00  0.00     0.051 A 
ENDROOT
BRANCH   3   6
HETATM    6  N2  UNL     1     -14.851   4.165  -9.350  1.00  0.00    -0.204 N 
ATOM      7  H2  UNL     1     -15.507   3.690  -9.970  1.00  0.00     0.179 HD
BRANCH   6   8
HETATM    8  C3  UNL     1     -13.728   3.608  -9.280  1.00  0.00     0.682 A 
HETATM    9  N3  UNL     1     -12.614   4.216  -9.697  1.00  0.00    -0.177 N 
HETATM   10  C4  UNL     1     -11.421   3.618  -9.622  1.00  0.00     0.120 A 
ATOM     11  H3  UNL     1     -12.676   5.158 -10.082  1.00  0.00     0.185 HD
HETATM   12  C8  UNL     1     -11.325   2.324  -9.094  1.00  0.00     0.097 A 
HETATM   13  C9  UNL     1     -12.490   1.678  -8.654  1.00  0.00     0.120 A 
HETATM   14  N8  UNL     1     -13.634   2.344  -8.766  1.00  0.00    -0.177 N 
ATOM     15  H8  UNL     1     -14.490   1.887  -8.450  1.00  0.00     0.185 HD
BRANCH  10  16
HETATM   16  N4  UNL     1     -10.254   4.274 -10.073  1.00  0.00    -0.371 N 
ATOM     17  H4  UNL     1     -10.167   5.282  -9.947  1.00  0.00     0.161 HD
BRANCH  16  18
HETATM   18  C5  UNL     1      -9.189   3.550 -10.704  1.00  0.00     0.083 A 
HETATM   19  C6  UNL     1      -8.752   3.906 -12.122  1.00  0.00     0.027 A 
HETATM   20  C7  UNL     1      -7.891   4.266 -10.930  1.00  0.00     0.027 A 
ENDBRANCH  16  18
ENDBRANCH  10  16
BRANCH  13  21
HETATM   21  N5  UNL     1     -12.343   0.494  -8.183  1.00  0.00    -0.371 N 
ATOM     22  H5  UNL     1     -11.549   0.312  -7.570  1.00  0.00     0.161 HD
BRANCH  21  23
HETATM   23  C10 UNL     1     -13.239  -0.586  -8.474  1.00  0.00     0.086 C 
HETATM   24  C11 UNL     1     -14.337  -0.701  -7.428  1.00  0.00     0.055 C 
HETATM   25  C12 UNL     1     -13.866  -1.424  -6.193  1.00  0.00     0.274 C 
HETATM   26  N6  UNL     1     -13.410  -2.755  -6.626  1.00  0.00     0.090 N 
HETATM   27  C19 UNL     1     -12.137  -2.451  -7.316  1.00  0.00     0.274 C 
HETATM   28  C20 UNL     1     -12.495  -1.884  -8.661  1.00  0.00     0.055 C 
BRANCH  26  29
HETATM   29  C13 UNL     1     -13.128  -3.497  -5.412  1.00  0.00     0.291 C 
BRANCH  29  30
HETATM   30  C14 UNL     1     -13.117  -2.557  -4.227  1.00  0.00     0.147 C 
BRANCH  30  31
HETATM   31  N7  UNL     1     -11.821  -2.665  -3.603  1.00  0.00    -0.407 N 
HETATM   32  C15 UNL     1     -10.917  -1.602  -3.860  1.00  0.00     0.143 C 
HETATM   33  C16 UNL     1      -9.773  -1.716  -2.849  1.00  0.00     0.187 C 
HETATM   34  O1  UNL     1     -10.315  -1.347  -1.641  1.00  0.00    -0.388 OA
HETATM   35  C17 UNL     1     -11.304  -2.208  -1.216  1.00  0.00     0.187 C 
HETATM   36  C18 UNL     1     -11.878  -3.105  -2.244  1.00  0.00     0.143 C 
ENDBRANCH  30  31
ENDBRANCH  29  30
ENDBRANCH  26  29
ENDBRANCH  21  23
ENDBRANCH  13  21
ENDBRANCH   6   8
ENDBRANCH   3   6
TORSDOF 9
ENDMDL
MODEL 5
REMARK VINA RESULT: -7.231198380      7.419     12.039
REMARK  9 active torsions:
REMARK  status: ('A' for Active; 'I' for Inactive)
REMARK    1  A    between atoms: C2_3  and  N2_4 
REMARK    2  A    between atoms: N2_4  and  C3_6 
REMARK    3  A    between atoms: C4_9  and  N4_10 
REMARK    4  A    between atoms: N4_10  and  C5_12 
REMARK    5  A    between atoms: C9_16  and  N5_17 
REMARK    6  A    between atoms: N5_17  and  C10_19 
REMARK    7  A    between atoms: N6_22  and  C13_23 
REMARK    8  A    between atoms: C13_23  and  C14_24 
REMARK    9  A    between atoms: C14_24  and  N7_25 
ROOT
HETATM    1  N1  UNL     1     -13.288   6.135  -8.551  1.00  0.00    -0.195 NA
HETATM    2  C1  UNL     1     -14.420   5.852  -8.557  1.00  0.00     0.091 C 
HETATM    3  C2  UNL     1     -15.853   5.476  -8.552  1.00  0.00     0.136 A 
HETATM    4  C21 UNL     1     -16.758   6.400  -9.379  1.00  0.00     0.051 A 
HETATM    5  C22 UNL     1     -16.776   6.458  -7.891  1.00  0.00     0.051 A 
ENDROOT
BRANCH   3   6
HETATM    6  N2  UNL     1     -16.157   4.109  -8.726  1.00  0.00    -0.204 N 
ATOM      7  H2  UNL     1     -16.944   3.789  -8.161  1.00  0.00     0.179 HD
BRANCH   6   8
HETATM    8  C3  UNL     1     -15.649   3.210  -9.440  1.00  0.00     0.682 A 
HETATM    9  N3  UNL     1     -16.028   3.020 -10.707  1.00  0.00    -0.177 N 
HETATM   10  C4  UNL     1     -15.484   2.061 -11.464  1.00  0.00     0.120 A 
ATOM     11  H3  UNL     1     -16.749   3.621 -11.106  1.00  0.00     0.185 HD
HETATM   12  C8  UNL     1     -14.492   1.232 -10.925  1.00  0.00     0.097 A 
HETATM   13  C9  UNL     1     -14.088   1.425  -9.596  1.00  0.00     0.120 A 
HETATM   14  N8  UNL     1     -14.681   2.400  -8.915  1.00  0.00    -0.177 N 
ATOM     15  H8  UNL     1     -14.398   2.552  -7.947  1.00  0.00     0.185 HD
BRANCH  10  16
HETATM   16  N4  UNL     1     -15.901   1.871 -12.799  1.00  0.00    -0.371 N 
ATOM     17  H4  UNL     1     -16.898   1.845 -13.013  1.00  0.00     0.161 HD
BRANCH  16  18
HETATM   18  C5  UNL     1     -14.951   1.714 -13.861  1.00  0.00     0.083 A 
HETATM   19  C6  UNL     1     -15.268   0.811 -15.050  1.00  0.00     0.027 A 
HETATM   20  C7  UNL     1     -15.280   2.318 -15.194  1.00  0.00     0.027 A 
ENDBRANCH  16  18
ENDBRANCH  10  16
BRANCH  13  21
HETATM   21  N5  UNL     1     -13.179   0.635  -9.155  1.00  0.00    -0.371 N 
ATOM     22  H5  UNL     1     -13.442  -0.321  -8.917  1.00  0.00     0.161 HD
BRANCH  21  23
HETATM   23  C10 UNL     1     -11.812   1.027  -8.979  1.00  0.00     0.086 C 
HETATM   24  C11 UNL     1     -10.861  -0.136  -9.219  1.00  0.00     0.055 C 
HETATM   25  C12 UNL     1     -10.757  -1.037  -8.016  1.00  0.00     0.274 C 
HETATM   26  N6  UNL     1     -10.296  -0.201  -6.895  1.00  0.00     0.090 N 
HETATM   27  C19 UNL     1     -11.495   0.606  -6.580  1.00  0.00     0.274 C 
HETATM   28  C20 UNL     1     -11.591   1.673  -7.634  1.00  0.00     0.055 C 
BRANCH  26  29
HETATM   29  C13 UNL     1     -10.033  -1.111  -5.797  1.00  0.00     0.291 C 
BRANCH  29  30
HETATM   30  C14 UNL     1     -10.593  -2.479  -6.120  1.00  0.00     0.147 C 
BRANCH  30  31
HETATM   31  N7  UNL     1     -11.544  -2.810  -5.087  1.00  0.00    -0.407 N 
HETATM   32  C15 UNL     1     -11.435  -2.070  -3.881  1.00  0.00     0.143 C 
HETATM   33  C16 UNL     1     -12.718  -2.305  -3.080  1.00  0.00     0.187 C 
HETATM   34  O1  UNL     1     -13.700  -1.617  -3.751  1.00  0.00    -0.388 OA
HETATM   35  C17 UNL     1     -13.928  -2.116  -5.016  1.00  0.00     0.187 C 
HETATM   36  C18 UNL     1     -12.875  -2.993  -5.575  1.00  0.00     0.143 C 
ENDBRANCH  30  31
ENDBRANCH  29  30
ENDBRANCH  26  29
ENDBRANCH  21  23
ENDBRANCH  13  21
ENDBRANCH   6   8
ENDBRANCH   3   6
TORSDOF 9
ENDMDL
