MODEL 1
REMARK VINA RESULT: -7.070831472      0.000      0.000
REMARK  7 active torsions:
REMARK  status: ('A' for Active; 'I' for Inactive)
REMARK    1  A    between atoms: C2_2  and  N1_3 
REMARK    2  A    between atoms: C4_5  and  C5_6 
REMARK    3  A    between atoms: C5_6  and  C6_7 
REMARK    4  A    between atoms: C6_7  and  O1_8 
REMARK    5  A    between atoms: C7_12  and  N3_13 
REMARK    6  A    between atoms: C10_16  and  O2_17 
REMARK    7  A    between atoms: C17_24  and  N4_25 
ROOT
HETATM    1  N1  UNL     1      27.350   5.817   9.937  1.00  0.00    -0.339 N 
HETATM    2  C3  UNL     1      26.562   4.875   9.329  1.00  0.00     0.117 A 
HETATM    3  C4  UNL     1      25.487   4.351   9.971  1.00  0.00     0.028 A 
HETATM    4  N2  UNL     1      25.221   4.772  11.196  1.00  0.00    -0.342 N 
ATOM      5  H2  UNL     1      24.410   4.366  11.664  1.00  0.00     0.167 HD
HETATM    6  C7  UNL     1      25.923   5.681  11.872  1.00  0.00     0.149 A 
HETATM    7  C17 UNL     1      27.049   6.225  11.186  1.00  0.00     0.151 A 
ENDROOT
BRANCH   6   8
HETATM    8  N3  UNL     1      25.585   6.080  13.167  1.00  0.00    -0.351 N 
HETATM    9  C8  UNL     1      26.381   6.187  14.398  1.00  0.00     0.089 C 
HETATM   10  C9  UNL     1      26.082   7.599  14.817  1.00  0.00     0.059 C 
HETATM   11  C16 UNL     1      25.574   5.237  15.277  1.00  0.00     0.036 C 
HETATM   12  C10 UNL     1      24.732   7.884  14.207  1.00  0.00     0.146 C 
HETATM   13  C12 UNL     1      24.288   6.531  13.723  1.00  0.00     0.123 C 
HETATM   14  C13 UNL     1      24.140   5.553  14.862  1.00  0.00    -0.023 C 
HETATM   15  C14 UNL     1      23.423   6.176  16.065  1.00  0.00     0.017 C 
HETATM   16  C15 UNL     1      23.363   4.333  14.521  1.00  0.00     0.017 C 
BRANCH  12  17
HETATM   17  O2  UNL     1      23.861   8.547  15.004  1.00  0.00    -0.389 OA
HETATM   18  C11 UNL     1      24.248   9.871  15.232  1.00  0.00     0.202 C 
ENDBRANCH  12  17
ENDBRANCH   6   8
BRANCH   7  19
HETATM   19  N4  UNL     1      27.706   7.066  11.785  1.00  0.00    -0.359 N 
HETATM   20  C18 UNL     1      28.099   8.364  11.938  1.00  0.00     0.120 C 
ATOM     21  H4  UNL     1      28.191   6.552  12.521  1.00  0.00     0.166 HD
ENDBRANCH   7  19
BRANCH   3  22
HETATM   22  C5  UNL     1      24.607   3.326   9.344  1.00  0.00     0.084 C 
BRANCH  22  23
HETATM   23  C6  UNL     1      23.378   3.061  10.185  1.00  0.00     0.170 C 
BRANCH  23  24
HETATM   24  O1  UNL     1      22.454   4.084  10.119  1.00  0.00    -0.400 OA
ATOM     25  H1  UNL     1      22.735   4.866  10.580  1.00  0.00     0.209 HD
ENDBRANCH  23  24
ENDBRANCH  22  23
ENDBRANCH   3  22
BRANCH   1  26
HETATM   26  C2  UNL     1      28.447   6.278   9.143  1.00  0.00     0.126 C 
HETATM   27  C1  UNL     1      28.045   7.522   8.347  1.00  0.00     0.027 C 
ENDBRANCH   1  26
TORSDOF 7
ENDMDL
MODEL 2
REMARK VINA RESULT: -6.963590387      2.223      5.369
REMARK  7 active torsions:
REMARK  status: ('A' for Active; 'I' for Inactive)
REMARK    1  A    between atoms: C2_2  and  N1_3 
REMARK    2  A    between atoms: C4_5  and  C5_6 
REMARK    3  A    between atoms: C5_6  and  C6_7 
REMARK    4  A    between atoms: C6_7  and  O1_8 
REMARK    5  A    between atoms: C7_12  and  N3_13 
REMARK    6  A    between atoms: C10_16  and  O2_17 
REMARK    7  A    between atoms: C17_24  and  N4_25 
ROOT
HETATM    1  N1  UNL     1      24.791   5.496  13.803  1.00  0.00    -0.339 N 
HETATM    2  C3  UNL     1      24.002   4.664  13.052  1.00  0.00     0.117 A 
HETATM    3  C4  UNL     1      24.242   4.489  11.728  1.00  0.00     0.028 A 
HETATM    4  N2  UNL     1      25.256   5.141  11.183  1.00  0.00    -0.342 N 
ATOM      5  H2  UNL     1      25.421   4.998  10.186  1.00  0.00     0.167 HD
HETATM    6  C7  UNL     1      26.079   5.969  11.825  1.00  0.00     0.149 A 
HETATM    7  C17 UNL     1      25.816   6.144  13.216  1.00  0.00     0.151 A 
ENDROOT
BRANCH   6   8
HETATM    8  N3  UNL     1      27.133   6.627  11.185  1.00  0.00    -0.351 N 
HETATM    9  C8  UNL     1      27.358   8.046  10.877  1.00  0.00     0.089 C 
HETATM   10  C9  UNL     1      28.726   8.258  11.460  1.00  0.00     0.059 C 
HETATM   11  C16 UNL     1      27.486   7.934   9.360  1.00  0.00     0.036 C 
HETATM   12  C10 UNL     1      29.354   6.887  11.428  1.00  0.00     0.146 C 
HETATM   13  C12 UNL     1      28.383   6.090  10.601  1.00  0.00     0.123 C 
HETATM   14  C13 UNL     1      28.269   6.634   9.199  1.00  0.00    -0.023 C 
HETATM   15  C14 UNL     1      29.639   6.975   8.601  1.00  0.00     0.017 C 
HETATM   16  C15 UNL     1      27.631   5.702   8.232  1.00  0.00     0.017 C 
BRANCH  12  17
HETATM   17  O2  UNL     1      30.648   6.847  11.031  1.00  0.00    -0.389 OA
HETATM   18  C11 UNL     1      31.529   7.255  12.038  1.00  0.00     0.202 C 
ENDBRANCH  12  17
ENDBRANCH   6   8
BRANCH   7  19
HETATM   19  N4  UNL     1      26.564   6.896  13.828  1.00  0.00    -0.359 N 
HETATM   20  C18 UNL     1      26.760   8.059  14.515  1.00  0.00     0.120 C 
ATOM     21  H4  UNL     1      27.472   6.432  13.822  1.00  0.00     0.166 HD
ENDBRANCH   7  19
BRANCH   3  22
HETATM   22  C5  UNL     1      23.408   3.595  10.879  1.00  0.00     0.084 C 
BRANCH  22  23
HETATM   23  C6  UNL     1      24.261   2.751   9.957  1.00  0.00     0.170 C 
BRANCH  23  24
HETATM   24  O1  UNL     1      24.177   1.402  10.236  1.00  0.00    -0.400 OA
ATOM     25  H1  UNL     1      23.920   0.885   9.482  1.00  0.00     0.209 HD
ENDBRANCH  23  24
ENDBRANCH  22  23
ENDBRANCH   3  22
BRANCH   1  26
HETATM   26  C2  UNL     1      24.419   5.585  15.182  1.00  0.00     0.126 C 
HETATM   27  C1  UNL     1      23.320   6.633  15.373  1.00  0.00     0.027 C 
ENDBRANCH   1  26
TORSDOF 7
ENDMDL
MODEL 3
REMARK VINA RESULT: -6.882002458      1.677      2.260
REMARK  7 active torsions:
REMARK  status: ('A' for Active; 'I' for Inactive)
REMARK    1  A    between atoms: C2_2  and  N1_3 
REMARK    2  A    between atoms: C4_5  and  C5_6 
REMARK    3  A    between atoms: C5_6  and  C6_7 
REMARK    4  A    between atoms: C6_7  and  O1_8 
REMARK    5  A    between atoms: C7_12  and  N3_13 
REMARK    6  A    between atoms: C10_16  and  O2_17 
REMARK    7  A    between atoms: C17_24  and  N4_25 
ROOT
HETATM    1  N1  UNL     1      26.274   5.107   9.487  1.00  0.00    -0.339 N 
HETATM    2  C3  UNL     1      25.231   4.226   9.605  1.00  0.00     0.117 A 
HETATM    3  C4  UNL     1      24.367   4.310  10.649  1.00  0.00     0.028 A 
HETATM    4  N2  UNL     1      24.558   5.263  11.547  1.00  0.00    -0.342 N 
ATOM      5  H2  UNL     1      23.899   5.310  12.324  1.00  0.00     0.167 HD
HETATM    6  C7  UNL     1      25.538   6.165  11.521  1.00  0.00     0.149 A 
HETATM    7  C17 UNL     1      26.439   6.066  10.419  1.00  0.00     0.151 A 
ENDROOT
BRANCH   6   8
HETATM    8  N3  UNL     1      25.681   7.147  12.505  1.00  0.00    -0.351 N 
HETATM    9  C8  UNL     1      26.772   7.438  13.445  1.00  0.00     0.089 C 
HETATM   10  C9  UNL     1      27.003   8.899  13.182  1.00  0.00     0.059 C 
HETATM   11  C16 UNL     1      25.996   7.295  14.751  1.00  0.00     0.036 C 
HETATM   12  C10 UNL     1      25.675   9.391  12.661  1.00  0.00     0.146 C 
HETATM   13  C12 UNL     1      24.759   8.227  12.922  1.00  0.00     0.123 C 
HETATM   14  C13 UNL     1      24.651   7.922  14.395  1.00  0.00    -0.023 C 
HETATM   15  C14 UNL     1      24.482   9.193  15.235  1.00  0.00     0.017 C 
HETATM   16  C15 UNL     1      23.502   7.050  14.755  1.00  0.00     0.017 C 
BRANCH  12  17
HETATM   17  O2  UNL     1      25.268  10.589  13.143  1.00  0.00    -0.389 OA
HETATM   18  C11 UNL     1      25.057  11.529  12.129  1.00  0.00     0.202 C 
ENDBRANCH  12  17
ENDBRANCH   6   8
BRANCH   7  19
HETATM   19  N4  UNL     1      27.345   6.889  10.372  1.00  0.00    -0.359 N 
HETATM   20  C18 UNL     1      27.905   7.991   9.795  1.00  0.00     0.120 C 
ATOM     21  H4  UNL     1      27.986   6.623  11.120  1.00  0.00     0.166 HD
ENDBRANCH   7  19
BRANCH   3  22
HETATM   22  C5  UNL     1      23.221   3.373  10.812  1.00  0.00     0.084 C 
BRANCH  22  23
HETATM   23  C6  UNL     1      23.265   2.260   9.789  1.00  0.00     0.170 C 
BRANCH  23  24
HETATM   24  O1  UNL     1      24.068   1.207  10.178  1.00  0.00    -0.400 OA
ATOM     25  H1  UNL     1      24.988   1.358   9.998  1.00  0.00     0.209 HD
ENDBRANCH  23  24
ENDBRANCH  22  23
ENDBRANCH   3  22
BRANCH   1  26
HETATM   26  C2  UNL     1      27.103   4.897   8.341  1.00  0.00     0.126 C 
HETATM   27  C1  UNL     1      26.503   3.817   7.437  1.00  0.00     0.027 C 
ENDBRANCH   1  26
TORSDOF 7
ENDMDL
MODEL 4
REMARK VINA RESULT: -6.879495967      2.278      5.317
REMARK  7 active torsions:
REMARK  status: ('A' for Active; 'I' for Inactive)
REMARK    1  A    between atoms: C2_2  and  N1_3 
REMARK    2  A    between atoms: C4_5  and  C5_6 
REMARK    3  A    between atoms: C5_6  and  C6_7 
REMARK    4  A    between atoms: C6_7  and  O1_8 
REMARK    5  A    between atoms: C7_12  and  N3_13 
REMARK    6  A    between atoms: C10_16  and  O2_17 
REMARK    7  A    between atoms: C17_24  and  N4_25 
ROOT
HETATM    1  N1  UNL     1      24.426   3.972  10.424  1.00  0.00    -0.339 N 
HETATM    2  C3  UNL     1      23.938   4.043  11.703  1.00  0.00     0.117 A 
HETATM    3  C4  UNL     1      24.529   4.840  12.628  1.00  0.00     0.028 A 
HETATM    4  N2  UNL     1      25.587   5.547  12.264  1.00  0.00    -0.342 N 
ATOM      5  H2  UNL     1      26.019   6.140  12.973  1.00  0.00     0.167 HD
HETATM    6  C7  UNL     1      26.136   5.548  11.050  1.00  0.00     0.149 A 
HETATM    7  C17 UNL     1      25.504   4.707  10.087  1.00  0.00     0.151 A 
ENDROOT
BRANCH   6   8
HETATM    8  N3  UNL     1      27.256   6.321  10.734  1.00  0.00    -0.351 N 
HETATM    9  C8  UNL     1      28.565   5.962  10.168  1.00  0.00     0.089 C 
HETATM   10  C9  UNL     1      28.656   6.920   9.014  1.00  0.00     0.059 C 
HETATM   11  C16 UNL     1      29.452   6.474  11.298  1.00  0.00     0.036 C 
HETATM   12  C10 UNL     1      27.780   8.076   9.427  1.00  0.00     0.146 C 
HETATM   13  C12 UNL     1      27.486   7.777  10.872  1.00  0.00     0.123 C 
HETATM   14  C13 UNL     1      28.744   7.763  11.705  1.00  0.00    -0.023 C 
HETATM   15  C14 UNL     1      29.667   8.940  11.370  1.00  0.00     0.017 C 
HETATM   16  C15 UNL     1      28.506   7.845  13.169  1.00  0.00     0.017 C 
BRANCH  12  17
HETATM   17  O2  UNL     1      28.277   9.307   9.163  1.00  0.00    -0.389 OA
HETATM   18  C11 UNL     1      27.274  10.276   9.056  1.00  0.00     0.202 C 
ENDBRANCH  12  17
ENDBRANCH   6   8
BRANCH   7  19
HETATM   19  N4  UNL     1      25.989   4.696   8.962  1.00  0.00    -0.359 N 
HETATM   20  C18 UNL     1      26.497   3.999   7.905  1.00  0.00     0.120 C 
ATOM     21  H4  UNL     1      26.033   5.676   8.681  1.00  0.00     0.166 HD
ENDBRANCH   7  19
BRANCH   3  22
HETATM   22  C5  UNL     1      24.029   4.944  14.027  1.00  0.00     0.084 C 
BRANCH  22  23
HETATM   23  C6  UNL     1      25.117   5.400  14.973  1.00  0.00     0.170 C 
BRANCH  23  24
HETATM   24  O1  UNL     1      26.122   4.466  15.122  1.00  0.00    -0.400 OA
ATOM     25  H1  UNL     1      26.112   3.802  14.443  1.00  0.00     0.209 HD
ENDBRANCH  23  24
ENDBRANCH  22  23
ENDBRANCH   3  22
BRANCH   1  26
HETATM   26  C2  UNL     1      23.705   3.091   9.559  1.00  0.00     0.126 C 
HETATM   27  C1  UNL     1      24.255   1.666   9.668  1.00  0.00     0.027 C 
ENDBRANCH   1  26
TORSDOF 7
ENDMDL
MODEL 5
REMARK VINA RESULT: -6.685013098      2.073      5.262
REMARK  7 active torsions:
REMARK  status: ('A' for Active; 'I' for Inactive)
REMARK    1  A    between atoms: C2_2  and  N1_3 
REMARK    2  A    between atoms: C4_5  and  C5_6 
REMARK    3  A    between atoms: C5_6  and  C6_7 
REMARK    4  A    between atoms: C6_7  and  O1_8 
REMARK    5  A    between atoms: C7_12  and  N3_13 
REMARK    6  A    between atoms: C10_16  and  O2_17 
REMARK    7  A    between atoms: C17_24  and  N4_25 
ROOT
HETATM    1  N1  UNL     1      25.019   5.906  13.435  1.00  0.00    -0.339 N 
HETATM    2  C3  UNL     1      24.674   4.896  12.576  1.00  0.00     0.117 A 
HETATM    3  C4  UNL     1      25.113   4.897  11.292  1.00  0.00     0.028 A 
HETATM    4  N2  UNL     1      25.881   5.897  10.892  1.00  0.00    -0.342 N 
ATOM      5  H2  UNL     1      26.201   5.882   9.923  1.00  0.00     0.167 HD
HETATM    6  C7  UNL     1      26.273   6.922  11.648  1.00  0.00     0.149 A 
HETATM    7  C17 UNL     1      25.805   6.909  12.996  1.00  0.00     0.151 A 
ENDROOT
BRANCH   6   8
HETATM    8  N3  UNL     1      27.088   7.947  11.160  1.00  0.00    -0.351 N 
HETATM    9  C8  UNL     1      26.770   9.271  10.607  1.00  0.00     0.089 C 
HETATM   10  C9  UNL     1      27.643  10.157  11.449  1.00  0.00     0.059 C 
HETATM   11  C16 UNL     1      27.419   9.110   9.235  1.00  0.00     0.036 C 
HETATM   12  C10 UNL     1      28.770   9.253  11.884  1.00  0.00     0.146 C 
HETATM   13  C12 UNL     1      28.561   8.025  11.041  1.00  0.00     0.123 C 
HETATM   14  C13 UNL     1      28.688   8.331   9.570  1.00  0.00    -0.023 C 
HETATM   15  C14 UNL     1      29.891   9.232   9.271  1.00  0.00     0.017 C 
HETATM   16  C15 UNL     1      28.863   7.132   8.710  1.00  0.00     0.017 C 
BRANCH  12  17
HETATM   17  O2  UNL     1      30.007   9.802  11.840  1.00  0.00    -0.389 OA
HETATM   18  C11 UNL     1      30.797   9.426  12.931  1.00  0.00     0.202 C 
ENDBRANCH  12  17
ENDBRANCH   6   8
BRANCH   7  19
HETATM   19  N4  UNL     1      26.157   7.839  13.711  1.00  0.00    -0.359 N 
HETATM   20  C18 UNL     1      25.849   8.971  14.406  1.00  0.00     0.120 C 
ATOM     21  H4  UNL     1      27.158   7.701  13.855  1.00  0.00     0.166 HD
ENDBRANCH   7  19
BRANCH   3  22
HETATM   22  C5  UNL     1      24.759   3.819  10.328  1.00  0.00     0.084 C 
BRANCH  22  23
HETATM   23  C6  UNL     1      23.355   3.307  10.560  1.00  0.00     0.170 C 
BRANCH  23  24
HETATM   24  O1  UNL     1      22.386   4.177  10.103  1.00  0.00    -0.400 OA
ATOM     25  H1  UNL     1      21.528   3.773  10.037  1.00  0.00     0.209 HD
ENDBRANCH  23  24
ENDBRANCH  22  23
ENDBRANCH   3  22
BRANCH   1  26
HETATM   26  C2  UNL     1      24.483   5.775  14.755  1.00  0.00     0.126 C 
HETATM   27  C1  UNL     1      23.766   4.431  14.909  1.00  0.00     0.027 C 
ENDBRANCH   1  26
TORSDOF 7
ENDMDL
