MODEL 1
REMARK VINA RESULT: -5.899488211      0.000      0.000
REMARK  6 active torsions:
REMARK  status: ('A' for Active; 'I' for Inactive)
REMARK    1  A    between atoms: C4_5  and  O1_6 
REMARK    2  A    between atoms: O1_6  and  C5_7 
REMARK    3  A    between atoms: N2_10  and  C8_11 
REMARK    4  A    between atoms: C8_11  and  C9_12 
REMARK    5  A    between atoms: C13_19  and  C14_20 
REMARK    6  A    between atoms: C14_20  and  O2_23 
ROOT
HETATM    1  C5  UNL     1      26.697   4.994  10.907  1.00  0.00     0.152 C 
HETATM    2  C6  UNL     1      26.476   4.626   9.475  1.00  0.00     0.064 C 
HETATM    3  C7  UNL     1      27.207   5.686   8.685  1.00  0.00     0.275 C 
HETATM    4  N2  UNL     1      28.003   6.458   9.574  1.00  0.00     0.097 N 
HETATM    5  C12 UNL     1      27.881   5.914  10.907  1.00  0.00     0.304 C 
ENDROOT
BRANCH   1   6
HETATM    6  O1  UNL     1      25.602   5.422  11.591  1.00  0.00    -0.376 OA
BRANCH   6   7
HETATM    7  C4  UNL     1      25.279   4.894  12.761  1.00  0.00     0.160 C 
HETATM    8  C3  UNL     1      23.830   4.524  12.974  1.00  0.00     0.064 C 
HETATM    9  C2  UNL     1      23.796   4.389  14.480  1.00  0.00     0.275 C 
HETATM   10  N1  UNL     1      24.728   5.362  15.007  1.00  0.00     0.094 N 
HETATM   11  C1  UNL     1      25.555   4.839  16.052  1.00  0.00     0.310 C 
HETATM   12  C13 UNL     1      25.524   5.845  13.899  1.00  0.00     0.284 C 
BRANCH  12  13
HETATM   13  C14 UNL     1      25.208   7.268  13.683  1.00  0.00     0.084 C 
HETATM   14  C15 UNL     1      26.560   8.009  13.757  1.00  0.00     0.047 C 
HETATM   15  C16 UNL     1      24.372   7.917  14.766  1.00  0.00     0.047 C 
BRANCH  13  16
HETATM   16  O2  UNL     1      24.701   7.606  12.446  1.00  0.00    -0.388 OA
ATOM     17  H2  UNL     1      23.875   8.075  12.439  1.00  0.00     0.210 HD
ENDBRANCH  13  16
ENDBRANCH  12  13
ENDBRANCH   6   7
ENDBRANCH   1   6
BRANCH   4  18
HETATM   18  C8  UNL     1      27.750   7.870   9.551  1.00  0.00     0.337 C 
BRANCH  18  19
HETATM   19  C9  UNL     1      28.958   8.561  10.127  1.00  0.00     0.079 A 
HETATM   20  N3  UNL     1      30.231   8.399   9.842  1.00  0.00    -0.362 N 
HETATM   21  C10 UNL     1      31.133   9.107  10.465  1.00  0.00     0.096 A 
ATOM     22  H3  UNL     1      30.513   7.720   9.135  1.00  0.00     0.165 HD
HETATM   23  C11 UNL     1      30.697  10.003  11.401  1.00  0.00     0.068 A 
HETATM   24  S1  UNL     1      29.001   9.773  11.332  1.00  0.00    -0.086 SA
ENDBRANCH  18  19
ENDBRANCH   4  18
TORSDOF 6
ENDMDL
MODEL 2
REMARK VINA RESULT: -5.804624304      2.759      6.904
REMARK  6 active torsions:
REMARK  status: ('A' for Active; 'I' for Inactive)
REMARK    1  A    between atoms: C4_5  and  O1_6 
REMARK    2  A    between atoms: O1_6  and  C5_7 
REMARK    3  A    between atoms: N2_10  and  C8_11 
REMARK    4  A    between atoms: C8_11  and  C9_12 
REMARK    5  A    between atoms: C13_19  and  C14_20 
REMARK    6  A    between atoms: C14_20  and  O2_23 
ROOT
HETATM    1  C5  UNL     1      27.769   8.145  14.116  1.00  0.00     0.152 C 
HETATM    2  C6  UNL     1      27.401   9.591  14.213  1.00  0.00     0.064 C 
HETATM    3  C7  UNL     1      25.908   9.595  14.446  1.00  0.00     0.275 C 
HETATM    4  N2  UNL     1      25.478   8.269  14.720  1.00  0.00     0.097 N 
HETATM    5  C12 UNL     1      26.631   7.398  14.744  1.00  0.00     0.304 C 
ENDROOT
BRANCH   1   6
HETATM    6  O1  UNL     1      28.172   7.711  12.893  1.00  0.00    -0.376 OA
BRANCH   6   7
HETATM    7  C4  UNL     1      28.077   8.490  11.827  1.00  0.00     0.160 C 
HETATM    8  C3  UNL     1      26.872   8.294  10.935  1.00  0.00     0.064 C 
HETATM    9  C2  UNL     1      27.335   9.005   9.682  1.00  0.00     0.275 C 
HETATM   10  N1  UNL     1      28.765   8.800   9.590  1.00  0.00     0.094 N 
HETATM   11  C1  UNL     1      29.481   9.988   9.240  1.00  0.00     0.310 C 
HETATM   12  C13 UNL     1      29.211   8.274  10.864  1.00  0.00     0.284 C 
BRANCH  12  13
HETATM   13  C14 UNL     1      29.682   6.894  10.658  1.00  0.00     0.084 C 
HETATM   14  C15 UNL     1      31.087   6.836  11.296  1.00  0.00     0.047 C 
HETATM   15  C16 UNL     1      29.915   6.496   9.216  1.00  0.00     0.047 C 
BRANCH  13  16
HETATM   16  O2  UNL     1      28.975   5.898  11.301  1.00  0.00    -0.388 OA
ATOM     17  H2  UNL     1      29.195   5.004  11.068  1.00  0.00     0.210 HD
ENDBRANCH  13  16
ENDBRANCH  12  13
ENDBRANCH   6   7
ENDBRANCH   1   6
BRANCH   4  18
HETATM   18  C8  UNL     1      24.452   7.767  13.853  1.00  0.00     0.337 C 
BRANCH  18  19
HETATM   19  C9  UNL     1      23.922   6.494  14.460  1.00  0.00     0.079 A 
HETATM   20  N3  UNL     1      23.177   6.323  15.529  1.00  0.00    -0.362 N 
HETATM   21  C10 UNL     1      22.821   5.120  15.889  1.00  0.00     0.096 A 
ATOM     22  H3  UNL     1      22.877   7.129  16.077  1.00  0.00     0.165 HD
HETATM   23  C11 UNL     1      23.251   4.076  15.118  1.00  0.00     0.068 A 
HETATM   24  S1  UNL     1      24.149   4.892  13.908  1.00  0.00    -0.086 SA
ENDBRANCH  18  19
ENDBRANCH   4  18
TORSDOF 6
ENDMDL
MODEL 3
REMARK VINA RESULT: -5.777450224      1.631      1.718
REMARK  6 active torsions:
REMARK  status: ('A' for Active; 'I' for Inactive)
REMARK    1  A    between atoms: C4_5  and  O1_6 
REMARK    2  A    between atoms: O1_6  and  C5_7 
REMARK    3  A    between atoms: N2_10  and  C8_11 
REMARK    4  A    between atoms: C8_11  and  C9_12 
REMARK    5  A    between atoms: C13_19  and  C14_20 
REMARK    6  A    between atoms: C14_20  and  O2_23 
ROOT
HETATM    1  C5  UNL     1      27.216   5.313  10.355  1.00  0.00     0.152 C 
HETATM    2  C6  UNL     1      27.268   5.631   8.894  1.00  0.00     0.064 C 
HETATM    3  C7  UNL     1      28.480   6.518   8.733  1.00  0.00     0.275 C 
HETATM    4  N2  UNL     1      29.223   6.511   9.944  1.00  0.00     0.097 N 
HETATM    5  C12 UNL     1      28.591   5.606  10.877  1.00  0.00     0.304 C 
ENDROOT
BRANCH   1   6
HETATM    6  O1  UNL     1      26.180   5.855  11.048  1.00  0.00    -0.376 OA
BRANCH   6   7
HETATM    7  C4  UNL     1      25.719   5.278  12.147  1.00  0.00     0.160 C 
HETATM    8  C3  UNL     1      24.327   4.694  12.087  1.00  0.00     0.064 C 
HETATM    9  C2  UNL     1      24.023   4.547  13.562  1.00  0.00     0.275 C 
HETATM   10  N1  UNL     1      24.682   5.646  14.235  1.00  0.00     0.094 N 
HETATM   11  C1  UNL     1      25.360   5.247  15.430  1.00  0.00     0.310 C 
HETATM   12  C13 UNL     1      25.597   6.249  13.288  1.00  0.00     0.284 C 
BRANCH  12  13
HETATM   13  C14 UNL     1      25.121   7.610  12.982  1.00  0.00     0.084 C 
HETATM   14  C15 UNL     1      26.360   8.521  13.114  1.00  0.00     0.047 C 
HETATM   15  C16 UNL     1      24.131   8.188  13.971  1.00  0.00     0.047 C 
BRANCH  13  16
HETATM   16  O2  UNL     1      24.670   7.831  11.698  1.00  0.00    -0.388 OA
ATOM     17  H2  UNL     1      23.988   8.484  11.594  1.00  0.00     0.210 HD
ENDBRANCH  13  16
ENDBRANCH  12  13
ENDBRANCH   6   7
ENDBRANCH   1   6
BRANCH   4  18
HETATM   18  C8  UNL     1      29.453   7.801  10.528  1.00  0.00     0.337 C 
BRANCH  18  19
HETATM   19  C9  UNL     1      30.383   7.615  11.699  1.00  0.00     0.079 A 
HETATM   20  N3  UNL     1      31.606   7.136  11.728  1.00  0.00    -0.362 N 
HETATM   21  C10 UNL     1      32.248   7.058  12.862  1.00  0.00     0.096 A 
ATOM     22  H3  UNL     1      32.054   6.826  10.866  1.00  0.00     0.165 HD
HETATM   23  C11 UNL     1      31.600   7.490  13.986  1.00  0.00     0.068 A 
HETATM   24  S1  UNL     1      30.092   7.987  13.342  1.00  0.00    -0.086 SA
ENDBRANCH  18  19
ENDBRANCH   4  18
TORSDOF 6
ENDMDL
MODEL 4
REMARK VINA RESULT: -5.734325502      0.998      1.078
REMARK  6 active torsions:
REMARK  status: ('A' for Active; 'I' for Inactive)
REMARK    1  A    between atoms: C4_5  and  O1_6 
REMARK    2  A    between atoms: O1_6  and  C5_7 
REMARK    3  A    between atoms: N2_10  and  C8_11 
REMARK    4  A    between atoms: C8_11  and  C9_12 
REMARK    5  A    between atoms: C13_19  and  C14_20 
REMARK    6  A    between atoms: C14_20  and  O2_23 
ROOT
HETATM    1  C5  UNL     1      27.221   5.496  10.444  1.00  0.00     0.152 C 
HETATM    2  C6  UNL     1      27.247   5.572   8.951  1.00  0.00     0.064 C 
HETATM    3  C7  UNL     1      28.186   6.714   8.638  1.00  0.00     0.275 C 
HETATM    4  N2  UNL     1      28.852   7.106   9.830  1.00  0.00     0.097 N 
HETATM    5  C12 UNL     1      28.445   6.230  10.905  1.00  0.00     0.304 C 
ENDROOT
BRANCH   1   6
HETATM    6  O1  UNL     1      26.050   5.844  11.041  1.00  0.00    -0.376 OA
BRANCH   6   7
HETATM    7  C4  UNL     1      25.650   5.253  12.155  1.00  0.00     0.160 C 
HETATM    8  C3  UNL     1      24.249   4.685  12.170  1.00  0.00     0.064 C 
HETATM    9  C2  UNL     1      24.034   4.516  13.658  1.00  0.00     0.275 C 
HETATM   10  N1  UNL     1      24.745   5.595  14.308  1.00  0.00     0.094 N 
HETATM   11  C1  UNL     1      25.489   5.168  15.453  1.00  0.00     0.310 C 
HETATM   12  C13 UNL     1      25.608   6.205  13.318  1.00  0.00     0.284 C 
BRANCH  12  13
HETATM   13  C14 UNL     1      25.131   7.575  13.065  1.00  0.00     0.084 C 
HETATM   14  C15 UNL     1      26.380   8.475  13.172  1.00  0.00     0.047 C 
HETATM   15  C16 UNL     1      24.184   8.134  14.105  1.00  0.00     0.047 C 
BRANCH  13  16
HETATM   16  O2  UNL     1      24.633   7.832  11.804  1.00  0.00    -0.388 OA
ATOM     17  H2  UNL     1      23.688   7.829  11.712  1.00  0.00     0.210 HD
ENDBRANCH  13  16
ENDBRANCH  12  13
ENDBRANCH   6   7
ENDBRANCH   1   6
BRANCH   4  18
HETATM   18  C8  UNL     1      28.705   8.487  10.187  1.00  0.00     0.337 C 
BRANCH  18  19
HETATM   19  C9  UNL     1      29.960   8.911  10.904  1.00  0.00     0.079 A 
HETATM   20  N3  UNL     1      31.155   9.166  10.421  1.00  0.00    -0.362 N 
HETATM   21  C10 UNL     1      32.120   9.524  11.223  1.00  0.00     0.096 A 
ATOM     22  H3  UNL     1      31.328   9.085   9.419  1.00  0.00     0.165 HD
HETATM   23  C11 UNL     1      31.831   9.618  12.556  1.00  0.00     0.068 A 
HETATM   24  S1  UNL     1      30.174   9.183  12.579  1.00  0.00    -0.086 SA
ENDBRANCH  18  19
ENDBRANCH   4  18
TORSDOF 6
ENDMDL
MODEL 5
REMARK VINA RESULT: -5.709683890      2.812      4.927
REMARK  6 active torsions:
REMARK  status: ('A' for Active; 'I' for Inactive)
REMARK    1  A    between atoms: C4_5  and  O1_6 
REMARK    2  A    between atoms: O1_6  and  C5_7 
REMARK    3  A    between atoms: N2_10  and  C8_11 
REMARK    4  A    between atoms: C8_11  and  C9_12 
REMARK    5  A    between atoms: C13_19  and  C14_20 
REMARK    6  A    between atoms: C14_20  and  O2_23 
ROOT
HETATM    1  C5  UNL     1      27.765   7.784  11.944  1.00  0.00     0.152 C 
HETATM    2  C6  UNL     1      29.108   7.176  11.690  1.00  0.00     0.064 C 
HETATM    3  C7  UNL     1      28.820   5.920  10.900  1.00  0.00     0.275 C 
HETATM    4  N2  UNL     1      27.457   5.925  10.502  1.00  0.00     0.097 N 
HETATM    5  C12 UNL     1      26.845   7.160  10.938  1.00  0.00     0.304 C 
ENDROOT
BRANCH   1   6
HETATM    6  O1  UNL     1      27.340   7.776  13.235  1.00  0.00    -0.376 OA
BRANCH   6   7
HETATM    7  C4  UNL     1      26.710   8.819  13.753  1.00  0.00     0.160 C 
HETATM    8  C3  UNL     1      27.218   9.344  15.076  1.00  0.00     0.064 C 
HETATM    9  C2  UNL     1      26.037  10.183  15.513  1.00  0.00     0.275 C 
HETATM   10  N1  UNL     1      24.849   9.518  15.025  1.00  0.00     0.094 N 
HETATM   11  C1  UNL     1      23.902  10.417  14.439  1.00  0.00     0.310 C 
HETATM   12  C13 UNL     1      25.274   8.510  14.075  1.00  0.00     0.284 C 
BRANCH  12  13
HETATM   13  C14 UNL     1      24.967   7.183  14.635  1.00  0.00     0.084 C 
HETATM   14  C15 UNL     1      24.554   6.311  13.430  1.00  0.00     0.047 C 
HETATM   15  C16 UNL     1      23.768   7.130  15.557  1.00  0.00     0.047 C 
BRANCH  13  16
HETATM   16  O2  UNL     1      26.018   6.497  15.208  1.00  0.00    -0.388 OA
ATOM     17  H2  UNL     1      26.390   6.872  15.997  1.00  0.00     0.210 HD
ENDBRANCH  13  16
ENDBRANCH  12  13
ENDBRANCH   6   7
ENDBRANCH   1   6
BRANCH   4  18
HETATM   18  C8  UNL     1      26.695   4.782  10.915  1.00  0.00     0.337 C 
BRANCH  18  19
HETATM   19  C9  UNL     1      26.071   4.178   9.684  1.00  0.00     0.079 A 
HETATM   20  N3  UNL     1      26.479   4.213   8.435  1.00  0.00    -0.362 N 
HETATM   21  C10 UNL     1      25.784   3.618   7.506  1.00  0.00     0.096 A 
ATOM     22  H3  UNL     1      27.340   4.705   8.193  1.00  0.00     0.165 HD
HETATM   23  C11 UNL     1      24.640   2.973   7.888  1.00  0.00     0.068 A 
HETATM   24  S1  UNL     1      24.632   3.262   9.576  1.00  0.00    -0.086 SA
ENDBRANCH  18  19
ENDBRANCH   4  18
TORSDOF 6
ENDMDL
