MODEL 1
REMARK VINA RESULT: -7.838724685      0.000      0.000
REMARK  5 active torsions:
REMARK  status: ('A' for Active; 'I' for Inactive)
REMARK    1  A    between atoms: N1_2  and  C2_5 
REMARK    2  A    between atoms: C2_5  and  C3_6 
REMARK    3  A    between atoms: N5_12  and  C4_13 
REMARK       I    between atoms: N6_16  and  C7_17 
REMARK    4  A    between atoms: C7_17  and  C8_19 
REMARK    5  A    between atoms: C8_19  and  C9_20 
ROOT
HETATM    1  C4  UNL     1      24.364   9.391  14.740  1.00  0.00     0.111 C 
HETATM    2  C5  UNL     1      24.211   8.005  15.242  1.00  0.00     0.047 C 
HETATM    3  C6  UNL     1      24.084   7.008  14.120  1.00  0.00     0.128 C 
HETATM    4  N6  UNL     1      24.984   7.173  13.007  1.00  0.00    -0.352 N 
HETATM    5  C7  UNL     1      25.797   6.116  12.548  1.00  0.00     0.220 C 
HETATM    6  O1  UNL     1      25.857   5.099  13.347  1.00  0.00    -0.273 OA
HETATM    7  C16 UNL     1      24.997   8.517  12.461  1.00  0.00     0.128 C 
HETATM    8  C17 UNL     1      25.387   9.394  13.626  1.00  0.00     0.047 C 
ENDROOT
BRANCH   1   9
HETATM    9  N5  UNL     1      24.667  10.375  15.678  1.00  0.00    -0.255 N 
HETATM   10  C3  UNL     1      24.428  11.681  15.666  1.00  0.00     0.138 A 
HETATM   11  N2  UNL     1      24.988  12.137  16.850  1.00  0.00    -0.274 N 
HETATM   12  N3  UNL     1      25.520  11.169  17.517  1.00  0.00    -0.225 N 
ATOM     13  H2  UNL     1      24.981  13.110  17.154  1.00  0.00     0.189 HD
HETATM   14  N4  UNL     1      25.319  10.085  16.790  1.00  0.00    -0.003 NA
ATOM     15  H3  UNL     1      25.997  11.229  18.418  1.00  0.00     0.205 HD
BRANCH  10  16
HETATM   16  C2  UNL     1      23.767  12.566  14.741  1.00  0.00     0.310 C 
BRANCH  16  17
HETATM   17  N1  UNL     1      24.633  12.938  13.623  1.00  0.00    -0.072 N 
HETATM   18  C1  UNL     1      23.993  12.671  12.375  1.00  0.00     0.267 C 
ATOM     19  H12 UNL     1      25.544  12.483  13.685  1.00  0.00     0.277 HD
ATOM     20  H11 UNL     1      24.940  13.908  13.690  1.00  0.00     0.277 HD
ENDBRANCH  16  17
ENDBRANCH  10  16
ENDBRANCH   1   9
BRANCH   5  21
HETATM   21  C8  UNL     1      26.538   6.055  11.296  1.00  0.00     0.108 C 
BRANCH  21  22
HETATM   22  C9  UNL     1      26.189   4.810  10.513  1.00  0.00    -0.002 C 
HETATM   23  C10 UNL     1      24.653   4.657  10.481  1.00  0.00     0.005 C 
HETATM   24  C11 UNL     1      24.432   3.246   9.899  1.00  0.00     0.000 C 
HETATM   25  C12 UNL     1      24.831   3.261   8.438  1.00  0.00     0.000 C 
HETATM   26  C13 UNL     1      26.256   3.765   8.262  1.00  0.00     0.004 C 
HETATM   27  C14 UNL     1      26.500   5.009   9.040  1.00  0.00    -0.014 C 
HETATM   28  C15 UNL     1      27.823   5.600   8.737  1.00  0.00     0.010 C 
ENDBRANCH  21  22
ENDBRANCH   5  21
TORSDOF 5
ENDMDL
MODEL 2
REMARK VINA RESULT: -7.761192496      5.285      6.656
REMARK  5 active torsions:
REMARK  status: ('A' for Active; 'I' for Inactive)
REMARK    1  A    between atoms: N1_2  and  C2_5 
REMARK    2  A    between atoms: C2_5  and  C3_6 
REMARK    3  A    between atoms: N5_12  and  C4_13 
REMARK       I    between atoms: N6_16  and  C7_17 
REMARK    4  A    between atoms: C7_17  and  C8_19 
REMARK    5  A    between atoms: C8_19  and  C9_20 
ROOT
HETATM    1  C4  UNL     1      30.841   7.944  12.122  1.00  0.00     0.111 C 
HETATM    2  C5  UNL     1      29.784   7.597  13.101  1.00  0.00     0.047 C 
HETATM    3  C6  UNL     1      28.413   7.601  12.477  1.00  0.00     0.128 C 
HETATM    4  N6  UNL     1      28.293   6.980  11.181  1.00  0.00    -0.352 N 
HETATM    5  C7  UNL     1      27.338   5.976  10.926  1.00  0.00     0.220 C 
HETATM    6  O1  UNL     1      26.775   5.489  11.985  1.00  0.00    -0.273 OA
HETATM    7  C16 UNL     1      29.267   7.455  10.215  1.00  0.00     0.128 C 
HETATM    8  C17 UNL     1      30.604   7.161  10.851  1.00  0.00     0.047 C 
ENDROOT
BRANCH   1   9
HETATM    9  N5  UNL     1      32.163   7.800  12.539  1.00  0.00    -0.255 N 
HETATM   10  C3  UNL     1      33.257   8.464  12.183  1.00  0.00     0.138 A 
HETATM   11  N2  UNL     1      34.271   7.853  12.906  1.00  0.00    -0.274 N 
HETATM   12  N3  UNL     1      33.810   6.897  13.640  1.00  0.00    -0.225 N 
ATOM     13  H2  UNL     1      35.253   8.125  12.864  1.00  0.00     0.189 HD
HETATM   14  N4  UNL     1      32.510   6.869  13.410  1.00  0.00    -0.003 NA
ATOM     15  H3  UNL     1      34.339   6.290  14.267  1.00  0.00     0.205 HD
BRANCH  10  16
HETATM   16  C2  UNL     1      33.509   9.565  11.289  1.00  0.00     0.310 C 
BRANCH  16  17
HETATM   17  N1  UNL     1      34.884   9.565  10.794  1.00  0.00    -0.072 N 
HETATM   18  C1  UNL     1      35.464  10.866  10.905  1.00  0.00     0.267 C 
ATOM     19  H12 UNL     1      34.942   9.207   9.840  1.00  0.00     0.277 HD
ATOM     20  H11 UNL     1      35.453   8.858  11.259  1.00  0.00     0.277 HD
ENDBRANCH  16  17
ENDBRANCH  10  16
ENDBRANCH   1   9
BRANCH   5  21
HETATM   21  C8  UNL     1      26.927   5.461   9.627  1.00  0.00     0.108 C 
BRANCH  21  22
HETATM   22  C9  UNL     1      25.961   4.308   9.775  1.00  0.00    -0.002 C 
HETATM   23  C10 UNL     1      24.623   4.847  10.323  1.00  0.00     0.005 C 
HETATM   24  C11 UNL     1      23.826   3.575  10.675  1.00  0.00     0.000 C 
HETATM   25  C12 UNL     1      23.442   2.876   9.387  1.00  0.00     0.000 C 
HETATM   26  C13 UNL     1      24.666   2.597   8.527  1.00  0.00     0.004 C 
HETATM   27  C14 UNL     1      25.541   3.794   8.409  1.00  0.00    -0.014 C 
HETATM   28  C15 UNL     1      26.635   3.585   7.436  1.00  0.00     0.010 C 
ENDBRANCH  21  22
ENDBRANCH   5  21
TORSDOF 5
ENDMDL
MODEL 3
REMARK VINA RESULT: -7.505932267      5.093      6.721
REMARK  5 active torsions:
REMARK  status: ('A' for Active; 'I' for Inactive)
REMARK    1  A    between atoms: N1_2  and  C2_5 
REMARK    2  A    between atoms: C2_5  and  C3_6 
REMARK    3  A    between atoms: N5_12  and  C4_13 
REMARK       I    between atoms: N6_16  and  C7_17 
REMARK    4  A    between atoms: C7_17  and  C8_19 
REMARK    5  A    between atoms: C8_19  and  C9_20 
ROOT
HETATM    1  C4  UNL     1      30.518   8.467  11.510  1.00  0.00     0.111 C 
HETATM    2  C5  UNL     1      29.825   7.735  12.596  1.00  0.00     0.047 C 
HETATM    3  C6  UNL     1      28.382   7.461  12.262  1.00  0.00     0.128 C 
HETATM    4  N6  UNL     1      28.107   7.001  10.924  1.00  0.00    -0.352 N 
HETATM    5  C7  UNL     1      27.372   5.823  10.682  1.00  0.00     0.220 C 
HETATM    6  O1  UNL     1      27.196   5.076  11.725  1.00  0.00    -0.273 OA
HETATM    7  C16 UNL     1      28.695   7.831   9.888  1.00  0.00     0.128 C 
HETATM    8  C17 UNL     1      30.174   7.817  10.188  1.00  0.00     0.047 C 
ENDROOT
BRANCH   1   9
HETATM    9  N5  UNL     1      31.898   8.621  11.629  1.00  0.00    -0.255 N 
HETATM   10  C3  UNL     1      32.736   8.189  12.564  1.00  0.00     0.138 A 
HETATM   11  N2  UNL     1      33.971   8.676  12.160  1.00  0.00    -0.274 N 
HETATM   12  N3  UNL     1      33.871   9.347  11.062  1.00  0.00    -0.225 N 
ATOM     13  H2  UNL     1      34.843   8.524  12.665  1.00  0.00     0.189 HD
HETATM   14  N4  UNL     1      32.591   9.309  10.739  1.00  0.00    -0.003 NA
ATOM     15  H3  UNL     1      34.623   9.809  10.551  1.00  0.00     0.205 HD
BRANCH  10  16
HETATM   16  C2  UNL     1      32.576   7.403  13.761  1.00  0.00     0.310 C 
BRANCH  16  17
HETATM   17  N1  UNL     1      33.581   6.345  13.860  1.00  0.00    -0.072 N 
HETATM   18  C1  UNL     1      34.705   6.783  14.625  1.00  0.00     0.267 C 
ATOM     19  H12 UNL     1      33.860   6.002  12.940  1.00  0.00     0.277 HD
ATOM     20  H11 UNL     1      33.184   5.482  14.232  1.00  0.00     0.277 HD
ENDBRANCH  16  17
ENDBRANCH  10  16
ENDBRANCH   1   9
BRANCH   5  21
HETATM   21  C8  UNL     1      26.797   5.388   9.417  1.00  0.00     0.108 C 
BRANCH  21  22
HETATM   22  C9  UNL     1      25.870   4.210   9.611  1.00  0.00    -0.002 C 
HETATM   23  C10 UNL     1      24.534   4.718  10.194  1.00  0.00     0.005 C 
HETATM   24  C11 UNL     1      23.786   3.430  10.589  1.00  0.00     0.000 C 
HETATM   25  C12 UNL     1      23.384   2.700   9.324  1.00  0.00     0.000 C 
HETATM   26  C13 UNL     1      24.588   2.443   8.430  1.00  0.00     0.004 C 
HETATM   27  C14 UNL     1      25.423   3.663   8.268  1.00  0.00    -0.014 C 
HETATM   28  C15 UNL     1      26.493   3.470   7.263  1.00  0.00     0.010 C 
ENDBRANCH  21  22
ENDBRANCH   5  21
TORSDOF 5
ENDMDL
MODEL 4
REMARK VINA RESULT: -7.491743223      1.939      3.545
REMARK  5 active torsions:
REMARK  status: ('A' for Active; 'I' for Inactive)
REMARK    1  A    between atoms: N1_2  and  C2_5 
REMARK    2  A    between atoms: C2_5  and  C3_6 
REMARK    3  A    between atoms: N5_12  and  C4_13 
REMARK       I    between atoms: N6_16  and  C7_17 
REMARK    4  A    between atoms: C7_17  and  C8_19 
REMARK    5  A    between atoms: C8_19  and  C9_20 
ROOT
HETATM    1  C4  UNL     1      26.137   9.791  12.319  1.00  0.00     0.111 C 
HETATM    2  C5  UNL     1      26.910   9.975  11.068  1.00  0.00     0.047 C 
HETATM    3  C6  UNL     1      27.844   8.822  10.807  1.00  0.00     0.128 C 
HETATM    4  N6  UNL     1      27.312   7.500  11.025  1.00  0.00    -0.352 N 
HETATM    5  C7  UNL     1      27.372   6.503  10.030  1.00  0.00     0.220 C 
HETATM    6  O1  UNL     1      27.697   6.938   8.854  1.00  0.00    -0.273 OA
HETATM    7  C16 UNL     1      26.684   7.330  12.322  1.00  0.00     0.128 C 
HETATM    8  C17 UNL     1      25.598   8.379  12.356  1.00  0.00     0.047 C 
ENDROOT
BRANCH   1   9
HETATM    9  N5  UNL     1      25.116  10.705  12.572  1.00  0.00    -0.255 N 
HETATM   10  C3  UNL     1      24.270  10.793  13.593  1.00  0.00     0.138 A 
HETATM   11  N2  UNL     1      23.469  11.880  13.274  1.00  0.00    -0.274 N 
HETATM   12  N3  UNL     1      23.817  12.400  12.146  1.00  0.00    -0.225 N 
ATOM     13  H2  UNL     1      22.706  12.223  13.856  1.00  0.00     0.189 HD
HETATM   14  N4  UNL     1      24.833  11.672  11.718  1.00  0.00    -0.003 NA
ATOM     15  H3  UNL     1      23.396  13.205  11.681  1.00  0.00     0.205 HD
BRANCH  10  16
HETATM   16  C2  UNL     1      24.089  10.037  14.806  1.00  0.00     0.310 C 
BRANCH  16  17
HETATM   17  N1  UNL     1      25.196  10.230  15.742  1.00  0.00    -0.072 N 
HETATM   18  C1  UNL     1      24.979  11.384  16.555  1.00  0.00     0.267 C 
ATOM     19  H12 UNL     1      26.095  10.271  15.261  1.00  0.00     0.277 HD
ATOM     20  H11 UNL     1      25.362   9.397  16.307  1.00  0.00     0.277 HD
ENDBRANCH  16  17
ENDBRANCH  10  16
ENDBRANCH   1   9
BRANCH   5  21
HETATM   21  C8  UNL     1      27.128   5.078  10.196  1.00  0.00     0.108 C 
BRANCH  21  22
HETATM   22  C9  UNL     1      25.915   4.634   9.409  1.00  0.00    -0.002 C 
HETATM   23  C10 UNL     1      26.336   3.507   8.441  1.00  0.00     0.005 C 
HETATM   24  C11 UNL     1      25.108   3.323   7.528  1.00  0.00     0.000 C 
HETATM   25  C12 UNL     1      23.989   2.710   8.344  1.00  0.00     0.000 C 
HETATM   26  C13 UNL     1      23.694   3.540   9.584  1.00  0.00     0.004 C 
HETATM   27  C14 UNL     1      24.939   3.903  10.313  1.00  0.00    -0.014 C 
HETATM   28  C15 UNL     1      24.650   4.557  11.609  1.00  0.00     0.010 C 
ENDBRANCH  21  22
ENDBRANCH   5  21
TORSDOF 5
ENDMDL
MODEL 5
REMARK VINA RESULT: -7.376428089      4.826      6.000
REMARK  5 active torsions:
REMARK  status: ('A' for Active; 'I' for Inactive)
REMARK    1  A    between atoms: N1_2  and  C2_5 
REMARK    2  A    between atoms: C2_5  and  C3_6 
REMARK    3  A    between atoms: N5_12  and  C4_13 
REMARK       I    between atoms: N6_16  and  C7_17 
REMARK    4  A    between atoms: C7_17  and  C8_19 
REMARK    5  A    between atoms: C8_19  and  C9_20 
ROOT
HETATM    1  C4  UNL     1      30.353   8.572  11.512  1.00  0.00     0.111 C 
HETATM    2  C5  UNL     1      29.684   7.810  12.593  1.00  0.00     0.047 C 
HETATM    3  C6  UNL     1      28.261   7.463  12.242  1.00  0.00     0.128 C 
HETATM    4  N6  UNL     1      28.026   6.985  10.903  1.00  0.00    -0.352 N 
HETATM    5  C7  UNL     1      27.354   5.770  10.657  1.00  0.00     0.220 C 
HETATM    6  O1  UNL     1      27.202   5.020  11.701  1.00  0.00    -0.273 OA
HETATM    7  C16 UNL     1      28.585   7.839   9.871  1.00  0.00     0.128 C 
HETATM    8  C17 UNL     1      30.059   7.900  10.190  1.00  0.00     0.047 C 
ENDROOT
BRANCH   1   9
HETATM    9  N5  UNL     1      31.722   8.795  11.648  1.00  0.00    -0.255 N 
HETATM   10  C3  UNL     1      32.395   9.918  11.870  1.00  0.00     0.138 A 
HETATM   11  N2  UNL     1      33.724   9.518  11.874  1.00  0.00    -0.274 N 
HETATM   12  N3  UNL     1      33.830   8.248  11.670  1.00  0.00    -0.225 N 
ATOM     13  H2  UNL     1      34.514  10.147  12.019  1.00  0.00     0.189 HD
HETATM   14  N4  UNL     1      32.592   7.808  11.532  1.00  0.00    -0.003 NA
ATOM     15  H3  UNL     1      34.689   7.700  11.625  1.00  0.00     0.205 HD
BRANCH  10  16
HETATM   16  C2  UNL     1      32.007  11.289  12.080  1.00  0.00     0.310 C 
BRANCH  16  17
HETATM   17  N1  UNL     1      32.242  11.721  13.456  1.00  0.00    -0.072 N 
HETATM   18  C1  UNL     1      31.303  11.114  14.346  1.00  0.00     0.267 C 
ATOM     19  H12 UNL     1      32.237  12.738  13.539  1.00  0.00     0.277 HD
ATOM     20  H11 UNL     1      33.204  11.548  13.748  1.00  0.00     0.277 HD
ENDBRANCH  16  17
ENDBRANCH  10  16
ENDBRANCH   1   9
BRANCH   5  21
HETATM   21  C8  UNL     1      26.817   5.302   9.387  1.00  0.00     0.108 C 
BRANCH  21  22
HETATM   22  C9  UNL     1      25.861   4.149   9.587  1.00  0.00    -0.002 C 
HETATM   23  C10 UNL     1      24.550   4.690  10.199  1.00  0.00     0.005 C 
HETATM   24  C11 UNL     1      23.772   3.419  10.594  1.00  0.00     0.000 C 
HETATM   25  C12 UNL     1      23.327   2.715   9.330  1.00  0.00     0.000 C 
HETATM   26  C13 UNL     1      24.507   2.432   8.412  1.00  0.00     0.004 C 
HETATM   27  C14 UNL     1      25.373   3.629   8.247  1.00  0.00    -0.014 C 
HETATM   28  C15 UNL     1      26.419   3.416   7.221  1.00  0.00     0.010 C 
ENDBRANCH  21  22
ENDBRANCH   5  21
TORSDOF 5
ENDMDL
