MODEL 1
REMARK VINA RESULT: -6.636253457      0.000      0.000
REMARK  6 active torsions:
REMARK  status: ('A' for Active; 'I' for Inactive)
REMARK    1  A    between atoms: O1_1  and  C1_3 
REMARK    2  A    between atoms: C2_5  and  C3_6 
REMARK    3  A    between atoms: C4_10  and  C5_11 
REMARK    4  A    between atoms: C5_11  and  C6_12 
REMARK    5  A    between atoms: C6_12  and  C7_13 
REMARK    6  A    between atoms: C7_13  and  N2_14 
ROOT
HETATM    1  C5  UNL     1      27.226   7.417  12.063  1.00  0.00     0.067 C 
ENDROOT
BRANCH   1   2
HETATM    2  C4  UNL     1      25.927   7.428  12.825  1.00  0.00     0.070 A 
HETATM    3  C1  UNL     1      24.863   8.237  12.522  1.00  0.00     0.208 A 
HETATM    4  O2  UNL     1      23.903   7.991  13.380  1.00  0.00    -0.272 OA
HETATM    5  C2  UNL     1      24.310   7.056  14.222  1.00  0.00     0.137 A 
HETATM    6  N1  UNL     1      25.573   6.697  13.885  1.00  0.00    -0.339 N 
ATOM      7  H1  UNL     1      26.147   5.997  14.354  1.00  0.00     0.167 HD
BRANCH   3   8
HETATM    8  O1  UNL     1      24.786   9.169  11.488  1.00  0.00    -0.339 OA
ATOM      9  H1  UNL     1      24.921   8.970  10.569  1.00  0.00     0.220 HD
ENDBRANCH   3   8
BRANCH   5  10
HETATM   10  C3  UNL     1      23.461   6.537  15.329  1.00  0.00     0.169 C 
HETATM   11 BR1  UNL     1      23.448   4.613  15.335  1.00  0.00    -0.088 Br
ENDBRANCH   5  10
ENDBRANCH   1   2
BRANCH   1  12
HETATM   12  C6  UNL     1      27.012   6.862  10.676  1.00  0.00     0.050 C 
BRANCH  12  13
HETATM   13  C7  UNL     1      26.982   5.383  10.586  1.00  0.00     0.059 C 
BRANCH  13  14
HETATM   14  N2  UNL     1      25.933   4.752   9.917  1.00  0.00    -0.382 N 
HETATM   15  C8  UNL     1      26.157   4.038   8.727  1.00  0.00     0.149 C 
HETATM   16  C9  UNL     1      25.441   2.689   8.839  1.00  0.00     0.191 C 
HETATM   17  O3  UNL     1      24.146   2.804   9.263  1.00  0.00    -0.358 OA
HETATM   18  C10 UNL     1      23.690   4.084   9.454  1.00  0.00     0.282 C 
HETATM   19  O4  UNL     1      22.543   4.022  10.254  1.00  0.00    -0.359 OA
HETATM   20  C13 UNL     1      24.610   4.901  10.380  1.00  0.00     0.140 C 
HETATM   21  C11 UNL     1      22.985   3.634  11.518  1.00  0.00     0.173 C 
HETATM   22  C12 UNL     1      24.417   4.102  11.663  1.00  0.00     0.056 C 
ENDBRANCH  13  14
ENDBRANCH  12  13
ENDBRANCH   1  12
TORSDOF 6
ENDMDL
MODEL 2
REMARK VINA RESULT: -6.453410820      2.552      5.107
REMARK  6 active torsions:
REMARK  status: ('A' for Active; 'I' for Inactive)
REMARK    1  A    between atoms: O1_1  and  C1_3 
REMARK    2  A    between atoms: C2_5  and  C3_6 
REMARK    3  A    between atoms: C4_10  and  C5_11 
REMARK    4  A    between atoms: C5_11  and  C6_12 
REMARK    5  A    between atoms: C6_12  and  C7_13 
REMARK    6  A    between atoms: C7_13  and  N2_14 
ROOT
HETATM    1  C5  UNL     1      25.173   4.122   8.995  1.00  0.00     0.067 C 
ENDROOT
BRANCH   1   2
HETATM    2  C4  UNL     1      24.567   4.072  10.373  1.00  0.00     0.070 A 
HETATM    3  C1  UNL     1      23.467   3.327  10.705  1.00  0.00     0.208 A 
HETATM    4  O2  UNL     1      23.212   3.514  11.977  1.00  0.00    -0.272 OA
HETATM    5  C2  UNL     1      24.107   4.351  12.474  1.00  0.00     0.137 A 
HETATM    6  N1  UNL     1      24.959   4.706  11.482  1.00  0.00    -0.339 N 
ATOM      7  H1  UNL     1      25.753   5.341  11.566  1.00  0.00     0.167 HD
BRANCH   3   8
HETATM    8  O1  UNL     1      22.725   2.504   9.858  1.00  0.00    -0.339 OA
ATOM      9  H1  UNL     1      23.039   1.689   9.484  1.00  0.00     0.220 HD
ENDBRANCH   3   8
BRANCH   5  10
HETATM   10  C3  UNL     1      24.111   4.780  13.900  1.00  0.00     0.169 C 
HETATM   11 BR1  UNL     1      24.439   6.670  14.042  1.00  0.00    -0.088 Br
ENDBRANCH   5  10
ENDBRANCH   1   2
BRANCH   1  12
HETATM   12  C6  UNL     1      26.663   4.335   9.087  1.00  0.00     0.050 C 
BRANCH  12  13
HETATM   13  C7  UNL     1      27.127   5.707   8.777  1.00  0.00     0.059 C 
BRANCH  13  14
HETATM   14  N2  UNL     1      28.293   6.195   9.369  1.00  0.00    -0.382 N 
HETATM   15  C8  UNL     1      29.375   6.630   8.585  1.00  0.00     0.149 C 
HETATM   16  C9  UNL     1      29.844   7.983   9.130  1.00  0.00     0.191 C 
HETATM   17  O3  UNL     1      30.017   7.981  10.487  1.00  0.00    -0.358 OA
HETATM   18  C10 UNL     1      29.808   6.779  11.116  1.00  0.00     0.282 C 
HETATM   19  O4  UNL     1      29.619   7.028  12.480  1.00  0.00    -0.359 OA
HETATM   20  C13 UNL     1      28.438   6.168  10.770  1.00  0.00     0.140 C 
HETATM   21  C11 UNL     1      28.388   7.675  12.578  1.00  0.00     0.173 C 
HETATM   22  C12 UNL     1      27.545   7.228  11.403  1.00  0.00     0.056 C 
ENDBRANCH  13  14
ENDBRANCH  12  13
ENDBRANCH   1  12
TORSDOF 6
ENDMDL
MODEL 3
REMARK VINA RESULT: -6.296447356      2.787      5.045
REMARK  6 active torsions:
REMARK  status: ('A' for Active; 'I' for Inactive)
REMARK    1  A    between atoms: O1_1  and  C1_3 
REMARK    2  A    between atoms: C2_5  and  C3_6 
REMARK    3  A    between atoms: C4_10  and  C5_11 
REMARK    4  A    between atoms: C5_11  and  C6_12 
REMARK    5  A    between atoms: C6_12  and  C7_13 
REMARK    6  A    between atoms: C7_13  and  N2_14 
ROOT
HETATM    1  C5  UNL     1      26.130   7.533  11.663  1.00  0.00     0.067 C 
ENDROOT
BRANCH   1   2
HETATM    2  C4  UNL     1      25.753   6.157  11.181  1.00  0.00     0.070 A 
HETATM    3  C1  UNL     1      26.649   5.140  10.978  1.00  0.00     0.208 A 
HETATM    4  O2  UNL     1      25.988   4.087  10.560  1.00  0.00    -0.272 OA
HETATM    5  C2  UNL     1      24.703   4.391  10.487  1.00  0.00     0.137 A 
HETATM    6  N1  UNL     1      24.544   5.680  10.873  1.00  0.00    -0.339 N 
ATOM      7  H1  UNL     1      23.664   6.193  10.918  1.00  0.00     0.167 HD
BRANCH   3   8
HETATM    8  O1  UNL     1      28.029   5.186  11.173  1.00  0.00    -0.339 OA
ATOM      9  H1  UNL     1      28.486   4.788  11.905  1.00  0.00     0.220 HD
ENDBRANCH   3   8
BRANCH   5  10
HETATM   10  C3  UNL     1      23.665   3.419  10.047  1.00  0.00     0.169 C 
HETATM   11 BR1  UNL     1      24.473   1.766   9.484  1.00  0.00    -0.088 Br
ENDBRANCH   5  10
ENDBRANCH   1   2
BRANCH   1  12
HETATM   12  C6  UNL     1      25.070   8.066  12.596  1.00  0.00     0.050 C 
BRANCH  12  13
HETATM   13  C7  UNL     1      25.269   7.742  14.028  1.00  0.00     0.059 C 
BRANCH  13  14
HETATM   14  N2  UNL     1      25.168   6.419  14.459  1.00  0.00    -0.382 N 
HETATM   15  C8  UNL     1      26.310   5.688  14.828  1.00  0.00     0.149 C 
HETATM   16  C9  UNL     1      26.019   4.989  16.160  1.00  0.00     0.191 C 
HETATM   17  O3  UNL     1      24.824   4.324  16.164  1.00  0.00    -0.358 OA
HETATM   18  C10 UNL     1      24.126   4.337  14.982  1.00  0.00     0.282 C 
HETATM   19  O4  UNL     1      22.798   3.994  15.256  1.00  0.00    -0.359 OA
HETATM   20  C13 UNL     1      23.920   5.764  14.441  1.00  0.00     0.140 C 
HETATM   21  C11 UNL     1      22.269   5.069  15.968  1.00  0.00     0.173 C 
HETATM   22  C12 UNL     1      23.033   6.308  15.554  1.00  0.00     0.056 C 
ENDBRANCH  13  14
ENDBRANCH  12  13
ENDBRANCH   1  12
TORSDOF 6
ENDMDL
MODEL 4
REMARK VINA RESULT: -6.287585812      1.127      2.190
REMARK  6 active torsions:
REMARK  status: ('A' for Active; 'I' for Inactive)
REMARK    1  A    between atoms: O1_1  and  C1_3 
REMARK    2  A    between atoms: C2_5  and  C3_6 
REMARK    3  A    between atoms: C4_10  and  C5_11 
REMARK    4  A    between atoms: C5_11  and  C6_12 
REMARK    5  A    between atoms: C6_12  and  C7_13 
REMARK    6  A    between atoms: C7_13  and  N2_14 
ROOT
HETATM    1  C5  UNL     1      26.509   7.170  12.488  1.00  0.00     0.067 C 
ENDROOT
BRANCH   1   2
HETATM    2  C4  UNL     1      25.447   6.890  13.520  1.00  0.00     0.070 A 
HETATM    3  C1  UNL     1      24.275   7.591  13.629  1.00  0.00     0.208 A 
HETATM    4  O2  UNL     1      23.586   7.088  14.625  1.00  0.00    -0.272 OA
HETATM    5  C2  UNL     1      24.273   6.091  15.159  1.00  0.00     0.137 A 
HETATM    6  N1  UNL     1      25.437   5.959  14.477  1.00  0.00    -0.339 N 
ATOM      7  H1  UNL     1      26.169   5.274  14.661  1.00  0.00     0.167 HD
BRANCH   3   8
HETATM    8  O1  UNL     1      23.858   8.658  12.834  1.00  0.00    -0.339 OA
ATOM      9  H1  UNL     1      24.409   9.388  12.575  1.00  0.00     0.220 HD
ENDBRANCH   3   8
BRANCH   5  10
HETATM   10  C3  UNL     1      23.778   5.296  16.316  1.00  0.00     0.169 C 
HETATM   11 BR1  UNL     1      22.072   4.501  15.918  1.00  0.00    -0.088 Br
ENDBRANCH   5  10
ENDBRANCH   1   2
BRANCH   1  12
HETATM   12  C6  UNL     1      26.154   6.506  11.181  1.00  0.00     0.050 C 
BRANCH  12  13
HETATM   13  C7  UNL     1      26.402   5.046  11.127  1.00  0.00     0.059 C 
BRANCH  13  14
HETATM   14  N2  UNL     1      25.373   4.182  10.748  1.00  0.00    -0.382 N 
HETATM   15  C8  UNL     1      24.149   4.166  11.439  1.00  0.00     0.149 C 
HETATM   16  C9  UNL     1      23.019   4.196  10.405  1.00  0.00     0.191 C 
HETATM   17  O3  UNL     1      23.183   3.277   9.406  1.00  0.00    -0.358 OA
HETATM   18  C10 UNL     1      24.276   2.455   9.523  1.00  0.00     0.282 C 
HETATM   19  O4  UNL     1      24.528   1.886   8.270  1.00  0.00    -0.359 OA
HETATM   20  C13 UNL     1      25.584   3.243   9.719  1.00  0.00     0.140 C 
HETATM   21  C11 UNL     1      24.981   2.930   7.465  1.00  0.00     0.173 C 
HETATM   22  C12 UNL     1      25.632   3.953   8.372  1.00  0.00     0.056 C 
ENDBRANCH  13  14
ENDBRANCH  12  13
ENDBRANCH   1  12
TORSDOF 6
ENDMDL
MODEL 5
REMARK VINA RESULT: -6.244277058      2.288      4.854
REMARK  6 active torsions:
REMARK  status: ('A' for Active; 'I' for Inactive)
REMARK    1  A    between atoms: O1_1  and  C1_3 
REMARK    2  A    between atoms: C2_5  and  C3_6 
REMARK    3  A    between atoms: C4_10  and  C5_11 
REMARK    4  A    between atoms: C5_11  and  C6_12 
REMARK    5  A    between atoms: C6_12  and  C7_13 
REMARK    6  A    between atoms: C7_13  and  N2_14 
ROOT
HETATM    1  C5  UNL     1      24.584   4.466   9.810  1.00  0.00     0.067 C 
ENDROOT
BRANCH   1   2
HETATM    2  C4  UNL     1      24.370   4.507  11.300  1.00  0.00     0.070 A 
HETATM    3  C1  UNL     1      23.472   3.719  11.971  1.00  0.00     0.208 A 
HETATM    4  O2  UNL     1      23.543   4.010  13.248  1.00  0.00    -0.272 OA
HETATM    5  C2  UNL     1      24.453   4.954  13.421  1.00  0.00     0.137 A 
HETATM    6  N1  UNL     1      24.976   5.272  12.211  1.00  0.00    -0.339 N 
ATOM      7  H1  UNL     1      25.699   5.969  12.030  1.00  0.00     0.167 HD
BRANCH   3   8
HETATM    8  O1  UNL     1      22.617   2.765  11.420  1.00  0.00    -0.339 OA
ATOM      9  H1  UNL     1      22.771   1.828  11.435  1.00  0.00     0.220 HD
ENDBRANCH   3   8
BRANCH   5  10
HETATM   10  C3  UNL     1      24.790   5.520  14.756  1.00  0.00     0.169 C 
HETATM   11 BR1  UNL     1      23.475   6.813  15.301  1.00  0.00    -0.088 Br
ENDBRANCH   5  10
ENDBRANCH   1   2
BRANCH   1  12
HETATM   12  C6  UNL     1      26.016   4.110   9.498  1.00  0.00     0.050 C 
BRANCH  12  13
HETATM   13  C7  UNL     1      26.858   5.235   9.027  1.00  0.00     0.059 C 
BRANCH  13  14
HETATM   14  N2  UNL     1      27.567   6.003   9.952  1.00  0.00    -0.382 N 
HETATM   15  C8  UNL     1      28.445   5.404  10.871  1.00  0.00     0.149 C 
HETATM   16  C9  UNL     1      29.757   6.194  10.861  1.00  0.00     0.191 C 
HETATM   17  O3  UNL     1      29.568   7.545  10.969  1.00  0.00    -0.358 OA
HETATM   18  C10 UNL     1      28.269   7.958  11.126  1.00  0.00     0.282 C 
HETATM   19  O4  UNL     1      28.203   9.319  10.810  1.00  0.00    -0.359 OA
HETATM   20  C13 UNL     1      27.338   7.392  10.038  1.00  0.00     0.140 C 
HETATM   21  C11 UNL     1      28.412   9.397   9.434  1.00  0.00     0.173 C 
HETATM   22  C12 UNL     1      27.944   8.092   8.828  1.00  0.00     0.056 C 
ENDBRANCH  13  14
ENDBRANCH  12  13
ENDBRANCH   1  12
TORSDOF 6
ENDMDL
