MODEL 1
REMARK VINA RESULT: -6.605345402      0.000      0.000
REMARK  7 active torsions:
REMARK  status: ('A' for Active; 'I' for Inactive)
REMARK    1  A    between atoms: C2_2  and  N1_5 
REMARK    2  A    between atoms: N1_5  and  C5_7 
REMARK    3  A    between atoms: C5_7  and  C6_8 
REMARK    4  A    between atoms: C5_7  and  C7_11 
REMARK    5  A    between atoms: C6_8  and  O1_9 
REMARK    6  A    between atoms: C10_15  and  N3_16 
REMARK    7  A    between atoms: N3_16  and  C11_19 
ROOT
HETATM    1  C7  UNL     1       9.208  22.598  34.778  1.00  0.00     0.085 C 
HETATM    2  N2  UNL     1       8.424  23.607  35.232  1.00  0.00    -0.391 N 
HETATM    3  C8  UNL     1       8.407  24.957  34.987  1.00  0.00     0.124 C 
HETATM    4  C9  UNL     1       7.043  25.626  35.207  1.00  0.00     0.052 C 
HETATM    5  C10 UNL     1       6.319  25.054  36.405  1.00  0.00     0.189 C 
HETATM    6  C16 UNL     1       6.294  23.524  36.342  1.00  0.00     0.052 C 
HETATM    7  C17 UNL     1       6.984  23.146  35.057  1.00  0.00     0.124 C 
ENDROOT
BRANCH   1   8
HETATM    8  C5  UNL     1      10.653  22.376  35.025  1.00  0.00     0.139 C 
BRANCH   8   9
HETATM    9  N1  UNL     1      11.461  22.933  33.994  1.00  0.00    -0.403 N 
ATOM     10  H1  UNL     1      11.067  23.795  33.617  1.00  0.00     0.154 HD
BRANCH   9  11
HETATM   11  C2  UNL     1      12.606  22.602  33.403  1.00  0.00     0.015 C 
HETATM   12  C1  UNL     1      12.292  22.374  31.890  1.00  0.00     0.037 C 
HETATM   13  C3  UNL     1      13.509  21.495  33.750  1.00  0.00     0.037 C 
HETATM   14  C4  UNL     1      13.510  23.876  33.385  1.00  0.00     0.037 C 
ENDBRANCH   9  11
ENDBRANCH   8   9
BRANCH   8  15
HETATM   15  C6  UNL     1      11.198  22.896  36.356  1.00  0.00     0.194 C 
BRANCH  15  16
HETATM   16  O1  UNL     1      10.666  22.382  37.490  1.00  0.00    -0.398 OA
ATOM     17  H1  UNL     1      11.217  21.807  38.009  1.00  0.00     0.209 HD
ENDBRANCH  15  16
ENDBRANCH   8  15
ENDBRANCH   1   8
BRANCH   5  18
HETATM   18  N3  UNL     1       4.966  25.506  36.447  1.00  0.00    -0.067 N 
ATOM     19  H32 UNL     1       4.812  26.237  35.753  1.00  0.00     0.278 HD
ATOM     20  H31 UNL     1       4.338  24.789  36.085  1.00  0.00     0.278 HD
BRANCH  18  21
HETATM   21  C11 UNL     1       4.532  25.946  37.750  1.00  0.00     0.186 C 
HETATM   22  C12 UNL     1       5.753  26.462  38.477  1.00  0.00     0.033 C 
HETATM   23  C13 UNL     1       5.771  27.956  38.308  1.00  0.00     0.002 C 
HETATM   24  C14 UNL     1       4.696  28.259  37.296  1.00  0.00     0.002 C 
HETATM   25  C15 UNL     1       3.668  27.183  37.620  1.00  0.00     0.033 C 
ENDBRANCH  18  21
ENDBRANCH   5  18
TORSDOF 7
ENDMDL
MODEL 2
REMARK VINA RESULT: -6.505872272      0.550      1.183
REMARK  7 active torsions:
REMARK  status: ('A' for Active; 'I' for Inactive)
REMARK    1  A    between atoms: C2_2  and  N1_5 
REMARK    2  A    between atoms: N1_5  and  C5_7 
REMARK    3  A    between atoms: C5_7  and  C6_8 
REMARK    4  A    between atoms: C5_7  and  C7_11 
REMARK    5  A    between atoms: C6_8  and  O1_9 
REMARK    6  A    between atoms: C10_15  and  N3_16 
REMARK    7  A    between atoms: N3_16  and  C11_19 
ROOT
HETATM    1  C7  UNL     1       9.309  22.550  34.732  1.00  0.00     0.085 C 
HETATM    2  N2  UNL     1       8.571  23.611  35.142  1.00  0.00    -0.391 N 
HETATM    3  C8  UNL     1       8.566  24.937  34.787  1.00  0.00     0.124 C 
HETATM    4  C9  UNL     1       7.229  25.653  35.022  1.00  0.00     0.052 C 
HETATM    5  C10 UNL     1       6.561  25.199  36.300  1.00  0.00     0.189 C 
HETATM    6  C16 UNL     1       6.503  23.670  36.366  1.00  0.00     0.052 C 
HETATM    7  C17 UNL     1       7.115  23.172  35.082  1.00  0.00     0.124 C 
ENDROOT
BRANCH   1   8
HETATM    8  C5  UNL     1      10.762  22.316  34.919  1.00  0.00     0.139 C 
BRANCH   8   9
HETATM    9  N1  UNL     1      11.536  22.916  33.887  1.00  0.00    -0.403 N 
ATOM     10  H1  UNL     1      11.122  23.784  33.547  1.00  0.00     0.154 HD
BRANCH   9  11
HETATM   11  C2  UNL     1      12.668  22.618  33.256  1.00  0.00     0.015 C 
HETATM   12  C1  UNL     1      12.310  22.387  31.754  1.00  0.00     0.037 C 
HETATM   13  C3  UNL     1      13.613  21.535  33.567  1.00  0.00     0.037 C 
HETATM   14  C4  UNL     1      13.537  23.916  33.213  1.00  0.00     0.037 C 
ENDBRANCH   9  11
ENDBRANCH   8   9
BRANCH   8  15
HETATM   15  C6  UNL     1      11.354  22.777  36.253  1.00  0.00     0.194 C 
BRANCH  15  16
HETATM   16  O1  UNL     1      10.725  22.379  37.384  1.00  0.00    -0.398 OA
ATOM     17  H1  UNL     1      10.690  22.998  38.104  1.00  0.00     0.209 HD
ENDBRANCH  15  16
ENDBRANCH   8  15
ENDBRANCH   1   8
BRANCH   5  18
HETATM   18  N3  UNL     1       5.221  25.684  36.376  1.00  0.00    -0.067 N 
ATOM     19  H32 UNL     1       4.813  25.754  35.444  1.00  0.00     0.278 HD
ATOM     20  H31 UNL     1       4.607  24.978  36.781  1.00  0.00     0.278 HD
BRANCH  18  21
HETATM   21  C11 UNL     1       5.087  26.935  37.082  1.00  0.00     0.186 C 
HETATM   22  C12 UNL     1       3.668  27.007  37.596  1.00  0.00     0.033 C 
HETATM   23  C13 UNL     1       3.691  26.547  39.028  1.00  0.00     0.002 C 
HETATM   24  C14 UNL     1       5.076  25.995  39.249  1.00  0.00     0.002 C 
HETATM   25  C15 UNL     1       5.907  26.905  38.354  1.00  0.00     0.033 C 
ENDBRANCH  18  21
ENDBRANCH   5  18
TORSDOF 7
ENDMDL
MODEL 3
REMARK VINA RESULT: -6.499725739      0.799      1.237
REMARK  7 active torsions:
REMARK  status: ('A' for Active; 'I' for Inactive)
REMARK    1  A    between atoms: C2_2  and  N1_5 
REMARK    2  A    between atoms: N1_5  and  C5_7 
REMARK    3  A    between atoms: C5_7  and  C6_8 
REMARK    4  A    between atoms: C5_7  and  C7_11 
REMARK    5  A    between atoms: C6_8  and  O1_9 
REMARK    6  A    between atoms: C10_15  and  N3_16 
REMARK    7  A    between atoms: N3_16  and  C11_19 
ROOT
HETATM    1  C7  UNL     1       9.784  22.359  34.612  1.00  0.00     0.085 C 
HETATM    2  N2  UNL     1       9.053  23.449  34.954  1.00  0.00    -0.391 N 
HETATM    3  C8  UNL     1       9.084  24.759  34.545  1.00  0.00     0.124 C 
HETATM    4  C9  UNL     1       7.754  25.507  34.706  1.00  0.00     0.052 C 
HETATM    5  C10 UNL     1       7.037  25.117  35.980  1.00  0.00     0.189 C 
HETATM    6  C16 UNL     1       6.949  23.594  36.106  1.00  0.00     0.052 C 
HETATM    7  C17 UNL     1       7.592  23.033  34.865  1.00  0.00     0.124 C 
ENDROOT
BRANCH   1   8
HETATM    8  C5  UNL     1      11.225  22.108  34.856  1.00  0.00     0.139 C 
BRANCH   8   9
HETATM    9  N1  UNL     1      12.051  22.792  33.921  1.00  0.00    -0.403 N 
ATOM     10  H1  UNL     1      12.060  23.800  34.078  1.00  0.00     0.154 HD
BRANCH   9  11
HETATM   11  C2  UNL     1      12.815  22.436  32.892  1.00  0.00     0.015 C 
HETATM   12  C1  UNL     1      13.895  23.552  32.715  1.00  0.00     0.037 C 
HETATM   13  C3  UNL     1      12.389  22.133  31.518  1.00  0.00     0.037 C 
HETATM   14  C4  UNL     1      13.659  21.200  33.339  1.00  0.00     0.037 C 
ENDBRANCH   9  11
ENDBRANCH   8   9
BRANCH   8  15
HETATM   15  C6  UNL     1      11.744  22.453  36.254  1.00  0.00     0.194 C 
BRANCH  15  16
HETATM   16  O1  UNL     1      11.921  21.429  37.123  1.00  0.00    -0.398 OA
ATOM     17  H1  UNL     1      12.483  20.715  36.847  1.00  0.00     0.209 HD
ENDBRANCH  15  16
ENDBRANCH   8  15
ENDBRANCH   1   8
BRANCH   5  18
HETATM   18  N3  UNL     1       5.705  25.629  35.992  1.00  0.00    -0.067 N 
ATOM     19  H32 UNL     1       5.667  26.537  35.529  1.00  0.00     0.278 HD
ATOM     20  H31 UNL     1       5.109  25.089  35.364  1.00  0.00     0.278 HD
BRANCH  18  21
HETATM   21  C11 UNL     1       5.116  25.706  37.306  1.00  0.00     0.186 C 
HETATM   22  C12 UNL     1       5.765  26.869  38.020  1.00  0.00     0.033 C 
HETATM   23  C13 UNL     1       4.847  28.051  37.867  1.00  0.00     0.002 C 
HETATM   24  C14 UNL     1       3.798  27.619  36.874  1.00  0.00     0.002 C 
HETATM   25  C15 UNL     1       3.668  26.137  37.202  1.00  0.00     0.033 C 
ENDBRANCH  18  21
ENDBRANCH   5  18
TORSDOF 7
ENDMDL
MODEL 4
REMARK VINA RESULT: -6.493078661      0.821      1.628
REMARK  7 active torsions:
REMARK  status: ('A' for Active; 'I' for Inactive)
REMARK    1  A    between atoms: C2_2  and  N1_5 
REMARK    2  A    between atoms: N1_5  and  C5_7 
REMARK    3  A    between atoms: C5_7  and  C6_8 
REMARK    4  A    between atoms: C5_7  and  C7_11 
REMARK    5  A    between atoms: C6_8  and  O1_9 
REMARK    6  A    between atoms: C10_15  and  N3_16 
REMARK    7  A    between atoms: N3_16  and  C11_19 
ROOT
HETATM    1  C7  UNL     1       9.657  22.364  34.642  1.00  0.00     0.085 C 
HETATM    2  N2  UNL     1       8.845  23.386  35.009  1.00  0.00    -0.391 N 
HETATM    3  C8  UNL     1       8.763  24.700  34.619  1.00  0.00     0.124 C 
HETATM    4  C9  UNL     1       7.379  25.335  34.811  1.00  0.00     0.052 C 
HETATM    5  C10 UNL     1       6.716  24.872  36.088  1.00  0.00     0.189 C 
HETATM    6  C16 UNL     1       6.754  23.345  36.194  1.00  0.00     0.052 C 
HETATM    7  C17 UNL     1       7.421  22.854  34.936  1.00  0.00     0.124 C 
ENDROOT
BRANCH   1   8
HETATM    8  C5  UNL     1      11.117  22.228  34.862  1.00  0.00     0.139 C 
BRANCH   8   9
HETATM    9  N1  UNL     1      11.870  23.009  33.941  1.00  0.00    -0.403 N 
ATOM     10  H1  UNL     1      11.777  24.009  34.116  1.00  0.00     0.154 HD
BRANCH   9  11
HETATM   11  C2  UNL     1      12.665  22.750  32.906  1.00  0.00     0.015 C 
HETATM   12  C1  UNL     1      13.662  23.946  32.784  1.00  0.00     0.037 C 
HETATM   13  C3  UNL     1      12.271  22.472  31.517  1.00  0.00     0.037 C 
HETATM   14  C4  UNL     1      13.592  21.561  33.312  1.00  0.00     0.037 C 
ENDBRANCH   9  11
ENDBRANCH   8   9
BRANCH   8  15
HETATM   15  C6  UNL     1      11.624  22.571  36.264  1.00  0.00     0.194 C 
BRANCH  15  16
HETATM   16  O1  UNL     1      11.926  21.539  37.087  1.00  0.00    -0.398 OA
ATOM     17  H1  UNL     1      11.818  21.680  38.021  1.00  0.00     0.209 HD
ENDBRANCH  15  16
ENDBRANCH   8  15
ENDBRANCH   1   8
BRANCH   5  18
HETATM   18  N3  UNL     1       5.347  25.273  36.127  1.00  0.00    -0.067 N 
ATOM     19  H32 UNL     1       4.967  25.336  35.183  1.00  0.00     0.278 HD
ATOM     20  H31 UNL     1       4.765  24.523  36.499  1.00  0.00     0.278 HD
BRANCH  18  21
HETATM   21  C11 UNL     1       5.113  26.500  36.849  1.00  0.00     0.186 C 
HETATM   22  C12 UNL     1       3.673  26.480  37.308  1.00  0.00     0.033 C 
HETATM   23  C13 UNL     1       3.668  25.993  38.731  1.00  0.00     0.002 C 
HETATM   24  C14 UNL     1       5.074  25.518  38.997  1.00  0.00     0.002 C 
HETATM   25  C15 UNL     1       5.884  26.492  38.152  1.00  0.00     0.033 C 
ENDBRANCH  18  21
ENDBRANCH   5  18
TORSDOF 7
ENDMDL
MODEL 5
REMARK VINA RESULT: -6.228042146      2.760      4.746
REMARK  7 active torsions:
REMARK  status: ('A' for Active; 'I' for Inactive)
REMARK    1  A    between atoms: C2_2  and  N1_5 
REMARK    2  A    between atoms: N1_5  and  C5_7 
REMARK    3  A    between atoms: C5_7  and  C6_8 
REMARK    4  A    between atoms: C5_7  and  C7_11 
REMARK    5  A    between atoms: C6_8  and  O1_9 
REMARK    6  A    between atoms: C10_15  and  N3_16 
REMARK    7  A    between atoms: N3_16  and  C11_19 
ROOT
HETATM    1  C7  UNL     1      13.215  22.543  32.424  1.00  0.00     0.085 C 
HETATM    2  N2  UNL     1      12.101  22.903  33.107  1.00  0.00    -0.391 N 
HETATM    3  C8  UNL     1      11.488  22.396  34.226  1.00  0.00     0.124 C 
HETATM    4  C9  UNL     1      10.638  23.412  35.001  1.00  0.00     0.052 C 
HETATM    5  C10 UNL     1       9.893  24.349  34.076  1.00  0.00     0.189 C 
HETATM    6  C16 UNL     1      10.843  24.950  33.036  1.00  0.00     0.052 C 
HETATM    7  C17 UNL     1      12.210  24.401  33.351  1.00  0.00     0.124 C 
ENDROOT
BRANCH   1   8
HETATM    8  C5  UNL     1      13.454  21.301  31.649  1.00  0.00     0.139 C 
BRANCH   8   9
HETATM    9  N1  UNL     1      13.437  20.144  32.477  1.00  0.00    -0.403 N 
ATOM     10  H1  UNL     1      12.553  20.040  32.977  1.00  0.00     0.154 HD
BRANCH   9  11
HETATM   11  C2  UNL     1      14.292  19.166  32.758  1.00  0.00     0.015 C 
HETATM   12  C1  UNL     1      15.196  18.971  31.499  1.00  0.00     0.037 C 
HETATM   13  C3  UNL     1      13.981  17.794  33.187  1.00  0.00     0.037 C 
HETATM   14  C4  UNL     1      15.293  19.709  33.827  1.00  0.00     0.037 C 
ENDBRANCH   9  11
ENDBRANCH   8   9
BRANCH   8  15
HETATM   15  C6  UNL     1      12.498  21.037  30.484  1.00  0.00     0.194 C 
BRANCH  15  16
HETATM   16  O1  UNL     1      11.852  22.102  29.955  1.00  0.00    -0.398 OA
ATOM     17  H1  UNL     1      10.915  22.161  30.099  1.00  0.00     0.209 HD
ENDBRANCH  15  16
ENDBRANCH   8  15
ENDBRANCH   1   8
BRANCH   5  18
HETATM   18  N3  UNL     1       9.312  25.429  34.804  1.00  0.00    -0.067 N 
ATOM     19  H32 UNL     1       9.199  25.178  35.786  1.00  0.00     0.278 HD
ATOM     20  H31 UNL     1       9.977  26.197  34.897  1.00  0.00     0.278 HD
BRANCH  18  21
HETATM   21  C11 UNL     1       8.064  25.905  34.257  1.00  0.00     0.186 C 
HETATM   22  C12 UNL     1       7.006  25.703  35.316  1.00  0.00     0.033 C 
HETATM   23  C13 UNL     1       6.844  27.013  36.037  1.00  0.00     0.002 C 
HETATM   24  C14 UNL     1       7.970  27.885  35.542  1.00  0.00     0.002 C 
HETATM   25  C15 UNL     1       8.105  27.410  34.101  1.00  0.00     0.033 C 
ENDBRANCH  18  21
ENDBRANCH   5  18
TORSDOF 7
ENDMDL
