MODEL 1
REMARK VINA RESULT: -7.175448592      0.000      0.000
REMARK  6 active torsions:
REMARK  status: ('A' for Active; 'I' for Inactive)
REMARK    1  A    between atoms: C3_3  and  C4_4 
REMARK    2  A    between atoms: C3_3  and  N1_6 
REMARK       I    between atoms: N1_6  and  C6_8 
REMARK    3  A    between atoms: C6_8  and  C7_10 
REMARK    4  A    between atoms: C7_10  and  N2_11 
REMARK    5  A    between atoms: N2_11  and  C8_13 
REMARK    6  A    between atoms: C8_13  and  C10_18 
ROOT
HETATM    1  C8  UNL     1      14.297  20.543  34.757  1.00  0.00     0.118 C 
HETATM    2  N3  UNL     1      14.387  21.095  35.881  1.00  0.00    -0.281 N 
ATOM      3  H3  UNL     1      13.629  21.749  36.074  1.00  0.00     0.179 HD
HETATM    4  C9  UNL     1      15.290  20.996  36.893  1.00  0.00     0.183 C 
HETATM    5  N4  UNL     1      16.034  20.919  37.762  1.00  0.00    -0.172 NA
ENDROOT
BRANCH   1   6
HETATM    6  N2  UNL     1      13.181  20.894  33.928  1.00  0.00    -0.360 N 
ATOM      7  H2  UNL     1      12.479  20.177  33.742  1.00  0.00     0.162 HD
BRANCH   6   8
HETATM    8  C7  UNL     1      12.990  22.179  33.349  1.00  0.00     0.113 C 
HETATM    9  C14 UNL     1      12.532  22.168  31.898  1.00  0.00     0.041 C 
HETATM   10  C15 UNL     1      13.948  22.593  31.526  1.00  0.00     0.006 C 
HETATM   11  C16 UNL     1      14.235  22.944  32.971  1.00  0.00     0.041 C 
BRANCH   8  12
HETATM   12  C6  UNL     1      12.092  23.057  34.133  1.00  0.00     0.250 C 
HETATM   13  N1  UNL     1      10.784  23.314  33.684  1.00  0.00    -0.329 N 
ATOM     14  H1  UNL     1      10.473  22.885  32.813  1.00  0.00     0.168 HD
HETATM   15  O1  UNL     1      12.510  23.561  35.192  1.00  0.00    -0.270 OA
BRANCH  13  16
HETATM   16  C3  UNL     1       9.871  24.154  34.401  1.00  0.00     0.007 C 
HETATM   17  C2  UNL     1       9.727  25.419  34.075  1.00  0.00    -0.006 C 
HETATM   18  C1  UNL     1       8.784  26.278  34.818  1.00  0.00     0.038 C 
BRANCH  16  19
HETATM   19  C4  UNL     1       9.100  23.576  35.503  1.00  0.00     0.052 C 
HETATM   20  C5  UNL     1       7.894  22.866  34.912  1.00  0.00     0.011 C 
ENDBRANCH  16  19
ENDBRANCH  13  16
ENDBRANCH   8  12
ENDBRANCH   6   8
ENDBRANCH   1   6
BRANCH   1  21
HETATM   21  C10 UNL     1      15.261  19.568  34.260  1.00  0.00     0.253 C 
HETATM   22  C11 UNL     1      15.071  19.144  32.824  1.00  0.00     0.042 C 
HETATM   23  C12 UNL     1      15.907  17.861  32.779  1.00  0.00     0.030 C 
HETATM   24  C13 UNL     1      16.422  17.664  34.211  1.00  0.00     0.233 C 
HETATM   25  N5  UNL     1      15.356  18.337  34.980  1.00  0.00    -0.064 N 
ATOM     26  H52 UNL     1      15.519  18.422  35.983  1.00  0.00     0.278 HD
ATOM     27  H51 UNL     1      14.485  17.815  35.081  1.00  0.00     0.278 HD
ENDBRANCH   1  21
TORSDOF 6
ENDMDL
MODEL 2
REMARK VINA RESULT: -7.111233304      0.600      1.340
REMARK  6 active torsions:
REMARK  status: ('A' for Active; 'I' for Inactive)
REMARK    1  A    between atoms: C3_3  and  C4_4 
REMARK    2  A    between atoms: C3_3  and  N1_6 
REMARK       I    between atoms: N1_6  and  C6_8 
REMARK    3  A    between atoms: C6_8  and  C7_10 
REMARK    4  A    between atoms: C7_10  and  N2_11 
REMARK    5  A    between atoms: N2_11  and  C8_13 
REMARK    6  A    between atoms: C8_13  and  C10_18 
ROOT
HETATM    1  C8  UNL     1      14.285  20.620  34.921  1.00  0.00     0.118 C 
HETATM    2  N3  UNL     1      14.394  21.142  36.059  1.00  0.00    -0.281 N 
ATOM      3  H3  UNL     1      13.633  21.781  36.287  1.00  0.00     0.179 HD
HETATM    4  C9  UNL     1      15.321  21.026  37.047  1.00  0.00     0.183 C 
HETATM    5  N4  UNL     1      16.085  20.935  37.897  1.00  0.00    -0.172 NA
ENDROOT
BRANCH   1   6
HETATM    6  N2  UNL     1      13.146  20.980  34.128  1.00  0.00    -0.360 N 
ATOM      7  H2  UNL     1      12.530  20.232  33.809  1.00  0.00     0.162 HD
BRANCH   6   8
HETATM    8  C7  UNL     1      12.821  22.315  33.758  1.00  0.00     0.113 C 
HETATM    9  C14 UNL     1      12.522  22.517  32.280  1.00  0.00     0.041 C 
HETATM   10  C15 UNL     1      13.887  23.187  32.173  1.00  0.00     0.006 C 
HETATM   11  C16 UNL     1      13.966  23.295  33.681  1.00  0.00     0.041 C 
BRANCH   8  12
HETATM   12  C6  UNL     1      11.721  22.901  34.558  1.00  0.00     0.250 C 
HETATM   13  N1  UNL     1      10.511  23.264  33.940  1.00  0.00    -0.329 N 
ATOM     14  H1  UNL     1      10.410  23.113  32.936  1.00  0.00     0.168 HD
HETATM   15  O1  UNL     1      11.884  23.069  35.781  1.00  0.00    -0.270 OA
BRANCH  13  16
HETATM   16  C3  UNL     1       9.414  23.835  34.663  1.00  0.00     0.007 C 
HETATM   17  C2  UNL     1       8.459  23.071  35.145  1.00  0.00    -0.006 C 
HETATM   18  C1  UNL     1       7.333  23.667  35.890  1.00  0.00     0.038 C 
BRANCH  16  19
HETATM   19  C4  UNL     1       9.378  25.285  34.856  1.00  0.00     0.052 C 
HETATM   20  C5  UNL     1       9.367  25.943  33.487  1.00  0.00     0.011 C 
ENDBRANCH  16  19
ENDBRANCH  13  16
ENDBRANCH   8  12
ENDBRANCH   6   8
ENDBRANCH   1   6
BRANCH   1  21
HETATM   21  C10 UNL     1      15.249  19.672  34.376  1.00  0.00     0.253 C 
HETATM   22  C11 UNL     1      15.055  19.317  32.922  1.00  0.00     0.042 C 
HETATM   23  C12 UNL     1      15.894  18.039  32.814  1.00  0.00     0.030 C 
HETATM   24  C13 UNL     1      16.414  17.775  34.233  1.00  0.00     0.233 C 
HETATM   25  N5  UNL     1      15.349  18.409  35.036  1.00  0.00    -0.064 N 
ATOM     26  H52 UNL     1      15.515  18.446  36.042  1.00  0.00     0.278 HD
ATOM     27  H51 UNL     1      14.479  17.880  35.115  1.00  0.00     0.278 HD
ENDBRANCH   1  21
TORSDOF 6
ENDMDL
MODEL 3
REMARK VINA RESULT: -6.946747268      1.848      6.885
REMARK  6 active torsions:
REMARK  status: ('A' for Active; 'I' for Inactive)
REMARK    1  A    between atoms: C3_3  and  C4_4 
REMARK    2  A    between atoms: C3_3  and  N1_6 
REMARK       I    between atoms: N1_6  and  C6_8 
REMARK    3  A    between atoms: C6_8  and  C7_10 
REMARK    4  A    between atoms: C7_10  and  N2_11 
REMARK    5  A    between atoms: N2_11  and  C8_13 
REMARK    6  A    between atoms: C8_13  and  C10_18 
ROOT
HETATM    1  C8  UNL     1      11.955  22.028  33.739  1.00  0.00     0.118 C 
HETATM    2  N3  UNL     1      12.506  21.946  32.613  1.00  0.00    -0.281 N 
ATOM      3  H3  UNL     1      13.384  21.427  32.626  1.00  0.00     0.179 HD
HETATM    4  C9  UNL     1      12.168  22.409  31.379  1.00  0.00     0.183 C 
HETATM    5  N4  UNL     1      11.896  22.782  30.330  1.00  0.00    -0.172 NA
ENDROOT
BRANCH   1   6
HETATM    6  N2  UNL     1      12.611  21.402  34.850  1.00  0.00    -0.360 N 
ATOM      7  H2  UNL     1      12.081  20.724  35.398  1.00  0.00     0.162 HD
BRANCH   6   8
HETATM    8  C7  UNL     1      13.955  21.667  35.236  1.00  0.00     0.113 C 
HETATM    9  C14 UNL     1      14.196  21.703  36.738  1.00  0.00     0.041 C 
HETATM   10  C15 UNL     1      14.299  23.218  36.609  1.00  0.00     0.006 C 
HETATM   11  C16 UNL     1      14.428  23.094  35.106  1.00  0.00     0.041 C 
BRANCH   8  12
HETATM   12  C6  UNL     1      14.943  20.760  34.609  1.00  0.00     0.250 C 
HETATM   13  N1  UNL     1      14.562  19.468  34.205  1.00  0.00    -0.329 N 
ATOM     14  H1  UNL     1      13.596  19.174  34.354  1.00  0.00     0.168 HD
HETATM   15  O1  UNL     1      16.111  21.157  34.444  1.00  0.00    -0.270 OA
BRANCH  13  16
HETATM   16  C3  UNL     1      15.474  18.548  33.593  1.00  0.00     0.007 C 
HETATM   17  C2  UNL     1      16.471  18.036  34.279  1.00  0.00    -0.006 C 
HETATM   18  C1  UNL     1      17.406  17.088  33.642  1.00  0.00     0.038 C 
BRANCH  16  19
HETATM   19  C4  UNL     1      15.272  18.186  32.189  1.00  0.00     0.052 C 
HETATM   20  C5  UNL     1      14.853  19.437  31.436  1.00  0.00     0.011 C 
ENDBRANCH  16  19
ENDBRANCH  13  16
ENDBRANCH   8  12
ENDBRANCH   6   8
ENDBRANCH   1   6
BRANCH   1  21
HETATM   21  C10 UNL     1      10.691  22.718  33.968  1.00  0.00     0.253 C 
HETATM   22  C11 UNL     1      10.776  23.957  34.825  1.00  0.00     0.042 C 
HETATM   23  C12 UNL     1       9.307  24.149  35.216  1.00  0.00     0.030 C 
HETATM   24  C13 UNL     1       8.564  22.960  34.594  1.00  0.00     0.233 C 
HETATM   25  N5  UNL     1       9.642  21.951  34.562  1.00  0.00    -0.064 N 
ATOM     26  H52 UNL     1       9.414  21.074  34.093  1.00  0.00     0.278 HD
ATOM     27  H51 UNL     1       9.865  21.512  35.456  1.00  0.00     0.278 HD
ENDBRANCH   1  21
TORSDOF 6
ENDMDL
MODEL 4
REMARK VINA RESULT: -6.778414083      1.418      2.013
REMARK  6 active torsions:
REMARK  status: ('A' for Active; 'I' for Inactive)
REMARK    1  A    between atoms: C3_3  and  C4_4 
REMARK    2  A    between atoms: C3_3  and  N1_6 
REMARK       I    between atoms: N1_6  and  C6_8 
REMARK    3  A    between atoms: C6_8  and  C7_10 
REMARK    4  A    between atoms: C7_10  and  N2_11 
REMARK    5  A    between atoms: N2_11  and  C8_13 
REMARK    6  A    between atoms: C8_13  and  C10_18 
ROOT
HETATM    1  C8  UNL     1      13.498  21.278  34.203  1.00  0.00     0.118 C 
HETATM    2  N3  UNL     1      13.806  21.599  35.377  1.00  0.00    -0.281 N 
ATOM      3  H3  UNL     1      13.153  22.257  35.802  1.00  0.00     0.179 HD
HETATM    4  C9  UNL     1      14.833  21.248  36.196  1.00  0.00     0.183 C 
HETATM    5  N4  UNL     1      15.685  20.957  36.906  1.00  0.00    -0.172 NA
ENDROOT
BRANCH   1   6
HETATM    6  N2  UNL     1      12.313  21.857  33.641  1.00  0.00    -0.360 N 
ATOM      7  H2  UNL     1      11.578  21.226  33.321  1.00  0.00     0.162 HD
BRANCH   6   8
HETATM    8  C7  UNL     1      12.097  23.256  33.500  1.00  0.00     0.113 C 
HETATM    9  C14 UNL     1      11.841  23.726  32.076  1.00  0.00     0.041 C 
HETATM   10  C15 UNL     1      13.255  24.296  32.089  1.00  0.00     0.006 C 
HETATM   11  C16 UNL     1      13.316  24.142  33.594  1.00  0.00     0.041 C 
BRANCH   8  12
HETATM   12  C6  UNL     1      11.033  23.784  34.383  1.00  0.00     0.250 C 
HETATM   13  N1  UNL     1       9.863  24.336  33.831  1.00  0.00    -0.329 N 
ATOM     14  H1  UNL     1       9.767  24.363  32.816  1.00  0.00     0.168 HD
HETATM   15  O1  UNL     1      11.189  23.733  35.618  1.00  0.00    -0.270 OA
BRANCH  13  16
HETATM   16  C3  UNL     1       8.801  24.862  34.636  1.00  0.00     0.007 C 
HETATM   17  C2  UNL     1       7.808  24.093  35.020  1.00  0.00    -0.006 C 
HETATM   18  C1  UNL     1       6.718  24.642  35.851  1.00  0.00     0.038 C 
BRANCH  16  19
HETATM   19  C4  UNL     1       8.845  26.273  35.023  1.00  0.00     0.052 C 
HETATM   20  C5  UNL     1       8.502  27.109  33.801  1.00  0.00     0.011 C 
ENDBRANCH  16  19
ENDBRANCH  13  16
ENDBRANCH   8  12
ENDBRANCH   6   8
ENDBRANCH   1   6
BRANCH   1  21
HETATM   21  C10 UNL     1      14.278  20.349  33.393  1.00  0.00     0.253 C 
HETATM   22  C11 UNL     1      14.479  20.757  31.954  1.00  0.00     0.042 C 
HETATM   23  C12 UNL     1      14.909  19.427  31.325  1.00  0.00     0.030 C 
HETATM   24  C13 UNL     1      14.838  18.400  32.463  1.00  0.00     0.233 C 
HETATM   25  N5  UNL     1      13.794  19.007  33.314  1.00  0.00    -0.064 N 
ATOM     26  H52 UNL     1      13.625  18.543  34.206  1.00  0.00     0.278 HD
ATOM     27  H51 UNL     1      12.835  18.900  32.981  1.00  0.00     0.278 HD
ENDBRANCH   1  21
TORSDOF 6
ENDMDL
MODEL 5
REMARK VINA RESULT: -6.714704240      1.895      6.386
REMARK  6 active torsions:
REMARK  status: ('A' for Active; 'I' for Inactive)
REMARK    1  A    between atoms: C3_3  and  C4_4 
REMARK    2  A    between atoms: C3_3  and  N1_6 
REMARK       I    between atoms: N1_6  and  C6_8 
REMARK    3  A    between atoms: C6_8  and  C7_10 
REMARK    4  A    between atoms: C7_10  and  N2_11 
REMARK    5  A    between atoms: N2_11  and  C8_13 
REMARK    6  A    between atoms: C8_13  and  C10_18 
ROOT
HETATM    1  C8  UNL     1      11.472  22.987  34.398  1.00  0.00     0.118 C 
HETATM    2  N3  UNL     1      12.360  22.814  35.269  1.00  0.00    -0.281 N 
ATOM      3  H3  UNL     1      13.035  22.091  35.023  1.00  0.00     0.179 HD
HETATM    4  C9  UNL     1      12.603  23.396  36.474  1.00  0.00     0.183 C 
HETATM    5  N4  UNL     1      12.830  23.880  37.488  1.00  0.00    -0.172 NA
ENDROOT
BRANCH   1   6
HETATM    6  N2  UNL     1      11.528  22.175  33.217  1.00  0.00    -0.360 N 
ATOM      7  H2  UNL     1      10.791  21.484  33.077  1.00  0.00     0.162 HD
BRANCH   6   8
HETATM    8  C7  UNL     1      12.546  22.273  32.229  1.00  0.00     0.113 C 
HETATM    9  C14 UNL     1      13.134  23.665  32.048  1.00  0.00     0.041 C 
HETATM   10  C15 UNL     1      12.345  23.747  30.746  1.00  0.00     0.006 C 
HETATM   11  C16 UNL     1      12.097  22.254  30.788  1.00  0.00     0.041 C 
BRANCH   8  12
HETATM   12  C6  UNL     1      13.649  21.302  32.414  1.00  0.00     0.250 C 
HETATM   13  N1  UNL     1      13.566  20.320  33.417  1.00  0.00    -0.329 N 
ATOM     14  H1  UNL     1      12.735  20.292  34.008  1.00  0.00     0.168 HD
HETATM   15  O1  UNL     1      14.647  21.369  31.673  1.00  0.00    -0.270 OA
BRANCH  13  16
HETATM   16  C3  UNL     1      14.601  19.355  33.643  1.00  0.00     0.007 C 
HETATM   17  C2  UNL     1      14.509  18.143  33.142  1.00  0.00    -0.006 C 
HETATM   18  C1  UNL     1      15.580  17.156  33.378  1.00  0.00     0.038 C 
BRANCH  16  19
HETATM   19  C4  UNL     1      15.765  19.746  34.440  1.00  0.00     0.052 C 
HETATM   20  C5  UNL     1      15.295  20.702  35.523  1.00  0.00     0.011 C 
ENDBRANCH  16  19
ENDBRANCH  13  16
ENDBRANCH   8  12
ENDBRANCH   6   8
ENDBRANCH   1   6
BRANCH   1  21
HETATM   21  C10 UNL     1      10.400  23.968  34.525  1.00  0.00     0.253 C 
HETATM   22  C11 UNL     1       9.019  23.394  34.722  1.00  0.00     0.042 C 
HETATM   23  C12 UNL     1       8.143  24.602  34.375  1.00  0.00     0.030 C 
HETATM   24  C13 UNL     1       9.123  25.705  33.955  1.00  0.00     0.233 C 
HETATM   25  N5  UNL     1      10.247  24.893  33.447  1.00  0.00    -0.064 N 
ATOM     26  H52 UNL     1      11.085  25.411  33.185  1.00  0.00     0.278 HD
ATOM     27  H51 UNL     1      10.113  24.479  32.524  1.00  0.00     0.278 HD
ENDBRANCH   1  21
TORSDOF 6
ENDMDL
