MODEL 1
REMARK VINA RESULT: -6.958495087      0.000      0.000
REMARK  7 active torsions:
REMARK  status: ('A' for Active; 'I' for Inactive)
REMARK    1  A    between atoms: N1_2  and  C3_4 
REMARK    2  A    between atoms: C3_4  and  C4_5 
REMARK    3  A    between atoms: C4_5  and  C5_6 
REMARK    4  A    between atoms: C5_6  and  C6_7 
REMARK    5  A    between atoms: C7_10  and  N3_11 
REMARK    6  A    between atoms: C8_16  and  N5_17 
REMARK    7  A    between atoms: N5_17  and  C9_19 
ROOT
HETATM    1  C6  UNL     1      13.556  21.581  34.722  1.00  0.00     0.113 A 
HETATM    2  N2  UNL     1      14.034  22.309  35.747  1.00  0.00    -0.180 N 
ATOM      3  H2  UNL     1      15.042  22.309  35.905  1.00  0.00     0.185 HD
HETATM    4  C7  UNL     1      13.272  23.029  36.567  1.00  0.00     0.691 A 
HETATM    5  N4  UNL     1      11.935  23.035  36.363  1.00  0.00    -0.023 N 
ATOM      6  H4  UNL     1      11.329  23.580  36.976  1.00  0.00     0.203 HD
HETATM    7  C8  UNL     1      11.395  22.317  35.340  1.00  0.00     0.694 A 
HETATM    8  N6  UNL     1      12.228  21.597  34.533  1.00  0.00    -0.180 N 
ATOM      9  H6  UNL     1      11.829  21.056  33.766  1.00  0.00     0.185 HD
ENDROOT
BRANCH   7  10
HETATM   10  N5  UNL     1      10.126  22.295  35.111  1.00  0.00    -0.221 N 
ATOM     11  H5  UNL     1       9.703  21.433  34.766  1.00  0.00     0.178 HD
BRANCH  10  12
HETATM   12  C9  UNL     1       9.291  23.436  35.321  1.00  0.00     0.099 C 
HETATM   13  C10 UNL     1       7.813  23.106  35.084  1.00  0.00     0.026 C 
HETATM   14  C11 UNL     1       6.935  23.839  36.065  1.00  0.00     0.002 C 
HETATM   15  C12 UNL     1       6.584  25.222  35.630  1.00  0.00     0.000 C 
HETATM   16  C13 UNL     1       7.484  25.757  34.543  1.00  0.00     0.000 C 
HETATM   17  C14 UNL     1       8.930  25.819  34.988  1.00  0.00     0.002 C 
HETATM   18  C15 UNL     1       9.616  24.596  34.417  1.00  0.00     0.026 C 
ENDBRANCH  10  12
ENDBRANCH   7  10
BRANCH   4  19
HETATM   19  N3  UNL     1      13.757  23.719  37.543  1.00  0.00    -0.234 N 
ATOM     20  H32 UNL     1      14.766  23.732  37.684  1.00  0.00     0.174 HD
ATOM     21  H31 UNL     1      13.171  24.253  38.185  1.00  0.00     0.174 HD
ENDBRANCH   4  19
BRANCH   1  22
HETATM   22  C5  UNL     1      14.453  20.814  33.863  1.00  0.00     0.079 C 
BRANCH  22  23
HETATM   23  C4  UNL     1      15.660  20.223  34.555  1.00  0.00     0.027 C 
BRANCH  23  24
HETATM   24  C3  UNL     1      15.589  18.755  34.518  1.00  0.00     0.116 C 
BRANCH  24  25
HETATM   25  N1  UNL     1      16.316  18.087  33.508  1.00  0.00    -0.421 N 
HETATM   26  C1  UNL     1      15.566  17.722  32.353  1.00  0.00     0.142 C 
HETATM   27  C2  UNL     1      17.381  17.256  33.867  1.00  0.00     0.142 C 
ENDBRANCH  24  25
ENDBRANCH  23  24
ENDBRANCH  22  23
ENDBRANCH   1  22
TORSDOF 7
ENDMDL
MODEL 2
REMARK VINA RESULT: -6.915984327      1.237      1.614
REMARK  7 active torsions:
REMARK  status: ('A' for Active; 'I' for Inactive)
REMARK    1  A    between atoms: N1_2  and  C3_4 
REMARK    2  A    between atoms: C3_4  and  C4_5 
REMARK    3  A    between atoms: C4_5  and  C5_6 
REMARK    4  A    between atoms: C5_6  and  C6_7 
REMARK    5  A    between atoms: C7_10  and  N3_11 
REMARK    6  A    between atoms: C8_16  and  N5_17 
REMARK    7  A    between atoms: N5_17  and  C9_19 
ROOT
HETATM    1  C6  UNL     1      13.530  21.702  33.693  1.00  0.00     0.113 A 
HETATM    2  N2  UNL     1      14.117  21.807  34.898  1.00  0.00    -0.180 N 
ATOM      3  H2  UNL     1      15.136  21.775  34.939  1.00  0.00     0.185 HD
HETATM    4  C7  UNL     1      13.450  21.949  36.041  1.00  0.00     0.691 A 
HETATM    5  N4  UNL     1      12.099  21.993  35.995  1.00  0.00    -0.023 N 
ATOM      6  H4  UNL     1      11.564  22.103  36.857  1.00  0.00     0.203 HD
HETATM    7  C8  UNL     1      11.450  21.892  34.803  1.00  0.00     0.694 A 
HETATM    8  N6  UNL     1      12.189  21.747  33.664  1.00  0.00    -0.180 N 
ATOM      9  H6  UNL     1      11.710  21.670  32.768  1.00  0.00     0.185 HD
ENDROOT
BRANCH   7  10
HETATM   10  N5  UNL     1      10.164  21.930  34.715  1.00  0.00    -0.221 N 
ATOM     11  H5  UNL     1       9.670  21.102  34.382  1.00  0.00     0.178 HD
BRANCH  10  12
HETATM   12  C9  UNL     1       9.407  23.090  35.065  1.00  0.00     0.099 C 
HETATM   13  C10 UNL     1       7.901  22.851  34.908  1.00  0.00     0.026 C 
HETATM   14  C11 UNL     1       7.129  23.548  35.997  1.00  0.00     0.002 C 
HETATM   15  C12 UNL     1       6.825  24.976  35.691  1.00  0.00     0.000 C 
HETATM   16  C13 UNL     1       7.680  25.549  34.588  1.00  0.00     0.000 C 
HETATM   17  C14 UNL     1       9.153  25.506  34.934  1.00  0.00     0.002 C 
HETATM   18  C15 UNL     1       9.734  24.299  34.229  1.00  0.00     0.026 C 
ENDBRANCH  10  12
ENDBRANCH   7  10
BRANCH   4  19
HETATM   19  N3  UNL     1      14.038  22.047  37.184  1.00  0.00    -0.234 N 
ATOM     20  H32 UNL     1      14.932  21.575  37.321  1.00  0.00     0.174 HD
ATOM     21  H31 UNL     1      13.646  22.577  37.963  1.00  0.00     0.174 HD
ENDBRANCH   4  19
BRANCH   1  22
HETATM   22  C5  UNL     1      14.328  21.547  32.480  1.00  0.00     0.079 C 
BRANCH  22  23
HETATM   23  C4  UNL     1      13.839  20.490  31.518  1.00  0.00     0.027 C 
BRANCH  23  24
HETATM   24  C3  UNL     1      14.812  19.391  31.445  1.00  0.00     0.116 C 
BRANCH  24  25
HETATM   25  N1  UNL     1      14.830  18.456  32.505  1.00  0.00    -0.421 N 
HETATM   26  C1  UNL     1      15.971  17.604  32.551  1.00  0.00     0.142 C 
HETATM   27  C2  UNL     1      13.622  17.934  32.977  1.00  0.00     0.142 C 
ENDBRANCH  24  25
ENDBRANCH  23  24
ENDBRANCH  22  23
ENDBRANCH   1  22
TORSDOF 7
ENDMDL
MODEL 3
REMARK VINA RESULT: -6.867191205      2.177      7.015
REMARK  7 active torsions:
REMARK  status: ('A' for Active; 'I' for Inactive)
REMARK    1  A    between atoms: N1_2  and  C3_4 
REMARK    2  A    between atoms: C3_4  and  C4_5 
REMARK    3  A    between atoms: C4_5  and  C5_6 
REMARK    4  A    between atoms: C5_6  and  C6_7 
REMARK    5  A    between atoms: C7_10  and  N3_11 
REMARK    6  A    between atoms: C8_16  and  N5_17 
REMARK    7  A    between atoms: N5_17  and  C9_19 
ROOT
HETATM    1  C6  UNL     1      13.062  23.046  36.559  1.00  0.00     0.113 A 
HETATM    2  N2  UNL     1      14.016  23.993  36.566  1.00  0.00    -0.180 N 
ATOM      3  H2  UNL     1      13.730  24.960  36.723  1.00  0.00     0.185 HD
HETATM    4  C7  UNL     1      15.311  23.747  36.381  1.00  0.00     0.691 A 
HETATM    5  N4  UNL     1      15.699  22.467  36.174  1.00  0.00    -0.023 N 
ATOM      6  H4  UNL     1      16.685  22.252  36.030  1.00  0.00     0.203 HD
HETATM    7  C8  UNL     1      14.776  21.466  36.157  1.00  0.00     0.694 A 
HETATM    8  N6  UNL     1      13.462  21.781  36.352  1.00  0.00    -0.180 N 
ATOM      9  H6  UNL     1      12.767  21.036  36.340  1.00  0.00     0.185 HD
ENDROOT
BRANCH   7  10
HETATM   10  N5  UNL     1      15.103  20.234  35.963  1.00  0.00    -0.221 N 
ATOM     11  H5  UNL     1      15.144  19.604  36.764  1.00  0.00     0.178 HD
BRANCH  10  12
HETATM   12  C9  UNL     1      15.411  19.719  34.666  1.00  0.00     0.099 C 
HETATM   13  C10 UNL     1      14.283  19.995  33.665  1.00  0.00     0.026 C 
HETATM   14  C11 UNL     1      14.840  20.314  32.302  1.00  0.00     0.002 C 
HETATM   15  C12 UNL     1      15.127  19.104  31.479  1.00  0.00     0.000 C 
HETATM   16  C13 UNL     1      15.207  17.833  32.288  1.00  0.00     0.000 C 
HETATM   17  C14 UNL     1      16.304  17.893  33.329  1.00  0.00     0.002 C 
HETATM   18  C15 UNL     1      15.640  18.230  34.647  1.00  0.00     0.026 C 
ENDBRANCH  10  12
ENDBRANCH   7  10
BRANCH   4  19
HETATM   19  N3  UNL     1      16.206  24.675  36.392  1.00  0.00    -0.234 N 
ATOM     20  H32 UNL     1      16.276  25.282  37.208  1.00  0.00     0.174 HD
ATOM     21  H31 UNL     1      16.849  24.831  35.616  1.00  0.00     0.174 HD
ENDBRANCH   4  19
BRANCH   1  22
HETATM   22  C5  UNL     1      11.659  23.391  36.770  1.00  0.00     0.079 C 
BRANCH  22  23
HETATM   23  C4  UNL     1      10.706  22.888  35.710  1.00  0.00     0.027 C 
BRANCH  23  24
HETATM   24  C3  UNL     1      10.489  23.929  34.697  1.00  0.00     0.116 C 
BRANCH  24  25
HETATM   25  N1  UNL     1      11.340  23.939  33.569  1.00  0.00    -0.421 N 
HETATM   26  C1  UNL     1      11.171  25.041  32.683  1.00  0.00     0.142 C 
HETATM   27  C2  UNL     1      11.748  22.725  33.009  1.00  0.00     0.142 C 
ENDBRANCH  24  25
ENDBRANCH  23  24
ENDBRANCH  22  23
ENDBRANCH   1  22
TORSDOF 7
ENDMDL
MODEL 4
REMARK VINA RESULT: -6.854231210      4.141      6.961
REMARK  7 active torsions:
REMARK  status: ('A' for Active; 'I' for Inactive)
REMARK    1  A    between atoms: N1_2  and  C3_4 
REMARK    2  A    between atoms: C3_4  and  C4_5 
REMARK    3  A    between atoms: C4_5  and  C5_6 
REMARK    4  A    between atoms: C5_6  and  C6_7 
REMARK    5  A    between atoms: C7_10  and  N3_11 
REMARK    6  A    between atoms: C8_16  and  N5_17 
REMARK    7  A    between atoms: N5_17  and  C9_19 
ROOT
HETATM    1  C6  UNL     1       7.676  25.260  35.174  1.00  0.00     0.113 A 
HETATM    2  N2  UNL     1       7.034  24.088  35.030  1.00  0.00    -0.180 N 
ATOM      3  H2  UNL     1       7.503  23.345  34.511  1.00  0.00     0.185 HD
HETATM    4  C7  UNL     1       5.823  23.837  35.522  1.00  0.00     0.691 A 
HETATM    5  N4  UNL     1       5.194  24.816  36.212  1.00  0.00    -0.023 N 
ATOM      6  H4  UNL     1       4.266  24.650  36.600  1.00  0.00     0.203 HD
HETATM    7  C8  UNL     1       5.797  26.024  36.389  1.00  0.00     0.694 A 
HETATM    8  N6  UNL     1       7.039  26.222  35.860  1.00  0.00    -0.180 N 
ATOM      9  H6  UNL     1       7.496  27.124  35.989  1.00  0.00     0.185 HD
ENDROOT
BRANCH   7  10
HETATM   10  N5  UNL     1       5.233  26.984  37.040  1.00  0.00    -0.221 N 
ATOM     11  H5  UNL     1       4.316  27.313  36.736  1.00  0.00     0.178 HD
BRANCH  10  12
HETATM   12  C9  UNL     1       5.846  27.604  38.172  1.00  0.00     0.099 C 
HETATM   13  C10 UNL     1       5.244  27.101  39.489  1.00  0.00     0.026 C 
HETATM   14  C11 UNL     1       6.304  26.975  40.552  1.00  0.00     0.002 C 
HETATM   15  C12 UNL     1       6.566  28.248  41.283  1.00  0.00     0.000 C 
HETATM   16  C13 UNL     1       6.051  29.471  40.566  1.00  0.00     0.000 C 
HETATM   17  C14 UNL     1       6.691  29.639  39.205  1.00  0.00     0.002 C 
HETATM   18  C15 UNL     1       5.706  29.104  38.188  1.00  0.00     0.026 C 
ENDBRANCH  10  12
ENDBRANCH   7  10
BRANCH   4  19
HETATM   19  N3  UNL     1       5.229  22.703  35.369  1.00  0.00    -0.234 N 
ATOM     20  H32 UNL     1       5.096  22.102  36.182  1.00  0.00     0.174 HD
ATOM     21  H31 UNL     1       4.885  22.378  34.465  1.00  0.00     0.174 HD
ENDBRANCH   4  19
BRANCH   1  22
HETATM   22  C5  UNL     1       9.005  25.463  34.605  1.00  0.00     0.079 C 
BRANCH  22  23
HETATM   23  C4  UNL     1      10.013  24.380  34.918  1.00  0.00     0.027 C 
BRANCH  23  24
HETATM   24  C3  UNL     1      10.789  24.055  33.713  1.00  0.00     0.116 C 
BRANCH  24  25
HETATM   25  N1  UNL     1      11.378  22.773  33.636  1.00  0.00    -0.421 N 
HETATM   26  C1  UNL     1      11.631  22.139  34.886  1.00  0.00     0.142 C 
HETATM   27  C2  UNL     1      12.252  22.484  32.584  1.00  0.00     0.142 C 
ENDBRANCH  24  25
ENDBRANCH  23  24
ENDBRANCH  22  23
ENDBRANCH   1  22
TORSDOF 7
ENDMDL
MODEL 5
REMARK VINA RESULT: -6.786187960      1.546      7.485
REMARK  7 active torsions:
REMARK  status: ('A' for Active; 'I' for Inactive)
REMARK    1  A    between atoms: N1_2  and  C3_4 
REMARK    2  A    between atoms: C3_4  and  C4_5 
REMARK    3  A    between atoms: C4_5  and  C5_6 
REMARK    4  A    between atoms: C5_6  and  C6_7 
REMARK    5  A    between atoms: C7_10  and  N3_11 
REMARK    6  A    between atoms: C8_16  and  N5_17 
REMARK    7  A    between atoms: N5_17  and  C9_19 
ROOT
HETATM    1  C6  UNL     1      13.058  23.045  36.556  1.00  0.00     0.113 A 
HETATM    2  N2  UNL     1      14.016  23.988  36.572  1.00  0.00    -0.180 N 
ATOM      3  H2  UNL     1      13.734  24.955  36.733  1.00  0.00     0.185 HD
HETATM    4  C7  UNL     1      15.310  23.737  36.388  1.00  0.00     0.691 A 
HETATM    5  N4  UNL     1      15.693  22.457  36.175  1.00  0.00    -0.023 N 
ATOM      6  H4  UNL     1      16.679  22.238  36.032  1.00  0.00     0.203 HD
HETATM    7  C8  UNL     1      14.766  21.460  36.149  1.00  0.00     0.694 A 
HETATM    8  N6  UNL     1      13.453  21.780  36.343  1.00  0.00    -0.180 N 
ATOM      9  H6  UNL     1      12.754  21.039  36.324  1.00  0.00     0.185 HD
ENDROOT
BRANCH   7  10
HETATM   10  N5  UNL     1      15.088  20.228  35.949  1.00  0.00    -0.221 N 
ATOM     11  H5  UNL     1      15.120  19.592  36.746  1.00  0.00     0.178 HD
BRANCH  10  12
HETATM   12  C9  UNL     1      15.401  19.720  34.651  1.00  0.00     0.099 C 
HETATM   13  C10 UNL     1      14.276  19.998  33.647  1.00  0.00     0.026 C 
HETATM   14  C11 UNL     1      14.835  20.325  32.288  1.00  0.00     0.002 C 
HETATM   15  C12 UNL     1      15.128  19.120  31.460  1.00  0.00     0.000 C 
HETATM   16  C13 UNL     1      15.209  17.845  32.262  1.00  0.00     0.000 C 
HETATM   17  C14 UNL     1      16.303  17.903  33.307  1.00  0.00     0.002 C 
HETATM   18  C15 UNL     1      15.634  18.232  34.625  1.00  0.00     0.026 C 
ENDBRANCH  10  12
ENDBRANCH   7  10
BRANCH   4  19
HETATM   19  N3  UNL     1      16.210  24.661  36.407  1.00  0.00    -0.234 N 
ATOM     20  H32 UNL     1      17.169  24.421  36.159  1.00  0.00     0.174 HD
ATOM     21  H31 UNL     1      16.003  25.627  36.662  1.00  0.00     0.174 HD
ENDBRANCH   4  19
BRANCH   1  22
HETATM   22  C5  UNL     1      11.656  23.395  36.765  1.00  0.00     0.079 C 
BRANCH  22  23
HETATM   23  C4  UNL     1      10.705  22.914  35.694  1.00  0.00     0.027 C 
BRANCH  23  24
HETATM   24  C3  UNL     1      10.466  23.986  34.717  1.00  0.00     0.116 C 
BRANCH  24  25
HETATM   25  N1  UNL     1       9.145  24.464  34.576  1.00  0.00    -0.421 N 
HETATM   26  C1  UNL     1       8.973  25.863  34.789  1.00  0.00     0.142 C 
HETATM   27  C2  UNL     1       8.075  23.631  34.913  1.00  0.00     0.142 C 
ENDBRANCH  24  25
ENDBRANCH  23  24
ENDBRANCH  22  23
ENDBRANCH   1  22
TORSDOF 7
ENDMDL
