MODEL 1
REMARK VINA RESULT: -6.711928892      0.000      0.000
REMARK  7 active torsions:
REMARK  status: ('A' for Active; 'I' for Inactive)
REMARK    1  A    between atoms: C2_2  and  C3_3 
REMARK    2  A    between atoms: C3_3  and  O1_4 
REMARK    3  A    between atoms: O1_4  and  C4_5 
REMARK    4  A    between atoms: C5_6  and  C6_7 
REMARK    5  A    between atoms: C9_12  and  N2_13 
REMARK    6  A    between atoms: C10_18  and  N4_19 
REMARK    7  A    between atoms: N4_19  and  C11_21 
ROOT
HETATM    1  C4  UNL     1      14.191  21.928  36.036  1.00  0.00     0.136 A 
HETATM    2  C5  UNL     1      14.223  22.906  36.993  1.00  0.00     0.068 A 
HETATM    3  N1  UNL     1      15.051  22.755  38.056  1.00  0.00    -0.193 N 
ATOM      4  H1  UNL     1      15.084  23.480  38.773  1.00  0.00     0.184 HD
HETATM    5  C9  UNL     1      15.832  21.665  38.181  1.00  0.00     0.677 A 
HETATM    6  N3  UNL     1      15.829  20.680  37.267  1.00  0.00    -0.174 N 
ATOM      7  H3  UNL     1      16.428  19.863  37.382  1.00  0.00     0.186 HD
HETATM    8  C10 UNL     1      15.032  20.792  36.209  1.00  0.00     0.153 A 
ENDROOT
BRANCH   8   9
HETATM    9  N4  UNL     1      14.956  19.940  35.319  1.00  0.00    -0.369 N 
ATOM     10  H4  UNL     1      13.984  19.646  35.231  1.00  0.00     0.161 HD
BRANCH   9  11
HETATM   11  C11 UNL     1      15.711  19.246  34.406  1.00  0.00     0.087 C 
HETATM   12  C12 UNL     1      15.227  19.644  32.998  1.00  0.00     0.051 C 
HETATM   13  C13 UNL     1      14.801  18.423  32.210  1.00  0.00     0.169 C 
HETATM   14  O2  UNL     1      15.853  17.524  32.029  1.00  0.00    -0.391 OA
HETATM   15  C14 UNL     1      16.572  17.341  33.187  1.00  0.00     0.169 C 
HETATM   16  C15 UNL     1      15.741  17.759  34.415  1.00  0.00     0.051 C 
ENDBRANCH   9  11
ENDBRANCH   8   9
BRANCH   1  17
HETATM   17  O1  UNL     1      13.396  21.973  34.896  1.00  0.00    -0.345 OA
BRANCH  17  18
HETATM   18  C3  UNL     1      13.576  22.795  33.786  1.00  0.00     0.175 C 
BRANCH  18  19
HETATM   19  C2  UNL     1      12.597  22.680  32.661  1.00  0.00     0.022 C 
HETATM   20  C1  UNL     1      13.291  22.424  31.337  1.00  0.00     0.007 C 
ENDBRANCH  18  19
ENDBRANCH  17  18
ENDBRANCH   1  17
BRANCH   2  21
HETATM   21  C6  UNL     1      13.351  24.103  36.945  1.00  0.00     0.039 A 
HETATM   22  C7  UNL     1      12.874  24.746  38.200  1.00  0.00     0.011 A 
HETATM   23  C8  UNL     1      11.899  24.031  37.260  1.00  0.00     0.011 A 
ENDBRANCH   2  21
BRANCH   5  24
HETATM   24  N2  UNL     1      16.619  21.535  39.201  1.00  0.00    -0.234 N 
ATOM     25  H22 UNL     1      16.405  20.798  39.873  1.00  0.00     0.174 HD
ATOM     26  H21 UNL     1      17.422  22.152  39.316  1.00  0.00     0.174 HD
ENDBRANCH   5  24
TORSDOF 7
ENDMDL
MODEL 2
REMARK VINA RESULT: -6.452414218      2.010      2.754
REMARK  7 active torsions:
REMARK  status: ('A' for Active; 'I' for Inactive)
REMARK    1  A    between atoms: C2_2  and  C3_3 
REMARK    2  A    between atoms: C3_3  and  O1_4 
REMARK    3  A    between atoms: O1_4  and  C4_5 
REMARK    4  A    between atoms: C5_6  and  C6_7 
REMARK    5  A    between atoms: C9_12  and  N2_13 
REMARK    6  A    between atoms: C10_18  and  N4_19 
REMARK    7  A    between atoms: N4_19  and  C11_21 
ROOT
HETATM    1  C4  UNL     1      12.916  22.172  33.738  1.00  0.00     0.136 A 
HETATM    2  C5  UNL     1      12.202  23.037  34.522  1.00  0.00     0.068 A 
HETATM    3  N1  UNL     1      12.811  23.604  35.593  1.00  0.00    -0.193 N 
ATOM      4  H1  UNL     1      12.288  24.252  36.182  1.00  0.00     0.184 HD
HETATM    5  C9  UNL     1      14.094  23.326  35.892  1.00  0.00     0.677 A 
HETATM    6  N3  UNL     1      14.830  22.481  35.151  1.00  0.00    -0.174 N 
ATOM      7  H3  UNL     1      15.800  22.284  35.397  1.00  0.00     0.186 HD
HETATM    8  C10 UNL     1      14.270  21.906  34.092  1.00  0.00     0.153 A 
ENDROOT
BRANCH   8   9
HETATM    9  N4  UNL     1      14.862  21.113  33.354  1.00  0.00    -0.369 N 
ATOM     10  H4  UNL     1      14.913  21.515  32.418  1.00  0.00     0.161 HD
BRANCH   9  11
HETATM   11  C11 UNL     1      15.476  19.885  33.341  1.00  0.00     0.087 C 
HETATM   12  C12 UNL     1      14.644  18.954  32.436  1.00  0.00     0.051 C 
HETATM   13  C13 UNL     1      14.212  17.716  33.191  1.00  0.00     0.169 C 
HETATM   14  O2  UNL     1      15.301  16.967  33.636  1.00  0.00    -0.391 OA
HETATM   15  C14 UNL     1      16.277  17.764  34.187  1.00  0.00     0.169 C 
HETATM   16  C15 UNL     1      15.694  19.129  34.602  1.00  0.00     0.051 C 
ENDBRANCH   9  11
ENDBRANCH   8   9
BRANCH   1  17
HETATM   17  O1  UNL     1      12.410  21.539  32.608  1.00  0.00    -0.345 OA
BRANCH  17  18
HETATM   18  C3  UNL     1      12.202  22.111  31.355  1.00  0.00     0.175 C 
BRANCH  18  19
HETATM   19  C2  UNL     1      13.036  23.293  30.975  1.00  0.00     0.022 C 
HETATM   20  C1  UNL     1      12.228  24.327  30.214  1.00  0.00     0.007 C 
ENDBRANCH  18  19
ENDBRANCH  17  18
ENDBRANCH   1  17
BRANCH   2  21
HETATM   21  C6  UNL     1      10.773  23.343  34.281  1.00  0.00     0.039 A 
HETATM   22  C7  UNL     1      10.367  24.631  33.656  1.00  0.00     0.011 A 
HETATM   23  C8  UNL     1      10.028  24.322  35.117  1.00  0.00     0.011 A 
ENDBRANCH   2  21
BRANCH   5  24
HETATM   24  N2  UNL     1      14.663  23.876  36.918  1.00  0.00    -0.234 N 
ATOM     25  H22 UNL     1      14.298  24.775  37.235  1.00  0.00     0.174 HD
ATOM     26  H21 UNL     1      15.445  23.417  37.384  1.00  0.00     0.174 HD
ENDBRANCH   5  24
TORSDOF 7
ENDMDL
MODEL 3
REMARK VINA RESULT: -6.255181190      2.366      5.683
REMARK  7 active torsions:
REMARK  status: ('A' for Active; 'I' for Inactive)
REMARK    1  A    between atoms: C2_2  and  C3_3 
REMARK    2  A    between atoms: C3_3  and  O1_4 
REMARK    3  A    between atoms: O1_4  and  C4_5 
REMARK    4  A    between atoms: C5_6  and  C6_7 
REMARK    5  A    between atoms: C9_12  and  N2_13 
REMARK    6  A    between atoms: C10_18  and  N4_19 
REMARK    7  A    between atoms: N4_19  and  C11_21 
ROOT
HETATM    1  C4  UNL     1      13.775  21.080  33.753  1.00  0.00     0.136 A 
HETATM    2  C5  UNL     1      14.666  20.118  34.141  1.00  0.00     0.068 A 
HETATM    3  N1  UNL     1      15.292  20.249  35.337  1.00  0.00    -0.193 N 
ATOM      4  H1  UNL     1      15.957  19.535  35.636  1.00  0.00     0.184 HD
HETATM    5  C9  UNL     1      15.051  21.306  36.136  1.00  0.00     0.677 A 
HETATM    6  N3  UNL     1      14.186  22.275  35.792  1.00  0.00    -0.174 N 
ATOM      7  H3  UNL     1      14.020  23.067  36.413  1.00  0.00     0.186 HD
HETATM    8  C10 UNL     1      13.551  22.181  34.628  1.00  0.00     0.153 A 
ENDROOT
BRANCH   8   9
HETATM    9  N4  UNL     1      12.743  23.021  34.223  1.00  0.00    -0.369 N 
ATOM     10  H4  UNL     1      13.031  23.331  33.296  1.00  0.00     0.161 HD
BRANCH   9  11
HETATM   11  C11 UNL     1      11.595  23.688  34.573  1.00  0.00     0.087 C 
HETATM   12  C12 UNL     1      10.666  22.683  35.283  1.00  0.00     0.051 C 
HETATM   13  C13 UNL     1       9.324  22.606  34.586  1.00  0.00     0.169 C 
HETATM   14  O2  UNL     1       8.660  23.833  34.592  1.00  0.00    -0.391 OA
HETATM   15  C14 UNL     1       9.504  24.872  34.278  1.00  0.00     0.169 C 
HETATM   16  C15 UNL     1      10.755  24.352  33.542  1.00  0.00     0.051 C 
ENDBRANCH   9  11
ENDBRANCH   8   9
BRANCH   1  17
HETATM   17  O1  UNL     1      13.061  21.052  32.560  1.00  0.00    -0.345 OA
BRANCH  17  18
HETATM   18  C3  UNL     1      13.479  21.548  31.327  1.00  0.00     0.175 C 
BRANCH  18  19
HETATM   19  C2  UNL     1      12.629  22.585  30.662  1.00  0.00     0.022 C 
HETATM   20  C1  UNL     1      13.288  23.951  30.688  1.00  0.00     0.007 C 
ENDBRANCH  18  19
ENDBRANCH  17  18
ENDBRANCH   1  17
BRANCH   2  21
HETATM   21  C6  UNL     1      15.018  18.959  33.287  1.00  0.00     0.039 A 
HETATM   22  C7  UNL     1      14.036  17.868  33.044  1.00  0.00     0.011 A 
HETATM   23  C8  UNL     1      15.307  17.619  33.862  1.00  0.00     0.011 A 
ENDBRANCH   2  21
BRANCH   5  24
HETATM   24  N2  UNL     1      15.656  21.418  37.276  1.00  0.00    -0.234 N 
ATOM     25  H22 UNL     1      15.813  20.565  37.814  1.00  0.00     0.174 HD
ATOM     26  H21 UNL     1      15.960  22.331  37.613  1.00  0.00     0.174 HD
ENDBRANCH   5  24
TORSDOF 7
ENDMDL
MODEL 4
REMARK VINA RESULT: -6.175086337      2.506      4.297
REMARK  7 active torsions:
REMARK  status: ('A' for Active; 'I' for Inactive)
REMARK    1  A    between atoms: C2_2  and  C3_3 
REMARK    2  A    between atoms: C3_3  and  O1_4 
REMARK    3  A    between atoms: O1_4  and  C4_5 
REMARK    4  A    between atoms: C5_6  and  C6_7 
REMARK    5  A    between atoms: C9_12  and  N2_13 
REMARK    6  A    between atoms: C10_18  and  N4_19 
REMARK    7  A    between atoms: N4_19  and  C11_21 
ROOT
HETATM    1  C4  UNL     1      12.590  22.218  34.590  1.00  0.00     0.136 A 
HETATM    2  C5  UNL     1      11.624  23.077  34.141  1.00  0.00     0.068 A 
HETATM    3  N1  UNL     1      11.484  23.263  32.805  1.00  0.00    -0.193 N 
ATOM      4  H1  UNL     1      10.765  23.899  32.459  1.00  0.00     0.184 HD
HETATM    5  C9  UNL     1      12.278  22.621  31.926  1.00  0.00     0.677 A 
HETATM    6  N3  UNL     1      13.239  21.772  32.324  1.00  0.00    -0.174 N 
ATOM      7  H3  UNL     1      13.830  21.298  31.641  1.00  0.00     0.186 HD
HETATM    8  C10 UNL     1      13.407  21.562  33.626  1.00  0.00     0.153 A 
ENDROOT
BRANCH   8   9
HETATM    9  N4  UNL     1      14.264  20.805  34.089  1.00  0.00    -0.369 N 
ATOM     10  H4  UNL     1      14.358  20.989  35.088  1.00  0.00     0.161 HD
BRANCH   9  11
HETATM   11  C11 UNL     1      15.138  19.804  33.743  1.00  0.00     0.087 C 
HETATM   12  C12 UNL     1      14.382  18.815  32.833  1.00  0.00     0.051 C 
HETATM   13  C13 UNL     1      14.429  17.414  33.405  1.00  0.00     0.169 C 
HETATM   14  O2  UNL     1      15.735  16.936  33.511  1.00  0.00    -0.391 OA
HETATM   15  C14 UNL     1      16.585  17.885  34.029  1.00  0.00     0.169 C 
HETATM   16  C15 UNL     1      15.793  18.969  34.785  1.00  0.00     0.051 C 
ENDBRANCH   9  11
ENDBRANCH   8   9
BRANCH   1  17
HETATM   17  O1  UNL     1      12.822  21.933  35.931  1.00  0.00    -0.345 OA
BRANCH  17  18
HETATM   18  C3  UNL     1      13.457  22.755  36.860  1.00  0.00     0.175 C 
BRANCH  18  19
HETATM   19  C2  UNL     1      14.936  22.610  37.031  1.00  0.00     0.022 C 
HETATM   20  C1  UNL     1      15.296  21.302  37.708  1.00  0.00     0.007 C 
ENDBRANCH  18  19
ENDBRANCH  17  18
ENDBRANCH   1  17
BRANCH   2  21
HETATM   21  C6  UNL     1      10.755  23.855  35.054  1.00  0.00     0.039 A 
HETATM   22  C7  UNL     1       9.534  23.244  35.646  1.00  0.00     0.011 A 
HETATM   23  C8  UNL     1       9.432  24.379  34.622  1.00  0.00     0.011 A 
ENDBRANCH   2  21
BRANCH   5  24
HETATM   24  N2  UNL     1      12.132  22.808  30.652  1.00  0.00    -0.234 N 
ATOM     25  H22 UNL     1      11.258  23.227  30.333  1.00  0.00     0.174 HD
ATOM     26  H21 UNL     1      12.872  22.543  30.003  1.00  0.00     0.174 HD
ENDBRANCH   5  24
TORSDOF 7
ENDMDL
MODEL 5
REMARK VINA RESULT: -6.164547107      3.046      6.933
REMARK  7 active torsions:
REMARK  status: ('A' for Active; 'I' for Inactive)
REMARK    1  A    between atoms: C2_2  and  C3_3 
REMARK    2  A    between atoms: C3_3  and  O1_4 
REMARK    3  A    between atoms: O1_4  and  C4_5 
REMARK    4  A    between atoms: C5_6  and  C6_7 
REMARK    5  A    between atoms: C9_12  and  N2_13 
REMARK    6  A    between atoms: C10_18  and  N4_19 
REMARK    7  A    between atoms: N4_19  and  C11_21 
ROOT
HETATM    1  C4  UNL     1      13.641  21.273  33.577  1.00  0.00     0.136 A 
HETATM    2  C5  UNL     1      13.987  20.255  32.731  1.00  0.00     0.068 A 
HETATM    3  N1  UNL     1      13.436  20.216  31.493  1.00  0.00    -0.193 N 
ATOM      4  H1  UNL     1      13.689  19.462  30.854  1.00  0.00     0.184 HD
HETATM    5  C9  UNL     1      12.560  21.157  31.091  1.00  0.00     0.677 A 
HETATM    6  N3  UNL     1      12.191  22.172  31.891  1.00  0.00    -0.174 N 
ATOM      7  H3  UNL     1      11.525  22.873  31.567  1.00  0.00     0.186 HD
HETATM    8  C10 UNL     1      12.711  22.246  33.112  1.00  0.00     0.153 A 
ENDROOT
BRANCH   8   9
HETATM    9  N4  UNL     1      12.432  23.136  33.919  1.00  0.00    -0.369 N 
ATOM     10  H4  UNL     1      13.297  23.570  34.240  1.00  0.00     0.161 HD
BRANCH   9  11
HETATM   11  C11 UNL     1      11.374  23.753  34.541  1.00  0.00     0.087 C 
HETATM   12  C12 UNL     1      10.527  22.659  35.223  1.00  0.00     0.051 C 
HETATM   13  C13 UNL     1       9.094  22.708  34.738  1.00  0.00     0.169 C 
HETATM   14  O2  UNL     1       8.482  23.925  35.035  1.00  0.00    -0.391 OA
HETATM   15  C14 UNL     1       9.305  24.992  34.757  1.00  0.00     0.169 C 
HETATM   16  C15 UNL     1      10.411  24.580  33.765  1.00  0.00     0.051 C 
ENDBRANCH   9  11
ENDBRANCH   8   9
BRANCH   1  17
HETATM   17  O1  UNL     1      14.147  21.430  34.863  1.00  0.00    -0.345 OA
BRANCH  17  18
HETATM   18  C3  UNL     1      15.331  22.071  35.221  1.00  0.00     0.175 C 
BRANCH  18  19
HETATM   19  C2  UNL     1      15.251  23.188  36.214  1.00  0.00     0.022 C 
HETATM   20  C1  UNL     1      14.072  23.019  37.153  1.00  0.00     0.007 C 
ENDBRANCH  18  19
ENDBRANCH  17  18
ENDBRANCH   1  17
BRANCH   2  21
HETATM   21  C6  UNL     1      14.901  19.158  33.128  1.00  0.00     0.039 A 
HETATM   22  C7  UNL     1      15.337  18.137  32.137  1.00  0.00     0.011 A 
HETATM   23  C8  UNL     1      14.422  17.762  33.307  1.00  0.00     0.011 A 
ENDBRANCH   2  21
BRANCH   5  24
HETATM   24  N2  UNL     1      12.042  21.109  29.905  1.00  0.00    -0.234 N 
ATOM     25  H22 UNL     1      12.675  20.957  29.119  1.00  0.00     0.174 HD
ATOM     26  H21 UNL     1      11.037  21.218  29.775  1.00  0.00     0.174 HD
ENDBRANCH   5  24
TORSDOF 7
ENDMDL
