MODEL 1
REMARK VINA RESULT: -6.814493706      0.000      0.000
REMARK  6 active torsions:
REMARK  status: ('A' for Active; 'I' for Inactive)
REMARK    1  A    between atoms: C5_10  and  O1_11 
REMARK    2  A    between atoms: O1_11  and  C6_12 
REMARK    3  A    between atoms: C6_12  and  C7_13 
REMARK    4  A    between atoms: C7_13  and  O2_14 
REMARK    5  A    between atoms: C7_13  and  C8_16 
REMARK    6  A    between atoms: C8_16  and  N4_17 
ROOT
HETATM    1  C1  UNL     1       0.800  17.597  -4.461  1.00  0.00     0.090 C 
HETATM    2  C2  UNL     1      -0.621  18.000  -4.157  1.00  0.00     0.093 A 
HETATM    3  N1  UNL     1      -1.713  17.348  -4.514  1.00  0.00    -0.333 N 
ATOM      4  H1  UNL     1      -1.760  16.478  -5.045  1.00  0.00     0.168 HD
HETATM    5  C3  UNL     1      -2.763  18.066  -4.033  1.00  0.00     0.107 A 
HETATM    6  N2  UNL     1      -2.292  19.130  -3.400  1.00  0.00    -0.276 N 
HETATM    7  N3  UNL     1      -0.960  19.083  -3.481  1.00  0.00    -0.286 N 
ATOM      8  H3  UNL     1      -0.313  19.767  -3.087  1.00  0.00     0.188 HD
HETATM    9  C4  UNL     1      -3.070  20.156  -2.742  1.00  0.00     0.182 C 
HETATM   10  C5  UNL     1      -4.511  19.811  -2.604  1.00  0.00     0.142 C 
HETATM   11  C13 UNL     1      -4.815  18.351  -2.794  1.00  0.00     0.050 C 
HETATM   12  C14 UNL     1      -4.238  17.871  -4.095  1.00  0.00     0.015 C 
HETATM   13  C15 UNL     1      -4.512  16.399  -4.298  1.00  0.00     0.023 C 
HETATM   14  C16 UNL     1      -4.777  18.600  -5.288  1.00  0.00     0.023 C 
ENDROOT
BRANCH  10  15
HETATM   15  O1  UNL     1      -5.001  20.329  -1.433  1.00  0.00    -0.381 OA
BRANCH  15  16
HETATM   16  C6  UNL     1      -5.353  21.673  -1.521  1.00  0.00     0.205 C 
BRANCH  16  17
HETATM   17  C7  UNL     1      -6.871  21.718  -1.566  1.00  0.00     0.180 C 
BRANCH  17  18
HETATM   18  O2  UNL     1      -7.271  22.191  -0.319  1.00  0.00    -0.388 OA
ATOM     19  H2  UNL     1      -7.193  21.452   0.274  1.00  0.00     0.210 HD
ENDBRANCH  17  18
BRANCH  17  20
HETATM   20  C8  UNL     1      -7.242  22.633  -2.705  1.00  0.00     0.101 C 
BRANCH  20  21
HETATM   21  N4  UNL     1      -7.827  22.070  -3.813  1.00  0.00    -0.352 N 
HETATM   22  C9  UNL     1      -8.455  22.836  -4.807  1.00  0.00     0.068 C 
HETATM   23  C10 UNL     1      -8.573  21.952  -6.021  1.00  0.00     0.050 C 
HETATM   24  C11 UNL     1      -7.937  20.639  -5.663  1.00  0.00     0.050 C 
HETATM   25  C12 UNL     1      -7.761  20.727  -4.162  1.00  0.00     0.068 C 
ENDBRANCH  20  21
ENDBRANCH  17  20
ENDBRANCH  16  17
ENDBRANCH  15  16
ENDBRANCH  10  15
TORSDOF 6
ENDMDL
MODEL 2
REMARK VINA RESULT: -6.363650373      2.400      3.553
REMARK  6 active torsions:
REMARK  status: ('A' for Active; 'I' for Inactive)
REMARK    1  A    between atoms: C5_10  and  O1_11 
REMARK    2  A    between atoms: O1_11  and  C6_12 
REMARK    3  A    between atoms: C6_12  and  C7_13 
REMARK    4  A    between atoms: C7_13  and  O2_14 
REMARK    5  A    between atoms: C7_13  and  C8_16 
REMARK    6  A    between atoms: C8_16  and  N4_17 
ROOT
HETATM    1  C1  UNL     1      -4.162  15.602  -4.807  1.00  0.00     0.090 C 
HETATM    2  C2  UNL     1      -3.514  16.936  -4.540  1.00  0.00     0.093 A 
HETATM    3  N1  UNL     1      -2.217  17.192  -4.542  1.00  0.00    -0.333 N 
ATOM      4  H1  UNL     1      -1.464  16.529  -4.725  1.00  0.00     0.168 HD
HETATM    5  C3  UNL     1      -2.088  18.514  -4.253  1.00  0.00     0.107 A 
HETATM    6  N2  UNL     1      -3.295  19.031  -4.083  1.00  0.00    -0.276 N 
HETATM    7  N3  UNL     1      -4.178  18.044  -4.263  1.00  0.00    -0.286 N 
ATOM      8  H3  UNL     1      -5.192  18.132  -4.197  1.00  0.00     0.188 HD
HETATM    9  C4  UNL     1      -3.607  20.405  -3.761  1.00  0.00     0.182 C 
HETATM   10  C5  UNL     1      -2.438  21.319  -3.866  1.00  0.00     0.142 C 
HETATM   11  C13 UNL     1      -1.285  20.756  -4.649  1.00  0.00     0.050 C 
HETATM   12  C14 UNL     1      -0.906  19.408  -4.107  1.00  0.00     0.015 C 
HETATM   13  C15 UNL     1       0.239  18.811  -4.893  1.00  0.00     0.023 C 
HETATM   14  C16 UNL     1      -0.494  19.443  -2.667  1.00  0.00     0.023 C 
ENDROOT
BRANCH  10  15
HETATM   15  O1  UNL     1      -2.852  22.552  -4.301  1.00  0.00    -0.381 OA
BRANCH  15  16
HETATM   16  C6  UNL     1      -4.221  22.761  -4.167  1.00  0.00     0.205 C 
BRANCH  16  17
HETATM   17  C7  UNL     1      -4.567  23.934  -5.068  1.00  0.00     0.180 C 
BRANCH  17  18
HETATM   18  O2  UNL     1      -3.369  24.317  -5.667  1.00  0.00    -0.388 OA
ATOM     19  H2  UNL     1      -3.578  25.077  -6.197  1.00  0.00     0.210 HD
ENDBRANCH  17  18
BRANCH  17  20
HETATM   20  C8  UNL     1      -5.598  23.436  -6.048  1.00  0.00     0.101 C 
BRANCH  20  21
HETATM   21  N4  UNL     1      -6.753  22.890  -5.541  1.00  0.00    -0.352 N 
HETATM   22  C9  UNL     1      -7.756  23.666  -4.944  1.00  0.00     0.068 C 
HETATM   23  C10 UNL     1      -8.999  22.816  -4.917  1.00  0.00     0.050 C 
HETATM   24  C11 UNL     1      -8.646  21.513  -5.573  1.00  0.00     0.050 C 
HETATM   25  C12 UNL     1      -7.136  21.561  -5.667  1.00  0.00     0.068 C 
ENDBRANCH  20  21
ENDBRANCH  17  20
ENDBRANCH  16  17
ENDBRANCH  15  16
ENDBRANCH  10  15
TORSDOF 6
ENDMDL
MODEL 3
REMARK VINA RESULT: -6.358016329      2.177      6.732
REMARK  6 active torsions:
REMARK  status: ('A' for Active; 'I' for Inactive)
REMARK    1  A    between atoms: C5_10  and  O1_11 
REMARK    2  A    between atoms: O1_11  and  C6_12 
REMARK    3  A    between atoms: C6_12  and  C7_13 
REMARK    4  A    between atoms: C7_13  and  O2_14 
REMARK    5  A    between atoms: C7_13  and  C8_16 
REMARK    6  A    between atoms: C8_16  and  N4_17 
ROOT
HETATM    1  C1  UNL     1      -7.960  22.827  -0.380  1.00  0.00     0.090 C 
HETATM    2  C2  UNL     1      -7.515  22.171  -1.661  1.00  0.00     0.093 A 
HETATM    3  N1  UNL     1      -7.912  22.487  -2.882  1.00  0.00    -0.333 N 
ATOM      4  H1  UNL     1      -8.574  23.219  -3.140  1.00  0.00     0.168 HD
HETATM    5  C3  UNL     1      -7.261  21.642  -3.726  1.00  0.00     0.107 A 
HETATM    6  N2  UNL     1      -6.491  20.838  -3.010  1.00  0.00    -0.276 N 
HETATM    7  N3  UNL     1      -6.653  21.172  -1.727  1.00  0.00    -0.286 N 
ATOM      8  H3  UNL     1      -6.190  20.731  -0.932  1.00  0.00     0.188 HD
HETATM    9  C4  UNL     1      -5.631  19.792  -3.515  1.00  0.00     0.182 C 
HETATM   10  C5  UNL     1      -5.471  19.818  -4.995  1.00  0.00     0.142 C 
HETATM   11  C13 UNL     1      -5.879  21.115  -5.634  1.00  0.00     0.050 C 
HETATM   12  C14 UNL     1      -7.271  21.483  -5.207  1.00  0.00     0.015 C 
HETATM   13  C15 UNL     1      -7.697  22.797  -5.821  1.00  0.00     0.023 C 
HETATM   14  C16 UNL     1      -8.297  20.457  -5.582  1.00  0.00     0.023 C 
ENDROOT
BRANCH  10  15
HETATM   15  O1  UNL     1      -4.205  19.411  -5.331  1.00  0.00    -0.381 OA
BRANCH  15  16
HETATM   16  C6  UNL     1      -3.988  18.050  -5.143  1.00  0.00     0.205 C 
BRANCH  16  17
HETATM   17  C7  UNL     1      -2.674  17.923  -4.390  1.00  0.00     0.180 C 
BRANCH  17  18
HETATM   18  O2  UNL     1      -2.148  16.687  -4.757  1.00  0.00    -0.388 OA
ATOM     19  H2  UNL     1      -1.845  16.791  -5.652  1.00  0.00     0.210 HD
ENDBRANCH  17  18
BRANCH  17  20
HETATM   20  C8  UNL     1      -1.820  19.091  -4.813  1.00  0.00     0.101 C 
BRANCH  20  21
HETATM   21  N4  UNL     1      -1.206  19.824  -3.826  1.00  0.00    -0.352 N 
HETATM   22  C9  UNL     1      -1.814  20.934  -3.222  1.00  0.00     0.068 C 
HETATM   23  C10 UNL     1      -1.063  21.191  -1.941  1.00  0.00     0.050 C 
HETATM   24  C11 UNL     1      -0.007  20.129  -1.839  1.00  0.00     0.050 C 
HETATM   25  C12 UNL     1      -0.002  19.499  -3.215  1.00  0.00     0.068 C 
ENDBRANCH  20  21
ENDBRANCH  17  20
ENDBRANCH  16  17
ENDBRANCH  15  16
ENDBRANCH  10  15
TORSDOF 6
ENDMDL
MODEL 4
REMARK VINA RESULT: -6.330940891      1.993      2.240
REMARK  6 active torsions:
REMARK  status: ('A' for Active; 'I' for Inactive)
REMARK    1  A    between atoms: C5_10  and  O1_11 
REMARK    2  A    between atoms: O1_11  and  C6_12 
REMARK    3  A    between atoms: C6_12  and  C7_13 
REMARK    4  A    between atoms: C7_13  and  O2_14 
REMARK    5  A    between atoms: C7_13  and  C8_16 
REMARK    6  A    between atoms: C8_16  and  N4_17 
ROOT
HETATM    1  C1  UNL     1       0.760  17.561  -4.542  1.00  0.00     0.090 C 
HETATM    2  C2  UNL     1      -0.677  17.992  -4.400  1.00  0.00     0.093 A 
HETATM    3  N1  UNL     1      -1.742  17.223  -4.541  1.00  0.00    -0.333 N 
ATOM      4  H1  UNL     1      -1.753  16.228  -4.765  1.00  0.00     0.168 HD
HETATM    5  C3  UNL     1      -2.822  18.023  -4.328  1.00  0.00     0.107 A 
HETATM    6  N2  UNL     1      -2.395  19.248  -4.064  1.00  0.00    -0.276 N 
HETATM    7  N3  UNL     1      -1.060  19.222  -4.111  1.00  0.00    -0.286 N 
ATOM      8  H3  UNL     1      -0.442  20.018  -3.950  1.00  0.00     0.188 HD
HETATM    9  C4  UNL     1      -3.215  20.404  -3.779  1.00  0.00     0.182 C 
HETATM   10  C5  UNL     1      -4.649  20.073  -3.554  1.00  0.00     0.142 C 
HETATM   11  C13 UNL     1      -4.907  18.621  -3.269  1.00  0.00     0.050 C 
HETATM   12  C14 UNL     1      -4.289  17.769  -4.341  1.00  0.00     0.015 C 
HETATM   13  C15 UNL     1      -4.518  16.301  -4.064  1.00  0.00     0.023 C 
HETATM   14  C16 UNL     1      -4.823  18.058  -5.711  1.00  0.00     0.023 C 
ENDROOT
BRANCH  10  15
HETATM   15  O1  UNL     1      -5.178  20.923  -2.617  1.00  0.00    -0.381 OA
BRANCH  15  16
HETATM   16  C6  UNL     1      -6.570  20.936  -2.598  1.00  0.00     0.205 C 
BRANCH  16  17
HETATM   17  C7  UNL     1      -7.017  21.236  -4.019  1.00  0.00     0.180 C 
BRANCH  17  18
HETATM   18  O2  UNL     1      -8.256  20.617  -4.162  1.00  0.00    -0.388 OA
ATOM     19  H2  UNL     1      -8.382  20.107  -3.371  1.00  0.00     0.210 HD
ENDBRANCH  17  18
BRANCH  17  20
HETATM   20  C8  UNL     1      -7.075  22.737  -4.146  1.00  0.00     0.101 C 
BRANCH  20  21
HETATM   21  N4  UNL     1      -6.247  23.333  -5.066  1.00  0.00    -0.352 N 
HETATM   22  C9  UNL     1      -6.720  23.859  -6.277  1.00  0.00     0.068 C 
HETATM   23  C10 UNL     1      -5.649  24.784  -6.792  1.00  0.00     0.050 C 
HETATM   24  C11 UNL     1      -4.546  24.778  -5.774  1.00  0.00     0.050 C 
HETATM   25  C12 UNL     1      -4.901  23.613  -4.874  1.00  0.00     0.068 C 
ENDBRANCH  20  21
ENDBRANCH  17  20
ENDBRANCH  16  17
ENDBRANCH  15  16
ENDBRANCH  10  15
TORSDOF 6
ENDMDL
MODEL 5
REMARK VINA RESULT: -6.316888030      3.898      5.595
REMARK  6 active torsions:
REMARK  status: ('A' for Active; 'I' for Inactive)
REMARK    1  A    between atoms: C5_10  and  O1_11 
REMARK    2  A    between atoms: O1_11  and  C6_12 
REMARK    3  A    between atoms: C6_12  and  C7_13 
REMARK    4  A    between atoms: C7_13  and  O2_14 
REMARK    5  A    between atoms: C7_13  and  C8_16 
REMARK    6  A    between atoms: C8_16  and  N4_17 
ROOT
HETATM    1  C1  UNL     1      -4.488  15.713  -4.761  1.00  0.00     0.090 C 
HETATM    2  C2  UNL     1      -3.528  16.862  -4.593  1.00  0.00     0.093 A 
HETATM    3  N1  UNL     1      -2.212  16.776  -4.501  1.00  0.00    -0.333 N 
ATOM      4  H1  UNL     1      -1.652  15.924  -4.530  1.00  0.00     0.168 HD
HETATM    5  C3  UNL     1      -1.755  18.049  -4.359  1.00  0.00     0.107 A 
HETATM    6  N2  UNL     1      -2.790  18.874  -4.368  1.00  0.00    -0.276 N 
HETATM    7  N3  UNL     1      -3.890  18.130  -4.514  1.00  0.00    -0.286 N 
ATOM      8  H3  UNL     1      -4.847  18.481  -4.557  1.00  0.00     0.188 HD
HETATM    9  C4  UNL     1      -2.746  20.314  -4.243  1.00  0.00     0.182 C 
HETATM   10  C5  UNL     1      -1.372  20.876  -4.343  1.00  0.00     0.142 C 
HETATM   11  C13 UNL     1      -0.364  19.935  -4.940  1.00  0.00     0.050 C 
HETATM   12  C14 UNL     1      -0.390  18.624  -4.207  1.00  0.00     0.015 C 
HETATM   13  C15 UNL     1       0.602  17.651  -4.804  1.00  0.00     0.023 C 
HETATM   14  C16 UNL     1      -0.073  18.753  -2.748  1.00  0.00     0.023 C 
ENDROOT
BRANCH  10  15
HETATM   15  O1  UNL     1      -1.417  22.101  -4.959  1.00  0.00    -0.381 OA
BRANCH  15  16
HETATM   16  C6  UNL     1      -2.162  23.049  -4.264  1.00  0.00     0.205 C 
BRANCH  16  17
HETATM   17  C7  UNL     1      -1.301  23.499  -3.095  1.00  0.00     0.180 C 
BRANCH  17  18
HETATM   18  O2  UNL     1      -0.641  24.645  -3.533  1.00  0.00    -0.388 OA
ATOM     19  H2  UNL     1      -1.304  25.325  -3.571  1.00  0.00     0.210 HD
ENDBRANCH  17  18
BRANCH  17  20
HETATM   20  C8  UNL     1      -2.237  23.748  -1.940  1.00  0.00     0.101 C 
BRANCH  20  21
HETATM   21  N4  UNL     1      -2.084  22.975  -0.815  1.00  0.00    -0.352 N 
HETATM   22  C9  UNL     1      -2.573  21.664  -0.727  1.00  0.00     0.068 C 
HETATM   23  C10 UNL     1      -1.857  21.014   0.429  1.00  0.00     0.050 C 
HETATM   24  C11 UNL     1      -0.899  22.034   0.972  1.00  0.00     0.050 C 
HETATM   25  C12 UNL     1      -1.330  23.320   0.300  1.00  0.00     0.068 C 
ENDBRANCH  20  21
ENDBRANCH  17  20
ENDBRANCH  16  17
ENDBRANCH  15  16
ENDBRANCH  10  15
TORSDOF 6
ENDMDL
