MODEL 1
REMARK VINA RESULT: -7.035851488      0.000      0.000
REMARK  6 active torsions:
REMARK  status: ('A' for Active; 'I' for Inactive)
REMARK    1  A    between atoms: O1_2  and  C2_3 
REMARK    2  A    between atoms: C2_3  and  C3_5 
REMARK    3  A    between atoms: C3_5  and  C4_6 
REMARK    4  A    between atoms: C4_6  and  C5_7 
REMARK    5  A    between atoms: C5_7  and  C6_8 
REMARK    6  A    between atoms: C6_8  and  C7_9 
ROOT
HETATM    1  C7  UNL     1      -5.546  20.542  -5.102  1.00  0.00     0.123 C 
HETATM    2  C8  UNL     1      -6.554  20.837  -4.067  1.00  0.00     0.058 C 
HETATM    3  C9  UNL     1      -7.934  20.526  -4.669  1.00  0.00     0.170 C 
HETATM    4  O3  UNL     1      -8.860  21.522  -4.375  1.00  0.00    -0.389 OA
HETATM    5  C10 UNL     1      -8.633  22.679  -5.122  1.00  0.00     0.193 C 
HETATM    6  C11 UNL     1      -8.654  23.901  -4.272  1.00  0.00     0.193 C 
HETATM    7  O4  UNL     1      -7.497  24.624  -4.228  1.00  0.00    -0.387 OA
HETATM    8  C12 UNL     1      -6.916  24.944  -5.417  1.00  0.00     0.193 C 
HETATM    9  C13 UNL     1      -5.397  24.889  -5.274  1.00  0.00     0.193 C 
HETATM   10  O5  UNL     1      -4.898  23.594  -5.347  1.00  0.00    -0.387 OA
HETATM   11  C14 UNL     1      -4.278  23.302  -4.153  1.00  0.00     0.193 C 
HETATM   12  C15 UNL     1      -4.022  21.851  -3.896  1.00  0.00     0.194 C 
HETATM   13  O6  UNL     1      -4.278  20.996  -4.918  1.00  0.00    -0.384 OA
ENDROOT
BRANCH   1  14
HETATM   14  C6  UNL     1      -5.506  19.061  -5.366  1.00  0.00     0.032 C 
BRANCH  14  15
HETATM   15  C5  UNL     1      -4.160  18.432  -5.267  1.00  0.00     0.003 C 
BRANCH  15  16
HETATM   16  C4  UNL     1      -4.027  17.514  -4.072  1.00  0.00     0.010 C 
BRANCH  16  17
HETATM   17  C3  UNL     1      -4.519  16.115  -4.346  1.00  0.00     0.111 C 
BRANCH  17  18
HETATM   18  C2  UNL     1      -3.539  15.490  -5.288  1.00  0.00     0.258 C 
HETATM   19  O2  UNL     1      -2.305  15.455  -4.976  1.00  0.00    -0.265 OA
BRANCH  18  20
HETATM   20  O1  UNL     1      -3.902  14.940  -6.499  1.00  0.00    -0.326 OA
HETATM   21  C1  UNL     1      -5.011  15.459  -7.204  1.00  0.00     0.213 C 
ENDBRANCH  18  20
ENDBRANCH  17  18
ENDBRANCH  16  17
ENDBRANCH  15  16
ENDBRANCH  14  15
ENDBRANCH   1  14
TORSDOF 6
ENDMDL
MODEL 2
REMARK VINA RESULT: -6.823837378      1.755      2.089
REMARK  6 active torsions:
REMARK  status: ('A' for Active; 'I' for Inactive)
REMARK    1  A    between atoms: O1_2  and  C2_3 
REMARK    2  A    between atoms: C2_3  and  C3_5 
REMARK    3  A    between atoms: C3_5  and  C4_6 
REMARK    4  A    between atoms: C4_6  and  C5_7 
REMARK    5  A    between atoms: C5_7  and  C6_8 
REMARK    6  A    between atoms: C6_8  and  C7_9 
ROOT
HETATM    1  C7  UNL     1      -5.359  20.871  -3.606  1.00  0.00     0.123 C 
HETATM    2  C8  UNL     1      -6.694  20.333  -3.927  1.00  0.00     0.058 C 
HETATM    3  C9  UNL     1      -6.783  20.212  -5.458  1.00  0.00     0.170 C 
HETATM    4  O3  UNL     1      -8.002  20.677  -5.940  1.00  0.00    -0.389 OA
HETATM    5  C10 UNL     1      -8.079  22.070  -5.899  1.00  0.00     0.193 C 
HETATM    6  C11 UNL     1      -9.358  22.538  -5.297  1.00  0.00     0.193 C 
HETATM    7  O4  UNL     1      -9.251  23.277  -4.154  1.00  0.00    -0.387 OA
HETATM    8  C12 UNL     1      -8.380  24.323  -4.166  1.00  0.00     0.193 C 
HETATM    9  C13 UNL     1      -7.710  24.445  -2.801  1.00  0.00     0.193 C 
HETATM   10  O5  UNL     1      -6.667  23.543  -2.632  1.00  0.00    -0.387 OA
HETATM   11  C14 UNL     1      -6.978  22.713  -1.579  1.00  0.00     0.193 C 
HETATM   12  C15 UNL     1      -6.177  21.454  -1.489  1.00  0.00     0.194 C 
HETATM   13  O6  UNL     1      -5.133  21.332  -2.347  1.00  0.00    -0.384 OA
ENDROOT
BRANCH   1  14
HETATM   14  C6  UNL     1      -4.303  19.857  -3.957  1.00  0.00     0.032 C 
BRANCH  14  15
HETATM   15  C5  UNL     1      -4.119  18.761  -2.967  1.00  0.00     0.003 C 
BRANCH  15  16
HETATM   16  C4  UNL     1      -4.516  17.407  -3.510  1.00  0.00     0.010 C 
BRANCH  16  17
HETATM   17  C3  UNL     1      -4.185  17.237  -4.972  1.00  0.00     0.111 C 
BRANCH  17  18
HETATM   18  C2  UNL     1      -3.924  15.780  -5.188  1.00  0.00     0.258 C 
HETATM   19  O2  UNL     1      -3.710  15.025  -4.185  1.00  0.00    -0.265 OA
BRANCH  18  20
HETATM   20  O1  UNL     1      -3.901  15.195  -6.437  1.00  0.00    -0.326 OA
HETATM   21  C1  UNL     1      -5.002  15.354  -7.309  1.00  0.00     0.213 C 
ENDBRANCH  18  20
ENDBRANCH  17  18
ENDBRANCH  16  17
ENDBRANCH  15  16
ENDBRANCH  14  15
ENDBRANCH   1  14
TORSDOF 6
ENDMDL
MODEL 3
REMARK VINA RESULT: -6.477448508      3.562      5.381
REMARK  6 active torsions:
REMARK  status: ('A' for Active; 'I' for Inactive)
REMARK    1  A    between atoms: O1_2  and  C2_3 
REMARK    2  A    between atoms: C2_3  and  C3_5 
REMARK    3  A    between atoms: C3_5  and  C4_6 
REMARK    4  A    between atoms: C4_6  and  C5_7 
REMARK    5  A    between atoms: C5_7  and  C6_8 
REMARK    6  A    between atoms: C6_8  and  C7_9 
ROOT
HETATM    1  C7  UNL     1      -4.165  20.557  -2.044  1.00  0.00     0.123 C 
HETATM    2  C8  UNL     1      -3.318  21.632  -2.592  1.00  0.00     0.058 C 
HETATM    3  C9  UNL     1      -2.076  20.966  -3.208  1.00  0.00     0.170 C 
HETATM    4  O3  UNL     1      -0.908  21.643  -2.869  1.00  0.00    -0.389 OA
HETATM    5  C10 UNL     1      -0.547  21.422  -1.540  1.00  0.00     0.193 C 
HETATM    6  C11 UNL     1      -0.214  22.691  -0.836  1.00  0.00     0.193 C 
HETATM    7  O4  UNL     1      -0.999  23.012   0.233  1.00  0.00    -0.387 OA
HETATM    8  C12 UNL     1      -1.200  22.047   1.172  1.00  0.00     0.193 C 
HETATM    9  C13 UNL     1      -2.626  22.143   1.706  1.00  0.00     0.193 C 
HETATM   10  O5  UNL     1      -3.558  21.553   0.860  1.00  0.00    -0.387 OA
HETATM   11  C14 UNL     1      -4.439  22.524   0.443  1.00  0.00     0.193 C 
HETATM   12  C15 UNL     1      -5.265  22.175  -0.754  1.00  0.00     0.194 C 
HETATM   13  O6  UNL     1      -5.180  20.898  -1.204  1.00  0.00    -0.384 OA
ENDROOT
BRANCH   1  14
HETATM   14  C6  UNL     1      -4.717  19.720  -3.167  1.00  0.00     0.032 C 
BRANCH  14  15
HETATM   15  C5  UNL     1      -4.617  18.248  -2.973  1.00  0.00     0.003 C 
BRANCH  15  16
HETATM   16  C4  UNL     1      -4.095  17.529  -4.197  1.00  0.00     0.010 C 
BRANCH  16  17
HETATM   17  C3  UNL     1      -4.478  16.070  -4.232  1.00  0.00     0.111 C 
BRANCH  17  18
HETATM   18  C2  UNL     1      -3.528  15.397  -5.171  1.00  0.00     0.258 C 
HETATM   19  O2  UNL     1      -2.276  15.456  -4.946  1.00  0.00    -0.265 OA
BRANCH  18  20
HETATM   20  O1  UNL     1      -3.937  14.704  -6.291  1.00  0.00    -0.326 OA
HETATM   21  C1  UNL     1      -4.971  15.224  -7.102  1.00  0.00     0.213 C 
ENDBRANCH  18  20
ENDBRANCH  17  18
ENDBRANCH  16  17
ENDBRANCH  15  16
ENDBRANCH  14  15
ENDBRANCH   1  14
TORSDOF 6
ENDMDL
MODEL 4
REMARK VINA RESULT: -6.420998800      1.169      2.824
REMARK  6 active torsions:
REMARK  status: ('A' for Active; 'I' for Inactive)
REMARK    1  A    between atoms: O1_2  and  C2_3 
REMARK    2  A    between atoms: C2_3  and  C3_5 
REMARK    3  A    between atoms: C3_5  and  C4_6 
REMARK    4  A    between atoms: C4_6  and  C5_7 
REMARK    5  A    between atoms: C5_7  and  C6_8 
REMARK    6  A    between atoms: C6_8  and  C7_9 
ROOT
HETATM    1  C7  UNL     1      -5.469  20.695  -3.677  1.00  0.00     0.123 C 
HETATM    2  C8  UNL     1      -4.844  21.711  -4.543  1.00  0.00     0.058 C 
HETATM    3  C9  UNL     1      -4.029  22.648  -3.635  1.00  0.00     0.170 C 
HETATM    4  O3  UNL     1      -4.219  23.984  -3.971  1.00  0.00    -0.389 OA
HETATM    5  C10 UNL     1      -5.473  24.447  -3.570  1.00  0.00     0.193 C 
HETATM    6  C11 UNL     1      -6.167  25.186  -4.660  1.00  0.00     0.193 C 
HETATM    7  O4  UNL     1      -7.350  24.657  -5.088  1.00  0.00    -0.387 OA
HETATM    8  C12 UNL     1      -8.272  24.340  -4.138  1.00  0.00     0.193 C 
HETATM    9  C13 UNL     1      -9.012  23.069  -4.548  1.00  0.00     0.193 C 
HETATM   10  O5  UNL     1      -8.289  21.915  -4.273  1.00  0.00    -0.387 OA
HETATM   11  C14 UNL     1      -8.041  21.266  -5.461  1.00  0.00     0.193 C 
HETATM   12  C15 UNL     1      -6.965  20.228  -5.419  1.00  0.00     0.194 C 
HETATM   13  O6  UNL     1      -6.460  19.922  -4.197  1.00  0.00    -0.384 OA
ENDROOT
BRANCH   1  14
HETATM   14  C6  UNL     1      -4.408  19.804  -3.089  1.00  0.00     0.032 C 
BRANCH  14  15
HETATM   15  C5  UNL     1      -4.735  18.352  -3.067  1.00  0.00     0.003 C 
BRANCH  15  16
HETATM   16  C4  UNL     1      -4.043  17.577  -4.166  1.00  0.00     0.010 C 
BRANCH  16  17
HETATM   17  C3  UNL     1      -4.456  16.127  -4.216  1.00  0.00     0.111 C 
BRANCH  17  18
HETATM   18  C2  UNL     1      -3.513  15.443  -5.154  1.00  0.00     0.258 C 
HETATM   19  O2  UNL     1      -2.259  15.506  -4.940  1.00  0.00    -0.265 OA
BRANCH  18  20
HETATM   20  O1  UNL     1      -3.931  14.733  -6.260  1.00  0.00    -0.326 OA
HETATM   21  C1  UNL     1      -4.975  15.239  -7.068  1.00  0.00     0.213 C 
ENDBRANCH  18  20
ENDBRANCH  17  18
ENDBRANCH  16  17
ENDBRANCH  15  16
ENDBRANCH  14  15
ENDBRANCH   1  14
TORSDOF 6
ENDMDL
MODEL 5
REMARK VINA RESULT: -6.364245999      3.548      4.718
REMARK  6 active torsions:
REMARK  status: ('A' for Active; 'I' for Inactive)
REMARK    1  A    between atoms: O1_2  and  C2_3 
REMARK    2  A    between atoms: C2_3  and  C3_5 
REMARK    3  A    between atoms: C3_5  and  C4_6 
REMARK    4  A    between atoms: C4_6  and  C5_7 
REMARK    5  A    between atoms: C5_7  and  C6_8 
REMARK    6  A    between atoms: C6_8  and  C7_9 
ROOT
HETATM    1  C7  UNL     1      -3.275  20.582  -2.944  1.00  0.00     0.123 C 
HETATM    2  C8  UNL     1      -3.574  20.275  -1.533  1.00  0.00     0.058 C 
HETATM    3  C9  UNL     1      -4.826  21.080  -1.145  1.00  0.00     0.170 C 
HETATM    4  O3  UNL     1      -4.685  21.682   0.101  1.00  0.00    -0.389 OA
HETATM    5  C10 UNL     1      -3.819  22.775   0.055  1.00  0.00     0.193 C 
HETATM    6  C11 UNL     1      -2.814  22.735   1.152  1.00  0.00     0.193 C 
HETATM    7  O4  UNL     1      -1.506  22.657   0.771  1.00  0.00    -0.387 OA
HETATM    8  C12 UNL     1      -1.076  23.548  -0.165  1.00  0.00     0.193 C 
HETATM    9  C13 UNL     1      -0.069  22.870  -1.090  1.00  0.00     0.193 C 
HETATM   10  O5  UNL     1      -0.678  22.093  -2.069  1.00  0.00    -0.387 OA
HETATM   11  C14 UNL     1      -0.278  20.787  -1.896  1.00  0.00     0.193 C 
HETATM   12  C15 UNL     1      -1.110  19.759  -2.593  1.00  0.00     0.194 C 
HETATM   13  O6  UNL     1      -2.063  20.218  -3.442  1.00  0.00    -0.384 OA
ENDROOT
BRANCH   1  14
HETATM   14  C6  UNL     1      -4.359  20.024  -3.827  1.00  0.00     0.032 C 
BRANCH  14  15
HETATM   15  C5  UNL     1      -4.721  18.603  -3.571  1.00  0.00     0.003 C 
BRANCH  15  16
HETATM   16  C4  UNL     1      -4.035  17.642  -4.518  1.00  0.00     0.010 C 
BRANCH  16  17
HETATM   17  C3  UNL     1      -4.426  16.204  -4.284  1.00  0.00     0.111 C 
BRANCH  17  18
HETATM   18  C2  UNL     1      -3.551  15.371  -5.166  1.00  0.00     0.258 C 
HETATM   19  O2  UNL     1      -2.295  15.345  -4.960  1.00  0.00    -0.265 OA
BRANCH  18  20
HETATM   20  O1  UNL     1      -4.037  14.615  -6.213  1.00  0.00    -0.326 OA
HETATM   21  C1  UNL     1      -4.904  15.203  -7.163  1.00  0.00     0.213 C 
ENDBRANCH  18  20
ENDBRANCH  17  18
ENDBRANCH  16  17
ENDBRANCH  15  16
ENDBRANCH  14  15
ENDBRANCH   1  14
TORSDOF 6
ENDMDL
