MODEL 1
REMARK VINA RESULT: -6.454051863      0.000      0.000
REMARK  8 active torsions:
REMARK  status: ('A' for Active; 'I' for Inactive)
REMARK    1  A    between atoms: N2_7  and  C6_8 
REMARK    2  A    between atoms: C6_8  and  C7_9 
REMARK    3  A    between atoms: C7_9  and  C8_10 
REMARK    4  A    between atoms: C8_10  and  C9_11 
REMARK    5  A    between atoms: C12_14  and  C13_15 
REMARK    6  A    between atoms: C13_15  and  C14_16 
REMARK    7  A    between atoms: C14_16  and  N3_17 
REMARK    8  A    between atoms: N4_23  and  N5_24 
ROOT
HETATM    1  C7  UNL     1     -27.126 -20.336  -8.488  1.00  0.00     0.026 C 
ENDROOT
BRANCH   1   2
HETATM    2  C6  UNL     1     -26.237 -20.889  -7.442  1.00  0.00     0.150 C 
BRANCH   2   3
HETATM    3  N2  UNL     1     -24.854 -21.043  -7.851  1.00  0.00    -0.283 N 
HETATM    4  C5  UNL     1     -24.511 -21.618  -9.012  1.00  0.00     0.114 A 
HETATM    5  C4  UNL     1     -23.181 -21.729  -9.335  1.00  0.00     0.047 A 
HETATM    6  C3  UNL     1     -22.203 -21.260  -8.486  1.00  0.00     0.073 A 
HETATM    7  C2  UNL     1     -22.599 -20.676  -7.303  1.00  0.00     0.072 A 
HETATM    8  N1  UNL     1     -20.815 -21.383  -8.836  1.00  0.00    -0.100 NA
HETATM    9  C1  UNL     1     -21.557 -20.162  -6.370  1.00  0.00     0.074 C 
HETATM   10  N4  UNL     1     -23.922 -20.591  -7.031  1.00  0.00    -0.204 N 
BRANCH  10  11
HETATM   11  N5  UNL     1     -24.255 -19.989  -5.817  1.00  0.00    -0.324 N 
ATOM     12  H52 UNL     1     -25.143 -19.502  -5.694  1.00  0.00     0.178 HD
ATOM     13  H51 UNL     1     -23.559 -20.068  -5.076  1.00  0.00     0.178 HD
ENDBRANCH  10  11
ENDBRANCH   2   3
ENDBRANCH   1   2
BRANCH   1  14
HETATM   14  C8  UNL     1     -27.048 -18.844  -8.607  1.00  0.00     0.040 C 
BRANCH  14  15
HETATM   15  C9  UNL     1     -26.633 -18.428  -9.965  1.00  0.00    -0.058 A 
HETATM   16  C10 UNL     1     -27.596 -18.129 -10.895  1.00  0.00     0.007 A 
HETATM   17  C11 UNL     1     -27.233 -17.732 -12.187  1.00  0.00     0.007 A 
HETATM   18  C12 UNL     1     -25.911 -17.635 -12.550  1.00  0.00    -0.057 A 
HETATM   19  C15 UNL     1     -24.972 -17.941 -11.599  1.00  0.00     0.007 A 
HETATM   20  C16 UNL     1     -25.312 -18.332 -10.325  1.00  0.00     0.007 A 
BRANCH  18  21
HETATM   21  C13 UNL     1     -25.471 -17.223 -13.894  1.00  0.00     0.065 C 
BRANCH  21  22
HETATM   22  C14 UNL     1     -25.139 -18.474 -14.697  1.00  0.00     0.234 C 
BRANCH  22  23
HETATM   23  N3  UNL     1     -24.800 -18.131 -16.042  1.00  0.00    -0.079 N 
ATOM     24  H33 UNL     1     -24.538 -17.149 -16.129  1.00  0.00     0.274 HD
ATOM     25  H32 UNL     1     -23.916 -18.549 -16.330  1.00  0.00     0.274 HD
ATOM     26  H31 UNL     1     -25.560 -18.377 -16.676  1.00  0.00     0.274 HD
ENDBRANCH  22  23
ENDBRANCH  21  22
ENDBRANCH  18  21
ENDBRANCH  14  15
ENDBRANCH   1  14
TORSDOF 8
ENDMDL
MODEL 2
REMARK VINA RESULT: -6.405076305      0.067      1.029
REMARK  8 active torsions:
REMARK  status: ('A' for Active; 'I' for Inactive)
REMARK    1  A    between atoms: N2_7  and  C6_8 
REMARK    2  A    between atoms: C6_8  and  C7_9 
REMARK    3  A    between atoms: C7_9  and  C8_10 
REMARK    4  A    between atoms: C8_10  and  C9_11 
REMARK    5  A    between atoms: C12_14  and  C13_15 
REMARK    6  A    between atoms: C13_15  and  C14_16 
REMARK    7  A    between atoms: C14_16  and  N3_17 
REMARK    8  A    between atoms: N4_23  and  N5_24 
ROOT
HETATM    1  C7  UNL     1     -27.116 -20.342  -8.459  1.00  0.00     0.026 C 
ENDROOT
BRANCH   1   2
HETATM    2  C6  UNL     1     -26.229 -20.876  -7.402  1.00  0.00     0.150 C 
BRANCH   2   3
HETATM    3  N2  UNL     1     -24.845 -21.034  -7.803  1.00  0.00    -0.283 N 
HETATM    4  C5  UNL     1     -24.497 -21.629  -8.953  1.00  0.00     0.114 A 
HETATM    5  C4  UNL     1     -23.166 -21.742  -9.271  1.00  0.00     0.047 A 
HETATM    6  C3  UNL     1     -22.191 -21.256  -8.427  1.00  0.00     0.073 A 
HETATM    7  C2  UNL     1     -22.592 -20.651  -7.256  1.00  0.00     0.072 A 
HETATM    8  N1  UNL     1     -20.802 -21.382  -8.771  1.00  0.00    -0.100 NA
HETATM    9  C1  UNL     1     -21.555 -20.118  -6.329  1.00  0.00     0.074 C 
HETATM   10  N4  UNL     1     -23.916 -20.565  -6.989  1.00  0.00    -0.204 N 
BRANCH  10  11
HETATM   11  N5  UNL     1     -24.254 -19.942  -5.788  1.00  0.00    -0.324 N 
ATOM     12  H52 UNL     1     -24.744 -19.047  -5.775  1.00  0.00     0.178 HD
ATOM     13  H51 UNL     1     -23.980 -20.436  -4.939  1.00  0.00     0.178 HD
ENDBRANCH  10  11
ENDBRANCH   2   3
ENDBRANCH   1   2
BRANCH   1  14
HETATM   14  C8  UNL     1     -27.061 -18.849  -8.582  1.00  0.00     0.040 C 
BRANCH  14  15
HETATM   15  C9  UNL     1     -26.697 -18.431  -9.954  1.00  0.00    -0.058 A 
HETATM   16  C10 UNL     1     -25.371 -18.287 -10.278  1.00  0.00     0.007 A 
HETATM   17  C11 UNL     1     -24.997 -17.891 -11.568  1.00  0.00     0.007 A 
HETATM   18  C12 UNL     1     -25.944 -17.640 -12.531  1.00  0.00    -0.057 A 
HETATM   19  C15 UNL     1     -27.260 -17.793 -12.177  1.00  0.00     0.007 A 
HETATM   20  C16 UNL     1     -27.644 -18.180 -10.915  1.00  0.00     0.007 A 
BRANCH  18  21
HETATM   21  C13 UNL     1     -25.609 -17.223 -13.904  1.00  0.00     0.065 C 
BRANCH  21  22
HETATM   22  C14 UNL     1     -25.069 -18.432 -14.656  1.00  0.00     0.234 C 
BRANCH  22  23
HETATM   23  N3  UNL     1     -24.876 -18.117 -16.037  1.00  0.00    -0.079 N 
ATOM     24  H33 UNL     1     -23.980 -17.656 -16.200  1.00  0.00     0.274 HD
ATOM     25  H32 UNL     1     -24.720 -18.953 -16.599  1.00  0.00     0.274 HD
ATOM     26  H31 UNL     1     -25.656 -17.563 -16.390  1.00  0.00     0.274 HD
ENDBRANCH  22  23
ENDBRANCH  21  22
ENDBRANCH  18  21
ENDBRANCH  14  15
ENDBRANCH   1  14
TORSDOF 8
ENDMDL
MODEL 3
REMARK VINA RESULT: -6.311400108      2.183      3.081
REMARK  8 active torsions:
REMARK  status: ('A' for Active; 'I' for Inactive)
REMARK    1  A    between atoms: N2_7  and  C6_8 
REMARK    2  A    between atoms: C6_8  and  C7_9 
REMARK    3  A    between atoms: C7_9  and  C8_10 
REMARK    4  A    between atoms: C8_10  and  C9_11 
REMARK    5  A    between atoms: C12_14  and  C13_15 
REMARK    6  A    between atoms: C13_15  and  C14_16 
REMARK    7  A    between atoms: C14_16  and  N3_17 
REMARK    8  A    between atoms: N4_23  and  N5_24 
ROOT
HETATM    1  C7  UNL     1     -27.589 -21.017 -11.236  1.00  0.00     0.026 C 
ENDROOT
BRANCH   1   2
HETATM    2  C6  UNL     1     -26.288 -21.716 -11.165  1.00  0.00     0.150 C 
BRANCH   2   3
HETATM    3  N2  UNL     1     -25.580 -21.541  -9.912  1.00  0.00    -0.283 N 
HETATM    4  C5  UNL     1     -26.102 -21.917  -8.736  1.00  0.00     0.114 A 
HETATM    5  C4  UNL     1     -25.374 -21.722  -7.589  1.00  0.00     0.047 A 
HETATM    6  C3  UNL     1     -24.122 -21.148  -7.632  1.00  0.00     0.073 A 
HETATM    7  C2  UNL     1     -23.623 -20.776  -8.860  1.00  0.00     0.072 A 
HETATM    8  N1  UNL     1     -23.372 -20.949  -6.423  1.00  0.00    -0.100 NA
HETATM    9  C1  UNL     1     -22.271 -20.153  -8.930  1.00  0.00     0.074 C 
HETATM   10  N4  UNL     1     -24.381 -20.989  -9.961  1.00  0.00    -0.204 N 
BRANCH  10  11
HETATM   11  N5  UNL     1     -23.816 -20.590 -11.173  1.00  0.00    -0.324 N 
ATOM     12  H52 UNL     1     -24.036 -19.684 -11.587  1.00  0.00     0.178 HD
ATOM     13  H51 UNL     1     -23.180 -21.258 -11.608  1.00  0.00     0.178 HD
ENDBRANCH  10  11
ENDBRANCH   2   3
ENDBRANCH   1   2
BRANCH   1  14
HETATM   14  C8  UNL     1     -27.665 -20.016 -12.349  1.00  0.00     0.040 C 
BRANCH  14  15
HETATM   15  C9  UNL     1     -26.720 -18.897 -12.140  1.00  0.00    -0.058 A 
HETATM   16  C10 UNL     1     -25.882 -18.530 -13.162  1.00  0.00     0.007 A 
HETATM   17  C11 UNL     1     -24.978 -17.475 -12.992  1.00  0.00     0.007 A 
HETATM   18  C12 UNL     1     -24.910 -16.789 -11.804  1.00  0.00    -0.057 A 
HETATM   19  C15 UNL     1     -25.759 -17.178 -10.801  1.00  0.00     0.007 A 
HETATM   20  C16 UNL     1     -26.654 -18.212 -10.952  1.00  0.00     0.007 A 
BRANCH  18  21
HETATM   21  C13 UNL     1     -23.979 -15.671 -11.569  1.00  0.00     0.065 C 
BRANCH  21  22
HETATM   22  C14 UNL     1     -22.557 -16.181 -11.759  1.00  0.00     0.234 C 
BRANCH  22  23
HETATM   23  N3  UNL     1     -21.989 -15.647 -12.957  1.00  0.00    -0.079 N 
ATOM     24  H33 UNL     1     -22.032 -16.313 -13.728  1.00  0.00     0.274 HD
ATOM     25  H32 UNL     1     -22.572 -14.913 -13.358  1.00  0.00     0.274 HD
ATOM     26  H31 UNL     1     -21.036 -15.324 -12.788  1.00  0.00     0.274 HD
ENDBRANCH  22  23
ENDBRANCH  21  22
ENDBRANCH  18  21
ENDBRANCH  14  15
ENDBRANCH   1  14
TORSDOF 8
ENDMDL
MODEL 4
REMARK VINA RESULT: -6.311336184      2.494      5.664
REMARK  8 active torsions:
REMARK  status: ('A' for Active; 'I' for Inactive)
REMARK    1  A    between atoms: N2_7  and  C6_8 
REMARK    2  A    between atoms: C6_8  and  C7_9 
REMARK    3  A    between atoms: C7_9  and  C8_10 
REMARK    4  A    between atoms: C8_10  and  C9_11 
REMARK    5  A    between atoms: C12_14  and  C13_15 
REMARK    6  A    between atoms: C13_15  and  C14_16 
REMARK    7  A    between atoms: C14_16  and  N3_17 
REMARK    8  A    between atoms: N4_23  and  N5_24 
ROOT
HETATM    1  C7  UNL     1     -28.087 -17.784 -11.668  1.00  0.00     0.026 C 
ENDROOT
BRANCH   1   2
HETATM    2  C6  UNL     1     -27.018 -17.757 -12.690  1.00  0.00     0.150 C 
BRANCH   2   3
HETATM    3  N2  UNL     1     -25.806 -17.080 -12.273  1.00  0.00    -0.283 N 
HETATM    4  C5  UNL     1     -25.815 -15.830 -11.788  1.00  0.00     0.114 A 
HETATM    5  C4  UNL     1     -24.629 -15.252 -11.410  1.00  0.00     0.047 A 
HETATM    6  C3  UNL     1     -23.438 -15.937 -11.523  1.00  0.00     0.073 A 
HETATM    7  C2  UNL     1     -23.473 -17.218 -12.025  1.00  0.00     0.072 A 
HETATM    8  N1  UNL     1     -22.204 -15.319 -11.124  1.00  0.00    -0.100 NA
HETATM    9  C1  UNL     1     -22.198 -17.976 -12.156  1.00  0.00     0.074 C 
HETATM   10  N4  UNL     1     -24.669 -17.743 -12.384  1.00  0.00    -0.204 N 
BRANCH  10  11
HETATM   11  N5  UNL     1     -24.635 -19.044 -12.885  1.00  0.00    -0.324 N 
ATOM     12  H52 UNL     1     -24.290 -19.241 -13.825  1.00  0.00     0.178 HD
ATOM     13  H51 UNL     1     -24.974 -19.771 -12.256  1.00  0.00     0.178 HD
ENDBRANCH  10  11
ENDBRANCH   2   3
ENDBRANCH   1   2
BRANCH   1  14
HETATM   14  C8  UNL     1     -28.432 -19.167 -11.205  1.00  0.00     0.040 C 
BRANCH  14  15
HETATM   15  C9  UNL     1     -27.276 -19.828 -10.559  1.00  0.00    -0.058 A 
HETATM   16  C10 UNL     1     -26.901 -21.079 -10.978  1.00  0.00     0.007 A 
HETATM   17  C11 UNL     1     -25.812 -21.728 -10.384  1.00  0.00     0.007 A 
HETATM   18  C12 UNL     1     -25.099 -21.128  -9.374  1.00  0.00    -0.057 A 
HETATM   19  C15 UNL     1     -25.498 -19.878  -8.977  1.00  0.00     0.007 A 
HETATM   20  C16 UNL     1     -26.565 -19.228  -9.549  1.00  0.00     0.007 A 
BRANCH  18  21
HETATM   21  C13 UNL     1     -23.945 -21.763  -8.714  1.00  0.00     0.065 C 
BRANCH  21  22
HETATM   22  C14 UNL     1     -22.776 -20.787  -8.745  1.00  0.00     0.234 C 
BRANCH  22  23
HETATM   23  N3  UNL     1     -21.558 -21.475  -9.039  1.00  0.00    -0.079 N 
ATOM     24  H33 UNL     1     -21.588 -22.448  -8.735  1.00  0.00     0.274 HD
ATOM     25  H32 UNL     1     -21.443 -21.632 -10.040  1.00  0.00     0.274 HD
ATOM     26  H31 UNL     1     -20.762 -20.978  -8.640  1.00  0.00     0.274 HD
ENDBRANCH  22  23
ENDBRANCH  21  22
ENDBRANCH  18  21
ENDBRANCH  14  15
ENDBRANCH   1  14
TORSDOF 8
ENDMDL
MODEL 5
REMARK VINA RESULT: -6.309190731      2.305      3.099
REMARK  8 active torsions:
REMARK  status: ('A' for Active; 'I' for Inactive)
REMARK    1  A    between atoms: N2_7  and  C6_8 
REMARK    2  A    between atoms: C6_8  and  C7_9 
REMARK    3  A    between atoms: C7_9  and  C8_10 
REMARK    4  A    between atoms: C8_10  and  C9_11 
REMARK    5  A    between atoms: C12_14  and  C13_15 
REMARK    6  A    between atoms: C13_15  and  C14_16 
REMARK    7  A    between atoms: C14_16  and  N3_17 
REMARK    8  A    between atoms: N4_23  and  N5_24 
ROOT
HETATM    1  C7  UNL     1     -28.606 -19.055 -11.628  1.00  0.00     0.026 C 
ENDROOT
BRANCH   1   2
HETATM    2  C6  UNL     1     -28.342 -19.709 -10.327  1.00  0.00     0.150 C 
BRANCH   2   3
HETATM    3  N2  UNL     1     -27.016 -20.281 -10.201  1.00  0.00    -0.283 N 
HETATM    4  C5  UNL     1     -26.355 -20.793 -11.250  1.00  0.00     0.114 A 
HETATM    5  C4  UNL     1     -25.101 -21.317 -11.057  1.00  0.00     0.047 A 
HETATM    6  C3  UNL     1     -24.518 -21.324  -9.808  1.00  0.00     0.073 A 
HETATM    7  C2  UNL     1     -25.231 -20.787  -8.759  1.00  0.00     0.072 A 
HETATM    8  N1  UNL     1     -23.205 -21.876  -9.622  1.00  0.00    -0.100 NA
HETATM    9  C1  UNL     1     -24.620 -20.783  -7.401  1.00  0.00     0.074 C 
HETATM   10  N4  UNL     1     -26.464 -20.283  -9.001  1.00  0.00    -0.204 N 
BRANCH  10  11
HETATM   11  N5  UNL     1     -27.132 -19.756  -7.896  1.00  0.00    -0.324 N 
ATOM     12  H52 UNL     1     -26.891 -20.040  -6.946  1.00  0.00     0.178 HD
ATOM     13  H51 UNL     1     -27.865 -19.077  -8.103  1.00  0.00     0.178 HD
ENDBRANCH  10  11
ENDBRANCH   2   3
ENDBRANCH   1   2
BRANCH   1  14
HETATM   14  C8  UNL     1     -28.284 -17.591 -11.634  1.00  0.00     0.040 C 
BRANCH  14  15
HETATM   15  C9  UNL     1     -26.841 -17.352 -11.857  1.00  0.00    -0.058 A 
HETATM   16  C10 UNL     1     -26.311 -17.584 -13.101  1.00  0.00     0.007 A 
HETATM   17  C11 UNL     1     -24.949 -17.367 -13.341  1.00  0.00     0.007 A 
HETATM   18  C12 UNL     1     -24.119 -16.919 -12.341  1.00  0.00    -0.057 A 
HETATM   19  C15 UNL     1     -24.678 -16.696 -11.110  1.00  0.00     0.007 A 
HETATM   20  C16 UNL     1     -26.014 -16.905 -10.858  1.00  0.00     0.007 A 
BRANCH  18  21
HETATM   21  C13 UNL     1     -22.680 -16.672 -12.537  1.00  0.00     0.065 C 
BRANCH  21  22
HETATM   22  C14 UNL     1     -22.002 -18.000 -12.849  1.00  0.00     0.234 C 
BRANCH  22  23
HETATM   23  N3  UNL     1     -21.883 -18.792 -11.665  1.00  0.00    -0.079 N 
ATOM     24  H33 UNL     1     -22.488 -18.451 -10.918  1.00  0.00     0.274 HD
ATOM     25  H32 UNL     1     -22.296 -19.717 -11.785  1.00  0.00     0.274 HD
ATOM     26  H31 UNL     1     -20.909 -18.848 -11.368  1.00  0.00     0.274 HD
ENDBRANCH  22  23
ENDBRANCH  21  22
ENDBRANCH  18  21
ENDBRANCH  14  15
ENDBRANCH   1  14
TORSDOF 8
ENDMDL
