MODEL 1
REMARK VINA RESULT: -6.736138967      0.000      0.000
REMARK  7 active torsions:
REMARK  status: ('A' for Active; 'I' for Inactive)
REMARK    1  A    between atoms: N1_4  and  C4_5 
REMARK    2  A    between atoms: C4_5  and  C5_6 
REMARK    3  A    between atoms: C5_6  and  C6_7 
REMARK    4  A    between atoms: C6_7  and  C7_8 
REMARK    5  A    between atoms: C7_8  and  C8_9 
REMARK    6  A    between atoms: C8_9  and  N2_10 
REMARK    7  A    between atoms: C14_16  and  O1_17 
ROOT
HETATM    1  C1  UNL     1     -25.932 -21.554  -5.487  1.00  0.00     0.021 C 
HETATM    2  C2  UNL     1     -25.251 -21.369  -6.456  1.00  0.00    -0.041 C 
HETATM    3  C3  UNL     1     -24.449 -21.164  -7.627  1.00  0.00     0.168 A 
HETATM    4  N1  UNL     1     -24.803 -21.443  -8.887  1.00  0.00    -0.304 N 
HETATM    5  C14 UNL     1     -23.772 -21.104  -9.683  1.00  0.00     0.187 A 
HETATM    6  C15 UNL     1     -22.753 -20.601  -8.870  1.00  0.00     0.171 A 
HETATM    7  N3  UNL     1     -21.491 -20.131  -9.320  1.00  0.00    -0.078 NA
HETATM    8  N4  UNL     1     -23.190 -20.646  -7.602  1.00  0.00    -0.315 N 
HETATM    9  C16 UNL     1     -22.476 -20.226  -6.410  1.00  0.00     0.160 C 
ENDROOT
BRANCH   4  10
HETATM   10  C4  UNL     1     -26.075 -22.006  -9.277  1.00  0.00     0.133 C 
BRANCH  10  11
HETATM   11  C5  UNL     1     -26.981 -20.993  -9.940  1.00  0.00     0.020 C 
BRANCH  11  12
HETATM   12  C6  UNL     1     -27.267 -21.502 -11.333  1.00  0.00     0.003 C 
BRANCH  12  13
HETATM   13  C7  UNL     1     -27.498 -20.454 -12.356  1.00  0.00     0.020 C 
BRANCH  13  14
HETATM   14  C8  UNL     1     -26.299 -19.875 -13.011  1.00  0.00     0.128 C 
BRANCH  14  15
HETATM   15  N2  UNL     1     -26.193 -18.459 -13.026  1.00  0.00    -0.366 N 
HETATM   16  C9  UNL     1     -26.864 -17.761 -12.082  1.00  0.00     0.090 A 
HETATM   17  C10 UNL     1     -26.810 -16.382 -12.016  1.00  0.00     0.017 A 
HETATM   18  C11 UNL     1     -26.050 -15.708 -12.944  1.00  0.00     0.003 A 
HETATM   19  C12 UNL     1     -25.370 -16.415 -13.900  1.00  0.00     0.017 A 
HETATM   20  C13 UNL     1     -25.456 -17.813 -13.926  1.00  0.00     0.090 A 
ENDBRANCH  14  15
ENDBRANCH  13  14
ENDBRANCH  12  13
ENDBRANCH  11  12
ENDBRANCH  10  11
ENDBRANCH   4  10
BRANCH   5  21
HETATM   21  O1  UNL     1     -23.768 -21.250 -11.062  1.00  0.00    -0.343 OA
ATOM     22  H1  UNL     1     -22.985 -21.238 -11.600  1.00  0.00     0.219 HD
ENDBRANCH   5  21
TORSDOF 7
ENDMDL
MODEL 2
REMARK VINA RESULT: -6.719468508      0.102      1.029
REMARK  7 active torsions:
REMARK  status: ('A' for Active; 'I' for Inactive)
REMARK    1  A    between atoms: N1_4  and  C4_5 
REMARK    2  A    between atoms: C4_5  and  C5_6 
REMARK    3  A    between atoms: C5_6  and  C6_7 
REMARK    4  A    between atoms: C6_7  and  C7_8 
REMARK    5  A    between atoms: C7_8  and  C8_9 
REMARK    6  A    between atoms: C8_9  and  N2_10 
REMARK    7  A    between atoms: C14_16  and  O1_17 
ROOT
HETATM    1  C1  UNL     1     -26.034 -21.514  -5.544  1.00  0.00     0.021 C 
HETATM    2  C2  UNL     1     -25.336 -21.343  -6.503  1.00  0.00    -0.041 C 
HETATM    3  C3  UNL     1     -24.513 -21.154  -7.663  1.00  0.00     0.168 A 
HETATM    4  N1  UNL     1     -24.851 -21.437  -8.926  1.00  0.00    -0.304 N 
HETATM    5  C14 UNL     1     -23.803 -21.115  -9.708  1.00  0.00     0.187 A 
HETATM    6  C15 UNL     1     -22.791 -20.619  -8.882  1.00  0.00     0.171 A 
HETATM    7  N3  UNL     1     -21.517 -20.167  -9.315  1.00  0.00    -0.078 NA
HETATM    8  N4  UNL     1     -23.249 -20.651  -7.621  1.00  0.00    -0.315 N 
HETATM    9  C16 UNL     1     -22.548 -20.233  -6.420  1.00  0.00     0.160 C 
ENDROOT
BRANCH   4  10
HETATM   10  C4  UNL     1     -26.123 -21.987  -9.333  1.00  0.00     0.133 C 
BRANCH  10  11
HETATM   11  C5  UNL     1     -26.967 -20.995 -10.101  1.00  0.00     0.020 C 
BRANCH  11  12
HETATM   12  C6  UNL     1     -27.199 -21.582 -11.474  1.00  0.00     0.003 C 
BRANCH  12  13
HETATM   13  C7  UNL     1     -27.430 -20.594 -12.555  1.00  0.00     0.020 C 
BRANCH  13  14
HETATM   14  C8  UNL     1     -26.235 -19.910 -13.110  1.00  0.00     0.128 C 
BRANCH  14  15
HETATM   15  N2  UNL     1     -26.209 -18.493 -13.032  1.00  0.00    -0.366 N 
HETATM   16  C9  UNL     1     -25.452 -17.820 -13.927  1.00  0.00     0.090 A 
HETATM   17  C10 UNL     1     -25.377 -16.440 -13.930  1.00  0.00     0.017 A 
HETATM   18  C11 UNL     1     -26.096 -15.740 -12.990  1.00  0.00     0.003 A 
HETATM   19  C12 UNL     1     -26.864 -16.422 -12.083  1.00  0.00     0.017 A 
HETATM   20  C13 UNL     1     -26.908 -17.821 -12.121  1.00  0.00     0.090 A 
ENDBRANCH  14  15
ENDBRANCH  13  14
ENDBRANCH  12  13
ENDBRANCH  11  12
ENDBRANCH  10  11
ENDBRANCH   4  10
BRANCH   5  21
HETATM   21  O1  UNL     1     -23.780 -21.269 -11.086  1.00  0.00    -0.343 OA
ATOM     22  H1  UNL     1     -23.242 -20.751 -11.674  1.00  0.00     0.219 HD
ENDBRANCH   5  21
TORSDOF 7
ENDMDL
MODEL 3
REMARK VINA RESULT: -6.680253969      2.894      3.893
REMARK  7 active torsions:
REMARK  status: ('A' for Active; 'I' for Inactive)
REMARK    1  A    between atoms: N1_4  and  C4_5 
REMARK    2  A    between atoms: C4_5  and  C5_6 
REMARK    3  A    between atoms: C5_6  and  C6_7 
REMARK    4  A    between atoms: C6_7  and  C7_8 
REMARK    5  A    between atoms: C7_8  and  C8_9 
REMARK    6  A    between atoms: C8_9  and  N2_10 
REMARK    7  A    between atoms: C14_16  and  O1_17 
ROOT
HETATM    1  C1  UNL     1     -28.731 -18.331 -11.620  1.00  0.00     0.021 C 
HETATM    2  C2  UNL     1     -28.356 -19.159 -10.839  1.00  0.00    -0.041 C 
HETATM    3  C3  UNL     1     -27.912 -20.166  -9.919  1.00  0.00     0.168 A 
HETATM    4  N1  UNL     1     -27.527 -21.409 -10.233  1.00  0.00    -0.304 N 
HETATM    5  C14 UNL     1     -27.189 -22.030  -9.088  1.00  0.00     0.187 A 
HETATM    6  C15 UNL     1     -27.377 -21.125  -8.040  1.00  0.00     0.171 A 
HETATM    7  N3  UNL     1     -27.134 -21.388  -6.666  1.00  0.00    -0.078 NA
HETATM    8  N4  UNL     1     -27.824 -19.978  -8.574  1.00  0.00    -0.315 N 
HETATM    9  C16 UNL     1     -28.159 -18.753  -7.871  1.00  0.00     0.160 C 
ENDROOT
BRANCH   4  10
HETATM   10  C4  UNL     1     -27.497 -21.946 -11.574  1.00  0.00     0.133 C 
BRANCH  10  11
HETATM   11  C5  UNL     1     -26.091 -22.086 -12.113  1.00  0.00     0.020 C 
BRANCH  11  12
HETATM   12  C6  UNL     1     -26.100 -21.530 -13.517  1.00  0.00     0.003 C 
BRANCH  12  13
HETATM   13  C7  UNL     1     -26.068 -20.051 -13.614  1.00  0.00     0.020 C 
BRANCH  13  14
HETATM   14  C8  UNL     1     -25.156 -19.334 -12.688  1.00  0.00     0.128 C 
BRANCH  14  15
HETATM   15  N2  UNL     1     -25.316 -17.927 -12.588  1.00  0.00    -0.366 N 
HETATM   16  C9  UNL     1     -25.701 -17.250 -13.692  1.00  0.00     0.090 A 
HETATM   17  C10 UNL     1     -25.890 -15.881 -13.682  1.00  0.00     0.017 A 
HETATM   18  C11 UNL     1     -25.676 -15.196 -12.509  1.00  0.00     0.003 A 
HETATM   19  C12 UNL     1     -25.286 -15.883 -11.389  1.00  0.00     0.017 A 
HETATM   20  C13 UNL     1     -25.108 -17.271 -11.449  1.00  0.00     0.090 A 
ENDBRANCH  14  15
ENDBRANCH  13  14
ENDBRANCH  12  13
ENDBRANCH  11  12
ENDBRANCH  10  11
ENDBRANCH   4  10
BRANCH   5  21
HETATM   21  O1  UNL     1     -26.738 -23.340  -9.012  1.00  0.00    -0.343 OA
ATOM     22  H1  UNL     1     -25.827 -23.598  -9.083  1.00  0.00     0.219 HD
ENDBRANCH   5  21
TORSDOF 7
ENDMDL
MODEL 4
REMARK VINA RESULT: -6.574620480      1.873      3.902
REMARK  7 active torsions:
REMARK  status: ('A' for Active; 'I' for Inactive)
REMARK    1  A    between atoms: N1_4  and  C4_5 
REMARK    2  A    between atoms: C4_5  and  C5_6 
REMARK    3  A    between atoms: C5_6  and  C6_7 
REMARK    4  A    between atoms: C6_7  and  C7_8 
REMARK    5  A    between atoms: C7_8  and  C8_9 
REMARK    6  A    between atoms: C8_9  and  N2_10 
REMARK    7  A    between atoms: C14_16  and  O1_17 
ROOT
HETATM    1  C1  UNL     1     -26.768 -18.901  -9.563  1.00  0.00     0.021 C 
HETATM    2  C2  UNL     1     -25.625 -19.249  -9.466  1.00  0.00    -0.041 C 
HETATM    3  C3  UNL     1     -24.252 -19.655  -9.373  1.00  0.00     0.168 A 
HETATM    4  N1  UNL     1     -23.220 -19.108 -10.025  1.00  0.00    -0.304 N 
HETATM    5  C14 UNL     1     -22.110 -19.778  -9.660  1.00  0.00     0.187 A 
HETATM    6  C15 UNL     1     -22.489 -20.770  -8.752  1.00  0.00     0.171 A 
HETATM    7  N3  UNL     1     -21.614 -21.696  -8.126  1.00  0.00    -0.078 NA
HETATM    8  N4  UNL     1     -23.817 -20.678  -8.586  1.00  0.00    -0.315 N 
HETATM    9  C16 UNL     1     -24.656 -21.501  -7.735  1.00  0.00     0.160 C 
ENDROOT
BRANCH   4  10
HETATM   10  C4  UNL     1     -23.323 -18.000 -10.945  1.00  0.00     0.133 C 
BRANCH  10  11
HETATM   11  C5  UNL     1     -23.480 -18.448 -12.380  1.00  0.00     0.020 C 
BRANCH  11  12
HETATM   12  C6  UNL     1     -24.484 -17.522 -13.025  1.00  0.00     0.003 C 
BRANCH  12  13
HETATM   13  C7  UNL     1     -25.768 -18.152 -13.415  1.00  0.00     0.020 C 
BRANCH  13  14
HETATM   14  C8  UNL     1     -25.697 -19.499 -14.033  1.00  0.00     0.128 C 
BRANCH  14  15
HETATM   15  N2  UNL     1     -26.292 -20.570 -13.314  1.00  0.00    -0.366 N 
HETATM   16  C9  UNL     1     -27.402 -20.309 -12.588  1.00  0.00     0.090 A 
HETATM   17  C10 UNL     1     -28.051 -21.293 -11.866  1.00  0.00     0.017 A 
HETATM   18  C11 UNL     1     -27.544 -22.571 -11.892  1.00  0.00     0.003 A 
HETATM   19  C12 UNL     1     -26.419 -22.835 -12.628  1.00  0.00     0.017 A 
HETATM   20  C13 UNL     1     -25.797 -21.804 -13.344  1.00  0.00     0.090 A 
ENDBRANCH  14  15
ENDBRANCH  13  14
ENDBRANCH  12  13
ENDBRANCH  11  12
ENDBRANCH  10  11
ENDBRANCH   4  10
BRANCH   5  21
HETATM   21  O1  UNL     1     -20.837 -19.496 -10.132  1.00  0.00    -0.343 OA
ATOM     22  H1  UNL     1     -20.177 -20.153 -10.320  1.00  0.00     0.219 HD
ENDBRANCH   5  21
TORSDOF 7
ENDMDL
MODEL 5
REMARK VINA RESULT: -6.571212833      1.805      3.367
REMARK  7 active torsions:
REMARK  status: ('A' for Active; 'I' for Inactive)
REMARK    1  A    between atoms: N1_4  and  C4_5 
REMARK    2  A    between atoms: C4_5  and  C5_6 
REMARK    3  A    between atoms: C5_6  and  C6_7 
REMARK    4  A    between atoms: C6_7  and  C7_8 
REMARK    5  A    between atoms: C7_8  and  C8_9 
REMARK    6  A    between atoms: C8_9  and  N2_10 
REMARK    7  A    between atoms: C14_16  and  O1_17 
ROOT
HETATM    1  C1  UNL     1     -26.731 -19.657  -9.396  1.00  0.00     0.021 C 
HETATM    2  C2  UNL     1     -25.543 -19.757  -9.271  1.00  0.00    -0.041 C 
HETATM    3  C3  UNL     1     -24.119 -19.873  -9.144  1.00  0.00     0.168 A 
HETATM    4  N1  UNL     1     -23.209 -19.439 -10.023  1.00  0.00    -0.304 N 
HETATM    5  C14 UNL     1     -21.993 -19.742  -9.532  1.00  0.00     0.187 A 
HETATM    6  C15 UNL     1     -22.177 -20.387  -8.306  1.00  0.00     0.171 A 
HETATM    7  N3  UNL     1     -21.143 -20.871  -7.463  1.00  0.00    -0.078 NA
HETATM    8  N4  UNL     1     -23.498 -20.459  -8.083  1.00  0.00    -0.315 N 
HETATM    9  C16 UNL     1     -24.166 -21.045  -6.935  1.00  0.00     0.160 C 
ENDROOT
BRANCH   4  10
HETATM   10  C4  UNL     1     -23.521 -18.769 -11.265  1.00  0.00     0.133 C 
BRANCH  10  11
HETATM   11  C5  UNL     1     -23.230 -17.286 -11.214  1.00  0.00     0.020 C 
BRANCH  11  12
HETATM   12  C6  UNL     1     -24.540 -16.589 -10.929  1.00  0.00     0.003 C 
BRANCH  12  13
HETATM   13  C7  UNL     1     -24.997 -15.645 -11.977  1.00  0.00     0.020 C 
BRANCH  13  14
HETATM   14  C8  UNL     1     -26.099 -16.101 -12.860  1.00  0.00     0.128 C 
BRANCH  14  15
HETATM   15  N2  UNL     1     -26.012 -17.424 -13.368  1.00  0.00    -0.366 N 
HETATM   16  C9  UNL     1     -26.673 -18.402 -12.710  1.00  0.00     0.090 A 
HETATM   17  C10 UNL     1     -26.651 -19.716 -13.139  1.00  0.00     0.017 A 
HETATM   18  C11 UNL     1     -25.931 -20.028 -14.268  1.00  0.00     0.003 A 
HETATM   19  C12 UNL     1     -25.260 -19.036 -14.935  1.00  0.00     0.017 A 
HETATM   20  C13 UNL     1     -25.314 -17.719 -14.461  1.00  0.00     0.090 A 
ENDBRANCH  14  15
ENDBRANCH  13  14
ENDBRANCH  12  13
ENDBRANCH  11  12
ENDBRANCH  10  11
ENDBRANCH   4  10
BRANCH   5  21
HETATM   21  O1  UNL     1     -20.797 -19.447 -10.169  1.00  0.00    -0.343 OA
ATOM     22  H1  UNL     1     -20.239 -20.091 -10.588  1.00  0.00     0.219 HD
ENDBRANCH   5  21
TORSDOF 7
ENDMDL
