MODEL 1
REMARK VINA RESULT: -7.680582076      0.000      0.000
REMARK  10 active torsions:
REMARK  status: ('A' for Active; 'I' for Inactive)
REMARK    1  A    between atoms: C3_10  and  C4_11 
REMARK    2  A    between atoms: C4_11  and  C5_12 
REMARK    3  A    between atoms: C5_12  and  N4_13 
REMARK    4  A    between atoms: N4_13  and  C6_15 
REMARK    5  A    between atoms: C9_20  and  O1_21 
REMARK    6  A    between atoms: O1_21  and  C10_22 
REMARK    7  A    between atoms: C10_22  and  C11_23 
REMARK    8  A    between atoms: C11_23  and  C12_24 
REMARK    9  A    between atoms: C12_24  and  C13_25 
REMARK   10  A    between atoms: C19_31  and  N6_32 
ROOT
HETATM    1  C6  UNL     1     207.095  69.214-128.112  1.00  0.00     0.067 A 
HETATM    2  C7  UNL     1     208.346  69.238-128.681  1.00  0.00     0.049 A 
HETATM    3  C8  UNL     1     209.456  68.697-128.027  1.00  0.00     0.092 A 
HETATM    4  N5  UNL     1     209.292  68.147-126.823  1.00  0.00    -0.345 N 
ATOM      5  H5  UNL     1     210.102  67.752-126.346  1.00  0.00     0.167 HD
HETATM    6  C9  UNL     1     208.076  68.095-126.210  1.00  0.00     0.178 A 
HETATM    7  C19 UNL     1     206.974  68.622-126.838  1.00  0.00     0.179 A 
ENDROOT
BRANCH   1   8
HETATM    8  N4  UNL     1     206.047  69.697-128.672  1.00  0.00    -0.387 N 
ATOM      9  H4  UNL     1     205.341  69.071-129.060  1.00  0.00     0.159 HD
BRANCH   8  10
HETATM   10  C5  UNL     1     205.870  71.125-128.753  1.00  0.00     0.127 C 
BRANCH  10  11
HETATM   11  C4  UNL     1     204.467  71.429-128.313  1.00  0.00     0.096 C 
BRANCH  11  12
HETATM   12  C3  UNL     1     204.448  72.264-127.066  1.00  0.00     0.099 A 
HETATM   13  N3  UNL     1     204.580  73.606-127.145  1.00  0.00    -0.341 N 
HETATM   14  C2  UNL     1     204.565  74.358-126.029  1.00  0.00     0.199 A 
ATOM     15  H3  UNL     1     204.693  74.052-128.056  1.00  0.00     0.167 HD
HETATM   16  N2  UNL     1     204.419  73.805-124.807  1.00  0.00    -0.188 N 
HETATM   17  C1  UNL     1     204.285  72.471-124.704  1.00  0.00     0.678 A 
ATOM     18  H2  UNL     1     204.410  74.391-123.972  1.00  0.00     0.185 HD
HETATM   19  N1  UNL     1     204.142  71.896-123.558  1.00  0.00    -0.234 N 
HETATM   20  N7  UNL     1     204.304  71.737-125.846  1.00  0.00    -0.181 N 
ATOM     21  H12 UNL     1     204.127  72.449-122.701  1.00  0.00     0.174 HD
ATOM     22  H11 UNL     1     204.040  70.884-123.481  1.00  0.00     0.174 HD
ATOM     23  H7  UNL     1     204.202  70.725-125.769  1.00  0.00     0.185 HD
ENDBRANCH  11  12
ENDBRANCH  10  11
ENDBRANCH   8  10
ENDBRANCH   1   8
BRANCH   7  24
HETATM   24  N6  UNL     1     205.691  68.592-126.233  1.00  0.00    -0.109 N 
HETATM   25  O2  UNL     1     204.771  67.925-126.746  1.00  0.00    -0.532 OA
HETATM   26  O3  UNL     1     205.465  69.299-125.086  1.00  0.00    -0.532 OA
ENDBRANCH   7  24
BRANCH   6  27
HETATM   27  O1  UNL     1     208.020  67.503-124.965  1.00  0.00    -0.334 OA
BRANCH  27  28
HETATM   28  C10 UNL     1     209.045  67.622-124.000  1.00  0.00     0.178 C 
BRANCH  28  29
HETATM   29  C11 UNL     1     209.143  69.036-123.470  1.00  0.00     0.031 C 
BRANCH  29  30
HETATM   30  C12 UNL     1     207.916  69.305-122.647  1.00  0.00     0.041 C 
BRANCH  30  31
HETATM   31  C13 UNL     1     207.651  70.736-122.432  1.00  0.00    -0.058 A 
HETATM   32  C14 UNL     1     207.111  71.282-121.293  1.00  0.00     0.007 A 
HETATM   33  C15 UNL     1     206.899  72.639-121.186  1.00  0.00     0.001 A 
HETATM   34  C16 UNL     1     207.221  73.512-122.218  1.00  0.00     0.000 A 
HETATM   35  C17 UNL     1     207.764  72.978-123.367  1.00  0.00     0.001 A 
HETATM   36  C18 UNL     1     207.965  71.619-123.449  1.00  0.00     0.007 A 
ENDBRANCH  30  31
ENDBRANCH  29  30
ENDBRANCH  28  29
ENDBRANCH  27  28
ENDBRANCH   6  27
TORSDOF 10
ENDMDL
MODEL 2
REMARK VINA RESULT: -7.599240887      4.422      7.123
REMARK  10 active torsions:
REMARK  status: ('A' for Active; 'I' for Inactive)
REMARK    1  A    between atoms: C3_10  and  C4_11 
REMARK    2  A    between atoms: C4_11  and  C5_12 
REMARK    3  A    between atoms: C5_12  and  N4_13 
REMARK    4  A    between atoms: N4_13  and  C6_15 
REMARK    5  A    between atoms: C9_20  and  O1_21 
REMARK    6  A    between atoms: O1_21  and  C10_22 
REMARK    7  A    between atoms: C10_22  and  C11_23 
REMARK    8  A    between atoms: C11_23  and  C12_24 
REMARK    9  A    between atoms: C12_24  and  C13_25 
REMARK   10  A    between atoms: C19_31  and  N6_32 
ROOT
HETATM    1  C6  UNL     1     202.617  75.667-127.032  1.00  0.00     0.067 A 
HETATM    2  C7  UNL     1     202.474  76.934-126.520  1.00  0.00     0.049 A 
HETATM    3  C8  UNL     1     203.223  77.368-125.423  1.00  0.00     0.092 A 
HETATM    4  N5  UNL     1     204.096  76.527-124.865  1.00  0.00    -0.345 N 
ATOM      5  H5  UNL     1     204.643  76.843-124.065  1.00  0.00     0.167 HD
HETATM    6  C9  UNL     1     204.280  75.259-125.330  1.00  0.00     0.178 A 
HETATM    7  C19 UNL     1     203.552  74.817-126.407  1.00  0.00     0.179 A 
ENDROOT
BRANCH   1   8
HETATM    8  N4  UNL     1     201.954  75.224-128.036  1.00  0.00    -0.387 N 
ATOM      9  H4  UNL     1     202.174  74.310-128.432  1.00  0.00     0.159 HD
BRANCH   8  10
HETATM   10  C5  UNL     1     200.895  76.021-128.605  1.00  0.00     0.127 C 
BRANCH  10  11
HETATM   11  C4  UNL     1     200.535  75.412-129.928  1.00  0.00     0.096 C 
BRANCH  11  12
HETATM   12  C3  UNL     1     200.884  76.323-131.069  1.00  0.00     0.099 A 
HETATM   13  N3  UNL     1     199.942  77.127-131.609  1.00  0.00    -0.341 N 
HETATM   14  C2  UNL     1     200.252  77.944-132.632  1.00  0.00     0.199 A 
ATOM     15  H3  UNL     1     198.992  77.113-131.240  1.00  0.00     0.167 HD
HETATM   16  N2  UNL     1     201.498  77.989-133.148  1.00  0.00    -0.188 N 
HETATM   17  C1  UNL     1     202.451  77.198-132.626  1.00  0.00     0.678 A 
ATOM     18  H2  UNL     1     201.713  78.615-133.925  1.00  0.00     0.185 HD
HETATM   19  N1  UNL     1     203.657  77.207-133.085  1.00  0.00    -0.234 N 
HETATM   20  N7  UNL     1     202.112  76.384-131.594  1.00  0.00    -0.181 N 
ATOM     21  H12 UNL     1     203.911  77.820-133.860  1.00  0.00     0.174 HD
ATOM     22  H11 UNL     1     204.380  76.607-132.688  1.00  0.00     0.174 HD
ATOM     23  H7  UNL     1     202.835  75.784-131.198  1.00  0.00     0.185 HD
ENDBRANCH  11  12
ENDBRANCH  10  11
ENDBRANCH   8  10
ENDBRANCH   1   8
BRANCH   7  24
HETATM   24  N6  UNL     1     203.711  73.503-126.920  1.00  0.00    -0.109 N 
HETATM   25  O2  UNL     1     202.787  72.673-126.812  1.00  0.00    -0.532 OA
HETATM   26  O3  UNL     1     204.880  73.149-127.532  1.00  0.00    -0.532 OA
ENDBRANCH   7  24
BRANCH   6  27
HETATM   27  O1  UNL     1     205.209  74.475-124.677  1.00  0.00    -0.334 OA
BRANCH  27  28
HETATM   28  C10 UNL     1     206.600  74.716-124.724  1.00  0.00     0.178 C 
BRANCH  28  29
HETATM   29  C11 UNL     1     207.112  75.253-123.405  1.00  0.00     0.031 C 
BRANCH  29  30
HETATM   30  C12 UNL     1     208.369  74.506-123.060  1.00  0.00     0.041 C 
BRANCH  30  31
HETATM   31  C13 UNL     1     208.147  73.081-122.767  1.00  0.00    -0.058 A 
HETATM   32  C14 UNL     1     208.734  72.033-123.432  1.00  0.00     0.007 A 
HETATM   33  C15 UNL     1     208.462  70.728-123.084  1.00  0.00     0.001 A 
HETATM   34  C16 UNL     1     207.588  70.415-122.050  1.00  0.00     0.000 A 
HETATM   35  C17 UNL     1     206.991  71.457-121.374  1.00  0.00     0.001 A 
HETATM   36  C18 UNL     1     207.280  72.752-121.741  1.00  0.00     0.007 A 
ENDBRANCH  30  31
ENDBRANCH  29  30
ENDBRANCH  28  29
ENDBRANCH  27  28
ENDBRANCH   6  27
TORSDOF 10
ENDMDL
MODEL 3
REMARK VINA RESULT: -7.571352597      4.405      8.690
REMARK  10 active torsions:
REMARK  status: ('A' for Active; 'I' for Inactive)
REMARK    1  A    between atoms: C3_10  and  C4_11 
REMARK    2  A    between atoms: C4_11  and  C5_12 
REMARK    3  A    between atoms: C5_12  and  N4_13 
REMARK    4  A    between atoms: N4_13  and  C6_15 
REMARK    5  A    between atoms: C9_20  and  O1_21 
REMARK    6  A    between atoms: O1_21  and  C10_22 
REMARK    7  A    between atoms: C10_22  and  C11_23 
REMARK    8  A    between atoms: C11_23  and  C12_24 
REMARK    9  A    between atoms: C12_24  and  C13_25 
REMARK   10  A    between atoms: C19_31  and  N6_32 
ROOT
HETATM    1  C6  UNL     1     203.855  74.808-125.766  1.00  0.00     0.067 A 
HETATM    2  C7  UNL     1     203.615  76.130-126.060  1.00  0.00     0.049 A 
HETATM    3  C8  UNL     1     202.726  76.503-127.072  1.00  0.00     0.092 A 
HETATM    4  N5  UNL     1     202.101  75.550-127.766  1.00  0.00    -0.345 N 
ATOM      5  H5  UNL     1     201.453  75.822-128.504  1.00  0.00     0.167 HD
HETATM    6  C9  UNL     1     202.301  74.225-127.520  1.00  0.00     0.178 A 
HETATM    7  C19 UNL     1     203.170  73.840-126.528  1.00  0.00     0.179 A 
ENDROOT
BRANCH   1   8
HETATM    8  N4  UNL     1     204.660  74.417-124.848  1.00  0.00    -0.387 N 
ATOM      9  H4  UNL     1     204.298  73.957-124.013  1.00  0.00     0.159 HD
BRANCH   8  10
HETATM   10  C5  UNL     1     206.078  74.629-124.998  1.00  0.00     0.127 C 
BRANCH  10  11
HETATM   11  C4  UNL     1     206.656  74.792-123.622  1.00  0.00     0.096 C 
BRANCH  11  12
HETATM   12  C3  UNL     1     206.817  73.470-122.931  1.00  0.00     0.099 A 
HETATM   13  N3  UNL     1     207.145  72.368-123.640  1.00  0.00    -0.341 N 
HETATM   14  C2  UNL     1     207.290  71.181-123.022  1.00  0.00     0.199 A 
ATOM     15  H3  UNL     1     207.284  72.436-124.647  1.00  0.00     0.167 HD
HETATM   16  N2  UNL     1     207.113  71.051-121.690  1.00  0.00    -0.188 N 
HETATM   17  C1  UNL     1     206.787  72.135-120.965  1.00  0.00     0.678 A 
ATOM     18  H2  UNL     1     207.227  70.143-121.241  1.00  0.00     0.185 HD
HETATM   19  N1  UNL     1     206.609  72.061-119.690  1.00  0.00    -0.234 N 
HETATM   20  N7  UNL     1     206.648  73.320-121.613  1.00  0.00    -0.181 N 
ATOM     21  H12 UNL     1     206.714  71.170-119.204  1.00  0.00     0.174 HD
ATOM     22  H11 UNL     1     206.362  72.883-119.139  1.00  0.00     0.174 HD
ATOM     23  H7  UNL     1     206.401  74.142-121.063  1.00  0.00     0.185 HD
ENDBRANCH  11  12
ENDBRANCH  10  11
ENDBRANCH   8  10
ENDBRANCH   1   8
BRANCH   7  24
HETATM   24  N6  UNL     1     203.410  72.471-126.242  1.00  0.00    -0.109 N 
HETATM   25  O2  UNL     1     204.364  71.876-126.780  1.00  0.00    -0.532 OA
HETATM   26  O3  UNL     1     202.590  71.805-125.375  1.00  0.00    -0.532 OA
ENDBRANCH   7  24
BRANCH   6  27
HETATM   27  O1  UNL     1     201.602  73.325-128.297  1.00  0.00    -0.334 OA
BRANCH  27  28
HETATM   28  C10 UNL     1     202.091  72.807-129.518  1.00  0.00     0.178 C 
BRANCH  28  29
HETATM   29  C11 UNL     1     201.263  73.286-130.691  1.00  0.00     0.031 C 
BRANCH  29  30
HETATM   30  C12 UNL     1     199.964  73.815-130.153  1.00  0.00     0.041 C 
BRANCH  30  31
HETATM   31  C13 UNL     1     199.675  75.198-130.564  1.00  0.00    -0.058 A 
HETATM   32  C14 UNL     1     198.931  76.101-129.845  1.00  0.00     0.007 A 
HETATM   33  C15 UNL     1     198.714  77.377-130.316  1.00  0.00     0.001 A 
HETATM   34  C16 UNL     1     199.235  77.807-131.530  1.00  0.00     0.000 A 
HETATM   35  C17 UNL     1     199.984  76.911-132.263  1.00  0.00     0.001 A 
HETATM   36  C18 UNL     1     200.186  75.641-131.770  1.00  0.00     0.007 A 
ENDBRANCH  30  31
ENDBRANCH  29  30
ENDBRANCH  28  29
ENDBRANCH  27  28
ENDBRANCH   6  27
TORSDOF 10
ENDMDL
MODEL 4
REMARK VINA RESULT: -7.442065705      2.163      3.132
REMARK  10 active torsions:
REMARK  status: ('A' for Active; 'I' for Inactive)
REMARK    1  A    between atoms: C3_10  and  C4_11 
REMARK    2  A    between atoms: C4_11  and  C5_12 
REMARK    3  A    between atoms: C5_12  and  N4_13 
REMARK    4  A    between atoms: N4_13  and  C6_15 
REMARK    5  A    between atoms: C9_20  and  O1_21 
REMARK    6  A    between atoms: O1_21  and  C10_22 
REMARK    7  A    between atoms: C10_22  and  C11_23 
REMARK    8  A    between atoms: C11_23  and  C12_24 
REMARK    9  A    between atoms: C12_24  and  C13_25 
REMARK   10  A    between atoms: C19_31  and  N6_32 
ROOT
HETATM    1  C6  UNL     1     205.893  71.674-126.609  1.00  0.00     0.067 A 
HETATM    2  C7  UNL     1     206.473  72.920-126.631  1.00  0.00     0.049 A 
HETATM    3  C8  UNL     1     207.717  73.157-126.042  1.00  0.00     0.092 A 
HETATM    4  N5  UNL     1     208.352  72.146-125.446  1.00  0.00    -0.345 N 
ATOM      5  H5  UNL     1     209.261  72.319-125.016  1.00  0.00     0.167 HD
HETATM    6  C9  UNL     1     207.826  70.890-125.392  1.00  0.00     0.178 A 
HETATM    7  C19 UNL     1     206.603  70.640-125.967  1.00  0.00     0.179 A 
ENDROOT
BRANCH   1   8
HETATM    8  N4  UNL     1     204.755  71.407-127.136  1.00  0.00    -0.387 N 
ATOM      9  H4  UNL     1     204.389  70.456-127.110  1.00  0.00     0.159 HD
BRANCH   8  10
HETATM   10  C5  UNL     1     203.992  72.457-127.766  1.00  0.00     0.127 C 
BRANCH  10  11
HETATM   11  C4  UNL     1     203.021  72.979-126.748  1.00  0.00     0.096 C 
BRANCH  11  12
HETATM   12  C3  UNL     1     202.935  74.477-126.785  1.00  0.00     0.099 A 
HETATM   13  N3  UNL     1     202.102  75.089-127.655  1.00  0.00    -0.341 N 
HETATM   14  C2  UNL     1     202.023  76.432-127.691  1.00  0.00     0.199 A 
ATOM     15  H3  UNL     1     201.530  74.529-128.287  1.00  0.00     0.167 HD
HETATM   16  N2  UNL     1     202.765  77.205-126.870  1.00  0.00    -0.188 N 
HETATM   17  C1  UNL     1     203.600  76.618-125.996  1.00  0.00     0.678 A 
ATOM     18  H2  UNL     1     202.692  78.222-126.913  1.00  0.00     0.185 HD
HETATM   19  N1  UNL     1     204.328  77.315-125.191  1.00  0.00    -0.234 N 
HETATM   20  N7  UNL     1     203.660  75.262-125.980  1.00  0.00    -0.181 N 
ATOM     21  H12 UNL     1     204.283  78.334-125.203  1.00  0.00     0.174 HD
ATOM     22  H11 UNL     1     204.962  76.869-124.528  1.00  0.00     0.174 HD
ATOM     23  H7  UNL     1     204.293  74.816-125.318  1.00  0.00     0.185 HD
ENDBRANCH  11  12
ENDBRANCH  10  11
ENDBRANCH   8  10
ENDBRANCH   1   8
BRANCH   7  24
HETATM   24  N6  UNL     1     206.018  69.347-125.931  1.00  0.00    -0.109 N 
HETATM   25  O2  UNL     1     205.280  69.020-124.981  1.00  0.00    -0.532 OA
HETATM   26  O3  UNL     1     206.268  68.460-126.940  1.00  0.00    -0.532 OA
ENDBRANCH   7  24
BRANCH   6  27
HETATM   27  O1  UNL     1     208.568  69.920-124.751  1.00  0.00    -0.334 OA
BRANCH  27  28
HETATM   28  C10 UNL     1     208.855  69.948-123.368  1.00  0.00     0.178 C 
BRANCH  28  29
HETATM   29  C11 UNL     1     207.590  69.862-122.540  1.00  0.00     0.031 C 
BRANCH  29  30
HETATM   30  C12 UNL     1     207.594  71.012-121.573  1.00  0.00     0.041 C 
BRANCH  30  31
HETATM   31  C13 UNL     1     206.996  72.241-122.116  1.00  0.00    -0.058 A 
HETATM   32  C14 UNL     1     207.578  73.484-122.095  1.00  0.00     0.007 A 
HETATM   33  C15 UNL     1     206.937  74.580-122.630  1.00  0.00     0.001 A 
HETATM   34  C16 UNL     1     205.680  74.477-123.214  1.00  0.00     0.000 A 
HETATM   35  C17 UNL     1     205.083  73.235-123.242  1.00  0.00     0.001 A 
HETATM   36  C18 UNL     1     205.745  72.157-122.700  1.00  0.00     0.007 A 
ENDBRANCH  30  31
ENDBRANCH  29  30
ENDBRANCH  28  29
ENDBRANCH  27  28
ENDBRANCH   6  27
TORSDOF 10
ENDMDL
MODEL 5
REMARK VINA RESULT: -7.434743485      1.867      4.857
REMARK  10 active torsions:
REMARK  status: ('A' for Active; 'I' for Inactive)
REMARK    1  A    between atoms: C3_10  and  C4_11 
REMARK    2  A    between atoms: C4_11  and  C5_12 
REMARK    3  A    between atoms: C5_12  and  N4_13 
REMARK    4  A    between atoms: N4_13  and  C6_15 
REMARK    5  A    between atoms: C9_20  and  O1_21 
REMARK    6  A    between atoms: O1_21  and  C10_22 
REMARK    7  A    between atoms: C10_22  and  C11_23 
REMARK    8  A    between atoms: C11_23  and  C12_24 
REMARK    9  A    between atoms: C12_24  and  C13_25 
REMARK   10  A    between atoms: C19_31  and  N6_32 
ROOT
HETATM    1  C6  UNL     1     205.834  69.638-128.289  1.00  0.00     0.067 A 
HETATM    2  C7  UNL     1     205.884  70.633-129.236  1.00  0.00     0.049 A 
HETATM    3  C8  UNL     1     204.946  71.669-129.256  1.00  0.00     0.092 A 
HETATM    4  N5  UNL     1     203.983  71.686-128.332  1.00  0.00    -0.345 N 
ATOM      5  H5  UNL     1     203.299  72.443-128.347  1.00  0.00     0.167 HD
HETATM    6  C9  UNL     1     203.884  70.727-127.370  1.00  0.00     0.178 A 
HETATM    7  C19 UNL     1     204.798  69.701-127.335  1.00  0.00     0.179 A 
ENDROOT
BRANCH   1   8
HETATM    8  N4  UNL     1     206.671  68.668-128.229  1.00  0.00    -0.387 N 
ATOM      9  H4  UNL     1     206.363  67.715-128.423  1.00  0.00     0.159 HD
BRANCH   8  10
HETATM   10  C5  UNL     1     208.047  68.927-127.887  1.00  0.00     0.127 C 
BRANCH  10  11
HETATM   11  C4  UNL     1     208.522  67.785-127.038  1.00  0.00     0.096 C 
BRANCH  11  12
HETATM   12  C3  UNL     1     208.697  68.198-125.605  1.00  0.00     0.099 A 
HETATM   13  N3  UNL     1     208.327  67.364-124.608  1.00  0.00    -0.341 N 
HETATM   14  C2  UNL     1     208.482  67.732-123.323  1.00  0.00     0.199 A 
ATOM     15  H3  UNL     1     207.930  66.452-124.831  1.00  0.00     0.167 HD
HETATM   16  N2  UNL     1     209.004  68.931-122.989  1.00  0.00    -0.188 N 
HETATM   17  C1  UNL     1     209.378  69.776-123.965  1.00  0.00     0.678 A 
ATOM     18  H2  UNL     1     209.112  69.192-122.009  1.00  0.00     0.185 HD
HETATM   19  N1  UNL     1     209.883  70.932-123.695  1.00  0.00    -0.234 N 
HETATM   20  N7  UNL     1     209.212  69.380-125.252  1.00  0.00    -0.181 N 
ATOM     21  H12 UNL     1     210.008  71.229-122.727  1.00  0.00     0.174 HD
ATOM     22  H11 UNL     1     210.167  71.574-124.436  1.00  0.00     0.174 HD
ATOM     23  H7  UNL     1     209.496  70.021-125.993  1.00  0.00     0.185 HD
ENDBRANCH  11  12
ENDBRANCH  10  11
ENDBRANCH   8  10
ENDBRANCH   1   8
BRANCH   7  24
HETATM   24  N6  UNL     1     204.728  68.679-126.353  1.00  0.00    -0.109 N 
HETATM   25  O2  UNL     1     203.982  67.695-126.523  1.00  0.00    -0.532 OA
HETATM   26  O3  UNL     1     205.481  68.778-125.217  1.00  0.00    -0.532 OA
ENDBRANCH   7  24
BRANCH   6  27
HETATM   27  O1  UNL     1     202.849  70.843-126.465  1.00  0.00    -0.334 OA
BRANCH  27  28
HETATM   28  C10 UNL     1     202.720  71.925-125.567  1.00  0.00     0.178 C 
BRANCH  28  29
HETATM   29  C11 UNL     1     203.916  72.026-124.646  1.00  0.00     0.031 C 
BRANCH  29  30
HETATM   30  C12 UNL     1     204.583  73.348-124.899  1.00  0.00     0.041 C 
BRANCH  30  31
HETATM   31  C13 UNL     1     205.651  73.664-123.938  1.00  0.00    -0.058 A 
HETATM   32  C14 UNL     1     206.119  72.817-122.964  1.00  0.00     0.007 A 
HETATM   33  C15 UNL     1     207.126  73.206-122.108  1.00  0.00     0.001 A 
HETATM   34  C16 UNL     1     207.711  74.463-122.192  1.00  0.00     0.000 A 
HETATM   35  C17 UNL     1     207.252  75.324-123.166  1.00  0.00     0.001 A 
HETATM   36  C18 UNL     1     206.244  74.911-124.008  1.00  0.00     0.007 A 
ENDBRANCH  30  31
ENDBRANCH  29  30
ENDBRANCH  28  29
ENDBRANCH  27  28
ENDBRANCH   6  27
TORSDOF 10
ENDMDL
