MODEL 1
REMARK VINA RESULT: -7.281544200      0.000      0.000
REMARK  10 active torsions:
REMARK  status: ('A' for Active; 'I' for Inactive)
REMARK    1  A    between atoms: C2_2  and  C3_3 
REMARK    2  A    between atoms: N1_5  and  C5_6 
REMARK    3  A    between atoms: C5_6  and  C6_7 
REMARK    4  A    between atoms: C6_7  and  N2_8 
REMARK    5  A    between atoms: N2_8  and  C7_11 
REMARK    6  A    between atoms: C7_11  and  C8_12 
REMARK    7  A    between atoms: C8_12  and  C9_13 
REMARK    8  A    between atoms: C9_13  and  N3_14 
REMARK    9  A    between atoms: C16_21  and  C17_22 
REMARK   10  A    between atoms: C18_28  and  N6_29 
ROOT
HETATM    1  C3  UNL     1     204.668  75.898-125.739  1.00  0.00     0.169 C 
HETATM    2  C4  UNL     1     204.146  74.539-126.130  1.00  0.00     0.159 C 
HETATM    3  N1  UNL     1     204.604  73.494-125.284  1.00  0.00    -0.374 N 
HETATM    4  C14 UNL     1     205.850  73.672-124.571  1.00  0.00     0.065 A 
HETATM    5  C15 UNL     1     206.655  72.622-124.313  1.00  0.00     0.046 A 
HETATM    6  C16 UNL     1     207.868  72.761-123.618  1.00  0.00    -0.001 A 
HETATM    7  C19 UNL     1     208.198  74.027-123.209  1.00  0.00     0.017 A 
HETATM    8  C20 UNL     1     207.372  75.133-123.468  1.00  0.00     0.040 A 
HETATM    9  C21 UNL     1     206.201  74.962-124.146  1.00  0.00     0.096 A 
HETATM   10  O2  UNL     1     205.290  75.944-124.472  1.00  0.00    -0.338 OA
ENDROOT
BRANCH   3  11
HETATM   11  C5  UNL     1     203.912  72.291-125.025  1.00  0.00     0.150 C 
BRANCH  11  12
HETATM   12  C6  UNL     1     203.455  71.781-126.400  1.00  0.00     0.252 C 
BRANCH  12  13
HETATM   13  N2  UNL     1     203.393  70.345-126.438  1.00  0.00    -0.074 N 
ATOM     14  H22 UNL     1     203.453  69.905-125.520  1.00  0.00     0.277 HD
ATOM     15  H21 UNL     1     202.474  69.978-126.685  1.00  0.00     0.277 HD
BRANCH  13  16
HETATM   16  C7  UNL     1     204.464  69.938-127.365  1.00  0.00     0.234 C 
BRANCH  16  17
HETATM   17  C8  UNL     1     205.320  68.878-126.804  1.00  0.00     0.057 C 
BRANCH  17  18
HETATM   18  C9  UNL     1     206.175  69.217-125.673  1.00  0.00     0.274 C 
BRANCH  18  19
HETATM   19  N3  UNL     1     207.571  68.969-125.738  1.00  0.00     0.088 N 
HETATM   20  C10 UNL     1     208.126  70.028-126.614  1.00  0.00     0.272 C 
HETATM   21  C11 UNL     1     209.161  69.424-127.480  1.00  0.00     0.032 C 
HETATM   22  C12 UNL     1     209.422  68.078-126.839  1.00  0.00     0.032 C 
HETATM   23  C13 UNL     1     208.008  67.743-126.307  1.00  0.00     0.272 C 
ENDBRANCH  18  19
ENDBRANCH  17  18
ENDBRANCH  16  17
ENDBRANCH  13  16
ENDBRANCH  12  13
ENDBRANCH  11  12
ENDBRANCH   3  11
BRANCH   1  24
HETATM   24  C2  UNL     1     203.514  76.827-125.708  1.00  0.00    -0.003 C 
HETATM   25  C1  UNL     1     202.587  76.812-126.643  1.00  0.00     0.009 C 
ENDBRANCH   1  24
BRANCH   6  26
HETATM   26  C17 UNL     1     208.675  71.571-123.373  1.00  0.00     0.112 A 
HETATM   27  N4  UNL     1     209.968  71.448-123.822  1.00  0.00    -0.237 N 
HETATM   28  O1  UNL     1     210.448  70.286-123.466  1.00  0.00    -0.155 OA
ATOM     29  H4  UNL     1     210.476  72.155-124.353  1.00  0.00     0.197 HD
HETATM   30  N5  UNL     1     209.514  69.653-122.804  1.00  0.00    -0.224 N 
HETATM   31  C18 UNL     1     208.405  70.411-122.724  1.00  0.00     0.151 A 
ATOM     32  H5  UNL     1     209.612  68.719-122.406  1.00  0.00     0.198 HD
BRANCH  31  33
HETATM   33  N6  UNL     1     207.270  70.145-122.157  1.00  0.00    -0.382 N 
ATOM     34  H62 UNL     1     206.365  70.596-122.283  1.00  0.00     0.157 HD
ATOM     35  H61 UNL     1     207.137  69.403-121.469  1.00  0.00     0.157 HD
ENDBRANCH  31  33
ENDBRANCH   6  26
TORSDOF 10
ENDMDL
MODEL 2
REMARK VINA RESULT: -7.267954098      2.244      6.072
REMARK  10 active torsions:
REMARK  status: ('A' for Active; 'I' for Inactive)
REMARK    1  A    between atoms: C2_2  and  C3_3 
REMARK    2  A    between atoms: N1_5  and  C5_6 
REMARK    3  A    between atoms: C5_6  and  C6_7 
REMARK    4  A    between atoms: C6_7  and  N2_8 
REMARK    5  A    between atoms: N2_8  and  C7_11 
REMARK    6  A    between atoms: C7_11  and  C8_12 
REMARK    7  A    between atoms: C8_12  and  C9_13 
REMARK    8  A    between atoms: C9_13  and  N3_14 
REMARK    9  A    between atoms: C16_21  and  C17_22 
REMARK   10  A    between atoms: C18_28  and  N6_29 
ROOT
HETATM    1  C3  UNL     1     209.338  72.770-124.497  1.00  0.00     0.169 C 
HETATM    2  C4  UNL     1     208.921  73.672-123.363  1.00  0.00     0.159 C 
HETATM    3  N1  UNL     1     207.525  73.932-123.334  1.00  0.00    -0.374 N 
HETATM    4  C14 UNL     1     206.774  73.836-124.567  1.00  0.00     0.065 A 
HETATM    5  C15 UNL     1     205.712  74.635-124.793  1.00  0.00     0.046 A 
HETATM    6  C16 UNL     1     204.959  74.562-125.976  1.00  0.00    -0.001 A 
HETATM    7  C19 UNL     1     205.357  73.629-126.900  1.00  0.00     0.017 A 
HETATM    8  C20 UNL     1     206.460  72.788-126.680  1.00  0.00     0.040 A 
HETATM    9  C21 UNL     1     207.169  72.886-125.520  1.00  0.00     0.096 A 
HETATM   10  O2  UNL     1     208.268  72.134-125.163  1.00  0.00    -0.338 OA
ENDROOT
BRANCH   3  11
HETATM   11  C5  UNL     1     206.775  74.230-122.176  1.00  0.00     0.150 C 
BRANCH  11  12
HETATM   12  C6  UNL     1     207.103  73.108-121.179  1.00  0.00     0.252 C 
BRANCH  12  13
HETATM   13  N2  UNL     1     206.364  71.910-121.468  1.00  0.00    -0.074 N 
ATOM     14  H22 UNL     1     205.465  71.853-120.990  1.00  0.00     0.277 HD
ATOM     15  H21 UNL     1     205.995  71.872-122.418  1.00  0.00     0.277 HD
BRANCH  13  16
HETATM   16  C7  UNL     1     207.282  70.803-121.143  1.00  0.00     0.234 C 
BRANCH  16  17
HETATM   17  C8  UNL     1     207.875  70.193-122.345  1.00  0.00     0.057 C 
BRANCH  17  18
HETATM   18  C9  UNL     1     207.679  68.764-122.554  1.00  0.00     0.274 C 
BRANCH  18  19
HETATM   19  N3  UNL     1     207.599  68.242-123.871  1.00  0.00     0.088 N 
HETATM   20  C10 UNL     1     208.997  68.155-124.354  1.00  0.00     0.272 C 
HETATM   21  C11 UNL     1     209.028  68.569-125.773  1.00  0.00     0.032 C 
HETATM   22  C12 UNL     1     207.570  68.562-126.180  1.00  0.00     0.032 C 
HETATM   23  C13 UNL     1     206.908  69.002-124.853  1.00  0.00     0.272 C 
ENDBRANCH  18  19
ENDBRANCH  17  18
ENDBRANCH  16  17
ENDBRANCH  13  16
ENDBRANCH  12  13
ENDBRANCH  11  12
ENDBRANCH   3  11
BRANCH   1  24
HETATM   24  C2  UNL     1     210.207  71.713-123.929  1.00  0.00    -0.003 C 
HETATM   25  C1  UNL     1     211.483  71.623-124.241  1.00  0.00     0.009 C 
ENDBRANCH   1  24
BRANCH   6  26
HETATM   26  C17 UNL     1     203.818  75.457-126.137  1.00  0.00     0.112 A 
HETATM   27  N4  UNL     1     202.637  75.055-126.711  1.00  0.00    -0.237 N 
HETATM   28  O1  UNL     1     201.796  76.054-126.730  1.00  0.00    -0.155 OA
ATOM     29  H4  UNL     1     202.445  74.119-127.067  1.00  0.00     0.197 HD
HETATM   30  N5  UNL     1     202.389  77.088-126.192  1.00  0.00    -0.224 N 
HETATM   31  C18 UNL     1     203.638  76.762-125.813  1.00  0.00     0.151 A 
ATOM     32  H5  UNL     1     201.966  78.009-126.077  1.00  0.00     0.198 HD
BRANCH  31  33
HETATM   33  N6  UNL     1     204.541  77.500-125.247  1.00  0.00    -0.382 N 
ATOM     34  H62 UNL     1     205.331  77.988-125.668  1.00  0.00     0.157 HD
ATOM     35  H61 UNL     1     204.573  77.694-124.246  1.00  0.00     0.157 HD
ENDBRANCH  31  33
ENDBRANCH   6  26
TORSDOF 10
ENDMDL
MODEL 3
REMARK VINA RESULT: -7.264501768      4.773      9.164
REMARK  10 active torsions:
REMARK  status: ('A' for Active; 'I' for Inactive)
REMARK    1  A    between atoms: C2_2  and  C3_3 
REMARK    2  A    between atoms: N1_5  and  C5_6 
REMARK    3  A    between atoms: C5_6  and  C6_7 
REMARK    4  A    between atoms: C6_7  and  N2_8 
REMARK    5  A    between atoms: N2_8  and  C7_11 
REMARK    6  A    between atoms: C7_11  and  C8_12 
REMARK    7  A    between atoms: C8_12  and  C9_13 
REMARK    8  A    between atoms: C9_13  and  N3_14 
REMARK    9  A    between atoms: C16_21  and  C17_22 
REMARK   10  A    between atoms: C18_28  and  N6_29 
ROOT
HETATM    1  C3  UNL     1     203.150  72.979-127.731  1.00  0.00     0.169 C 
HETATM    2  C4  UNL     1     203.228  74.351-127.109  1.00  0.00     0.159 C 
HETATM    3  N1  UNL     1     202.161  75.206-127.493  1.00  0.00    -0.374 N 
HETATM    4  C14 UNL     1     201.492  74.961-128.752  1.00  0.00     0.065 A 
HETATM    5  C15 UNL     1     200.993  75.980-129.479  1.00  0.00     0.046 A 
HETATM    6  C16 UNL     1     200.333  75.775-130.702  1.00  0.00    -0.001 A 
HETATM    7  C19 UNL     1     200.218  74.476-131.126  1.00  0.00     0.017 A 
HETATM    8  C20 UNL     1     200.732  73.401-130.382  1.00  0.00     0.040 A 
HETATM    9  C21 UNL     1     201.367  73.637-129.198  1.00  0.00     0.096 A 
HETATM   10  O2  UNL     1     201.919  72.692-128.360  1.00  0.00    -0.338 OA
ENDROOT
BRANCH   3  11
HETATM   11  C5  UNL     1     201.644  76.264-126.715  1.00  0.00     0.150 C 
BRANCH  11  12
HETATM   12  C6  UNL     1     202.855  77.142-126.366  1.00  0.00     0.252 C 
BRANCH  12  13
HETATM   13  N2  UNL     1     203.365  76.844-125.055  1.00  0.00    -0.074 N 
ATOM     14  H22 UNL     1     202.895  77.351-124.305  1.00  0.00     0.277 HD
ATOM     15  H21 UNL     1     203.135  75.907-124.726  1.00  0.00     0.277 HD
BRANCH  13  16
HETATM   16  C7  UNL     1     204.813  77.109-125.135  1.00  0.00     0.234 C 
BRANCH  16  17
HETATM   17  C8  UNL     1     205.610  75.870-125.139  1.00  0.00     0.057 C 
BRANCH  17  18
HETATM   18  C9  UNL     1     205.272  74.836-124.168  1.00  0.00     0.274 C 
BRANCH  18  19
HETATM   19  N3  UNL     1     206.296  74.050-123.581  1.00  0.00     0.088 N 
HETATM   20  C10 UNL     1     206.840  74.865-122.469  1.00  0.00     0.272 C 
HETATM   21  C11 UNL     1     208.309  74.700-122.444  1.00  0.00     0.032 C 
HETATM   22  C12 UNL     1     208.550  73.507-123.343  1.00  0.00     0.032 C 
HETATM   23  C13 UNL     1     207.419  73.706-124.380  1.00  0.00     0.272 C 
ENDBRANCH  18  19
ENDBRANCH  17  18
ENDBRANCH  16  17
ENDBRANCH  13  16
ENDBRANCH  12  13
ENDBRANCH  11  12
ENDBRANCH   3  11
BRANCH   1  24
HETATM   24  C2  UNL     1     203.345  71.987-126.648  1.00  0.00    -0.003 C 
HETATM   25  C1  UNL     1     202.556  71.945-125.595  1.00  0.00     0.009 C 
ENDBRANCH   1  24
BRANCH   6  26
HETATM   26  C17 UNL     1     199.814  76.933-131.421  1.00  0.00     0.112 A 
HETATM   27  N4  UNL     1     198.545  77.420-131.222  1.00  0.00    -0.237 N 
HETATM   28  O1  UNL     1     198.345  78.454-131.995  1.00  0.00    -0.155 OA
ATOM     29  H4  UNL     1     197.862  77.035-130.570  1.00  0.00     0.197 HD
HETATM   30  N5  UNL     1     199.437  78.653-132.688  1.00  0.00    -0.224 N 
HETATM   31  C18 UNL     1     200.367  77.736-132.364  1.00  0.00     0.151 A 
ATOM     32  H5  UNL     1     199.565  79.396-133.375  1.00  0.00     0.198 HD
BRANCH  31  33
HETATM   33  N6  UNL     1     201.570  77.593-132.823  1.00  0.00    -0.382 N 
ATOM     34  H62 UNL     1     202.097  76.737-132.995  1.00  0.00     0.157 HD
ATOM     35  H61 UNL     1     202.177  78.370-133.086  1.00  0.00     0.157 HD
ENDBRANCH  31  33
ENDBRANCH   6  26
TORSDOF 10
ENDMDL
MODEL 4
REMARK VINA RESULT: -7.202458476      0.757      1.187
REMARK  10 active torsions:
REMARK  status: ('A' for Active; 'I' for Inactive)
REMARK    1  A    between atoms: C2_2  and  C3_3 
REMARK    2  A    between atoms: N1_5  and  C5_6 
REMARK    3  A    between atoms: C5_6  and  C6_7 
REMARK    4  A    between atoms: C6_7  and  N2_8 
REMARK    5  A    between atoms: N2_8  and  C7_11 
REMARK    6  A    between atoms: C7_11  and  C8_12 
REMARK    7  A    between atoms: C8_12  and  C9_13 
REMARK    8  A    between atoms: C9_13  and  N3_14 
REMARK    9  A    between atoms: C16_21  and  C17_22 
REMARK   10  A    between atoms: C18_28  and  N6_29 
ROOT
HETATM    1  C3  UNL     1     204.840  75.728-125.658  1.00  0.00     0.169 C 
HETATM    2  C4  UNL     1     204.159  74.465-126.120  1.00  0.00     0.159 C 
HETATM    3  N1  UNL     1     204.422  73.345-125.287  1.00  0.00    -0.374 N 
HETATM    4  C14 UNL     1     205.641  73.330-124.507  1.00  0.00     0.065 A 
HETATM    5  C15 UNL     1     206.280  72.171-124.246  1.00  0.00     0.046 A 
HETATM    6  C16 UNL     1     207.460  72.123-123.487  1.00  0.00    -0.001 A 
HETATM    7  C19 UNL     1     207.940  73.320-123.020  1.00  0.00     0.017 A 
HETATM    8  C20 UNL     1     207.287  74.536-123.283  1.00  0.00     0.040 A 
HETATM    9  C21 UNL     1     206.142  74.547-124.023  1.00  0.00     0.096 A 
HETATM   10  O2  UNL     1     205.394  75.654-124.362  1.00  0.00    -0.338 OA
ENDROOT
BRANCH   3  11
HETATM   11  C5  UNL     1     203.558  72.244-125.103  1.00  0.00     0.150 C 
BRANCH  11  12
HETATM   12  C6  UNL     1     203.302  71.687-126.511  1.00  0.00     0.252 C 
BRANCH  12  13
HETATM   13  N2  UNL     1     203.109  70.263-126.491  1.00  0.00    -0.074 N 
ATOM     14  H22 UNL     1     203.342  69.827-125.599  1.00  0.00     0.277 HD
ATOM     15  H21 UNL     1     202.130  69.979-126.509  1.00  0.00     0.277 HD
BRANCH  13  16
HETATM   16  C7  UNL     1     203.897  69.751-127.627  1.00  0.00     0.234 C 
BRANCH  16  17
HETATM   17  C8  UNL     1     205.347  69.814-127.378  1.00  0.00     0.057 C 
BRANCH  17  18
HETATM   18  C9  UNL     1     205.908  68.918-126.374  1.00  0.00     0.274 C 
BRANCH  18  19
HETATM   19  N3  UNL     1     207.300  68.938-126.101  1.00  0.00     0.088 N 
HETATM   20  C10 UNL     1     207.843  70.084-126.869  1.00  0.00     0.272 C 
HETATM   21  C11 UNL     1     209.146  69.686-127.443  1.00  0.00     0.032 C 
HETATM   22  C12 UNL     1     209.491  68.414-126.700  1.00  0.00     0.032 C 
HETATM   23  C13 UNL     1     208.077  67.817-126.497  1.00  0.00     0.272 C 
ENDBRANCH  18  19
ENDBRANCH  17  18
ENDBRANCH  16  17
ENDBRANCH  13  16
ENDBRANCH  12  13
ENDBRANCH  11  12
ENDBRANCH   3  11
BRANCH   1  24
HETATM   24  C2  UNL     1     203.825  76.806-125.654  1.00  0.00    -0.003 C 
HETATM   25  C1  UNL     1     202.772  76.771-126.444  1.00  0.00     0.009 C 
ENDBRANCH   1  24
BRANCH   6  26
HETATM   26  C17 UNL     1     208.082  70.826-123.241  1.00  0.00     0.112 A 
HETATM   27  N4  UNL     1     207.400  69.770-122.689  1.00  0.00    -0.237 N 
HETATM   28  O1  UNL     1     208.196  68.741-122.580  1.00  0.00    -0.155 OA
ATOM     29  H4  UNL     1     206.420  69.786-122.407  1.00  0.00     0.197 HD
HETATM   30  N5  UNL     1     209.370  69.092-123.040  1.00  0.00    -0.224 N 
HETATM   31  C18 UNL     1     209.342  70.370-123.458  1.00  0.00     0.151 A 
ATOM     32  H5  UNL     1     210.187  68.484-123.077  1.00  0.00     0.198 HD
BRANCH  31  33
HETATM   33  N6  UNL     1     210.293  71.084-123.973  1.00  0.00    -0.382 N 
ATOM     34  H62 UNL     1     210.420  72.096-123.958  1.00  0.00     0.157 HD
ATOM     35  H61 UNL     1     211.082  70.696-124.490  1.00  0.00     0.157 HD
ENDBRANCH  31  33
ENDBRANCH   6  26
TORSDOF 10
ENDMDL
MODEL 5
REMARK VINA RESULT: -7.029820266      2.485      4.342
REMARK  10 active torsions:
REMARK  status: ('A' for Active; 'I' for Inactive)
REMARK    1  A    between atoms: C2_2  and  C3_3 
REMARK    2  A    between atoms: N1_5  and  C5_6 
REMARK    3  A    between atoms: C5_6  and  C6_7 
REMARK    4  A    between atoms: C6_7  and  N2_8 
REMARK    5  A    between atoms: N2_8  and  C7_11 
REMARK    6  A    between atoms: C7_11  and  C8_12 
REMARK    7  A    between atoms: C8_12  and  C9_13 
REMARK    8  A    between atoms: C9_13  and  N3_14 
REMARK    9  A    between atoms: C16_21  and  C17_22 
REMARK   10  A    between atoms: C18_28  and  N6_29 
ROOT
HETATM    1  C3  UNL     1     201.010  76.326-128.975  1.00  0.00     0.169 C 
HETATM    2  C4  UNL     1     201.413  74.882-129.130  1.00  0.00     0.159 C 
HETATM    3  N1  UNL     1     202.029  74.341-127.969  1.00  0.00    -0.374 N 
HETATM    4  C14 UNL     1     202.695  75.240-127.052  1.00  0.00     0.065 A 
HETATM    5  C15 UNL     1     203.784  74.842-126.364  1.00  0.00     0.046 A 
HETATM    6  C16 UNL     1     204.449  75.688-125.462  1.00  0.00    -0.001 A 
HETATM    7  C19 UNL     1     203.934  76.951-125.311  1.00  0.00     0.017 A 
HETATM    8  C20 UNL     1     202.801  77.382-126.021  1.00  0.00     0.040 A 
HETATM    9  C21 UNL     1     202.179  76.533-126.888  1.00  0.00     0.096 A 
HETATM   10  O2  UNL     1     201.064  76.810-127.650  1.00  0.00    -0.338 OA
ENDROOT
BRANCH   3  11
HETATM   11  C5  UNL     1     202.002  72.981-127.591  1.00  0.00     0.150 C 
BRANCH  11  12
HETATM   12  C6  UNL     1     203.075  72.298-128.452  1.00  0.00     0.252 C 
BRANCH  12  13
HETATM   13  N2  UNL     1     203.402  70.990-127.953  1.00  0.00    -0.074 N 
ATOM     14  H22 UNL     1     202.681  70.290-128.128  1.00  0.00     0.277 HD
ATOM     15  H21 UNL     1     204.147  70.525-128.471  1.00  0.00     0.277 HD
BRANCH  13  16
HETATM   16  C7  UNL     1     203.705  71.187-126.524  1.00  0.00     0.234 C 
BRANCH  16  17
HETATM   17  C8  UNL     1     205.152  71.170-126.249  1.00  0.00     0.057 C 
BRANCH  17  18
HETATM   18  C9  UNL     1     205.584  71.191-124.857  1.00  0.00     0.274 C 
BRANCH  18  19
HETATM   19  N3  UNL     1     206.874  70.717-124.506  1.00  0.00     0.088 N 
HETATM   20  C10 UNL     1     206.827  69.248-124.695  1.00  0.00     0.272 C 
HETATM   21  C11 UNL     1     207.571  68.610-123.587  1.00  0.00     0.032 C 
HETATM   22  C12 UNL     1     208.331  69.758-122.959  1.00  0.00     0.032 C 
HETATM   23  C13 UNL     1     207.321  70.912-123.171  1.00  0.00     0.272 C 
ENDBRANCH  18  19
ENDBRANCH  17  18
ENDBRANCH  16  17
ENDBRANCH  13  16
ENDBRANCH  12  13
ENDBRANCH  11  12
ENDBRANCH   3  11
BRANCH   1  24
HETATM   24  C2  UNL     1     199.610  76.451-129.444  1.00  0.00    -0.003 C 
HETATM   25  C1  UNL     1     199.025  75.499-130.140  1.00  0.00     0.009 C 
ENDBRANCH   1  24
BRANCH   6  26
HETATM   26  C17 UNL     1     205.614  75.176-124.750  1.00  0.00     0.112 A 
HETATM   27  N4  UNL     1     206.857  75.088-125.329  1.00  0.00    -0.237 N 
HETATM   28  O1  UNL     1     207.708  74.595-124.470  1.00  0.00    -0.155 OA
ATOM     29  H4  UNL     1     207.081  75.367-126.284  1.00  0.00     0.197 HD
HETATM   30  N5  UNL     1     207.063  74.358-123.358  1.00  0.00    -0.224 N 
HETATM   31  C18 UNL     1     205.769  74.702-123.488  1.00  0.00     0.151 A 
ATOM     32  H5  UNL     1     207.481  73.968-122.513  1.00  0.00     0.198 HD
BRANCH  31  33
HETATM   33  N6  UNL     1     204.809  74.623-122.620  1.00  0.00    -0.382 N 
ATOM     34  H62 UNL     1     204.847  74.728-121.607  1.00  0.00     0.157 HD
ATOM     35  H61 UNL     1     203.837  74.433-122.861  1.00  0.00     0.157 HD
ENDBRANCH  31  33
ENDBRANCH   6  26
TORSDOF 10
ENDMDL
