MODEL 1
REMARK VINA RESULT: -7.605124692      0.000      0.000
REMARK  8 active torsions:
REMARK  status: ('A' for Active; 'I' for Inactive)
REMARK    1  A    between atoms: C6_8  and  O2_9 
REMARK    2  A    between atoms: O2_9  and  C7_10 
REMARK    3  A    between atoms: C7_10  and  C8_11 
REMARK    4  A    between atoms: C8_11  and  C9_12 
REMARK    5  A    between atoms: C9_12  and  N2_13 
REMARK    6  A    between atoms: N2_13  and  C10_15 
REMARK    7  A    between atoms: C13_18  and  N3_19 
REMARK       I    between atoms: C14_21  and  N5_23 
REMARK    8  A    between atoms: C19_30  and  O3_31 
ROOT
HETATM    1  C1  UNL     1     208.943  69.290-126.560  1.00  0.00     0.210 C 
HETATM    2  O1  UNL     1     208.093  70.220-126.689  1.00  0.00    -0.353 OA
HETATM    3  C2  UNL     1     207.164  71.097-126.792  1.00  0.00     0.103 A 
HETATM    4  C3  UNL     1     205.801  70.708-126.493  1.00  0.00     0.065 A 
HETATM    5  C4  UNL     1     204.795  71.611-126.592  1.00  0.00     0.080 A 
HETATM    6  C5  UNL     1     203.420  71.185-126.308  1.00  0.00     0.102 C 
HETATM    7  N1  UNL     1     202.352  70.825-126.072  1.00  0.00    -0.191 NA
HETATM    8  C6  UNL     1     205.065  72.930-126.973  1.00  0.00     0.092 A 
HETATM    9  C18 UNL     1     206.398  73.260-127.247  1.00  0.00     0.077 A 
HETATM   10  C19 UNL     1     207.439  72.397-127.174  1.00  0.00     0.104 A 
ENDROOT
BRANCH  10  11
HETATM   11  O3  UNL     1     208.727  72.782-127.487  1.00  0.00    -0.353 OA
HETATM   12  C20 UNL     1     209.345  72.686-128.711  1.00  0.00     0.210 C 
ENDBRANCH  10  11
BRANCH   8  13
HETATM   13  O2  UNL     1     204.103  73.810-127.070  1.00  0.00    -0.349 OA
BRANCH  13  14
HETATM   14  C7  UNL     1     203.197  74.636-126.833  1.00  0.00     0.177 C 
BRANCH  14  15
HETATM   15  C8  UNL     1     203.257  76.026-126.321  1.00  0.00     0.046 C 
BRANCH  15  16
HETATM   16  C9  UNL     1     204.349  76.411-125.374  1.00  0.00     0.122 C 
BRANCH  16  17
HETATM   17  N2  UNL     1     204.429  75.535-124.258  1.00  0.00    -0.390 N 
ATOM     18  H2  UNL     1     203.639  75.530-123.612  1.00  0.00     0.159 HD
BRANCH  17  19
HETATM   19  C10 UNL     1     205.501  74.677-123.968  1.00  0.00     0.028 A 
HETATM   20  C11 UNL     1     206.831  75.028-124.180  1.00  0.00     0.031 A 
HETATM   21  C12 UNL     1     207.857  74.132-123.955  1.00  0.00     0.032 A 
HETATM   22  C13 UNL     1     207.616  72.852-123.507  1.00  0.00     0.034 A 
HETATM   23  C16 UNL     1     206.288  72.525-123.296  1.00  0.00     0.032 A 
HETATM   24  C17 UNL     1     205.253  73.379-123.509  1.00  0.00     0.031 A 
BRANCH  22  25
HETATM   25  N3  UNL     1     208.632  71.898-123.368  1.00  0.00    -0.330 N 
HETATM   26  C14 UNL     1     208.654  70.703-123.081  1.00  0.00     0.201 C 
HETATM   27  N4  UNL     1     210.029  70.118-123.048  1.00  0.00    -0.062 NA
HETATM   28  N5  UNL     1     207.622  69.823-122.797  1.00  0.00    -0.267 N 
HETATM   29  C15 UNL     1     207.627  68.456-123.043  1.00  0.00     0.184 C 
ATOM     30  H5  UNL     1     206.783  70.215-122.368  1.00  0.00     0.180 HD
HETATM   31  N6  UNL     1     207.608  67.316-123.263  1.00  0.00    -0.172 NA
ATOM     32  H3  UNL     1     209.561  72.280-123.543  1.00  0.00     0.168 HD
ENDBRANCH  22  25
ENDBRANCH  17  19
ENDBRANCH  16  17
ENDBRANCH  15  16
ENDBRANCH  14  15
ENDBRANCH  13  14
ENDBRANCH   8  13
TORSDOF 8
ENDMDL
MODEL 2
REMARK VINA RESULT: -7.083002992      1.200      1.815
REMARK  8 active torsions:
REMARK  status: ('A' for Active; 'I' for Inactive)
REMARK    1  A    between atoms: C6_8  and  O2_9 
REMARK    2  A    between atoms: O2_9  and  C7_10 
REMARK    3  A    between atoms: C7_10  and  C8_11 
REMARK    4  A    between atoms: C8_11  and  C9_12 
REMARK    5  A    between atoms: C9_12  and  N2_13 
REMARK    6  A    between atoms: N2_13  and  C10_15 
REMARK    7  A    between atoms: C13_18  and  N3_19 
REMARK       I    between atoms: C14_21  and  N5_23 
REMARK    8  A    between atoms: C19_30  and  O3_31 
ROOT
HETATM    1  C1  UNL     1     208.048  68.817-126.675  1.00  0.00     0.210 C 
HETATM    2  O1  UNL     1     207.343  69.863-126.791  1.00  0.00    -0.353 OA
HETATM    3  C2  UNL     1     206.557  70.872-126.864  1.00  0.00     0.103 A 
HETATM    4  C3  UNL     1     205.220  70.757-126.318  1.00  0.00     0.065 A 
HETATM    5  C4  UNL     1     204.364  71.806-126.378  1.00  0.00     0.080 A 
HETATM    6  C5  UNL     1     203.008  71.656-125.840  1.00  0.00     0.102 C 
HETATM    7  N1  UNL     1     201.952  71.512-125.404  1.00  0.00    -0.191 NA
HETATM    8  C6  UNL     1     204.767  73.015-126.959  1.00  0.00     0.092 A 
HETATM    9  C18 UNL     1     206.070  73.080-127.469  1.00  0.00     0.077 A 
HETATM   10  C19 UNL     1     206.962  72.060-127.444  1.00  0.00     0.104 A 
ENDROOT
BRANCH  10  11
HETATM   11  O3  UNL     1     208.223  72.183-127.991  1.00  0.00    -0.353 OA
HETATM   12  C20 UNL     1     208.633  73.104-128.926  1.00  0.00     0.210 C 
ENDBRANCH  10  11
BRANCH   8  13
HETATM   13  O2  UNL     1     203.951  74.034-127.021  1.00  0.00    -0.349 OA
BRANCH  13  14
HETATM   14  C7  UNL     1     203.153  74.957-126.755  1.00  0.00     0.177 C 
BRANCH  14  15
HETATM   15  C8  UNL     1     203.391  76.361-126.345  1.00  0.00     0.046 C 
BRANCH  15  16
HETATM   16  C9  UNL     1     204.440  76.656-125.320  1.00  0.00     0.122 C 
BRANCH  16  17
HETATM   17  N2  UNL     1     204.434  75.717-124.255  1.00  0.00    -0.390 N 
ATOM     18  H2  UNL     1     203.606  75.694-123.658  1.00  0.00     0.159 HD
BRANCH  17  19
HETATM   19  C10 UNL     1     205.468  74.817-123.953  1.00  0.00     0.028 A 
HETATM   20  C11 UNL     1     206.793  75.035-124.318  1.00  0.00     0.031 A 
HETATM   21  C12 UNL     1     207.772  74.093-124.072  1.00  0.00     0.032 A 
HETATM   22  C13 UNL     1     207.488  72.898-123.450  1.00  0.00     0.034 A 
HETATM   23  C16 UNL     1     206.167  72.703-123.088  1.00  0.00     0.032 A 
HETATM   24  C17 UNL     1     205.176  73.605-123.317  1.00  0.00     0.031 A 
BRANCH  22  25
HETATM   25  N3  UNL     1     208.446  71.890-123.280  1.00  0.00    -0.330 N 
HETATM   26  C14 UNL     1     209.288  71.373-124.011  1.00  0.00     0.201 C 
HETATM   27  N4  UNL     1     210.082  70.296-123.346  1.00  0.00    -0.062 NA
HETATM   28  N5  UNL     1     209.621  71.634-125.331  1.00  0.00    -0.267 N 
HETATM   29  C15 UNL     1     210.875  71.464-125.903  1.00  0.00     0.184 C 
ATOM     30  H5  UNL     1     208.877  71.983-125.937  1.00  0.00     0.180 HD
HETATM   31  N6  UNL     1     211.922  71.348-126.390  1.00  0.00    -0.172 NA
ATOM     32  H3  UNL     1     208.443  71.496-122.340  1.00  0.00     0.168 HD
ENDBRANCH  22  25
ENDBRANCH  17  19
ENDBRANCH  16  17
ENDBRANCH  15  16
ENDBRANCH  14  15
ENDBRANCH  13  14
ENDBRANCH   8  13
TORSDOF 8
ENDMDL
MODEL 3
REMARK VINA RESULT: -6.999647973      1.569      2.642
REMARK  8 active torsions:
REMARK  status: ('A' for Active; 'I' for Inactive)
REMARK    1  A    between atoms: C6_8  and  O2_9 
REMARK    2  A    between atoms: O2_9  and  C7_10 
REMARK    3  A    between atoms: C7_10  and  C8_11 
REMARK    4  A    between atoms: C8_11  and  C9_12 
REMARK    5  A    between atoms: C9_12  and  N2_13 
REMARK    6  A    between atoms: N2_13  and  C10_15 
REMARK    7  A    between atoms: C13_18  and  N3_19 
REMARK       I    between atoms: C14_21  and  N5_23 
REMARK    8  A    between atoms: C19_30  and  O3_31 
ROOT
HETATM    1  C1  UNL     1     207.223  68.129-126.943  1.00  0.00     0.210 C 
HETATM    2  O1  UNL     1     206.532  69.190-126.921  1.00  0.00    -0.353 OA
HETATM    3  C2  UNL     1     205.917  70.314-126.913  1.00  0.00     0.103 A 
HETATM    4  C3  UNL     1     206.682  71.530-127.098  1.00  0.00     0.065 A 
HETATM    5  C4  UNL     1     206.063  72.736-127.095  1.00  0.00     0.080 A 
HETATM    6  C5  UNL     1     206.863  73.953-127.261  1.00  0.00     0.102 C 
HETATM    7  N1  UNL     1     207.516  74.892-127.399  1.00  0.00    -0.191 NA
HETATM    8  C6  UNL     1     204.675  72.816-126.925  1.00  0.00     0.092 A 
HETATM    9  C18 UNL     1     203.978  71.613-126.754  1.00  0.00     0.077 A 
HETATM   10  C19 UNL     1     204.548  70.385-126.738  1.00  0.00     0.104 A 
ENDROOT
BRANCH  10  11
HETATM   11  O3  UNL     1     203.803  69.240-126.536  1.00  0.00    -0.353 OA
HETATM   12  C20 UNL     1     202.617  68.906-127.144  1.00  0.00     0.210 C 
ENDBRANCH  10  11
BRANCH   8  13
HETATM   13  O2  UNL     1     204.066  73.973-126.922  1.00  0.00    -0.349 OA
BRANCH  13  14
HETATM   14  C7  UNL     1     203.238  74.898-126.794  1.00  0.00     0.177 C 
BRANCH  14  15
HETATM   15  C8  UNL     1     203.348  76.219-126.132  1.00  0.00     0.046 C 
BRANCH  15  16
HETATM   16  C9  UNL     1     204.484  76.474-125.192  1.00  0.00     0.122 C 
BRANCH  16  17
HETATM   17  N2  UNL     1     204.522  75.537-124.125  1.00  0.00    -0.390 N 
ATOM     18  H2  UNL     1     203.715  75.506-123.502  1.00  0.00     0.159 HD
BRANCH  17  19
HETATM   19  C10 UNL     1     205.576  74.649-123.856  1.00  0.00     0.028 A 
HETATM   20  C11 UNL     1     206.913  75.032-123.872  1.00  0.00     0.031 A 
HETATM   21  C12 UNL     1     207.927  74.116-123.676  1.00  0.00     0.032 A 
HETATM   22  C13 UNL     1     207.667  72.783-123.453  1.00  0.00     0.034 A 
HETATM   23  C16 UNL     1     206.330  72.422-123.433  1.00  0.00     0.032 A 
HETATM   24  C17 UNL     1     205.306  73.295-123.623  1.00  0.00     0.031 A 
BRANCH  22  25
HETATM   25  N3  UNL     1     208.681  71.822-123.351  1.00  0.00    -0.330 N 
HETATM   26  C14 UNL     1     208.710  70.633-123.041  1.00  0.00     0.201 C 
HETATM   27  N4  UNL     1     210.080  70.036-123.075  1.00  0.00    -0.062 NA
HETATM   28  N5  UNL     1     207.688  69.769-122.681  1.00  0.00    -0.267 N 
HETATM   29  C15 UNL     1     207.668  68.396-122.899  1.00  0.00     0.184 C 
ATOM     30  H5  UNL     1     206.878  70.177-122.214  1.00  0.00     0.180 HD
HETATM   31  N6  UNL     1     207.627  67.253-123.094  1.00  0.00    -0.172 NA
ATOM     32  H3  UNL     1     209.602  72.191-123.587  1.00  0.00     0.168 HD
ENDBRANCH  22  25
ENDBRANCH  17  19
ENDBRANCH  16  17
ENDBRANCH  15  16
ENDBRANCH  14  15
ENDBRANCH  13  14
ENDBRANCH   8  13
TORSDOF 8
ENDMDL
MODEL 4
REMARK VINA RESULT: -6.996099345      2.405      4.703
REMARK  8 active torsions:
REMARK  status: ('A' for Active; 'I' for Inactive)
REMARK    1  A    between atoms: C6_8  and  O2_9 
REMARK    2  A    between atoms: O2_9  and  C7_10 
REMARK    3  A    between atoms: C7_10  and  C8_11 
REMARK    4  A    between atoms: C8_11  and  C9_12 
REMARK    5  A    between atoms: C9_12  and  N2_13 
REMARK    6  A    between atoms: N2_13  and  C10_15 
REMARK    7  A    between atoms: C13_18  and  N3_19 
REMARK       I    between atoms: C14_21  and  N5_23 
REMARK    8  A    between atoms: C19_30  and  O3_31 
ROOT
HETATM    1  C1  UNL     1     208.279  67.447-126.325  1.00  0.00     0.210 C 
HETATM    2  O1  UNL     1     208.393  68.608-125.831  1.00  0.00    -0.353 OA
HETATM    3  C2  UNL     1     208.464  69.747-125.249  1.00  0.00     0.103 A 
HETATM    4  C3  UNL     1     207.932  69.882-123.908  1.00  0.00     0.065 A 
HETATM    5  C4  UNL     1     207.992  71.073-123.265  1.00  0.00     0.080 A 
HETATM    6  C5  UNL     1     207.424  71.189-121.918  1.00  0.00     0.102 C 
HETATM    7  N1  UNL     1     206.976  71.249-120.858  1.00  0.00    -0.191 NA
HETATM    8  C6  UNL     1     208.579  72.182-123.885  1.00  0.00     0.092 A 
HETATM    9  C18 UNL     1     209.083  72.003-125.180  1.00  0.00     0.077 A 
HETATM   10  C19 UNL     1     209.041  70.839-125.871  1.00  0.00     0.104 A 
ENDROOT
BRANCH  10  11
HETATM   11  O3  UNL     1     209.532  70.739-127.158  1.00  0.00    -0.353 OA
HETATM   12  C20 UNL     1     210.823  70.449-127.530  1.00  0.00     0.210 C 
ENDBRANCH  10  11
BRANCH   8  13
HETATM   13  O2  UNL     1     208.643  73.336-123.274  1.00  0.00    -0.349 OA
BRANCH  13  14
HETATM   14  C7  UNL     1     208.387  74.375-122.631  1.00  0.00     0.177 C 
BRANCH  14  15
HETATM   15  C8  UNL     1     207.197  75.259-122.644  1.00  0.00     0.046 C 
BRANCH  15  16
HETATM   16  C9  UNL     1     206.718  75.823-123.944  1.00  0.00     0.122 C 
BRANCH  16  17
HETATM   17  N2  UNL     1     205.467  75.281-124.340  1.00  0.00    -0.390 N 
ATOM     18  H2  UNL     1     204.661  75.906-124.321  1.00  0.00     0.159 HD
BRANCH  17  19
HETATM   19  C10 UNL     1     205.244  73.958-124.756  1.00  0.00     0.028 A 
HETATM   20  C11 UNL     1     204.618  73.008-123.956  1.00  0.00     0.031 A 
HETATM   21  C12 UNL     1     204.483  71.697-124.366  1.00  0.00     0.032 A 
HETATM   22  C13 UNL     1     204.956  71.267-125.586  1.00  0.00     0.034 A 
HETATM   23  C16 UNL     1     205.570  72.229-126.370  1.00  0.00     0.032 A 
HETATM   24  C17 UNL     1     205.722  73.527-125.998  1.00  0.00     0.031 A 
BRANCH  22  25
HETATM   25  N3  UNL     1     204.919  69.923-125.979  1.00  0.00    -0.330 N 
HETATM   26  C14 UNL     1     204.209  69.271-126.741  1.00  0.00     0.201 C 
HETATM   27  N4  UNL     1     204.573  67.823-126.811  1.00  0.00    -0.062 NA
HETATM   28  N5  UNL     1     203.147  69.661-127.541  1.00  0.00    -0.267 N 
HETATM   29  C15 UNL     1     202.776  69.074-128.745  1.00  0.00     0.184 C 
ATOM     30  H5  UNL     1     202.586  70.450-127.217  1.00  0.00     0.180 HD
HETATM   31  N6  UNL     1     202.468  68.609-129.763  1.00  0.00    -0.172 NA
ATOM     32  H3  UNL     1     205.642  69.359-125.533  1.00  0.00     0.168 HD
ENDBRANCH  22  25
ENDBRANCH  17  19
ENDBRANCH  16  17
ENDBRANCH  15  16
ENDBRANCH  14  15
ENDBRANCH  13  14
ENDBRANCH   8  13
TORSDOF 8
ENDMDL
MODEL 5
REMARK VINA RESULT: -6.933096486      2.052      4.985
REMARK  8 active torsions:
REMARK  status: ('A' for Active; 'I' for Inactive)
REMARK    1  A    between atoms: C6_8  and  O2_9 
REMARK    2  A    between atoms: O2_9  and  C7_10 
REMARK    3  A    between atoms: C7_10  and  C8_11 
REMARK    4  A    between atoms: C8_11  and  C9_12 
REMARK    5  A    between atoms: C9_12  and  N2_13 
REMARK    6  A    between atoms: N2_13  and  C10_15 
REMARK    7  A    between atoms: C13_18  and  N3_19 
REMARK       I    between atoms: C14_21  and  N5_23 
REMARK    8  A    between atoms: C19_30  and  O3_31 
ROOT
HETATM    1  C1  UNL     1     206.892  68.927-129.024  1.00  0.00     0.210 C 
HETATM    2  O1  UNL     1     207.177  69.825-128.178  1.00  0.00    -0.353 OA
HETATM    3  C2  UNL     1     207.511  70.663-127.267  1.00  0.00     0.103 A 
HETATM    4  C3  UNL     1     208.244  70.186-126.113  1.00  0.00     0.065 A 
HETATM    5  C4  UNL     1     208.612  71.046-125.133  1.00  0.00     0.080 A 
HETATM    6  C5  UNL     1     209.333  70.533-123.963  1.00  0.00     0.102 C 
HETATM    7  N1  UNL     1     209.904  70.104-123.060  1.00  0.00    -0.191 NA
HETATM    8  C6  UNL     1     208.296  72.406-125.232  1.00  0.00     0.092 A 
HETATM    9  C18 UNL     1     207.590  72.821-126.368  1.00  0.00     0.077 A 
HETATM   10  C19 UNL     1     207.190  72.004-127.371  1.00  0.00     0.104 A 
ENDROOT
BRANCH  10  11
HETATM   11  O3  UNL     1     206.470  72.475-128.450  1.00  0.00    -0.353 OA
HETATM   12  C20 UNL     1     206.935  72.684-129.727  1.00  0.00     0.210 C 
ENDBRANCH  10  11
BRANCH   8  13
HETATM   13  O2  UNL     1     208.647  73.246-124.293  1.00  0.00    -0.349 OA
BRANCH  13  14
HETATM   14  C7  UNL     1     208.827  74.263-123.592  1.00  0.00     0.177 C 
BRANCH  14  15
HETATM   15  C8  UNL     1     208.081  74.783-122.422  1.00  0.00     0.046 C 
BRANCH  15  16
HETATM   16  C9  UNL     1     206.835  74.084-121.978  1.00  0.00     0.122 C 
BRANCH  16  17
HETATM   17  N2  UNL     1     205.667  74.634-122.570  1.00  0.00    -0.390 N 
ATOM     18  H2  UNL     1     205.163  75.342-122.036  1.00  0.00     0.159 HD
BRANCH  17  19
HETATM   19  C10 UNL     1     205.147  74.287-123.827  1.00  0.00     0.028 A 
HETATM   20  C11 UNL     1     205.023  75.197-124.873  1.00  0.00     0.031 A 
HETATM   21  C12 UNL     1     204.437  74.840-126.071  1.00  0.00     0.032 A 
HETATM   22  C13 UNL     1     203.952  73.571-126.292  1.00  0.00     0.034 A 
HETATM   23  C16 UNL     1     204.091  72.679-125.242  1.00  0.00     0.032 A 
HETATM   24  C17 UNL     1     204.659  72.995-124.049  1.00  0.00     0.031 A 
BRANCH  22  25
HETATM   25  N3  UNL     1     203.266  73.218-127.461  1.00  0.00    -0.330 N 
HETATM   26  C14 UNL     1     203.202  72.198-128.144  1.00  0.00     0.201 C 
HETATM   27  N4  UNL     1     202.315  72.331-129.340  1.00  0.00    -0.062 NA
HETATM   28  N5  UNL     1     203.804  70.961-127.978  1.00  0.00    -0.267 N 
HETATM   29  C15 UNL     1     203.287  69.741-128.398  1.00  0.00     0.184 C 
ATOM     30  H5  UNL     1     204.708  70.944-127.506  1.00  0.00     0.180 HD
HETATM   31  N6  UNL     1     202.857  68.713-128.722  1.00  0.00    -0.172 NA
ATOM     32  H3  UNL     1     202.692  73.976-127.828  1.00  0.00     0.168 HD
ENDBRANCH  22  25
ENDBRANCH  17  19
ENDBRANCH  16  17
ENDBRANCH  15  16
ENDBRANCH  14  15
ENDBRANCH  13  14
ENDBRANCH   8  13
TORSDOF 8
ENDMDL
