MODEL 1
REMARK VINA RESULT: -7.957311578      0.000      0.000
REMARK  11 active torsions:
REMARK  status: ('A' for Active; 'I' for Inactive)
REMARK    1  A    between atoms: C3_4  and  C4_5 
REMARK    2  A    between atoms: C4_5  and  N1_6 
REMARK    3  A    between atoms: N1_6  and  C5_8 
REMARK    4  A    between atoms: C6_11  and  N3_12 
REMARK    5  A    between atoms: C11_19  and  N5_20 
REMARK    6  A    between atoms: N5_20  and  C12_22 
REMARK    7  A    between atoms: C12_22  and  C13_23 
REMARK    8  A    between atoms: C13_23  and  C14_24 
REMARK    9  A    between atoms: C14_24  and  N6_25 
REMARK   10  A    between atoms: N6_25  and  C15_28 
REMARK   11  A    between atoms: C15_28  and  C16_29 
ROOT
HETATM    1  C5  UNL     1     205.148  72.499-122.963  1.00  0.00     0.707 A 
HETATM    2  N2  UNL     1     204.795  71.740-124.041  1.00  0.00    -0.021 N 
ATOM      3  H2  UNL     1     204.854  70.724-123.975  1.00  0.00     0.203 HD
HETATM    4  C6  UNL     1     204.371  72.298-125.185  1.00  0.00     0.709 A 
HETATM    5  N4  UNL     1     204.308  73.635-125.229  1.00  0.00    -0.021 N 
ATOM      6  H4  UNL     1     203.987  74.067-126.095  1.00  0.00     0.203 HD
HETATM    7  C11 UNL     1     204.640  74.448-124.206  1.00  0.00     0.707 A 
HETATM    8  N7  UNL     1     205.059  73.842-123.080  1.00  0.00    -0.022 N 
ATOM      9  H7  UNL     1     205.320  74.421-122.282  1.00  0.00     0.203 HD
ENDROOT
BRANCH   7  10
HETATM   10  N5  UNL     1     204.539  75.717-124.368  1.00  0.00    -0.225 N 
ATOM     11  H5  UNL     1     204.588  76.304-123.534  1.00  0.00     0.177 HD
BRANCH  10  12
HETATM   12  C12 UNL     1     204.364  76.374-125.634  1.00  0.00     0.139 C 
BRANCH  12  13
HETATM   13  C13 UNL     1     203.199  77.358-125.467  1.00  0.00     0.048 C 
BRANCH  13  14
HETATM   14  C14 UNL     1     202.021  76.776-126.206  1.00  0.00     0.234 C 
BRANCH  14  15
HETATM   15  N6  UNL     1     202.274  76.743-127.610  1.00  0.00    -0.069 N 
ATOM     16  H62 UNL     1     202.037  77.641-128.033  1.00  0.00     0.277 HD
ATOM     17  H61 UNL     1     203.278  76.724-127.789  1.00  0.00     0.277 HD
BRANCH  15  18
HETATM   18  C15 UNL     1     201.625  75.679-128.308  1.00  0.00     0.296 C 
BRANCH  18  19
HETATM   19  C16 UNL     1     200.673  76.210-129.319  1.00  0.00     0.078 A 
HETATM   20  C17 UNL     1     200.609  75.884-130.654  1.00  0.00     0.036 A 
HETATM   21  C18 UNL     1     199.565  76.641-131.154  1.00  0.00     0.027 A 
HETATM   22  C19 UNL     1     199.049  77.384-130.113  1.00  0.00     0.142 A 
HETATM   23  O2  UNL     1     199.742  77.091-129.052  1.00  0.00    -0.325 OA
ENDBRANCH  18  19
ENDBRANCH  15  18
ENDBRANCH  14  15
ENDBRANCH  13  14
ENDBRANCH  12  13
ENDBRANCH  10  12
ENDBRANCH   7  10
BRANCH   4  24
HETATM   24  N3  UNL     1     204.011  71.477-126.298  1.00  0.00    -0.217 N 
HETATM   25  C7  UNL     1     203.213  71.899-127.416  1.00  0.00     0.141 C 
HETATM   26  C8  UNL     1     203.304  70.759-128.400  1.00  0.00     0.022 C 
HETATM   27  C9  UNL     1     203.453  69.552-127.492  1.00  0.00     0.022 C 
HETATM   28  C10 UNL     1     204.409  70.092-126.447  1.00  0.00     0.141 C 
ENDBRANCH   4  24
BRANCH   1  29
HETATM   29  N1  UNL     1     205.542  71.927-121.898  1.00  0.00    -0.219 N 
ATOM     30  H1  UNL     1     204.807  71.510-121.327  1.00  0.00     0.178 HD
BRANCH  29  31
HETATM   31  C4  UNL     1     206.861  71.787-121.389  1.00  0.00     0.203 C 
BRANCH  31  32
HETATM   32  C3  UNL     1     207.654  70.799-122.214  1.00  0.00     0.070 A 
HETATM   33  O1  UNL     1     207.630  69.500-122.150  1.00  0.00    -0.325 OA
HETATM   34  C2  UNL     1     208.452  68.965-123.017  1.00  0.00     0.142 A 
HETATM   35  C1  UNL     1     209.085  69.986-123.728  1.00  0.00     0.027 A 
HETATM   36  C20 UNL     1     208.565  71.147-123.203  1.00  0.00     0.036 A 
ENDBRANCH  31  32
ENDBRANCH  29  31
ENDBRANCH   1  29
TORSDOF 11
ENDMDL
MODEL 2
REMARK VINA RESULT: -7.834002042      1.634      8.966
REMARK  11 active torsions:
REMARK  status: ('A' for Active; 'I' for Inactive)
REMARK    1  A    between atoms: C3_4  and  C4_5 
REMARK    2  A    between atoms: C4_5  and  N1_6 
REMARK    3  A    between atoms: N1_6  and  C5_8 
REMARK    4  A    between atoms: C6_11  and  N3_12 
REMARK    5  A    between atoms: C11_19  and  N5_20 
REMARK    6  A    between atoms: N5_20  and  C12_22 
REMARK    7  A    between atoms: C12_22  and  C13_23 
REMARK    8  A    between atoms: C13_23  and  C14_24 
REMARK    9  A    between atoms: C14_24  and  N6_25 
REMARK   10  A    between atoms: N6_25  and  C15_28 
REMARK   11  A    between atoms: C15_28  and  C16_29 
ROOT
HETATM    1  C5  UNL     1     203.387  74.654-126.409  1.00  0.00     0.707 A 
HETATM    2  N2  UNL     1     204.375  74.818-125.482  1.00  0.00    -0.021 N 
ATOM      3  H2  UNL     1     204.833  75.725-125.397  1.00  0.00     0.203 HD
HETATM    4  C6  UNL     1     204.759  73.814-124.679  1.00  0.00     0.709 A 
HETATM    5  N4  UNL     1     204.132  72.640-124.823  1.00  0.00    -0.021 N 
ATOM      6  H4  UNL     1     204.418  71.871-124.216  1.00  0.00     0.203 HD
HETATM    7  C11 UNL     1     203.149  72.404-125.715  1.00  0.00     0.707 A 
HETATM    8  N7  UNL     1     202.799  73.441-126.498  1.00  0.00    -0.022 N 
ATOM      9  H7  UNL     1     202.060  73.305-127.187  1.00  0.00     0.203 HD
ENDROOT
BRANCH   7  10
HETATM   10  N5  UNL     1     202.623  71.234-125.761  1.00  0.00    -0.225 N 
ATOM     11  H5  UNL     1     202.053  70.941-124.967  1.00  0.00     0.177 HD
BRANCH  10  12
HETATM   12  C12 UNL     1     202.777  70.305-126.847  1.00  0.00     0.139 C 
BRANCH  12  13
HETATM   13  C13 UNL     1     204.264  70.300-127.223  1.00  0.00     0.048 C 
BRANCH  13  14
HETATM   14  C14 UNL     1     204.877  69.085-126.576  1.00  0.00     0.234 C 
BRANCH  14  15
HETATM   15  N6  UNL     1     205.262  69.371-125.232  1.00  0.00    -0.069 N 
ATOM     16  H62 UNL     1     204.573  69.978-124.788  1.00  0.00     0.277 HD
ATOM     17  H61 UNL     1     205.165  68.538-124.651  1.00  0.00     0.277 HD
BRANCH  15  18
HETATM   18  C15 UNL     1     206.573  69.923-125.092  1.00  0.00     0.296 C 
BRANCH  18  19
HETATM   19  C16 UNL     1     207.493  68.950-124.449  1.00  0.00     0.078 A 
HETATM   20  C17 UNL     1     208.769  68.622-124.846  1.00  0.00     0.036 A 
HETATM   21  C18 UNL     1     209.195  67.680-123.928  1.00  0.00     0.027 A 
HETATM   22  C19 UNL     1     208.172  67.479-123.025  1.00  0.00     0.142 A 
HETATM   23  O2  UNL     1     207.190  68.255-123.381  1.00  0.00    -0.325 OA
ENDBRANCH  18  19
ENDBRANCH  15  18
ENDBRANCH  14  15
ENDBRANCH  13  14
ENDBRANCH  12  13
ENDBRANCH  10  12
ENDBRANCH   7  10
BRANCH   4  24
HETATM   24  N3  UNL     1     205.799  74.014-123.719  1.00  0.00    -0.217 N 
HETATM   25  C7  UNL     1     206.624  75.186-123.621  1.00  0.00     0.141 C 
HETATM   26  C8  UNL     1     207.397  75.000-122.340  1.00  0.00     0.022 C 
HETATM   27  C9  UNL     1     207.540  73.491-122.257  1.00  0.00     0.022 C 
HETATM   28  C10 UNL     1     206.162  73.046-122.703  1.00  0.00     0.141 C 
ENDBRANCH   4  24
BRANCH   1  29
HETATM   29  N1  UNL     1     203.054  75.634-127.148  1.00  0.00    -0.219 N 
ATOM     30  H1  UNL     1     203.731  75.889-127.867  1.00  0.00     0.178 HD
BRANCH  29  31
HETATM   31  C4  UNL     1     201.874  76.423-127.116  1.00  0.00     0.203 C 
BRANCH  31  32
HETATM   32  C3  UNL     1     201.079  76.256-128.390  1.00  0.00     0.070 A 
HETATM   33  O1  UNL     1     200.300  77.123-128.969  1.00  0.00    -0.325 OA
HETATM   34  C2  UNL     1     199.770  76.633-130.061  1.00  0.00     0.142 A 
HETATM   35  C1  UNL     1     200.227  75.325-130.237  1.00  0.00     0.027 A 
HETATM   36  C20 UNL     1     201.059  75.103-129.164  1.00  0.00     0.036 A 
ENDBRANCH  31  32
ENDBRANCH  29  31
ENDBRANCH   1  29
TORSDOF 11
ENDMDL
MODEL 3
REMARK VINA RESULT: -7.786741316      1.922      3.807
REMARK  11 active torsions:
REMARK  status: ('A' for Active; 'I' for Inactive)
REMARK    1  A    between atoms: C3_4  and  C4_5 
REMARK    2  A    between atoms: C4_5  and  N1_6 
REMARK    3  A    between atoms: N1_6  and  C5_8 
REMARK    4  A    between atoms: C6_11  and  N3_12 
REMARK    5  A    between atoms: C11_19  and  N5_20 
REMARK    6  A    between atoms: N5_20  and  C12_22 
REMARK    7  A    between atoms: C12_22  and  C13_23 
REMARK    8  A    between atoms: C13_23  and  C14_24 
REMARK    9  A    between atoms: C14_24  and  N6_25 
REMARK   10  A    between atoms: N6_25  and  C15_28 
REMARK   11  A    between atoms: C15_28  and  C16_29 
ROOT
HETATM    1  C5  UNL     1     204.982  70.755-125.508  1.00  0.00     0.707 A 
HETATM    2  N2  UNL     1     205.854  71.519-124.787  1.00  0.00    -0.021 N 
ATOM      3  H2  UNL     1     206.726  71.104-124.461  1.00  0.00     0.203 HD
HETATM    4  C6  UNL     1     205.591  72.802-124.497  1.00  0.00     0.709 A 
HETATM    5  N4  UNL     1     204.434  73.307-124.945  1.00  0.00    -0.021 N 
ATOM      6  H4  UNL     1     204.226  74.283-124.729  1.00  0.00     0.203 HD
HETATM    7  C11 UNL     1     203.525  72.615-125.661  1.00  0.00     0.707 A 
HETATM    8  N7  UNL     1     203.834  71.333-125.926  1.00  0.00    -0.022 N 
ATOM      9  H7  UNL     1     203.173  70.772-126.465  1.00  0.00     0.203 HD
ENDROOT
BRANCH   7  10
HETATM   10  N5  UNL     1     202.450  73.208-126.034  1.00  0.00    -0.225 N 
ATOM     11  H5  UNL     1     201.620  73.088-125.453  1.00  0.00     0.177 HD
BRANCH  10  12
HETATM   12  C12 UNL     1     202.328  74.029-127.207  1.00  0.00     0.139 C 
BRANCH  12  13
HETATM   13  C13 UNL     1     202.833  75.427-126.828  1.00  0.00     0.048 C 
BRANCH  13  14
HETATM   14  C14 UNL     1     201.782  76.411-127.275  1.00  0.00     0.234 C 
BRANCH  14  15
HETATM   15  N6  UNL     1     201.633  76.378-128.693  1.00  0.00    -0.069 N 
ATOM     16  H62 UNL     1     202.155  77.143-129.121  1.00  0.00     0.277 HD
ATOM     17  H61 UNL     1     202.135  75.581-129.084  1.00  0.00     0.277 HD
BRANCH  15  18
HETATM   18  C15 UNL     1     200.279  76.385-129.150  1.00  0.00     0.296 C 
BRANCH  18  19
HETATM   19  C16 UNL     1     200.154  77.136-130.426  1.00  0.00     0.078 A 
HETATM   20  C17 UNL     1     199.287  76.877-131.464  1.00  0.00     0.036 A 
HETATM   21  C18 UNL     1     199.562  77.849-132.407  1.00  0.00     0.027 A 
HETATM   22  C19 UNL     1     200.572  78.646-131.908  1.00  0.00     0.142 A 
HETATM   23  O2  UNL     1     200.883  78.179-130.734  1.00  0.00    -0.325 OA
ENDBRANCH  18  19
ENDBRANCH  15  18
ENDBRANCH  14  15
ENDBRANCH  13  14
ENDBRANCH  12  13
ENDBRANCH  10  12
ENDBRANCH   7  10
BRANCH   4  24
HETATM   24  N3  UNL     1     206.522  73.577-123.738  1.00  0.00    -0.217 N 
HETATM   25  C7  UNL     1     207.950  73.439-123.787  1.00  0.00     0.141 C 
HETATM   26  C8  UNL     1     208.473  74.606-122.987  1.00  0.00     0.022 C 
HETATM   27  C9  UNL     1     207.379  74.815-121.956  1.00  0.00     0.022 C 
HETATM   28  C10 UNL     1     206.139  74.619-122.806  1.00  0.00     0.141 C 
ENDBRANCH   4  24
BRANCH   1  29
HETATM   29  N1  UNL     1     205.273  69.544-125.760  1.00  0.00    -0.219 N 
ATOM     30  H1  UNL     1     204.504  68.881-125.665  1.00  0.00     0.178 HD
BRANCH  29  31
HETATM   31  C4  UNL     1     206.515  68.982-126.156  1.00  0.00     0.203 C 
BRANCH  31  32
HETATM   32  C3  UNL     1     207.300  68.507-124.954  1.00  0.00     0.070 A 
HETATM   33  O1  UNL     1     206.990  68.629-123.696  1.00  0.00    -0.325 OA
HETATM   34  C2  UNL     1     207.907  68.099-122.927  1.00  0.00     0.142 A 
HETATM   35  C1  UNL     1     208.922  67.574-123.730  1.00  0.00     0.027 A 
HETATM   36  C20 UNL     1     208.518  67.843-125.017  1.00  0.00     0.036 A 
ENDBRANCH  31  32
ENDBRANCH  29  31
ENDBRANCH   1  29
TORSDOF 11
ENDMDL
MODEL 4
REMARK VINA RESULT: -7.642097977      1.404      8.627
REMARK  11 active torsions:
REMARK  status: ('A' for Active; 'I' for Inactive)
REMARK    1  A    between atoms: C3_4  and  C4_5 
REMARK    2  A    between atoms: C4_5  and  N1_6 
REMARK    3  A    between atoms: N1_6  and  C5_8 
REMARK    4  A    between atoms: C6_11  and  N3_12 
REMARK    5  A    between atoms: C11_19  and  N5_20 
REMARK    6  A    between atoms: N5_20  and  C12_22 
REMARK    7  A    between atoms: C12_22  and  C13_23 
REMARK    8  A    between atoms: C13_23  and  C14_24 
REMARK    9  A    between atoms: C14_24  and  N6_25 
REMARK   10  A    between atoms: N6_25  and  C15_28 
REMARK   11  A    between atoms: C15_28  and  C16_29 
ROOT
HETATM    1  C5  UNL     1     203.171  74.447-126.699  1.00  0.00     0.707 A 
HETATM    2  N2  UNL     1     203.550  73.140-126.801  1.00  0.00    -0.021 N 
ATOM      3  H2  UNL     1     203.065  72.531-127.460  1.00  0.00     0.203 HD
HETATM    4  C6  UNL     1     204.545  72.636-126.055  1.00  0.00     0.709 A 
HETATM    5  N4  UNL     1     205.155  73.469-125.203  1.00  0.00    -0.021 N 
ATOM      6  H4  UNL     1     205.913  73.094-124.632  1.00  0.00     0.203 HD
HETATM    7  C11 UNL     1     204.837  74.770-125.048  1.00  0.00     0.707 A 
HETATM    8  N7  UNL     1     203.833  75.229-125.817  1.00  0.00    -0.022 N 
ATOM      9  H7  UNL     1     203.559  76.208-125.731  1.00  0.00     0.203 HD
ENDROOT
BRANCH   7  10
HETATM   10  N5  UNL     1     205.494  75.470-124.196  1.00  0.00    -0.225 N 
ATOM     11  H5  UNL     1     205.033  76.292-123.806  1.00  0.00     0.177 HD
BRANCH  10  12
HETATM   12  C12 UNL     1     206.830  75.183-123.751  1.00  0.00     0.139 C 
BRANCH  12  13
HETATM   13  C13 UNL     1     206.710  74.575-122.348  1.00  0.00     0.048 C 
BRANCH  13  14
HETATM   14  C14 UNL     1     207.634  73.384-122.304  1.00  0.00     0.234 C 
BRANCH  14  15
HETATM   15  N6  UNL     1     206.897  72.171-122.446  1.00  0.00    -0.069 N 
ATOM     16  H62 UNL     1     205.899  72.347-122.328  1.00  0.00     0.277 HD
ATOM     17  H61 UNL     1     206.907  71.861-123.417  1.00  0.00     0.277 HD
BRANCH  15  18
HETATM   18  C15 UNL     1     207.319  71.113-121.583  1.00  0.00     0.296 C 
BRANCH  18  19
HETATM   19  C16 UNL     1     207.926  70.003-122.362  1.00  0.00     0.078 A 
HETATM   20  C17 UNL     1     208.990  70.080-123.231  1.00  0.00     0.036 A 
HETATM   21  C18 UNL     1     209.165  68.789-123.694  1.00  0.00     0.027 A 
HETATM   22  C19 UNL     1     208.210  67.995-123.094  1.00  0.00     0.142 A 
HETATM   23  O2  UNL     1     207.505  68.764-122.317  1.00  0.00    -0.325 OA
ENDBRANCH  18  19
ENDBRANCH  15  18
ENDBRANCH  14  15
ENDBRANCH  13  14
ENDBRANCH  12  13
ENDBRANCH  10  12
ENDBRANCH   7  10
BRANCH   4  24
HETATM   24  N3  UNL     1     204.917  71.262-126.181  1.00  0.00    -0.217 N 
HETATM   25  C7  UNL     1     204.148  70.251-126.853  1.00  0.00     0.141 C 
HETATM   26  C8  UNL     1     205.056  69.048-126.896  1.00  0.00     0.022 C 
HETATM   27  C9  UNL     1     205.876  69.207-125.628  1.00  0.00     0.022 C 
HETATM   28  C10 UNL     1     206.139  70.700-125.640  1.00  0.00     0.141 C 
ENDBRANCH   4  24
BRANCH   1  29
HETATM   29  N1  UNL     1     202.224  74.882-127.426  1.00  0.00    -0.219 N 
ATOM     30  H1  UNL     1     201.610  74.169-127.818  1.00  0.00     0.178 HD
BRANCH  29  31
HETATM   31  C4  UNL     1     201.899  76.221-127.771  1.00  0.00     0.203 C 
BRANCH  31  32
HETATM   32  C3  UNL     1     200.794  76.259-128.802  1.00  0.00     0.070 A 
HETATM   33  O1  UNL     1     199.887  77.177-128.971  1.00  0.00    -0.325 OA
HETATM   34  C2  UNL     1     199.087  76.878-129.964  1.00  0.00     0.142 A 
HETATM   35  C1  UNL     1     199.485  75.657-130.513  1.00  0.00     0.027 A 
HETATM   36  C20 UNL     1     200.573  75.278-129.761  1.00  0.00     0.036 A 
ENDBRANCH  31  32
ENDBRANCH  29  31
ENDBRANCH   1  29
TORSDOF 11
ENDMDL
MODEL 5
REMARK VINA RESULT: -7.590245932      1.501      8.341
REMARK  11 active torsions:
REMARK  status: ('A' for Active; 'I' for Inactive)
REMARK    1  A    between atoms: C3_4  and  C4_5 
REMARK    2  A    between atoms: C4_5  and  N1_6 
REMARK    3  A    between atoms: N1_6  and  C5_8 
REMARK    4  A    between atoms: C6_11  and  N3_12 
REMARK    5  A    between atoms: C11_19  and  N5_20 
REMARK    6  A    between atoms: N5_20  and  C12_22 
REMARK    7  A    between atoms: C12_22  and  C13_23 
REMARK    8  A    between atoms: C13_23  and  C14_24 
REMARK    9  A    between atoms: C14_24  and  N6_25 
REMARK   10  A    between atoms: N6_25  and  C15_28 
REMARK   11  A    between atoms: C15_28  and  C16_29 
ROOT
HETATM    1  C5  UNL     1     204.034  75.379-125.710  1.00  0.00     0.707 A 
HETATM    2  N2  UNL     1     204.004  74.109-126.209  1.00  0.00    -0.021 N 
ATOM      3  H2  UNL     1     203.583  73.943-127.123  1.00  0.00     0.203 HD
HETATM    4  C6  UNL     1     204.515  73.073-125.526  1.00  0.00     0.709 A 
HETATM    5  N4  UNL     1     205.059  73.335-124.331  1.00  0.00    -0.021 N 
ATOM      6  H4  UNL     1     205.450  72.553-123.805  1.00  0.00     0.203 HD
HETATM    7  C11 UNL     1     205.124  74.561-123.774  1.00  0.00     0.707 A 
HETATM    8  N7  UNL     1     204.599  75.567-124.496  1.00  0.00    -0.022 N 
ATOM      9  H7  UNL     1     204.627  76.512-124.112  1.00  0.00     0.203 HD
ENDROOT
BRANCH   7  10
HETATM   10  N5  UNL     1     205.669  74.688-122.619  1.00  0.00    -0.225 N 
ATOM     11  H5  UNL     1     205.287  75.396-121.992  1.00  0.00     0.177 HD
BRANCH  10  12
HETATM   12  C12 UNL     1     206.777  73.906-122.142  1.00  0.00     0.139 C 
BRANCH  12  13
HETATM   13  C13 UNL     1     208.054  74.579-122.663  1.00  0.00     0.048 C 
BRANCH  13  14
HETATM   14  C14 UNL     1     208.697  73.615-123.627  1.00  0.00     0.234 C 
BRANCH  14  15
HETATM   15  N6  UNL     1     208.370  72.269-123.286  1.00  0.00    -0.069 N 
ATOM     16  H62 UNL     1     208.243  72.180-122.278  1.00  0.00     0.277 HD
ATOM     17  H61 UNL     1     207.427  72.042-123.603  1.00  0.00     0.277 HD
BRANCH  15  18
HETATM   18  C15 UNL     1     209.300  71.292-123.757  1.00  0.00     0.296 C 
BRANCH  18  19
HETATM   19  C16 UNL     1     208.820  69.917-123.463  1.00  0.00     0.078 A 
HETATM   20  C17 UNL     1     207.727  69.560-122.706  1.00  0.00     0.036 A 
HETATM   21  C18 UNL     1     207.709  68.178-122.737  1.00  0.00     0.027 A 
HETATM   22  C19 UNL     1     208.778  67.761-123.502  1.00  0.00     0.142 A 
HETATM   23  O2  UNL     1     209.401  68.830-123.906  1.00  0.00    -0.325 OA
ENDBRANCH  18  19
ENDBRANCH  15  18
ENDBRANCH  14  15
ENDBRANCH  13  14
ENDBRANCH  12  13
ENDBRANCH  10  12
ENDBRANCH   7  10
BRANCH   4  24
HETATM   24  N3  UNL     1     204.467  71.754-126.073  1.00  0.00    -0.217 N 
HETATM   25  C7  UNL     1     203.275  71.075-126.499  1.00  0.00     0.141 C 
HETATM   26  C8  UNL     1     203.773  69.828-127.187  1.00  0.00     0.022 C 
HETATM   27  C9  UNL     1     205.054  69.524-126.431  1.00  0.00     0.022 C 
HETATM   28  C10 UNL     1     205.633  70.916-126.273  1.00  0.00     0.141 C 
ENDBRANCH   4  24
BRANCH   1  29
HETATM   29  N1  UNL     1     203.539  76.331-126.392  1.00  0.00    -0.219 N 
ATOM     30  H1  UNL     1     204.215  76.913-126.886  1.00  0.00     0.178 HD
BRANCH  29  31
HETATM   31  C4  UNL     1     202.178  76.700-126.564  1.00  0.00     0.203 C 
BRANCH  31  32
HETATM   32  C3  UNL     1     201.710  76.393-127.968  1.00  0.00     0.070 A 
HETATM   33  O1  UNL     1     201.585  77.216-128.968  1.00  0.00    -0.325 OA
HETATM   34  C2  UNL     1     201.150  76.600-130.039  1.00  0.00     0.142 A 
HETATM   35  C1  UNL     1     200.967  75.248-129.740  1.00  0.00     0.027 A 
HETATM   36  C20 UNL     1     201.328  75.135-128.417  1.00  0.00     0.036 A 
ENDBRANCH  31  32
ENDBRANCH  29  31
ENDBRANCH   1  29
TORSDOF 11
ENDMDL
