MODEL 1
REMARK VINA RESULT: -7.245221001      0.000      0.000
REMARK  2 active torsions:
REMARK  status: ('A' for Active; 'I' for Inactive)
REMARK    1  A    between atoms: C2_2  and  C3_3 
REMARK    2  A    between atoms: C2_2  and  N2_12 
ROOT
HETATM    1  C3  UNL     1       1.590 -26.486  50.426  1.00  0.00     0.256 C 
HETATM    2  C4  UNL     1       2.197 -26.826  51.729  1.00  0.00     0.040 C 
HETATM    3  C5  UNL     1       3.693 -26.670  51.402  1.00  0.00     0.038 C 
HETATM    4  C6  UNL     1       3.736 -26.668  49.881  1.00  0.00     0.223 C 
HETATM    5  C7  UNL     1       4.817 -27.595  49.444  1.00  0.00     0.036 C 
HETATM    6  C8  UNL     1       4.546 -28.175  48.055  1.00  0.00     0.004 C 
HETATM    7  C9  UNL     1       3.237 -28.888  48.127  1.00  0.00     0.030 C 
HETATM    8  C10 UNL     1       2.437 -28.528  49.392  1.00  0.00     0.273 C 
HETATM    9  N1  UNL     1       2.397 -27.110  49.447  1.00  0.00     0.100 N 
ENDROOT
BRANCH   1  10
HETATM   10  C2  UNL     1       0.116 -26.558  50.288  1.00  0.00     0.252 C 
HETATM   11  C1  UNL     1      -0.506 -27.906  50.192  1.00  0.00     0.045 C 
BRANCH  10  12
HETATM   12  N2  UNL     1      -0.623 -25.734  51.170  1.00  0.00     0.095 N 
HETATM   13  C11 UNL     1      -1.737 -25.017  50.699  1.00  0.00     0.273 C 
HETATM   14  C12 UNL     1      -1.868 -23.781  51.612  1.00  0.00     0.030 C 
HETATM   15  C13 UNL     1      -2.041 -24.233  53.053  1.00  0.00     0.003 C 
HETATM   16  C14 UNL     1      -1.046 -25.281  53.455  1.00  0.00     0.030 C 
HETATM   17  C15 UNL     1      -0.998 -26.378  52.415  1.00  0.00     0.273 C 
ENDBRANCH  10  12
ENDBRANCH   1  10
TORSDOF 2
ENDMDL
MODEL 2
REMARK VINA RESULT: -6.688665591      0.409      1.239
REMARK  2 active torsions:
REMARK  status: ('A' for Active; 'I' for Inactive)
REMARK    1  A    between atoms: C2_2  and  C3_3 
REMARK    2  A    between atoms: C2_2  and  N2_12 
ROOT
HETATM    1  C3  UNL     1       1.587 -26.643  50.389  1.00  0.00     0.256 C 
HETATM    2  C4  UNL     1       2.230 -26.968  51.678  1.00  0.00     0.040 C 
HETATM    3  C5  UNL     1       3.712 -26.746  51.327  1.00  0.00     0.038 C 
HETATM    4  C6  UNL     1       3.728 -26.729  49.806  1.00  0.00     0.223 C 
HETATM    5  C7  UNL     1       4.840 -27.605  49.341  1.00  0.00     0.036 C 
HETATM    6  C8  UNL     1       4.569 -28.184  47.953  1.00  0.00     0.004 C 
HETATM    7  C9  UNL     1       3.293 -28.953  48.040  1.00  0.00     0.030 C 
HETATM    8  C10 UNL     1       2.501 -28.638  49.322  1.00  0.00     0.273 C 
HETATM    9  N1  UNL     1       2.402 -27.224  49.391  1.00  0.00     0.100 N 
ENDROOT
BRANCH   1  10
HETATM   10  C2  UNL     1       0.115 -26.776  50.276  1.00  0.00     0.252 C 
HETATM   11  C1  UNL     1      -0.449 -28.148  50.158  1.00  0.00     0.045 C 
BRANCH  10  12
HETATM   12  N2  UNL     1      -0.643 -26.007  51.190  1.00  0.00     0.095 N 
HETATM   13  C11 UNL     1      -0.300 -25.991  52.554  1.00  0.00     0.273 C 
HETATM   14  C12 UNL     1      -1.605 -25.691  53.320  1.00  0.00     0.030 C 
HETATM   15  C13 UNL     1      -2.170 -24.359  52.852  1.00  0.00     0.003 C 
HETATM   16  C14 UNL     1      -2.209 -24.239  51.357  1.00  0.00     0.030 C 
HETATM   17  C15 UNL     1      -0.873 -24.638  50.770  1.00  0.00     0.273 C 
ENDBRANCH  10  12
ENDBRANCH   1  10
TORSDOF 2
ENDMDL
MODEL 3
REMARK VINA RESULT: -6.471440543      0.965      5.898
REMARK  2 active torsions:
REMARK  status: ('A' for Active; 'I' for Inactive)
REMARK    1  A    between atoms: C2_2  and  C3_3 
REMARK    2  A    between atoms: C2_2  and  N2_12 
ROOT
HETATM    1  C3  UNL     1      -0.127 -26.491  50.715  1.00  0.00     0.256 C 
HETATM    2  C4  UNL     1      -1.373 -26.608  49.933  1.00  0.00     0.040 C 
HETATM    3  C5  UNL     1      -1.887 -25.158  49.985  1.00  0.00     0.038 C 
HETATM    4  C6  UNL     1      -1.088 -24.529  51.116  1.00  0.00     0.223 C 
HETATM    5  C7  UNL     1      -2.030 -23.780  51.994  1.00  0.00     0.036 C 
HETATM    6  C8  UNL     1      -1.517 -23.680  53.431  1.00  0.00     0.004 C 
HETATM    7  C9  UNL     1      -1.330 -25.075  53.927  1.00  0.00     0.030 C 
HETATM    8  C10 UNL     1      -1.353 -26.114  52.790  1.00  0.00     0.273 C 
HETATM    9  N1  UNL     1      -0.434 -25.653  51.812  1.00  0.00     0.100 N 
ENDROOT
BRANCH   1  10
HETATM   10  C2  UNL     1       0.681 -27.711  50.952  1.00  0.00     0.252 C 
HETATM   11  C1  UNL     1      -0.041 -29.006  51.074  1.00  0.00     0.045 C 
BRANCH  10  12
HETATM   12  N2  UNL     1       1.826 -27.857  50.133  1.00  0.00     0.095 N 
HETATM   13  C11 UNL     1       1.690 -28.269  48.796  1.00  0.00     0.273 C 
HETATM   14  C12 UNL     1       3.013 -28.969  48.427  1.00  0.00     0.030 C 
HETATM   15  C13 UNL     1       4.168 -27.999  48.616  1.00  0.00     0.003 C 
HETATM   16  C14 UNL     1       4.114 -27.284  49.934  1.00  0.00     0.030 C 
HETATM   17  C15 UNL     1       2.729 -26.722  50.163  1.00  0.00     0.273 C 
ENDBRANCH  10  12
ENDBRANCH   1  10
TORSDOF 2
ENDMDL
MODEL 4
REMARK VINA RESULT: -5.965138761      0.856      5.813
REMARK  2 active torsions:
REMARK  status: ('A' for Active; 'I' for Inactive)
REMARK    1  A    between atoms: C2_2  and  C3_3 
REMARK    2  A    between atoms: C2_2  and  N2_12 
ROOT
HETATM    1  C3  UNL     1      -0.027 -26.433  50.364  1.00  0.00     0.256 C 
HETATM    2  C4  UNL     1      -1.308 -26.434  49.629  1.00  0.00     0.040 C 
HETATM    3  C5  UNL     1      -1.867 -25.053  50.018  1.00  0.00     0.038 C 
HETATM    4  C6  UNL     1      -1.032 -24.647  51.223  1.00  0.00     0.223 C 
HETATM    5  C7  UNL     1      -1.952 -24.148  52.282  1.00  0.00     0.036 C 
HETATM    6  C8  UNL     1      -1.370 -24.337  53.683  1.00  0.00     0.004 C 
HETATM    7  C9  UNL     1      -1.110 -25.797  53.855  1.00  0.00     0.030 C 
HETATM    8  C10 UNL     1      -1.157 -26.566  52.523  1.00  0.00     0.273 C 
HETATM    9  N1  UNL     1      -0.306 -25.866  51.629  1.00  0.00     0.100 N 
ENDROOT
BRANCH   1  10
HETATM   10  C2  UNL     1       0.833 -27.638  50.295  1.00  0.00     0.252 C 
HETATM   11  C1  UNL     1       0.310 -28.820  49.558  1.00  0.00     0.045 C 
BRANCH  10  12
HETATM   12  N2  UNL     1       2.188 -27.407  49.962  1.00  0.00     0.095 N 
HETATM   13  C11 UNL     1       3.051 -26.802  50.893  1.00  0.00     0.273 C 
HETATM   14  C12 UNL     1       4.143 -26.092  50.067  1.00  0.00     0.030 C 
HETATM   15  C13 UNL     1       4.859 -27.111  49.196  1.00  0.00     0.003 C 
HETATM   16  C14 UNL     1       3.912 -28.008  48.455  1.00  0.00     0.030 C 
HETATM   17  C15 UNL     1       2.870 -28.558  49.402  1.00  0.00     0.273 C 
ENDBRANCH  10  12
ENDBRANCH   1  10
TORSDOF 2
ENDMDL
MODEL 5
REMARK VINA RESULT: -5.875086174      1.094      2.339
REMARK  2 active torsions:
REMARK  status: ('A' for Active; 'I' for Inactive)
REMARK    1  A    between atoms: C2_2  and  C3_3 
REMARK    2  A    between atoms: C2_2  and  N2_12 
ROOT
HETATM    1  C3  UNL     1       0.333 -28.136  50.916  1.00  0.00     0.256 C 
HETATM    2  C4  UNL     1      -0.304 -28.060  49.586  1.00  0.00     0.040 C 
HETATM    3  C5  UNL     1       0.802 -28.658  48.699  1.00  0.00     0.038 C 
HETATM    4  C6  UNL     1       2.043 -28.605  49.579  1.00  0.00     0.223 C 
HETATM    5  C7  UNL     1       3.162 -28.041  48.773  1.00  0.00     0.036 C 
HETATM    6  C8  UNL     1       4.202 -27.343  49.649  1.00  0.00     0.004 C 
HETATM    7  C9  UNL     1       3.493 -26.263  50.395  1.00  0.00     0.030 C 
HETATM    8  C10 UNL     1       1.961 -26.414  50.338  1.00  0.00     0.273 C 
HETATM    9  N1  UNL     1       1.679 -27.750  50.724  1.00  0.00     0.100 N 
ENDROOT
BRANCH   1  10
HETATM   10  C2  UNL     1      -0.403 -27.603  52.087  1.00  0.00     0.252 C 
HETATM   11  C1  UNL     1       0.165 -27.863  53.438  1.00  0.00     0.045 C 
BRANCH  10  12
HETATM   12  N2  UNL     1      -0.835 -26.260  51.982  1.00  0.00     0.095 N 
HETATM   13  C11 UNL     1      -1.498 -25.820  50.824  1.00  0.00     0.273 C 
HETATM   14  C12 UNL     1      -1.214 -24.308  50.715  1.00  0.00     0.030 C 
HETATM   15  C13 UNL     1      -1.717 -23.608  51.968  1.00  0.00     0.003 C 
HETATM   16  C14 UNL     1      -1.290 -24.299  53.229  1.00  0.00     0.030 C 
HETATM   17  C15 UNL     1      -1.577 -25.780  53.133  1.00  0.00     0.273 C 
ENDBRANCH  10  12
ENDBRANCH   1  10
TORSDOF 2
ENDMDL
