MODEL 1
REMARK VINA RESULT: -6.584678883      0.000      0.000
REMARK  2 active torsions:
REMARK  status: ('A' for Active; 'I' for Inactive)
REMARK    1  A    between atoms: C8_8  and  C9_9 
REMARK    2  A    between atoms: C9_9  and  N1_11 
ROOT
HETATM    1  C9  UNL     1       0.263 -27.332  49.849  1.00  0.00     0.084 C 
HETATM    2  C10 UNL     1      -0.278 -28.679  50.300  1.00  0.00     0.033 C 
ENDROOT
BRANCH   1   3
HETATM    3  C8  UNL     1      -0.181 -26.277  50.827  1.00  0.00     0.017 A 
HETATM    4  C6  UNL     1      -0.873 -26.558  52.098  1.00  0.00    -0.003 A 
HETATM    5  C5  UNL     1      -0.539 -25.600  53.206  1.00  0.00     0.005 C 
HETATM    6  C7  UNL     1      -1.661 -26.097  50.990  1.00  0.00     0.000 A 
HETATM    7  C4  UNL     1      -1.289 -24.326  53.219  1.00  0.00     0.001 C 
HETATM    8  C3  UNL     1      -1.505 -23.741  51.838  1.00  0.00     0.005 C 
HETATM    9  C2  UNL     1      -2.316 -24.766  51.103  1.00  0.00    -0.014 C 
HETATM   10  C1  UNL     1      -3.599 -24.976  51.913  1.00  0.00     0.010 C 
ENDBRANCH   1   3
BRANCH   1  11
HETATM   11  N1  UNL     1       1.674 -27.366  49.639  1.00  0.00    -0.385 N 
HETATM   12  C11 UNL     1       2.212 -28.473  48.968  1.00  0.00     0.088 C 
HETATM   13  C12 UNL     1       3.646 -28.236  48.546  1.00  0.00     0.316 C 
HETATM   14  N2  UNL     1       4.430 -27.685  49.628  1.00  0.00     0.090 N 
HETATM   15  C13 UNL     1       5.795 -27.571  49.139  1.00  0.00     0.310 C 
HETATM   16  C14 UNL     1       3.876 -26.363  49.911  1.00  0.00     0.292 C 
HETATM   17  C15 UNL     1       2.502 -26.663  50.538  1.00  0.00     0.152 C 
ENDBRANCH   1  11
TORSDOF 2
ENDMDL
MODEL 2
REMARK VINA RESULT: -5.860107239      0.316      1.190
REMARK  2 active torsions:
REMARK  status: ('A' for Active; 'I' for Inactive)
REMARK    1  A    between atoms: C8_8  and  C9_9 
REMARK    2  A    between atoms: C9_9  and  N1_11 
ROOT
HETATM    1  C9  UNL     1       0.225 -27.490  49.997  1.00  0.00     0.084 C 
HETATM    2  C10 UNL     1      -0.340 -28.795  50.534  1.00  0.00     0.033 C 
ENDROOT
BRANCH   1   3
HETATM    3  C8  UNL     1      -0.202 -26.365  50.902  1.00  0.00     0.017 A 
HETATM    4  C6  UNL     1      -0.884 -26.551  52.196  1.00  0.00    -0.003 A 
HETATM    5  C5  UNL     1      -0.532 -25.520  53.231  1.00  0.00     0.005 C 
HETATM    6  C7  UNL     1      -1.679 -26.162  51.065  1.00  0.00     0.000 A 
HETATM    7  C4  UNL     1      -1.272 -24.242  53.161  1.00  0.00     0.001 C 
HETATM    8  C3  UNL     1      -1.496 -23.754  51.745  1.00  0.00     0.005 C 
HETATM    9  C2  UNL     1      -2.322 -24.821  51.091  1.00  0.00    -0.014 C 
HETATM   10  C1  UNL     1      -3.600 -24.963  51.925  1.00  0.00     0.010 C 
ENDBRANCH   1   3
BRANCH   1  11
HETATM   11  N1  UNL     1       1.635 -27.563  49.793  1.00  0.00    -0.385 N 
HETATM   12  C11 UNL     1       2.435 -26.571  50.378  1.00  0.00     0.088 C 
HETATM   13  C12 UNL     1       3.903 -26.938  50.347  1.00  0.00     0.316 C 
HETATM   14  N2  UNL     1       4.301 -27.410  49.040  1.00  0.00     0.090 N 
HETATM   15  C13 UNL     1       5.732 -27.657  49.102  1.00  0.00     0.310 C 
HETATM   16  C14 UNL     1       3.575 -28.657  48.810  1.00  0.00     0.292 C 
HETATM   17  C15 UNL     1       2.112 -28.209  48.635  1.00  0.00     0.152 C 
ENDBRANCH   1  11
TORSDOF 2
ENDMDL
MODEL 3
REMARK VINA RESULT: -5.534319648      0.976      1.616
REMARK  2 active torsions:
REMARK  status: ('A' for Active; 'I' for Inactive)
REMARK    1  A    between atoms: C8_8  and  C9_9 
REMARK    2  A    between atoms: C9_9  and  N1_11 
ROOT
HETATM    1  C9  UNL     1       1.029 -27.713  49.459  1.00  0.00     0.084 C 
HETATM    2  C10 UNL     1       0.356 -29.073  49.366  1.00  0.00     0.033 C 
ENDROOT
BRANCH   1   3
HETATM    3  C8  UNL     1       0.517 -26.998  50.681  1.00  0.00     0.017 A 
HETATM    4  C6  UNL     1      -0.592 -27.482  51.525  1.00  0.00    -0.003 A 
HETATM    5  C5  UNL     1      -0.447 -27.147  52.982  1.00  0.00     0.005 C 
HETATM    6  C7  UNL     1      -0.868 -26.428  50.589  1.00  0.00     0.000 A 
HETATM    7  C4  UNL     1      -0.886 -25.795  53.390  1.00  0.00     0.001 C 
HETATM    8  C3  UNL     1      -0.520 -24.717  52.391  1.00  0.00     0.005 C 
HETATM    9  C2  UNL     1      -1.240 -25.093  51.130  1.00  0.00    -0.014 C 
HETATM   10  C1  UNL     1      -2.731 -25.160  51.477  1.00  0.00     0.010 C 
ENDBRANCH   1   3
BRANCH   1  11
HETATM   11  N1  UNL     1       2.451 -27.817  49.407  1.00  0.00    -0.385 N 
HETATM   12  C11 UNL     1       3.207 -26.843  50.075  1.00  0.00     0.088 C 
HETATM   13  C12 UNL     1       4.661 -27.242  50.199  1.00  0.00     0.316 C 
HETATM   14  N2  UNL     1       5.185 -27.725  48.941  1.00  0.00     0.090 N 
HETATM   15  C13 UNL     1       6.596 -28.003  49.155  1.00  0.00     0.310 C 
HETATM   16  C14 UNL     1       4.460 -28.956  48.634  1.00  0.00     0.292 C 
HETATM   17  C15 UNL     1       3.035 -28.476  48.305  1.00  0.00     0.152 C 
ENDBRANCH   1  11
TORSDOF 2
ENDMDL
MODEL 4
REMARK VINA RESULT: -5.433570435      1.771      3.460
REMARK  2 active torsions:
REMARK  status: ('A' for Active; 'I' for Inactive)
REMARK    1  A    between atoms: C8_8  and  C9_9 
REMARK    2  A    between atoms: C9_9  and  N1_11 
ROOT
HETATM    1  C9  UNL     1       3.729 -27.303  50.352  1.00  0.00     0.084 C 
HETATM    2  C10 UNL     1       4.341 -26.040  50.934  1.00  0.00     0.033 C 
ENDROOT
BRANCH   1   3
HETATM    3  C8  UNL     1       2.238 -27.118  50.246  1.00  0.00     0.017 A 
HETATM    4  C6  UNL     1       1.518 -25.903  50.670  1.00  0.00    -0.003 A 
HETATM    5  C5  UNL     1       0.312 -25.580  49.835  1.00  0.00     0.005 C 
HETATM    6  C7  UNL     1       1.481 -27.046  51.539  1.00  0.00     0.000 A 
HETATM    7  C4  UNL     1      -0.936 -26.294  50.182  1.00  0.00     0.001 C 
HETATM    8  C3  UNL     1      -0.714 -27.747  50.548  1.00  0.00     0.005 C 
HETATM    9  C2  UNL     1       0.170 -27.715  51.758  1.00  0.00    -0.014 C 
HETATM   10  C1  UNL     1      -0.568 -26.895  52.822  1.00  0.00     0.010 C 
ENDBRANCH   1   3
BRANCH   1  11
HETATM   11  N1  UNL     1       4.350 -27.682  49.125  1.00  0.00    -0.385 N 
HETATM   12  C11 UNL     1       3.677 -28.596  48.302  1.00  0.00     0.088 C 
HETATM   13  C12 UNL     1       4.287 -28.667  46.918  1.00  0.00     0.316 C 
HETATM   14  N2  UNL     1       5.726 -28.783  46.982  1.00  0.00     0.090 N 
HETATM   15  C13 UNL     1       6.195 -28.921  45.613  1.00  0.00     0.310 C 
HETATM   16  C14 UNL     1       6.219 -27.540  47.570  1.00  0.00     0.292 C 
HETATM   17  C15 UNL     1       5.755 -27.613  49.037  1.00  0.00     0.152 C 
ENDBRANCH   1  11
TORSDOF 2
ENDMDL
MODEL 5
REMARK VINA RESULT: -5.139540832      1.716      3.478
REMARK  2 active torsions:
REMARK  status: ('A' for Active; 'I' for Inactive)
REMARK    1  A    between atoms: C8_8  and  C9_9 
REMARK    2  A    between atoms: C9_9  and  N1_11 
ROOT
HETATM    1  C9  UNL     1       3.632 -27.321  50.484  1.00  0.00     0.084 C 
HETATM    2  C10 UNL     1       4.273 -26.047  51.010  1.00  0.00     0.033 C 
ENDROOT
BRANCH   1   3
HETATM    3  C8  UNL     1       2.148 -27.101  50.352  1.00  0.00     0.017 A 
HETATM    4  C6  UNL     1       1.448 -25.871  50.768  1.00  0.00    -0.003 A 
HETATM    5  C5  UNL     1       0.265 -25.518  49.913  1.00  0.00     0.005 C 
HETATM    6  C7  UNL     1       1.369 -27.017  51.631  1.00  0.00     0.000 A 
HETATM    7  C4  UNL     1      -1.004 -26.205  50.233  1.00  0.00     0.001 C 
HETATM    8  C3  UNL     1      -0.823 -27.664  50.596  1.00  0.00     0.005 C 
HETATM    9  C2  UNL     1       0.040 -27.657  51.823  1.00  0.00    -0.014 C 
HETATM   10  C1  UNL     1      -0.700 -26.825  52.877  1.00  0.00     0.010 C 
ENDBRANCH   1   3
BRANCH   1  11
HETATM   11  N1  UNL     1       4.255 -27.777  49.285  1.00  0.00    -0.385 N 
HETATM   12  C11 UNL     1       5.519 -27.260  48.963  1.00  0.00     0.088 C 
HETATM   13  C12 UNL     1       6.186 -28.046  47.856  1.00  0.00     0.316 C 
HETATM   14  N2  UNL     1       5.278 -28.281  46.755  1.00  0.00     0.090 N 
HETATM   15  C13 UNL     1       6.040 -28.970  45.726  1.00  0.00     0.310 C 
HETATM   16  C14 UNL     1       4.217 -29.143  47.270  1.00  0.00     0.292 C 
HETATM   17  C15 UNL     1       3.434 -28.233  48.234  1.00  0.00     0.152 C 
ENDBRANCH   1  11
TORSDOF 2
ENDMDL
