MODEL 1
REMARK VINA RESULT: -7.900081409      0.000      0.000
REMARK  2 active torsions:
REMARK  status: ('A' for Active; 'I' for Inactive)
REMARK    1  A    between atoms: C6_6  and  N1_7 
REMARK    2  A    between atoms: N1_7  and  C8_9 
ROOT
HETATM    1  C8  UNL     1       1.034 -27.150  51.032  1.00  0.00     0.226 C 
HETATM    2  C9  UNL     1       0.315 -27.594  52.289  1.00  0.00     0.066 C 
HETATM    3  C10 UNL     1      -0.186 -26.439  53.095  1.00  0.00     0.275 C 
HETATM    4  N2  UNL     1      -0.842 -25.441  52.324  1.00  0.00     0.093 N 
HETATM    5  C11 UNL     1      -2.085 -24.953  52.812  1.00  0.00     0.273 C 
HETATM    6  C12 UNL     1      -3.084 -24.984  51.645  1.00  0.00     0.032 C 
HETATM    7  C13 UNL     1      -2.099 -25.041  50.465  1.00  0.00     0.037 C 
HETATM    8  C14 UNL     1      -1.119 -26.049  51.019  1.00  0.00     0.225 C 
HETATM    9  C15 UNL     1       0.205 -26.075  50.305  1.00  0.00     0.071 C 
ENDROOT
BRANCH   1  10
HETATM   10  N1  UNL     1       1.230 -28.218  50.106  1.00  0.00     0.093 N 
HETATM   11  C7  UNL     1      -0.031 -28.564  49.496  1.00  0.00     0.310 C 
BRANCH  10  12
HETATM   12  C6  UNL     1       2.232 -27.998  49.121  1.00  0.00     0.226 C 
HETATM   13  C2  UNL     1       3.569 -27.703  49.777  1.00  0.00     0.015 C 
HETATM   14  C1  UNL     1       3.725 -26.232  50.106  1.00  0.00     0.012 C 
HETATM   15  C3  UNL     1       4.615 -28.101  48.742  1.00  0.00     0.006 C 
HETATM   16  C4  UNL     1       3.856 -28.656  47.561  1.00  0.00     0.002 C 
HETATM   17  C5  UNL     1       2.563 -29.139  48.230  1.00  0.00     0.036 C 
ENDBRANCH  10  12
ENDBRANCH   1  10
TORSDOF 2
ENDMDL
MODEL 2
REMARK VINA RESULT: -7.837501941      1.093      2.039
REMARK  2 active torsions:
REMARK  status: ('A' for Active; 'I' for Inactive)
REMARK    1  A    between atoms: C6_6  and  N1_7 
REMARK    2  A    between atoms: N1_7  and  C8_9 
ROOT
HETATM    1  C8  UNL     1       0.463 -26.619  50.500  1.00  0.00     0.226 C 
HETATM    2  C9  UNL     1      -0.254 -25.422  49.908  1.00  0.00     0.066 C 
HETATM    3  C10 UNL     1      -1.715 -25.422  50.226  1.00  0.00     0.275 C 
HETATM    4  N2  UNL     1      -2.008 -25.712  51.586  1.00  0.00     0.093 N 
HETATM    5  C11 UNL     1      -2.946 -24.870  52.244  1.00  0.00     0.273 C 
HETATM    6  C12 UNL     1      -2.328 -24.452  53.587  1.00  0.00     0.032 C 
HETATM    7  C13 UNL     1      -1.263 -25.551  53.735  1.00  0.00     0.037 C 
HETATM    8  C14 UNL     1      -0.744 -25.573  52.316  1.00  0.00     0.225 C 
HETATM    9  C15 UNL     1       0.050 -26.804  51.971  1.00  0.00     0.071 C 
ENDROOT
BRANCH   1  10
HETATM   10  N1  UNL     1       1.883 -26.469  50.484  1.00  0.00     0.093 N 
HETATM   11  C7  UNL     1       2.429 -26.920  51.740  1.00  0.00     0.310 C 
BRANCH  10  12
HETATM   12  C6  UNL     1       2.549 -27.081  49.386  1.00  0.00     0.226 C 
HETATM   13  C2  UNL     1       4.006 -27.342  49.726  1.00  0.00     0.015 C 
HETATM   14  C1  UNL     1       4.878 -26.136  49.439  1.00  0.00     0.012 C 
HETATM   15  C3  UNL     1       4.424 -28.493  48.817  1.00  0.00     0.006 C 
HETATM   16  C4  UNL     1       3.195 -28.886  48.035  1.00  0.00     0.002 C 
HETATM   17  C5  UNL     1       2.075 -28.427  48.976  1.00  0.00     0.036 C 
ENDBRANCH  10  12
ENDBRANCH   1  10
TORSDOF 2
ENDMDL
MODEL 3
REMARK VINA RESULT: -7.768530389      1.080      1.715
REMARK  2 active torsions:
REMARK  status: ('A' for Active; 'I' for Inactive)
REMARK    1  A    between atoms: C6_6  and  N1_7 
REMARK    2  A    between atoms: N1_7  and  C8_9 
ROOT
HETATM    1  C8  UNL     1       0.029 -26.870  50.068  1.00  0.00     0.226 C 
HETATM    2  C9  UNL     1       0.545 -25.445  50.037  1.00  0.00     0.066 C 
HETATM    3  C10 UNL     1      -0.547 -24.443  50.227  1.00  0.00     0.275 C 
HETATM    4  N2  UNL     1      -1.440 -24.757  51.288  1.00  0.00     0.093 N 
HETATM    5  C11 UNL     1      -1.768 -23.713  52.194  1.00  0.00     0.273 C 
HETATM    6  C12 UNL     1      -1.590 -24.263  53.618  1.00  0.00     0.032 C 
HETATM    7  C13 UNL     1      -1.645 -25.771  53.319  1.00  0.00     0.037 C 
HETATM    8  C14 UNL     1      -0.781 -25.801  52.080  1.00  0.00     0.225 C 
HETATM    9  C15 UNL     1      -0.917 -27.060  51.267  1.00  0.00     0.071 C 
ENDROOT
BRANCH   1  10
HETATM   10  N1  UNL     1       1.078 -27.828  50.211  1.00  0.00     0.093 N 
HETATM   11  C7  UNL     1       0.510 -29.147  50.350  1.00  0.00     0.310 C 
BRANCH  10  12
HETATM   12  C6  UNL     1       2.071 -27.804  49.193  1.00  0.00     0.226 C 
HETATM   13  C2  UNL     1       3.453 -27.648  49.801  1.00  0.00     0.015 C 
HETATM   14  C1  UNL     1       3.810 -26.193  50.029  1.00  0.00     0.012 C 
HETATM   15  C3  UNL     1       4.408 -28.245  48.773  1.00  0.00     0.006 C 
HETATM   16  C4  UNL     1       3.550 -28.766  47.647  1.00  0.00     0.002 C 
HETATM   17  C5  UNL     1       2.224 -29.032  48.372  1.00  0.00     0.036 C 
ENDBRANCH  10  12
ENDBRANCH   1  10
TORSDOF 2
ENDMDL
MODEL 4
REMARK VINA RESULT: -7.464678802      1.116      5.876
REMARK  2 active torsions:
REMARK  status: ('A' for Active; 'I' for Inactive)
REMARK    1  A    between atoms: C6_6  and  N1_7 
REMARK    2  A    between atoms: N1_7  and  C8_9 
ROOT
HETATM    1  C8  UNL     1       0.011 -27.415  50.301  1.00  0.00     0.226 C 
HETATM    2  C9  UNL     1       0.486 -28.833  50.057  1.00  0.00     0.066 C 
HETATM    3  C10 UNL     1       1.387 -28.933  48.869  1.00  0.00     0.275 C 
HETATM    4  N2  UNL     1       2.389 -27.926  48.819  1.00  0.00     0.093 N 
HETATM    5  C11 UNL     1       3.718 -28.341  48.534  1.00  0.00     0.273 C 
HETATM    6  C12 UNL     1       4.639 -27.694  49.579  1.00  0.00     0.032 C 
HETATM    7  C13 UNL     1       3.724 -26.555  50.058  1.00  0.00     0.037 C 
HETATM    8  C14 UNL     1       2.423 -27.318  50.153  1.00  0.00     0.225 C 
HETATM    9  C15 UNL     1       1.201 -26.442  50.220  1.00  0.00     0.071 C 
ENDROOT
BRANCH   1  10
HETATM   10  N1  UNL     1      -0.574 -27.248  51.592  1.00  0.00     0.093 N 
HETATM   11  C7  UNL     1       0.288 -27.832  52.591  1.00  0.00     0.310 C 
BRANCH  10  12
HETATM   12  C6  UNL     1      -0.925 -25.912  51.936  1.00  0.00     0.226 C 
HETATM   13  C2  UNL     1      -2.320 -25.583  51.436  1.00  0.00     0.015 C 
HETATM   14  C1  UNL     1      -2.304 -25.091  50.003  1.00  0.00     0.012 C 
HETATM   15  C3  UNL     1      -2.812 -24.463  52.346  1.00  0.00     0.006 C 
HETATM   16  C4  UNL     1      -1.721 -24.227  53.361  1.00  0.00     0.002 C 
HETATM   17  C5  UNL     1      -1.025 -25.595  53.384  1.00  0.00     0.036 C 
ENDBRANCH  10  12
ENDBRANCH   1  10
TORSDOF 2
ENDMDL
MODEL 5
REMARK VINA RESULT: -7.365725583      1.090      2.425
REMARK  2 active torsions:
REMARK  status: ('A' for Active; 'I' for Inactive)
REMARK    1  A    between atoms: C6_6  and  N1_7 
REMARK    2  A    between atoms: N1_7  and  C8_9 
ROOT
HETATM    1  C8  UNL     1       0.828 -26.690  50.454  1.00  0.00     0.226 C 
HETATM    2  C9  UNL     1       0.200 -25.436  49.879  1.00  0.00     0.066 C 
HETATM    3  C10 UNL     1      -1.284 -25.412  50.056  1.00  0.00     0.275 C 
HETATM    4  N2  UNL     1      -1.715 -25.781  51.360  1.00  0.00     0.093 N 
HETATM    5  C11 UNL     1      -2.691 -24.957  51.981  1.00  0.00     0.273 C 
HETATM    6  C12 UNL     1      -2.197 -24.645  53.402  1.00  0.00     0.032 C 
HETATM    7  C13 UNL     1      -1.177 -25.784  53.575  1.00  0.00     0.037 C 
HETATM    8  C14 UNL     1      -0.524 -25.728  52.213  1.00  0.00     0.225 C 
HETATM    9  C15 UNL     1       0.270 -26.958  51.863  1.00  0.00     0.071 C 
ENDROOT
BRANCH   1  10
HETATM   10  N1  UNL     1       2.246 -26.582  50.582  1.00  0.00     0.093 N 
HETATM   11  C7  UNL     1       2.594 -26.444  51.976  1.00  0.00     0.310 C 
BRANCH  10  12
HETATM   12  C6  UNL     1       2.996 -27.623  49.968  1.00  0.00     0.226 C 
HETATM   13  C2  UNL     1       2.313 -28.091  48.695  1.00  0.00     0.015 C 
HETATM   14  C1  UNL     1       1.272 -29.157  48.972  1.00  0.00     0.012 C 
HETATM   15  C3  UNL     1       3.429 -28.688  47.844  1.00  0.00     0.006 C 
HETATM   16  C4  UNL     1       4.708 -28.495  48.621  1.00  0.00     0.002 C 
HETATM   17  C5  UNL     1       4.358 -27.277  49.486  1.00  0.00     0.036 C 
ENDBRANCH  10  12
ENDBRANCH   1  10
TORSDOF 2
ENDMDL
