MODEL 1
REMARK VINA RESULT: -5.063262940      0.000      0.000
REMARK  3 active torsions:
REMARK  status: ('A' for Active; 'I' for Inactive)
REMARK    1  A    between atoms: C2_2  and  N1_5 
REMARK    2  A    between atoms: N1_5  and  C5_7 
REMARK    3  A    between atoms: C5_7  and  N2_9 
ROOT
HETATM    1  C5  UNL     1       0.550 -27.465  49.452  1.00  0.00     0.170 C 
HETATM    2  S1  UNL     1       0.379 -28.738  48.418  1.00  0.00    -0.041 SA
ENDROOT
BRANCH   1   3
HETATM    3  N1  UNL     1       1.567 -26.529  49.163  1.00  0.00    -0.359 N 
ATOM      4  H1  UNL     1       1.313 -25.615  48.787  1.00  0.00     0.162 HD
BRANCH   3   5
HETATM    5  C2  UNL     1       2.951 -26.837  49.386  1.00  0.00     0.021 C 
HETATM    6  C1  UNL     1       3.259 -27.142  50.825  1.00  0.00     0.037 C 
HETATM    7  C3  UNL     1       3.818 -25.651  48.955  1.00  0.00     0.037 C 
HETATM    8  C4  UNL     1       3.346 -27.995  48.490  1.00  0.00     0.037 C 
ENDBRANCH   3   5
ENDBRANCH   1   3
BRANCH   1   9
HETATM    9  N2  UNL     1      -0.298 -27.328  50.586  1.00  0.00    -0.353 N 
HETATM   10  C6  UNL     1       0.119 -27.556  51.949  1.00  0.00     0.151 C 
HETATM   11  C7  UNL     1      -1.023 -27.781  52.873  1.00  0.00     0.189 C 
HETATM   12  O1  UNL     1      -2.092 -26.950  52.713  1.00  0.00    -0.367 OA
HETATM   13  C8  UNL     1      -2.085 -26.156  51.603  1.00  0.00     0.235 C 
HETATM   14 CL1  UNL     1      -0.939 -24.810  51.886  1.00  0.00    -0.094 Cl
HETATM   15  C9  UNL     1      -1.670 -26.935  50.372  1.00  0.00     0.173 C 
ENDBRANCH   1   9
TORSDOF 3
ENDMDL
MODEL 2
REMARK VINA RESULT: -5.045718576      0.046      1.144
REMARK  3 active torsions:
REMARK  status: ('A' for Active; 'I' for Inactive)
REMARK    1  A    between atoms: C2_2  and  N1_5 
REMARK    2  A    between atoms: N1_5  and  C5_7 
REMARK    3  A    between atoms: C5_7  and  N2_9 
ROOT
HETATM    1  C5  UNL     1       0.582 -27.450  49.450  1.00  0.00     0.170 C 
HETATM    2  S1  UNL     1       0.425 -28.712  48.401  1.00  0.00    -0.041 SA
ENDROOT
BRANCH   1   3
HETATM    3  N1  UNL     1       1.595 -26.505  49.178  1.00  0.00    -0.359 N 
ATOM      4  H1  UNL     1       1.335 -25.564  48.881  1.00  0.00     0.162 HD
BRANCH   3   5
HETATM    5  C2  UNL     1       2.985 -26.841  49.309  1.00  0.00     0.021 C 
HETATM    6  C1  UNL     1       3.384 -28.022  48.469  1.00  0.00     0.037 C 
HETATM    7  C3  UNL     1       3.299 -27.169  50.771  1.00  0.00     0.037 C 
HETATM    8  C4  UNL     1       3.818 -25.622  48.962  1.00  0.00     0.037 C 
ENDBRANCH   3   5
ENDBRANCH   1   3
BRANCH   1   9
HETATM    9  N2  UNL     1      -0.273 -27.330  50.580  1.00  0.00    -0.353 N 
HETATM   10  C6  UNL     1       0.140 -27.554  51.944  1.00  0.00     0.151 C 
HETATM   11  C7  UNL     1      -1.003 -27.802  52.862  1.00  0.00     0.189 C 
HETATM   12  O1  UNL     1      -2.084 -26.988  52.699  1.00  0.00    -0.367 OA
HETATM   13  C8  UNL     1      -2.085 -26.191  51.591  1.00  0.00     0.235 C 
HETATM   14 CL1  UNL     1      -0.963 -24.827  51.883  1.00  0.00    -0.094 Cl
HETATM   15  C9  UNL     1      -1.651 -26.960  50.360  1.00  0.00     0.173 C 
ENDBRANCH   1   9
TORSDOF 3
ENDMDL
MODEL 3
REMARK VINA RESULT: -4.926806345      0.062      1.140
REMARK  3 active torsions:
REMARK  status: ('A' for Active; 'I' for Inactive)
REMARK    1  A    between atoms: C2_2  and  N1_5 
REMARK    2  A    between atoms: N1_5  and  C5_7 
REMARK    3  A    between atoms: C5_7  and  N2_9 
ROOT
HETATM    1  C5  UNL     1       0.587 -27.397  49.469  1.00  0.00     0.170 C 
HETATM    2  S1  UNL     1       0.459 -28.663  48.420  1.00  0.00    -0.041 SA
ENDROOT
BRANCH   1   3
HETATM    3  N1  UNL     1       1.587 -26.437  49.204  1.00  0.00    -0.359 N 
ATOM      4  H1  UNL     1       1.315 -25.504  48.893  1.00  0.00     0.162 HD
BRANCH   3   5
HETATM    5  C2  UNL     1       2.981 -26.746  49.360  1.00  0.00     0.021 C 
HETATM    6  C1  UNL     1       3.882 -25.617  48.948  1.00  0.00     0.037 C 
HETATM    7  C3  UNL     1       3.334 -27.971  48.512  1.00  0.00     0.037 C 
HETATM    8  C4  UNL     1       3.234 -27.145  50.802  1.00  0.00     0.037 C 
ENDBRANCH   3   5
ENDBRANCH   1   3
BRANCH   1   9
HETATM    9  N2  UNL     1      -0.280 -27.290  50.591  1.00  0.00    -0.353 N 
HETATM   10  C6  UNL     1       0.121 -27.528  51.957  1.00  0.00     0.151 C 
HETATM   11  C7  UNL     1      -1.031 -27.785  52.861  1.00  0.00     0.189 C 
HETATM   12  O1  UNL     1      -2.112 -26.971  52.696  1.00  0.00    -0.367 OA
HETATM   13  C8  UNL     1      -2.103 -26.163  51.596  1.00  0.00     0.235 C 
HETATM   14 CL1  UNL     1      -0.985 -24.801  51.913  1.00  0.00    -0.094 Cl
HETATM   15  C9  UNL     1      -1.655 -26.919  50.362  1.00  0.00     0.173 C 
ENDBRANCH   1   9
TORSDOF 3
ENDMDL
MODEL 4
REMARK VINA RESULT: -4.585028932      1.224      1.615
REMARK  3 active torsions:
REMARK  status: ('A' for Active; 'I' for Inactive)
REMARK    1  A    between atoms: C2_2  and  N1_5 
REMARK    2  A    between atoms: N1_5  and  C5_7 
REMARK    3  A    between atoms: C5_7  and  N2_9 
ROOT
HETATM    1  C5  UNL     1       0.430 -27.173  49.345  1.00  0.00     0.170 C 
HETATM    2  S1  UNL     1       0.325 -28.674  48.668  1.00  0.00    -0.041 SA
ENDROOT
BRANCH   1   3
HETATM    3  N1  UNL     1       1.559 -26.393  49.013  1.00  0.00    -0.359 N 
ATOM      4  H1  UNL     1       1.428 -25.509  48.520  1.00  0.00     0.162 HD
BRANCH   3   5
HETATM    5  C2  UNL     1       2.887 -26.817  49.353  1.00  0.00     0.021 C 
HETATM    6  C1  UNL     1       3.040 -27.152  50.810  1.00  0.00     0.037 C 
HETATM    7  C3  UNL     1       3.885 -25.706  49.013  1.00  0.00     0.037 C 
HETATM    8  C4  UNL     1       3.261 -28.000  48.481  1.00  0.00     0.037 C 
ENDBRANCH   3   5
ENDBRANCH   1   3
BRANCH   1   9
HETATM    9  N2  UNL     1      -0.580 -26.698  50.226  1.00  0.00    -0.353 N 
HETATM   10  C6  UNL     1      -1.972 -27.073  50.150  1.00  0.00     0.151 C 
HETATM   11  C7  UNL     1      -2.865 -26.126  50.868  1.00  0.00     0.189 C 
HETATM   12  O1  UNL     1      -2.432 -25.708  52.090  1.00  0.00    -0.367 OA
HETATM   13  C8  UNL     1      -1.148 -26.030  52.425  1.00  0.00     0.235 C 
HETATM   14 CL1  UNL     1      -1.106 -27.761  52.878  1.00  0.00    -0.094 Cl
HETATM   15  C9  UNL     1      -0.200 -25.777  51.270  1.00  0.00     0.173 C 
ENDBRANCH   1   9
TORSDOF 3
ENDMDL
MODEL 5
REMARK VINA RESULT: -4.518392497      1.226      1.973
REMARK  3 active torsions:
REMARK  status: ('A' for Active; 'I' for Inactive)
REMARK    1  A    between atoms: C2_2  and  N1_5 
REMARK    2  A    between atoms: N1_5  and  C5_7 
REMARK    3  A    between atoms: C5_7  and  N2_9 
ROOT
HETATM    1  C5  UNL     1       0.556 -27.154  49.267  1.00  0.00     0.170 C 
HETATM    2  S1  UNL     1       0.494 -28.627  48.528  1.00  0.00    -0.041 SA
ENDROOT
BRANCH   1   3
HETATM    3  N1  UNL     1       1.682 -26.345  49.002  1.00  0.00    -0.359 N 
ATOM      4  H1  UNL     1       1.546 -25.414  48.606  1.00  0.00     0.162 HD
BRANCH   3   5
HETATM    5  C2  UNL     1       3.014 -26.804  49.276  1.00  0.00     0.021 C 
HETATM    6  C1  UNL     1       3.391 -28.020  48.478  1.00  0.00     0.037 C 
HETATM    7  C3  UNL     1       3.142 -27.153  50.762  1.00  0.00     0.037 C 
HETATM    8  C4  UNL     1       3.985 -25.667  49.025  1.00  0.00     0.037 C 
ENDBRANCH   3   5
ENDBRANCH   1   3
BRANCH   1   9
HETATM    9  N2  UNL     1      -0.488 -26.730  50.136  1.00  0.00    -0.353 N 
HETATM   10  C6  UNL     1      -1.860 -27.165  50.036  1.00  0.00     0.151 C 
HETATM   11  C7  UNL     1      -2.805 -26.263  50.746  1.00  0.00     0.189 C 
HETATM   12  O1  UNL     1      -2.409 -25.835  51.977  1.00  0.00    -0.367 OA
HETATM   13  C8  UNL     1      -1.118 -26.103  52.329  1.00  0.00     0.235 C 
HETATM   14 CL1  UNL     1      -1.007 -27.834  52.772  1.00  0.00    -0.094 Cl
HETATM   15  C9  UNL     1      -0.164 -25.801  51.192  1.00  0.00     0.173 C 
ENDBRANCH   1   9
TORSDOF 3
ENDMDL
