MODEL 1
REMARK VINA RESULT: -7.573164327      0.000      0.000
REMARK  10 active torsions:
REMARK  status: ('A' for Active; 'I' for Inactive)
REMARK    1  A    between atoms: C2_2  and  C3_3 
REMARK    2  A    between atoms: C2_2  and  C7_10 
REMARK    3  A    between atoms: C3_3  and  C4_4 
REMARK    4  A    between atoms: C4_4  and  C5_5 
REMARK    5  A    between atoms: C5_5  and  C6_7 
REMARK    6  A    between atoms: C7_10  and  O4_11 
REMARK    7  A    between atoms: C9_14  and  O5_16 
REMARK    8  A    between atoms: C11_18  and  C12_19 
REMARK    9  A    between atoms: C12_19  and  O6_20 
REMARK   10  A    between atoms: C18_28  and  O8_29 
ROOT
HETATM    1  C7  UNL     1      95.981  15.492  16.596  1.00  0.00     0.074 C 
HETATM    2  C8  UNL     1      96.523  14.372  17.381  1.00  0.00     0.079 C 
HETATM    3  C9  UNL     1      95.959  13.445  18.305  1.00  0.00     0.085 C 
HETATM    4  C10 UNL     1      97.208  12.537  18.606  1.00  0.00     0.049 C 
HETATM    5  C11 UNL     1      94.829  12.569  18.274  1.00  0.00     0.180 C 
HETATM    6  O7  UNL     1      94.077  12.219  17.167  1.00  0.00    -0.362 OA
HETATM    7  C13 UNL     1      94.066  13.228  16.309  1.00  0.00     0.128 C 
HETATM    8  C14 UNL     1      93.508  14.339  16.988  1.00  0.00     0.047 C 
HETATM    9  C15 UNL     1      93.585  15.661  16.211  1.00  0.00     0.019 C 
HETATM   10  C16 UNL     1      94.963  15.370  15.551  1.00  0.00     0.026 C 
HETATM   11  C17 UNL     1      94.941  16.540  14.553  1.00  0.00     0.022 C 
HETATM   12  C18 UNL     1      94.717  14.201  14.730  1.00  0.00     0.134 C 
HETATM   13  C19 UNL     1      93.407  13.383  14.984  1.00  0.00     0.093 C 
HETATM   14  C20 UNL     1      95.153  13.017  15.407  1.00  0.00     0.196 C 
HETATM   15  O9  UNL     1      96.060  12.262  15.199  1.00  0.00    -0.291 OA
ENDROOT
BRANCH   1  16
HETATM   16  C2  UNL     1      97.222  16.315  16.174  1.00  0.00     0.017 C 
HETATM   17  C1  UNL     1      97.147  17.756  16.448  1.00  0.00     0.013 C 
BRANCH  16  18
HETATM   18  C3  UNL     1      98.532  15.632  16.291  1.00  0.00     0.015 C 
BRANCH  18  19
HETATM   19  C4  UNL     1      99.630  16.673  16.642  1.00  0.00     0.091 C 
BRANCH  19  20
HETATM   20  C5  UNL     1     100.362  16.262  17.836  1.00  0.00     0.225 C 
HETATM   21  O1  UNL     1     101.537  16.677  18.080  1.00  0.00    -0.286 OA
BRANCH  20  22
HETATM   22  C6  UNL     1      99.750  15.351  18.789  1.00  0.00     0.246 C 
HETATM   23  O2  UNL     1     100.231  14.199  18.896  1.00  0.00    -0.642 OA
HETATM   24  O3  UNL     1      98.672  15.682  19.580  1.00  0.00    -0.642 OA
ENDBRANCH  20  22
ENDBRANCH  19  20
ENDBRANCH  18  19
ENDBRANCH  16  18
ENDBRANCH   1  16
BRANCH   1  25
HETATM   25  O4  UNL     1      95.468  16.380  17.599  1.00  0.00    -0.388 OA
ATOM     26  H4  UNL     1      95.005  16.983  17.030  1.00  0.00     0.210 HD
ENDBRANCH   1  25
BRANCH   3  27
HETATM   27  O5  UNL     1      95.920  14.039  19.629  1.00  0.00    -0.387 OA
ATOM     28  H5  UNL     1      96.027  13.361  20.286  1.00  0.00     0.210 HD
ENDBRANCH   3  27
BRANCH  12  29
HETATM   29  O8  UNL     1      94.865  14.297  13.356  1.00  0.00    -0.381 OA
ATOM     30  H8  UNL     1      95.735  14.406  12.989  1.00  0.00     0.211 HD
ENDBRANCH  12  29
BRANCH   5  31
HETATM   31  C12 UNL     1      95.053  11.175  18.916  1.00  0.00     0.199 C 
BRANCH  31  32
HETATM   32  O6  UNL     1      94.115  10.878  19.860  1.00  0.00    -0.398 OA
ATOM     33  H6  UNL     1      94.364  11.174  20.727  1.00  0.00     0.209 HD
ENDBRANCH  31  32
ENDBRANCH   5  31
TORSDOF 10
ENDMDL
MODEL 2
REMARK VINA RESULT: -7.473785097      1.688      5.260
REMARK  10 active torsions:
REMARK  status: ('A' for Active; 'I' for Inactive)
REMARK    1  A    between atoms: C2_2  and  C3_3 
REMARK    2  A    between atoms: C2_2  and  C7_10 
REMARK    3  A    between atoms: C3_3  and  C4_4 
REMARK    4  A    between atoms: C4_4  and  C5_5 
REMARK    5  A    between atoms: C5_5  and  C6_7 
REMARK    6  A    between atoms: C7_10  and  O4_11 
REMARK    7  A    between atoms: C9_14  and  O5_16 
REMARK    8  A    between atoms: C11_18  and  C12_19 
REMARK    9  A    between atoms: C12_19  and  O6_20 
REMARK   10  A    between atoms: C18_28  and  O8_29 
ROOT
HETATM    1  C7  UNL     1      96.368  14.447  16.630  1.00  0.00     0.074 C 
HETATM    2  C8  UNL     1      97.323  14.992  17.608  1.00  0.00     0.079 C 
HETATM    3  C9  UNL     1      98.736  15.176  17.614  1.00  0.00     0.085 C 
HETATM    4  C10 UNL     1      98.929  15.896  19.001  1.00  0.00     0.049 C 
HETATM    5  C11 UNL     1      99.666  15.789  16.717  1.00  0.00     0.180 C 
HETATM    6  O7  UNL     1      99.370  16.609  15.644  1.00  0.00    -0.362 OA
HETATM    7  C13 UNL     1      98.200  16.256  15.132  1.00  0.00     0.128 C 
HETATM    8  C14 UNL     1      98.318  14.901  14.736  1.00  0.00     0.047 C 
HETATM    9  C15 UNL     1      96.999  14.255  14.289  1.00  0.00     0.019 C 
HETATM   10  C16 UNL     1      96.103  15.016  15.308  1.00  0.00     0.026 C 
HETATM   11  C17 UNL     1      94.749  14.607  14.705  1.00  0.00     0.022 C 
HETATM   12  C18 UNL     1      96.251  16.408  14.931  1.00  0.00     0.134 C 
HETATM   13  C19 UNL     1      97.431  16.793  13.977  1.00  0.00     0.093 C 
HETATM   14  C20 UNL     1      97.208  17.054  15.779  1.00  0.00     0.196 C 
HETATM   15  O9  UNL     1      97.091  17.892  16.627  1.00  0.00    -0.291 OA
ENDROOT
BRANCH   1  16
HETATM   16  C2  UNL     1      95.092  14.144  17.453  1.00  0.00     0.017 C 
HETATM   17  C1  UNL     1      94.070  15.198  17.445  1.00  0.00     0.013 C 
BRANCH  16  18
HETATM   18  C3  UNL     1      94.657  12.728  17.490  1.00  0.00     0.015 C 
BRANCH  18  19
HETATM   19  C4  UNL     1      94.280  12.338  18.945  1.00  0.00     0.091 C 
BRANCH  19  20
HETATM   20  C5  UNL     1      95.192  11.320  19.455  1.00  0.00     0.225 C 
HETATM   21  O1  UNL     1      94.772  10.262  20.019  1.00  0.00    -0.286 OA
BRANCH  20  22
HETATM   22  C6  UNL     1      96.629  11.498  19.328  1.00  0.00     0.246 C 
HETATM   23  O2  UNL     1      97.260  10.697  18.600  1.00  0.00    -0.642 OA
HETATM   24  O3  UNL     1      97.336  12.495  19.962  1.00  0.00    -0.642 OA
ENDBRANCH  20  22
ENDBRANCH  19  20
ENDBRANCH  18  19
ENDBRANCH  16  18
ENDBRANCH   1  16
BRANCH   1  25
HETATM   25  O4  UNL     1      96.824  13.100  16.440  1.00  0.00    -0.388 OA
ATOM     26  H4  UNL     1      96.309  12.884  15.671  1.00  0.00     0.210 HD
ENDBRANCH   1  25
BRANCH   3  27
HETATM   27  O5  UNL     1      99.387  13.945  18.026  1.00  0.00    -0.387 OA
ATOM     28  H5  UNL     1      99.502  13.945  18.969  1.00  0.00     0.210 HD
ENDBRANCH   3  27
BRANCH  12  29
HETATM   29  O8  UNL     1      95.141  17.111  14.493  1.00  0.00    -0.381 OA
ATOM     30  H8  UNL     1      94.566  17.515  15.132  1.00  0.00     0.211 HD
ENDBRANCH  12  29
BRANCH   5  31
HETATM   31  C12 UNL     1     100.801  16.603  17.392  1.00  0.00     0.199 C 
BRANCH  31  32
HETATM   32  O6  UNL     1     101.386  17.491  16.538  1.00  0.00    -0.398 OA
ATOM     33  H6  UNL     1     100.750  18.009  16.060  1.00  0.00     0.209 HD
ENDBRANCH  31  32
ENDBRANCH   5  31
TORSDOF 10
ENDMDL
MODEL 3
REMARK VINA RESULT: -7.424238668      2.009      5.666
REMARK  10 active torsions:
REMARK  status: ('A' for Active; 'I' for Inactive)
REMARK    1  A    between atoms: C2_2  and  C3_3 
REMARK    2  A    between atoms: C2_2  and  C7_10 
REMARK    3  A    between atoms: C3_3  and  C4_4 
REMARK    4  A    between atoms: C4_4  and  C5_5 
REMARK    5  A    between atoms: C5_5  and  C6_7 
REMARK    6  A    between atoms: C7_10  and  O4_11 
REMARK    7  A    between atoms: C9_14  and  O5_16 
REMARK    8  A    between atoms: C11_18  and  C12_19 
REMARK    9  A    between atoms: C12_19  and  O6_20 
REMARK   10  A    between atoms: C18_28  and  O8_29 
ROOT
HETATM    1  C7  UNL     1      95.832  14.919  15.451  1.00  0.00     0.074 C 
HETATM    2  C8  UNL     1      97.120  14.873  16.161  1.00  0.00     0.079 C 
HETATM    3  C9  UNL     1      98.412  15.414  15.903  1.00  0.00     0.085 C 
HETATM    4  C10 UNL     1      99.181  14.961  17.200  1.00  0.00     0.049 C 
HETATM    5  C11 UNL     1      98.902  16.720  15.587  1.00  0.00     0.180 C 
HETATM    6  O7  UNL     1      98.208  17.913  15.677  1.00  0.00    -0.362 OA
HETATM    7  C13 UNL     1      96.923  17.691  15.444  1.00  0.00     0.128 C 
HETATM    8  C14 UNL     1      96.831  17.132  14.146  1.00  0.00     0.047 C 
HETATM    9  C15 UNL     1      95.430  16.631  13.770  1.00  0.00     0.019 C 
HETATM   10  C16 UNL     1      95.057  16.135  15.196  1.00  0.00     0.026 C 
HETATM   11  C17 UNL     1      93.565  15.885  14.921  1.00  0.00     0.022 C 
HETATM   12  C18 UNL     1      95.071  17.341  16.000  1.00  0.00     0.134 C 
HETATM   13  C19 UNL     1      95.758  18.616  15.406  1.00  0.00     0.093 C 
HETATM   14  C20 UNL     1      96.309  17.451  16.711  1.00  0.00     0.196 C 
HETATM   15  O9  UNL     1      96.575  17.361  17.876  1.00  0.00    -0.291 OA
ENDROOT
BRANCH   1  16
HETATM   16  C2  UNL     1      95.004  13.760  16.058  1.00  0.00     0.017 C 
HETATM   17  C1  UNL     1      94.723  12.642  15.150  1.00  0.00     0.013 C 
BRANCH  16  18
HETATM   18  C3  UNL     1      95.233  13.475  17.494  1.00  0.00     0.015 C 
BRANCH  18  19
HETATM   19  C4  UNL     1      93.870  13.224  18.197  1.00  0.00     0.091 C 
BRANCH  19  20
HETATM   20  C5  UNL     1      93.432  14.421  18.906  1.00  0.00     0.225 C 
HETATM   21  O1  UNL     1      93.544  15.581  18.400  1.00  0.00    -0.286 OA
BRANCH  20  22
HETATM   22  C6  UNL     1      92.848  14.311  20.232  1.00  0.00     0.246 C 
HETATM   23  O2  UNL     1      92.792  13.176  20.760  1.00  0.00    -0.642 OA
HETATM   24  O3  UNL     1      92.350  15.382  20.941  1.00  0.00    -0.642 OA
ENDBRANCH  20  22
ENDBRANCH  19  20
ENDBRANCH  18  19
ENDBRANCH  16  18
ENDBRANCH   1  16
BRANCH   1  25
HETATM   25  O4  UNL     1      96.133  14.323  14.181  1.00  0.00    -0.388 OA
ATOM     26  H4  UNL     1      95.247  14.114  13.909  1.00  0.00     0.210 HD
ENDBRANCH   1  25
BRANCH   3  27
HETATM   27  O5  UNL     1      99.144  14.528  15.014  1.00  0.00    -0.387 OA
ATOM     28  H5  UNL     1      99.334  14.979  14.200  1.00  0.00     0.210 HD
ENDBRANCH   3  27
BRANCH  12  29
HETATM   29  O8  UNL     1      93.897  17.766  16.600  1.00  0.00    -0.381 OA
ATOM     30  H8  UNL     1      93.387  17.149  17.111  1.00  0.00     0.211 HD
ENDBRANCH  12  29
BRANCH   5  31
HETATM   31  C12 UNL     1     100.235  17.114  16.276  1.00  0.00     0.199 C 
BRANCH  31  32
HETATM   32  O6  UNL     1     100.874  18.133  15.634  1.00  0.00    -0.398 OA
ATOM     33  H6  UNL     1     101.745  18.291  15.978  1.00  0.00     0.209 HD
ENDBRANCH  31  32
ENDBRANCH   5  31
TORSDOF 10
ENDMDL
MODEL 4
REMARK VINA RESULT: -7.408017126      0.941      1.149
REMARK  10 active torsions:
REMARK  status: ('A' for Active; 'I' for Inactive)
REMARK    1  A    between atoms: C2_2  and  C3_3 
REMARK    2  A    between atoms: C2_2  and  C7_10 
REMARK    3  A    between atoms: C3_3  and  C4_4 
REMARK    4  A    between atoms: C4_4  and  C5_5 
REMARK    5  A    between atoms: C5_5  and  C6_7 
REMARK    6  A    between atoms: C7_10  and  O4_11 
REMARK    7  A    between atoms: C9_14  and  O5_16 
REMARK    8  A    between atoms: C11_18  and  C12_19 
REMARK    9  A    between atoms: C12_19  and  O6_20 
REMARK   10  A    between atoms: C18_28  and  O8_29 
ROOT
HETATM    1  C7  UNL     1      96.761  15.546  16.586  1.00  0.00     0.074 C 
HETATM    2  C8  UNL     1      96.835  14.232  17.244  1.00  0.00     0.079 C 
HETATM    3  C9  UNL     1      96.040  13.570  18.224  1.00  0.00     0.085 C 
HETATM    4  C10 UNL     1      96.769  12.176  18.295  1.00  0.00     0.049 C 
HETATM    5  C11 UNL     1      94.643  13.294  18.355  1.00  0.00     0.180 C 
HETATM    6  O7  UNL     1      93.674  13.424  17.377  1.00  0.00    -0.362 OA
HETATM    7  C13 UNL     1      94.007  14.410  16.558  1.00  0.00     0.128 C 
HETATM    8  C14 UNL     1      94.111  15.582  17.347  1.00  0.00     0.047 C 
HETATM    9  C15 UNL     1      94.676  16.799  16.600  1.00  0.00     0.019 C 
HETATM   10  C16 UNL     1      95.669  15.991  15.718  1.00  0.00     0.026 C 
HETATM   11  C17 UNL     1      96.048  17.138  14.767  1.00  0.00     0.022 C 
HETATM   12  C18 UNL     1      94.812  15.138  14.919  1.00  0.00     0.134 C 
HETATM   13  C19 UNL     1      93.320  14.968  15.362  1.00  0.00     0.093 C 
HETATM   14  C20 UNL     1      94.748  13.825  15.486  1.00  0.00     0.196 C 
HETATM   15  O9  UNL     1      95.176  12.769  15.114  1.00  0.00    -0.291 OA
ENDROOT
BRANCH   1  16
HETATM   16  C2  UNL     1      98.172  15.768  15.988  1.00  0.00     0.017 C 
HETATM   17  C1  UNL     1      98.323  15.399  14.574  1.00  0.00     0.013 C 
BRANCH  16  18
HETATM   18  C3  UNL     1      98.929  16.930  16.509  1.00  0.00     0.015 C 
BRANCH  18  19
HETATM   19  C4  UNL     1     100.423  16.542  16.679  1.00  0.00     0.091 C 
BRANCH  19  20
HETATM   20  C5  UNL     1     100.727  16.281  18.082  1.00  0.00     0.225 C 
HETATM   21  O1  UNL     1     101.713  16.827  18.668  1.00  0.00    -0.286 OA
BRANCH  20  22
HETATM   22  C6  UNL     1      99.894  15.375  18.854  1.00  0.00     0.246 C 
HETATM   23  O2  UNL     1     100.097  14.144  18.738  1.00  0.00    -0.642 OA
HETATM   24  O3  UNL     1      98.893  15.791  19.704  1.00  0.00    -0.642 OA
ENDBRANCH  20  22
ENDBRANCH  19  20
ENDBRANCH  18  19
ENDBRANCH  16  18
ENDBRANCH   1  16
BRANCH   1  25
HETATM   25  O4  UNL     1      96.847  16.469  17.682  1.00  0.00    -0.388 OA
ATOM     26  H4  UNL     1      97.231  15.887  18.327  1.00  0.00     0.210 HD
ENDBRANCH   1  25
BRANCH   3  27
HETATM   27  O5  UNL     1      96.453  13.989  19.552  1.00  0.00    -0.387 OA
ATOM     28  H5  UNL     1      97.237  13.516  19.806  1.00  0.00     0.210 HD
ENDBRANCH   3  27
BRANCH  12  29
HETATM   29  O8  UNL     1      94.802  15.289  13.542  1.00  0.00    -0.381 OA
ATOM     30  H8  UNL     1      95.624  15.409  13.082  1.00  0.00     0.211 HD
ENDBRANCH  12  29
BRANCH   5  31
HETATM   31  C12 UNL     1      94.293  11.891  18.918  1.00  0.00     0.199 C 
BRANCH  31  32
HETATM   32  O6  UNL     1      93.646  11.956  20.116  1.00  0.00    -0.398 OA
ATOM     33  H6  UNL     1      93.437  11.097  20.463  1.00  0.00     0.209 HD
ENDBRANCH  31  32
ENDBRANCH   5  31
TORSDOF 10
ENDMDL
MODEL 5
REMARK VINA RESULT: -7.403329873      2.176      4.486
REMARK  10 active torsions:
REMARK  status: ('A' for Active; 'I' for Inactive)
REMARK    1  A    between atoms: C2_2  and  C3_3 
REMARK    2  A    between atoms: C2_2  and  C7_10 
REMARK    3  A    between atoms: C3_3  and  C4_4 
REMARK    4  A    between atoms: C4_4  and  C5_5 
REMARK    5  A    between atoms: C5_5  and  C6_7 
REMARK    6  A    between atoms: C7_10  and  O4_11 
REMARK    7  A    between atoms: C9_14  and  O5_16 
REMARK    8  A    between atoms: C11_18  and  C12_19 
REMARK    9  A    between atoms: C12_19  and  O6_20 
REMARK   10  A    between atoms: C18_28  and  O8_29 
ROOT
HETATM    1  C7  UNL     1      96.316  15.475  15.453  1.00  0.00     0.074 C 
HETATM    2  C8  UNL     1      95.780  16.754  15.941  1.00  0.00     0.079 C 
HETATM    3  C9  UNL     1      94.783  17.656  15.466  1.00  0.00     0.085 C 
HETATM    4  C10 UNL     1      94.779  18.722  16.625  1.00  0.00     0.049 C 
HETATM    5  C11 UNL     1      93.421  17.510  15.056  1.00  0.00     0.180 C 
HETATM    6  O7  UNL     1      92.609  16.407  15.243  1.00  0.00    -0.362 OA
HETATM    7  C13 UNL     1      93.351  15.310  15.228  1.00  0.00     0.128 C 
HETATM    8  C14 UNL     1      94.001  15.270  13.971  1.00  0.00     0.047 C 
HETATM    9  C15 UNL     1      95.057  14.163  13.838  1.00  0.00     0.019 C 
HETATM   10  C16 UNL     1      95.545  14.239  15.313  1.00  0.00     0.026 C 
HETATM   11  C17 UNL     1      96.399  12.961  15.291  1.00  0.00     0.022 C 
HETATM   12  C18 UNL     1      94.376  13.869  16.087  1.00  0.00     0.134 C 
HETATM   13  C19 UNL     1      92.984  13.874  15.370  1.00  0.00     0.093 C 
HETATM   14  C20 UNL     1      93.716  15.040  16.582  1.00  0.00     0.196 C 
HETATM   15  O9  UNL     1      93.597  15.485  17.688  1.00  0.00    -0.291 OA
ENDROOT
BRANCH   1  16
HETATM   16  C2  UNL     1      97.658  15.298  16.205  1.00  0.00     0.017 C 
HETATM   17  C1  UNL     1      98.861  15.665  15.446  1.00  0.00     0.013 C 
BRANCH  16  18
HETATM   18  C3  UNL     1      97.630  15.550  17.664  1.00  0.00     0.015 C 
BRANCH  18  19
HETATM   19  C4  UNL     1      98.138  14.291  18.419  1.00  0.00     0.091 C 
BRANCH  19  20
HETATM   20  C5  UNL     1      97.019  13.550  18.990  1.00  0.00     0.225 C 
HETATM   21  O1  UNL     1      95.906  14.105  19.245  1.00  0.00    -0.286 OA
BRANCH  20  22
HETATM   22  C6  UNL     1      97.156  12.133  19.284  1.00  0.00     0.246 C 
HETATM   23  O2  UNL     1      96.764  11.311  18.423  1.00  0.00    -0.642 OA
HETATM   24  O3  UNL     1      97.690  11.643  20.455  1.00  0.00    -0.642 OA
ENDBRANCH  20  22
ENDBRANCH  19  20
ENDBRANCH  18  19
ENDBRANCH  16  18
ENDBRANCH   1  16
BRANCH   1  25
HETATM   25  O4  UNL     1      96.840  15.808  14.159  1.00  0.00    -0.388 OA
ATOM     26  H4  UNL     1      97.357  16.566  14.407  1.00  0.00     0.210 HD
ENDBRANCH   1  25
BRANCH   3  27
HETATM   27  O5  UNL     1      95.365  18.551  14.481  1.00  0.00    -0.387 OA
ATOM     28  H5  UNL     1      94.672  18.989  14.000  1.00  0.00     0.210 HD
ENDBRANCH   3  27
BRANCH  12  29
HETATM   29  O8  UNL     1      94.416  12.725  16.867  1.00  0.00    -0.381 OA
ATOM     30  H8  UNL     1      93.789  12.622  17.573  1.00  0.00     0.211 HD
ENDBRANCH  12  29
BRANCH   5  31
HETATM   31  C12 UNL     1      92.467  18.646  15.510  1.00  0.00     0.199 C 
BRANCH  31  32
HETATM   32  O6  UNL     1      91.460  18.193  16.310  1.00  0.00    -0.398 OA
ATOM     33  H6  UNL     1      90.782  18.845  16.447  1.00  0.00     0.209 HD
ENDBRANCH  31  32
ENDBRANCH   5  31
TORSDOF 10
ENDMDL
