MODEL 1
REMARK VINA RESULT: -7.977257906      0.000      0.000
REMARK  8 active torsions:
REMARK  status: ('A' for Active; 'I' for Inactive)
REMARK    1  A    between atoms: C5_5  and  O1_6 
REMARK    2  A    between atoms: O1_6  and  C6_7 
REMARK    3  A    between atoms: C10_13  and  N1_14 
REMARK       I    between atoms: N1_14  and  C11_16 
REMARK    4  A    between atoms: C11_16  and  C12_18 
REMARK    5  A    between atoms: C12_18  and  C13_19 
REMARK    6  A    between atoms: C12_18  and  N2_23 
REMARK    7  A    between atoms: C13_19  and  C14_20 
REMARK       I    between atoms: N2_23  and  C15_24 
REMARK    8  A    between atoms: C15_24  and  C16_26 
ROOT
HETATM    1  N1  UNL     1      97.070  15.670  17.172  1.00  0.00    -0.349 N 
ATOM      2  H1  UNL     1      96.963  14.670  17.010  1.00  0.00     0.163 HD
HETATM    3  C11 UNL     1      95.907  16.447  17.255  1.00  0.00     0.254 C 
HETATM    4  O3  UNL     1      96.023  17.675  17.453  1.00  0.00    -0.270 OA
ENDROOT
BRANCH   1   5
HETATM    5  C10 UNL     1      98.410  16.193  17.300  1.00  0.00     0.127 C 
HETATM    6  C3  UNL     1      99.199  15.437  18.307  1.00  0.00    -0.030 C 
HETATM    7  C2  UNL     1      98.803  14.282  18.789  1.00  0.00    -0.021 C 
HETATM    8  C4  UNL     1     100.471  15.975  18.762  1.00  0.00    -0.018 C 
HETATM    9  C1  UNL     1      99.457  13.402  19.750  1.00  0.00     0.036 C 
HETATM   10  C5  UNL     1     100.784  16.044  20.049  1.00  0.00     0.154 C 
HETATM   11  C8  UNL     1     101.512  16.462  17.788  1.00  0.00     0.115 C 
HETATM   12  S1  UNL     1     100.693  17.123  16.317  1.00  0.00    -0.162 SA
HETATM   13  C9  UNL     1      99.160  16.205  16.005  1.00  0.00     0.104 C 
BRANCH  10  14
HETATM   14  O1  UNL     1     101.982  16.549  20.485  1.00  0.00    -0.291 OA
BRANCH  14  15
HETATM   15  C6  UNL     1     102.410  16.431  21.814  1.00  0.00     0.259 C 
HETATM   16  C7  UNL     1     101.468  16.444  22.954  1.00  0.00     0.126 C 
HETATM   17  O2  UNL     1     103.637  16.309  22.045  1.00  0.00    -0.265 OA
ENDBRANCH  14  15
ENDBRANCH  10  14
ENDBRANCH   1   5
BRANCH   3  18
HETATM   18  C12 UNL     1      94.553  15.822  17.112  1.00  0.00     0.268 C 
BRANCH  18  19
HETATM   19  C13 UNL     1      93.497  16.926  16.973  1.00  0.00     0.162 C 
BRANCH  19  20
HETATM   20  C14 UNL     1      93.099  17.203  15.599  1.00  0.00     0.176 C 
HETATM   21  O4  UNL     1      92.706  16.400  14.736  1.00  0.00    -0.648 OA
HETATM   22  O5  UNL     1      93.157  18.549  15.161  1.00  0.00    -0.648 OA
ENDBRANCH  19  20
ENDBRANCH  18  19
BRANCH  18  23
HETATM   23  N2  UNL     1      94.256  14.887  18.105  1.00  0.00    -0.390 NA
HETATM   24  C15 UNL     1      93.976  13.982  19.054  1.00  0.00     0.388 C 
HETATM   25  O6  UNL     1      94.537  12.819  19.156  1.00  0.00    -0.244 OA
BRANCH  24  26
HETATM   26  C16 UNL     1      92.983  14.168  20.147  1.00  0.00     0.285 C 
HETATM   27  O7  UNL     1      92.745  13.216  20.894  1.00  0.00    -0.640 OA
HETATM   28  O8  UNL     1      92.362  15.377  20.299  1.00  0.00    -0.640 OA
ENDBRANCH  24  26
ENDBRANCH  18  23
ENDBRANCH   3  18
TORSDOF 8
ENDMDL
MODEL 2
REMARK VINA RESULT: -7.860939316      2.231      3.450
REMARK  8 active torsions:
REMARK  status: ('A' for Active; 'I' for Inactive)
REMARK    1  A    between atoms: C5_5  and  O1_6 
REMARK    2  A    between atoms: O1_6  and  C6_7 
REMARK    3  A    between atoms: C10_13  and  N1_14 
REMARK       I    between atoms: N1_14  and  C11_16 
REMARK    4  A    between atoms: C11_16  and  C12_18 
REMARK    5  A    between atoms: C12_18  and  C13_19 
REMARK    6  A    between atoms: C12_18  and  N2_23 
REMARK    7  A    between atoms: C13_19  and  C14_20 
REMARK       I    between atoms: N2_23  and  C15_24 
REMARK    8  A    between atoms: C15_24  and  C16_26 
ROOT
HETATM    1  N1  UNL     1      97.706  15.844  16.675  1.00  0.00    -0.349 N 
ATOM      2  H1  UNL     1      97.694  14.999  16.106  1.00  0.00     0.163 HD
HETATM    3  C11 UNL     1      96.487  16.497  16.904  1.00  0.00     0.254 C 
HETATM    4  O3  UNL     1      96.488  17.534  17.601  1.00  0.00    -0.270 OA
ENDROOT
BRANCH   1   5
HETATM    5  C10 UNL     1      98.979  16.289  17.193  1.00  0.00     0.127 C 
HETATM    6  C3  UNL     1      99.419  15.466  18.348  1.00  0.00    -0.030 C 
HETATM    7  C2  UNL     1      98.852  14.323  18.655  1.00  0.00    -0.021 C 
HETATM    8  C4  UNL     1     100.536  15.922  19.161  1.00  0.00    -0.018 C 
HETATM    9  C1  UNL     1      99.169  13.383  19.724  1.00  0.00     0.036 C 
HETATM   10  C5  UNL     1     100.478  15.940  20.486  1.00  0.00     0.154 C 
HETATM   11  C8  UNL     1     101.829  16.376  18.535  1.00  0.00     0.115 C 
HETATM   12  S1  UNL     1     101.485  17.117  16.922  1.00  0.00    -0.162 SA
HETATM   13  C9  UNL     1     100.062  16.293  16.159  1.00  0.00     0.104 C 
BRANCH  10  14
HETATM   14  O1  UNL     1     101.528  16.368  21.258  1.00  0.00    -0.291 OA
BRANCH  14  15
HETATM   15  C6  UNL     1     101.532  16.250  22.654  1.00  0.00     0.259 C 
HETATM   16  C7  UNL     1     100.299  16.002  23.432  1.00  0.00     0.126 C 
HETATM   17  O2  UNL     1     102.621  16.358  23.266  1.00  0.00    -0.265 OA
ENDBRANCH  14  15
ENDBRANCH  10  14
ENDBRANCH   1   5
BRANCH   3  18
HETATM   18  C12 UNL     1      95.211  15.964  16.330  1.00  0.00     0.268 C 
BRANCH  18  19
HETATM   19  C13 UNL     1      94.143  15.912  17.431  1.00  0.00     0.162 C 
BRANCH  19  20
HETATM   20  C14 UNL     1      94.000  14.608  18.065  1.00  0.00     0.176 C 
HETATM   21  O4  UNL     1      93.106  13.762  17.888  1.00  0.00    -0.648 OA
HETATM   22  O5  UNL     1      94.986  14.227  19.006  1.00  0.00    -0.648 OA
ENDBRANCH  19  20
ENDBRANCH  18  19
BRANCH  18  23
HETATM   23  N2  UNL     1      95.360  14.760  15.642  1.00  0.00    -0.390 NA
HETATM   24  C15 UNL     1      95.495  13.600  14.982  1.00  0.00     0.388 C 
HETATM   25  O6  UNL     1      94.579  12.687  14.896  1.00  0.00    -0.244 OA
BRANCH  24  26
HETATM   26  C16 UNL     1      96.712  13.174  14.239  1.00  0.00     0.285 C 
HETATM   27  O7  UNL     1      97.624  13.989  14.086  1.00  0.00    -0.640 OA
HETATM   28  O8  UNL     1      96.793  11.900  13.747  1.00  0.00    -0.640 OA
ENDBRANCH  24  26
ENDBRANCH  18  23
ENDBRANCH   3  18
TORSDOF 8
ENDMDL
MODEL 3
REMARK VINA RESULT: -7.772763390      0.901      1.142
REMARK  8 active torsions:
REMARK  status: ('A' for Active; 'I' for Inactive)
REMARK    1  A    between atoms: C5_5  and  O1_6 
REMARK    2  A    between atoms: O1_6  and  C6_7 
REMARK    3  A    between atoms: C10_13  and  N1_14 
REMARK       I    between atoms: N1_14  and  C11_16 
REMARK    4  A    between atoms: C11_16  and  C12_18 
REMARK    5  A    between atoms: C12_18  and  C13_19 
REMARK    6  A    between atoms: C12_18  and  N2_23 
REMARK    7  A    between atoms: C13_19  and  C14_20 
REMARK       I    between atoms: N2_23  and  C15_24 
REMARK    8  A    between atoms: C15_24  and  C16_26 
ROOT
HETATM    1  N1  UNL     1      96.695  15.676  17.163  1.00  0.00    -0.349 N 
ATOM      2  H1  UNL     1      96.543  14.693  16.943  1.00  0.00     0.163 HD
HETATM    3  C11 UNL     1      95.582  16.527  17.162  1.00  0.00     0.254 C 
HETATM    4  O3  UNL     1      95.753  17.735  17.431  1.00  0.00    -0.270 OA
ENDROOT
BRANCH   1   5
HETATM    5  C10 UNL     1      98.045  16.101  17.457  1.00  0.00     0.127 C 
HETATM    6  C3  UNL     1      98.673  15.248  18.499  1.00  0.00    -0.030 C 
HETATM    7  C2  UNL     1      98.156  14.103  18.877  1.00  0.00    -0.021 C 
HETATM    8  C4  UNL     1      99.921  15.678  19.110  1.00  0.00    -0.018 C 
HETATM    9  C1  UNL     1      98.647  13.137  19.854  1.00  0.00     0.036 C 
HETATM   10  C5  UNL     1     100.098  15.667  20.424  1.00  0.00     0.154 C 
HETATM   11  C8  UNL     1     101.088  16.136  18.275  1.00  0.00     0.115 C 
HETATM   12  S1  UNL     1     100.473  16.916  16.764  1.00  0.00    -0.162 SA
HETATM   13  C9  UNL     1      98.927  16.120  16.248  1.00  0.00     0.104 C 
BRANCH  10  14
HETATM   14  O1  UNL     1     101.273  16.070  21.007  1.00  0.00    -0.291 OA
BRANCH  14  15
HETATM   15  C6  UNL     1     101.437  16.140  22.397  1.00  0.00     0.259 C 
HETATM   16  C7  UNL     1     102.767  16.263  23.033  1.00  0.00     0.126 C 
HETATM   17  O2  UNL     1     100.419  16.099  23.128  1.00  0.00    -0.265 OA
ENDBRANCH  14  15
ENDBRANCH  10  14
ENDBRANCH   1   5
BRANCH   3  18
HETATM   18  C12 UNL     1      94.214  16.002  16.849  1.00  0.00     0.268 C 
BRANCH  18  19
HETATM   19  C13 UNL     1      93.235  17.177  16.734  1.00  0.00     0.162 C 
BRANCH  19  20
HETATM   20  C14 UNL     1      92.932  17.572  15.364  1.00  0.00     0.176 C 
HETATM   21  O4  UNL     1      92.163  17.020  14.558  1.00  0.00    -0.648 OA
HETATM   22  O5  UNL     1      93.580  18.724  14.858  1.00  0.00    -0.648 OA
ENDBRANCH  19  20
ENDBRANCH  18  19
BRANCH  18  23
HETATM   23  N2  UNL     1      93.782  14.998  17.716  1.00  0.00    -0.390 NA
HETATM   24  C15 UNL     1      93.369  14.026  18.543  1.00  0.00     0.388 C 
HETATM   25  O6  UNL     1      93.357  12.764  18.253  1.00  0.00    -0.244 OA
BRANCH  24  26
HETATM   26  C16 UNL     1      92.862  14.238  19.926  1.00  0.00     0.285 C 
HETATM   27  O7  UNL     1      92.427  15.350  20.230  1.00  0.00    -0.640 OA
HETATM   28  O8  UNL     1      92.890  13.204  20.822  1.00  0.00    -0.640 OA
ENDBRANCH  24  26
ENDBRANCH  18  23
ENDBRANCH   3  18
TORSDOF 8
ENDMDL
MODEL 4
REMARK VINA RESULT: -7.707760027      3.048      5.502
REMARK  8 active torsions:
REMARK  status: ('A' for Active; 'I' for Inactive)
REMARK    1  A    between atoms: C5_5  and  O1_6 
REMARK    2  A    between atoms: O1_6  and  C6_7 
REMARK    3  A    between atoms: C10_13  and  N1_14 
REMARK       I    between atoms: N1_14  and  C11_16 
REMARK    4  A    between atoms: C11_16  and  C12_18 
REMARK    5  A    between atoms: C12_18  and  C13_19 
REMARK    6  A    between atoms: C12_18  and  N2_23 
REMARK    7  A    between atoms: C13_19  and  C14_20 
REMARK       I    between atoms: N2_23  and  C15_24 
REMARK    8  A    between atoms: C15_24  and  C16_26 
ROOT
HETATM    1  N1  UNL     1      98.312  15.050  18.225  1.00  0.00    -0.349 N 
ATOM      2  H1  UNL     1      97.577  15.631  17.824  1.00  0.00     0.163 HD
HETATM    3  C11 UNL     1      97.931  13.860  18.859  1.00  0.00     0.254 C 
HETATM    4  O3  UNL     1      98.821  13.137  19.355  1.00  0.00    -0.270 OA
ENDROOT
BRANCH   1   5
HETATM    5  C10 UNL     1      99.676  15.507  18.101  1.00  0.00     0.127 C 
HETATM    6  C3  UNL     1      99.821  16.514  17.018  1.00  0.00    -0.030 C 
HETATM    7  C2  UNL     1      98.788  17.099  16.459  1.00  0.00    -0.021 C 
HETATM    8  C4  UNL     1     101.153  16.890  16.572  1.00  0.00    -0.018 C 
HETATM    9  C1  UNL     1      98.748  18.116  15.414  1.00  0.00     0.036 C 
HETATM   10  C5  UNL     1     101.475  16.941  15.287  1.00  0.00     0.154 C 
HETATM   11  C8  UNL     1     102.233  17.266  17.553  1.00  0.00     0.115 C 
HETATM   12  S1  UNL     1     101.989  16.349  19.093  1.00  0.00    -0.162 SA
HETATM   13  C9  UNL     1     100.218  16.081  19.373  1.00  0.00     0.104 C 
BRANCH  10  14
HETATM   14  O1  UNL     1     102.728  17.296  14.860  1.00  0.00    -0.291 OA
BRANCH  14  15
HETATM   15  C6  UNL     1     103.000  17.640  13.529  1.00  0.00     0.259 C 
HETATM   16  C7  UNL     1     101.931  17.833  12.525  1.00  0.00     0.126 C 
HETATM   17  O2  UNL     1     104.194  17.791  13.176  1.00  0.00    -0.265 OA
ENDBRANCH  14  15
ENDBRANCH  10  14
ENDBRANCH   1   5
BRANCH   3  18
HETATM   18  C12 UNL     1      96.490  13.459  18.940  1.00  0.00     0.268 C 
BRANCH  18  19
HETATM   19  C13 UNL     1      96.357  11.972  18.587  1.00  0.00     0.162 C 
BRANCH  19  20
HETATM   20  C14 UNL     1      96.007  11.118  19.715  1.00  0.00     0.176 C 
HETATM   21  O4  UNL     1      94.917  10.571  19.955  1.00  0.00    -0.648 OA
HETATM   22  O5  UNL     1      97.013  10.862  20.677  1.00  0.00    -0.648 OA
ENDBRANCH  19  20
ENDBRANCH  18  19
BRANCH  18  23
HETATM   23  N2  UNL     1      95.632  14.284  18.211  1.00  0.00    -0.390 NA
HETATM   24  C15 UNL     1      94.814  15.085  17.513  1.00  0.00     0.388 C 
HETATM   25  O6  UNL     1      94.981  16.361  17.359  1.00  0.00    -0.244 OA
BRANCH  24  26
HETATM   26  C16 UNL     1      93.586  14.641  16.799  1.00  0.00     0.285 C 
HETATM   27  O7  UNL     1      93.111  15.377  15.932  1.00  0.00    -0.640 OA
HETATM   28  O8  UNL     1      93.017  13.438  17.115  1.00  0.00    -0.640 OA
ENDBRANCH  24  26
ENDBRANCH  18  23
ENDBRANCH   3  18
TORSDOF 8
ENDMDL
MODEL 5
REMARK VINA RESULT: -7.603854855      3.649      8.774
REMARK  8 active torsions:
REMARK  status: ('A' for Active; 'I' for Inactive)
REMARK    1  A    between atoms: C5_5  and  O1_6 
REMARK    2  A    between atoms: O1_6  and  C6_7 
REMARK    3  A    between atoms: C10_13  and  N1_14 
REMARK       I    between atoms: N1_14  and  C11_16 
REMARK    4  A    between atoms: C11_16  and  C12_18 
REMARK    5  A    between atoms: C12_18  and  C13_19 
REMARK    6  A    between atoms: C12_18  and  N2_23 
REMARK    7  A    between atoms: C13_19  and  C14_20 
REMARK       I    between atoms: N2_23  and  C15_24 
REMARK    8  A    between atoms: C15_24  and  C16_26 
ROOT
HETATM    1  N1  UNL     1      97.637  13.964  17.473  1.00  0.00    -0.349 N 
ATOM      2  H1  UNL     1      98.313  13.213  17.339  1.00  0.00     0.163 HD
HETATM    3  C11 UNL     1      98.130  15.262  17.662  1.00  0.00     0.254 C 
HETATM    4  O3  UNL     1      97.313  16.192  17.828  1.00  0.00    -0.270 OA
ENDROOT
BRANCH   1   5
HETATM    5  C10 UNL     1      96.234  13.619  17.456  1.00  0.00     0.127 C 
HETATM    6  C3  UNL     1      95.720  13.485  16.069  1.00  0.00    -0.030 C 
HETATM    7  C2  UNL     1      96.515  13.413  15.027  1.00  0.00    -0.021 C 
HETATM    8  C4  UNL     1      94.285  13.403  15.848  1.00  0.00    -0.018 C 
HETATM    9  C1  UNL     1      96.187  13.254  13.615  1.00  0.00     0.036 C 
HETATM   10  C5  UNL     1      93.673  14.138  14.930  1.00  0.00     0.154 C 
HETATM   11  C8  UNL     1      93.421  12.457  16.641  1.00  0.00     0.115 C 
HETATM   12  S1  UNL     1      94.124  12.246  18.293  1.00  0.00    -0.162 SA
HETATM   13  C9  UNL     1      95.932  12.362  18.210  1.00  0.00     0.104 C 
BRANCH  10  14
HETATM   14  O1  UNL     1      92.320  14.066  14.716  1.00  0.00    -0.291 OA
BRANCH  14  15
HETATM   15  C6  UNL     1      91.741  14.322  13.467  1.00  0.00     0.259 C 
HETATM   16  C7  UNL     1      92.547  14.661  12.273  1.00  0.00     0.126 C 
HETATM   17  O2  UNL     1      90.493  14.263  13.356  1.00  0.00    -0.265 OA
ENDBRANCH  14  15
ENDBRANCH  10  14
ENDBRANCH   1   5
BRANCH   3  18
HETATM   18  C12 UNL     1      99.603  15.532  17.663  1.00  0.00     0.268 C 
BRANCH  18  19
HETATM   19  C13 UNL     1     100.007  16.136  19.014  1.00  0.00     0.162 C 
BRANCH  19  20
HETATM   20  C14 UNL     1     100.092  15.169  20.101  1.00  0.00     0.176 C 
HETATM   21  O4  UNL     1     100.305  15.384  21.306  1.00  0.00    -0.648 OA
HETATM   22  O5  UNL     1      99.915  13.802  19.775  1.00  0.00    -0.648 OA
ENDBRANCH  19  20
ENDBRANCH  18  19
BRANCH  18  23
HETATM   23  N2  UNL     1     100.042  16.274  16.566  1.00  0.00    -0.390 NA
HETATM   24  C15 UNL     1     100.462  16.997  15.518  1.00  0.00     0.388 C 
HETATM   25  O6  UNL     1     100.577  18.287  15.506  1.00  0.00    -0.244 OA
BRANCH  24  26
HETATM   26  C16 UNL     1     100.871  16.436  14.201  1.00  0.00     0.285 C 
HETATM   27  O7  UNL     1     101.767  17.003  13.571  1.00  0.00    -0.640 OA
HETATM   28  O8  UNL     1     100.250  15.315  13.721  1.00  0.00    -0.640 OA
ENDBRANCH  24  26
ENDBRANCH  18  23
ENDBRANCH   3  18
TORSDOF 8
ENDMDL
