MODEL 1
REMARK VINA RESULT: -7.823852253      0.000      0.000
REMARK  8 active torsions:
REMARK  status: ('A' for Active; 'I' for Inactive)
REMARK       I    between atoms: C1_4  and  N3_6 
REMARK    1  A    between atoms: C3_8  and  C4_9 
REMARK    2  A    between atoms: C5_12  and  S1_13 
REMARK    3  A    between atoms: S1_13  and  C6_14 
REMARK    4  A    between atoms: C6_14  and  C7_15 
REMARK    5  A    between atoms: C7_15  and  C8_16 
REMARK    6  A    between atoms: C8_16  and  N4_17 
REMARK    7  A    between atoms: C11_20  and  O3_21 
REMARK    8  A    between atoms: N5_29  and  O4_30 
ROOT
HETATM    1  N1  UNL     1      92.951  15.934  13.269  1.00  0.00    -0.373 N 
ATOM      2  H11 UNL     1      92.777  15.169  12.618  1.00  0.00     0.158 HD
ATOM      3  H12 UNL     1      92.829  16.902  12.973  1.00  0.00     0.158 HD
HETATM    4  C1  UNL     1      93.351  15.648  14.461  1.00  0.00     0.201 C 
HETATM    5  N2  UNL     1      93.591  16.709  15.363  1.00  0.00    -0.062 NA
HETATM    6  N3  UNL     1      93.516  14.334  14.862  1.00  0.00    -0.250 N 
HETATM    7  C2  UNL     1      94.441  13.564  15.649  1.00  0.00     0.164 C 
HETATM    8  C3  UNL     1      95.678  14.082  16.079  1.00  0.00     0.057 C 
HETATM    9  C5  UNL     1      96.180  14.042  17.299  1.00  0.00     0.003 C 
HETATM   10  C14 UNL     1      95.541  13.429  18.500  1.00  0.00     0.121 C 
HETATM   11  S2  UNL     1      94.230  12.262  17.940  1.00  0.00    -0.155 SA
HETATM   12  C15 UNL     1      93.384  13.248  16.726  1.00  0.00     0.094 C 
HETATM   13  C16 UNL     1      92.400  12.583  15.830  1.00  0.00     0.164 C 
HETATM   14  N5  UNL     1      92.551  13.310  14.536  1.00  0.00    -0.101 NA
ENDROOT
BRANCH   9  15
HETATM   15  S1  UNL     1      97.801  14.759  17.691  1.00  0.00    -0.133 SA
BRANCH  15  16
HETATM   16  C6  UNL     1      98.562  13.811  19.010  1.00  0.00     0.081 C 
BRANCH  16  17
HETATM   17  C7  UNL     1      99.996  14.158  19.301  1.00  0.00     0.041 C 
BRANCH  17  18
HETATM   18  C8  UNL     1      99.982  14.904  20.630  1.00  0.00     0.273 C 
BRANCH  18  19
HETATM   19  N4  UNL     1     100.792  16.096  20.622  1.00  0.00     0.088 N 
HETATM   20  C9  UNL     1     101.394  16.397  21.866  1.00  0.00     0.275 C 
HETATM   21  C10 UNL     1     102.806  15.881  22.007  1.00  0.00     0.062 C 
HETATM   22  C11 UNL     1     103.659  16.601  21.007  1.00  0.00     0.121 C 
HETATM   23  C12 UNL     1     102.987  16.719  19.691  1.00  0.00     0.062 C 
HETATM   24  C13 UNL     1     101.705  15.993  19.517  1.00  0.00     0.275 C 
BRANCH  22  25
HETATM   25  O3  UNL     1     104.871  15.902  20.890  1.00  0.00    -0.395 OA
ATOM     26  H3  UNL     1     104.816  15.349  20.119  1.00  0.00     0.210 HD
ENDBRANCH  22  25
ENDBRANCH  18  19
ENDBRANCH  17  18
ENDBRANCH  16  17
ENDBRANCH  15  16
ENDBRANCH   9  15
BRANCH   8  27
HETATM   27  C4  UNL     1      96.554  14.772  15.083  1.00  0.00     0.208 C 
HETATM   28  O1  UNL     1      96.643  16.022  15.150  1.00  0.00    -0.644 OA
HETATM   29  O2  UNL     1      97.240  14.050  14.128  1.00  0.00    -0.644 OA
ENDBRANCH   8  27
BRANCH  14  30
HETATM   30  O4  UNL     1      91.402  13.825  14.121  1.00  0.00    -0.293 OA
ATOM     31  H4  UNL     1      90.661  13.282  14.364  1.00  0.00     0.239 HD
ENDBRANCH  14  30
TORSDOF 8
ENDMDL
MODEL 2
REMARK VINA RESULT: -7.449716370      1.809      2.718
REMARK  8 active torsions:
REMARK  status: ('A' for Active; 'I' for Inactive)
REMARK       I    between atoms: C1_4  and  N3_6 
REMARK    1  A    between atoms: C3_8  and  C4_9 
REMARK    2  A    between atoms: C5_12  and  S1_13 
REMARK    3  A    between atoms: S1_13  and  C6_14 
REMARK    4  A    between atoms: C6_14  and  C7_15 
REMARK    5  A    between atoms: C7_15  and  C8_16 
REMARK    6  A    between atoms: C8_16  and  N4_17 
REMARK    7  A    between atoms: C11_20  and  O3_21 
REMARK    8  A    between atoms: N5_29  and  O4_30 
ROOT
HETATM    1  N1  UNL     1      91.611  12.628  15.303  1.00  0.00    -0.373 N 
ATOM      2  H11 UNL     1      90.918  13.374  15.360  1.00  0.00     0.158 HD
ATOM      3  H12 UNL     1      91.319  11.652  15.275  1.00  0.00     0.158 HD
HETATM    4  C1  UNL     1      92.859  12.951  15.293  1.00  0.00     0.201 C 
HETATM    5  N2  UNL     1      93.820  11.917  15.214  1.00  0.00    -0.062 NA
HETATM    6  N3  UNL     1      93.255  14.275  15.331  1.00  0.00    -0.250 N 
HETATM    7  C2  UNL     1      94.280  15.069  15.954  1.00  0.00     0.164 C 
HETATM    8  C3  UNL     1      95.107  14.564  16.977  1.00  0.00     0.057 C 
HETATM    9  C5  UNL     1      96.422  14.640  17.051  1.00  0.00     0.003 C 
HETATM   10  C14 UNL     1      97.330  15.288  16.060  1.00  0.00     0.121 C 
HETATM   11  S2  UNL     1      96.337  16.439  15.017  1.00  0.00    -0.155 SA
HETATM   12  C15 UNL     1      94.941  15.417  14.606  1.00  0.00     0.094 C 
HETATM   13  C16 UNL     1      93.754  16.055  13.976  1.00  0.00     0.164 C 
HETATM   14  N5  UNL     1      92.603  15.290  14.536  1.00  0.00    -0.101 NA
ENDROOT
BRANCH   9  15
HETATM   15  S1  UNL     1      97.344  13.935  18.447  1.00  0.00    -0.133 SA
BRANCH  15  16
HETATM   16  C6  UNL     1      98.584  15.112  18.990  1.00  0.00     0.081 C 
BRANCH  16  17
HETATM   17  C7  UNL     1      99.881  14.506  19.452  1.00  0.00     0.041 C 
BRANCH  17  18
HETATM   18  C8  UNL     1     100.128  15.069  20.847  1.00  0.00     0.273 C 
BRANCH  18  19
HETATM   19  N4  UNL     1     101.007  16.211  20.852  1.00  0.00     0.088 N 
HETATM   20  C9  UNL     1     101.689  16.413  22.074  1.00  0.00     0.275 C 
HETATM   21  C10 UNL     1     103.073  15.811  22.112  1.00  0.00     0.062 C 
HETATM   22  C11 UNL     1     103.915  16.532  21.102  1.00  0.00     0.121 C 
HETATM   23  C12 UNL     1     103.183  16.755  19.833  1.00  0.00     0.062 C 
HETATM   24  C13 UNL     1     101.853  16.113  19.695  1.00  0.00     0.275 C 
BRANCH  22  25
HETATM   25  O3  UNL     1     105.075  15.772  20.886  1.00  0.00    -0.395 OA
ATOM     26  H3  UNL     1     105.823  16.355  20.948  1.00  0.00     0.210 HD
ENDBRANCH  22  25
ENDBRANCH  18  19
ENDBRANCH  17  18
ENDBRANCH  16  17
ENDBRANCH  15  16
ENDBRANCH   9  15
BRANCH   8  27
HETATM   27  C4  UNL     1      94.473  13.844  18.124  1.00  0.00     0.208 C 
HETATM   28  O1  UNL     1      93.873  14.531  18.986  1.00  0.00    -0.644 OA
HETATM   29  O2  UNL     1      94.547  12.469  18.220  1.00  0.00    -0.644 OA
ENDBRANCH   8  27
BRANCH  14  30
HETATM   30  O4  UNL     1      91.848  14.762  13.581  1.00  0.00    -0.293 OA
ATOM     31  H4  UNL     1      92.302  14.731  12.747  1.00  0.00     0.239 HD
ENDBRANCH  14  30
TORSDOF 8
ENDMDL
MODEL 3
REMARK VINA RESULT: -7.449126216      2.300      2.956
REMARK  8 active torsions:
REMARK  status: ('A' for Active; 'I' for Inactive)
REMARK       I    between atoms: C1_4  and  N3_6 
REMARK    1  A    between atoms: C3_8  and  C4_9 
REMARK    2  A    between atoms: C5_12  and  S1_13 
REMARK    3  A    between atoms: S1_13  and  C6_14 
REMARK    4  A    between atoms: C6_14  and  C7_15 
REMARK    5  A    between atoms: C7_15  and  C8_16 
REMARK    6  A    between atoms: C8_16  and  N4_17 
REMARK    7  A    between atoms: C11_20  and  O3_21 
REMARK    8  A    between atoms: N5_29  and  O4_30 
ROOT
HETATM    1  N1  UNL     1      93.118  14.436  18.987  1.00  0.00    -0.373 N 
ATOM      2  H11 UNL     1      92.227  14.499  18.496  1.00  0.00     0.158 HD
ATOM      3  H12 UNL     1      93.158  14.540  20.001  1.00  0.00     0.158 HD
HETATM    4  C1  UNL     1      94.189  14.249  18.294  1.00  0.00     0.201 C 
HETATM    5  N2  UNL     1      95.424  14.163  18.975  1.00  0.00    -0.062 NA
HETATM    6  N3  UNL     1      94.134  14.110  16.919  1.00  0.00    -0.250 N 
HETATM    7  C2  UNL     1      94.890  14.528  15.769  1.00  0.00     0.164 C 
HETATM    8  C3  UNL     1      95.913  15.493  15.850  1.00  0.00     0.057 C 
HETATM    9  C5  UNL     1      97.134  15.406  15.356  1.00  0.00     0.003 C 
HETATM   10  C14 UNL     1      97.700  14.257  14.591  1.00  0.00     0.121 C 
HETATM   11  S2  UNL     1      96.310  13.227  13.958  1.00  0.00    -0.155 SA
HETATM   12  C15 UNL     1      95.294  13.084  15.412  1.00  0.00     0.094 C 
HETATM   13  C16 UNL     1      93.919  12.536  15.267  1.00  0.00     0.164 C 
HETATM   14  N5  UNL     1      93.127  13.299  16.274  1.00  0.00    -0.101 NA
ENDROOT
BRANCH   9  15
HETATM   15  S1  UNL     1      98.341  16.748  15.547  1.00  0.00    -0.133 SA
BRANCH  15  16
HETATM   16  C6  UNL     1      99.527  16.300  16.815  1.00  0.00     0.081 C 
BRANCH  16  17
HETATM   17  C7  UNL     1      99.120  15.148  17.692  1.00  0.00     0.041 C 
BRANCH  17  18
HETATM   18  C8  UNL     1     100.298  14.903  18.629  1.00  0.00     0.273 C 
BRANCH  18  19
HETATM   19  N4  UNL     1     100.713  16.085  19.340  1.00  0.00     0.088 N 
HETATM   20  C9  UNL     1     100.213  16.174  20.660  1.00  0.00     0.275 C 
HETATM   21  C10 UNL     1     101.162  15.653  21.713  1.00  0.00     0.062 C 
HETATM   22  C11 UNL     1     102.370  16.540  21.722  1.00  0.00     0.121 C 
HETATM   23  C12 UNL     1     102.817  16.875  20.350  1.00  0.00     0.062 C 
HETATM   24  C13 UNL     1     102.143  16.180  19.227  1.00  0.00     0.275 C 
BRANCH  22  25
HETATM   25  O3  UNL     1     103.385  15.881  22.434  1.00  0.00    -0.395 OA
ATOM     26  H3  UNL     1     104.221  16.192  22.106  1.00  0.00     0.210 HD
ENDBRANCH  22  25
ENDBRANCH  18  19
ENDBRANCH  17  18
ENDBRANCH  16  17
ENDBRANCH  15  16
ENDBRANCH   9  15
BRANCH   8  27
HETATM   27  C4  UNL     1      95.639  16.771  16.576  1.00  0.00     0.208 C 
HETATM   28  O1  UNL     1      94.820  17.572  16.062  1.00  0.00    -0.644 OA
HETATM   29  O2  UNL     1      96.268  17.051  17.773  1.00  0.00    -0.644 OA
ENDBRANCH   8  27
BRANCH  14  30
HETATM   30  O4  UNL     1      92.513  12.496  17.132  1.00  0.00    -0.293 OA
ATOM     31  H4  UNL     1      92.790  11.593  17.033  1.00  0.00     0.239 HD
ENDBRANCH  14  30
TORSDOF 8
ENDMDL
MODEL 4
REMARK VINA RESULT: -7.413556470      4.006      5.911
REMARK  8 active torsions:
REMARK  status: ('A' for Active; 'I' for Inactive)
REMARK       I    between atoms: C1_4  and  N3_6 
REMARK    1  A    between atoms: C3_8  and  C4_9 
REMARK    2  A    between atoms: C5_12  and  S1_13 
REMARK    3  A    between atoms: S1_13  and  C6_14 
REMARK    4  A    between atoms: C6_14  and  C7_15 
REMARK    5  A    between atoms: C7_15  and  C8_16 
REMARK    6  A    between atoms: C8_16  and  N4_17 
REMARK    7  A    between atoms: C11_20  and  O3_21 
REMARK    8  A    between atoms: N5_29  and  O4_30 
ROOT
HETATM    1  N1  UNL     1      94.308  10.827  19.409  1.00  0.00    -0.373 N 
ATOM      2  H11 UNL     1      94.961  10.079  19.178  1.00  0.00     0.158 HD
ATOM      3  H12 UNL     1      93.381  10.611  19.774  1.00  0.00     0.158 HD
HETATM    4  C1  UNL     1      94.676  12.046  19.204  1.00  0.00     0.201 C 
HETATM    5  N2  UNL     1      93.771  13.084  19.524  1.00  0.00    -0.062 NA
HETATM    6  N3  UNL     1      95.933  12.339  18.708  1.00  0.00    -0.250 N 
HETATM    7  C2  UNL     1      96.529  13.257  17.774  1.00  0.00     0.164 C 
HETATM    8  C3  UNL     1      95.759  14.047  16.898  1.00  0.00     0.057 C 
HETATM    9  C5  UNL     1      95.870  15.345  16.687  1.00  0.00     0.003 C 
HETATM   10  C14 UNL     1      96.848  16.267  17.333  1.00  0.00     0.121 C 
HETATM   11  S2  UNL     1      98.227  15.266  18.036  1.00  0.00    -0.155 SA
HETATM   12  C15 UNL     1      97.328  13.981  18.876  1.00  0.00     0.094 C 
HETATM   13  C16 UNL     1      98.079  12.796  19.371  1.00  0.00     0.164 C 
HETATM   14  N5  UNL     1      97.118  11.669  19.191  1.00  0.00    -0.101 NA
ENDROOT
BRANCH   9  15
HETATM   15  S1  UNL     1      94.794  16.219  15.515  1.00  0.00    -0.133 SA
BRANCH  15  16
HETATM   16  C6  UNL     1      95.613  17.716  14.966  1.00  0.00     0.081 C 
BRANCH  16  17
HETATM   17  C7  UNL     1      96.203  17.652  13.583  1.00  0.00     0.041 C 
BRANCH  17  18
HETATM   18  C8  UNL     1      97.646  18.126  13.725  1.00  0.00     0.273 C 
BRANCH  18  19
HETATM   19  N4  UNL     1      98.414  17.338  14.655  1.00  0.00     0.088 N 
HETATM   20  C9  UNL     1      98.952  16.151  14.105  1.00  0.00     0.275 C 
HETATM   21  C10 UNL     1     100.374  16.290  13.615  1.00  0.00     0.062 C 
HETATM   22  C11 UNL     1     101.244  16.566  14.805  1.00  0.00     0.121 C 
HETATM   23  C12 UNL     1     100.624  17.548  15.725  1.00  0.00     0.062 C 
HETATM   24  C13 UNL     1      99.376  18.210  15.272  1.00  0.00     0.275 C 
BRANCH  22  25
HETATM   25  O3  UNL     1     102.482  17.031  14.336  1.00  0.00    -0.395 OA
ATOM     26  H3  UNL     1     102.620  17.902  14.689  1.00  0.00     0.210 HD
ENDBRANCH  22  25
ENDBRANCH  18  19
ENDBRANCH  17  18
ENDBRANCH  16  17
ENDBRANCH  15  16
ENDBRANCH   9  15
BRANCH   8  27
HETATM   27  C4  UNL     1      94.675  13.391  16.104  1.00  0.00     0.208 C 
HETATM   28  O1  UNL     1      95.015  12.682  15.126  1.00  0.00    -0.644 OA
HETATM   29  O2  UNL     1      93.349  13.562  16.447  1.00  0.00    -0.644 OA
ENDBRANCH   8  27
BRANCH  14  30
HETATM   30  O4  UNL     1      96.895  11.023  20.327  1.00  0.00    -0.293 OA
ATOM     31  H4  UNL     1      96.343  11.523  20.917  1.00  0.00     0.239 HD
ENDBRANCH  14  30
TORSDOF 8
ENDMDL
MODEL 5
REMARK VINA RESULT: -7.322185571      4.386      5.755
REMARK  8 active torsions:
REMARK  status: ('A' for Active; 'I' for Inactive)
REMARK       I    between atoms: C1_4  and  N3_6 
REMARK    1  A    between atoms: C3_8  and  C4_9 
REMARK    2  A    between atoms: C5_12  and  S1_13 
REMARK    3  A    between atoms: S1_13  and  C6_14 
REMARK    4  A    between atoms: C6_14  and  C7_15 
REMARK    5  A    between atoms: C7_15  and  C8_16 
REMARK    6  A    between atoms: C8_16  and  N4_17 
REMARK    7  A    between atoms: C11_20  and  O3_21 
REMARK    8  A    between atoms: N5_29  and  O4_30 
ROOT
HETATM    1  N1  UNL     1      93.477  12.270  18.832  1.00  0.00    -0.373 N 
ATOM      2  H11 UNL     1      93.762  11.322  18.587  1.00  0.00     0.158 HD
ATOM      3  H12 UNL     1      92.500  12.483  19.028  1.00  0.00     0.158 HD
HETATM    4  C1  UNL     1      94.378  13.192  18.862  1.00  0.00     0.201 C 
HETATM    5  N2  UNL     1      93.984  14.506  19.201  1.00  0.00    -0.062 NA
HETATM    6  N3  UNL     1      95.705  12.903  18.596  1.00  0.00    -0.250 N 
HETATM    7  C2  UNL     1      96.812  13.503  17.901  1.00  0.00     0.164 C 
HETATM    8  C3  UNL     1      96.655  14.614  17.051  1.00  0.00     0.057 C 
HETATM    9  C5  UNL     1      97.368  15.725  17.051  1.00  0.00     0.003 C 
HETATM   10  C14 UNL     1      98.509  16.047  17.955  1.00  0.00     0.121 C 
HETATM   11  S2  UNL     1      99.138  14.478  18.691  1.00  0.00    -0.155 SA
HETATM   12  C15 UNL     1      97.621  13.701  19.198  1.00  0.00     0.094 C 
HETATM   13  C16 UNL     1      97.659  12.273  19.613  1.00  0.00     0.164 C 
HETATM   14  N5  UNL     1      96.353  11.731  19.137  1.00  0.00    -0.101 NA
ENDROOT
BRANCH   9  15
HETATM   15  S1  UNL     1      97.037  17.073  15.880  1.00  0.00    -0.133 SA
BRANCH  15  16
HETATM   16  C6  UNL     1      97.982  16.798  14.381  1.00  0.00     0.081 C 
BRANCH  16  17
HETATM   17  C7  UNL     1      98.777  15.521  14.352  1.00  0.00     0.041 C 
BRANCH  17  18
HETATM   18  C8  UNL     1     100.225  15.927  14.601  1.00  0.00     0.273 C 
BRANCH  18  19
HETATM   19  N4  UNL     1     100.755  16.797  13.581  1.00  0.00     0.088 N 
HETATM   20  C9  UNL     1     101.555  17.852  14.076  1.00  0.00     0.275 C 
HETATM   21  C10 UNL     1     103.036  17.555  14.073  1.00  0.00     0.062 C 
HETATM   22  C11 UNL     1     103.471  17.407  12.647  1.00  0.00     0.121 C 
HETATM   23  C12 UNL     1     102.503  16.613  11.854  1.00  0.00     0.062 C 
HETATM   24  C13 UNL     1     101.389  15.969  12.591  1.00  0.00     0.275 C 
BRANCH  22  25
HETATM   25  O3  UNL     1     104.738  16.803  12.643  1.00  0.00    -0.395 OA
ATOM     26  H3  UNL     1     104.815  16.289  11.847  1.00  0.00     0.210 HD
ENDBRANCH  22  25
ENDBRANCH  18  19
ENDBRANCH  17  18
ENDBRANCH  16  17
ENDBRANCH  15  16
ENDBRANCH   9  15
BRANCH   8  27
HETATM   27  C4  UNL     1      95.568  14.588  16.025  1.00  0.00     0.208 C 
HETATM   28  O1  UNL     1      95.714  13.826  15.038  1.00  0.00    -0.644 OA
HETATM   29  O2  UNL     1      94.444  15.375  16.169  1.00  0.00    -0.644 OA
ENDBRANCH   8  27
BRANCH  14  30
HETATM   30  O4  UNL     1      95.653  11.188  20.123  1.00  0.00    -0.293 OA
ATOM     31  H4  UNL     1      96.156  11.134  20.927  1.00  0.00     0.239 HD
ENDBRANCH  14  30
TORSDOF 8
ENDMDL
