MODEL 1
REMARK VINA RESULT: -8.879450786      0.000      0.000
REMARK  7 active torsions:
REMARK  status: ('A' for Active; 'I' for Inactive)
REMARK       I    between atoms: C2_5  and  N3_6 
REMARK       I    between atoms: C2_5  and  N5_10 
REMARK    1  A    between atoms: N5_10  and  N6_12 
REMARK       I    between atoms: N6_12  and  C4_14 
REMARK    2  A    between atoms: C4_14  and  C5_16 
REMARK    3  A    between atoms: C8_19  and  N7_20 
REMARK    4  A    between atoms: N7_20  and  N8_21 
REMARK    5  A    between atoms: N7_20  and  C9_24 
REMARK    6  A    between atoms: C9_24  and  C10_25 
REMARK    7  A    between atoms: N9_27  and  C12_28 
ROOT
HETATM    1  N1  UNL     1      92.854  12.286  15.150  1.00  0.00    -0.171 NA
HETATM    2  C1  UNL     1      92.982  12.301  16.307  1.00  0.00     0.196 C 
HETATM    3  N2  UNL     1      93.146  12.322  17.695  1.00  0.00    -0.124 N 
ATOM      4  H2  UNL     1      93.123  11.440  18.206  1.00  0.00     0.197 HD
HETATM    5  C2  UNL     1      93.323  13.413  18.351  1.00  0.00     0.715 C 
HETATM    6  N3  UNL     1      93.485  13.402  19.760  1.00  0.00    -0.124 N 
ATOM      7  H3  UNL     1      94.027  12.676  20.229  1.00  0.00     0.197 HD
HETATM    8  C3  UNL     1      92.867  14.436  20.476  1.00  0.00     0.196 C 
HETATM    9  N4  UNL     1      92.342  15.280  21.070  1.00  0.00    -0.171 NA
HETATM   10  N5  UNL     1      93.355  14.655  17.674  1.00  0.00    -0.128 N 
ATOM     11  H5  UNL     1      92.483  15.152  17.498  1.00  0.00     0.205 HD
ENDROOT
BRANCH  10  12
HETATM   12  N6  UNL     1      94.555  15.208  17.247  1.00  0.00    -0.251 N 
HETATM   13  C4  UNL     1      94.783  15.708  15.947  1.00  0.00     0.270 C 
HETATM   14  O1  UNL     1      93.877  15.680  15.076  1.00  0.00    -0.266 OA
ATOM     15  H6  UNL     1      95.323  15.256  17.917  1.00  0.00     0.191 HD
BRANCH  13  16
HETATM   16  C5  UNL     1      96.075  16.267  15.592  1.00  0.00     0.033 A 
HETATM   17  C6  UNL     1      96.428  17.507  16.093  1.00  0.00     0.019 A 
HETATM   18  C7  UNL     1      97.634  18.055  15.771  1.00  0.00     0.032 A 
HETATM   19  C8  UNL     1      98.487  17.362  14.947  1.00  0.00     0.050 A 
HETATM   20  C16 UNL     1      98.178  16.128  14.426  1.00  0.00     0.032 A 
HETATM   21  C17 UNL     1      96.939  15.577  14.763  1.00  0.00     0.019 A 
BRANCH  19  22
HETATM   22  N7  UNL     1      99.744  17.922  14.605  1.00  0.00    -0.293 N 
BRANCH  22  23
HETATM   23  N8  UNL     1      99.822  19.271  14.248  1.00  0.00    -0.342 N 
ATOM     24  H82 UNL     1      99.280  19.671  13.483  1.00  0.00     0.177 HD
ATOM     25  H81 UNL     1     100.444  19.892  14.767  1.00  0.00     0.177 HD
ENDBRANCH  22  23
BRANCH  22  26
HETATM   26  C9  UNL     1     100.898  17.058  14.643  1.00  0.00     0.208 C 
BRANCH  26  27
HETATM   27  C10 UNL     1     101.505  17.154  15.992  1.00  0.00     0.060 A 
HETATM   28  C11 UNL     1     100.944  16.594  17.120  1.00  0.00     0.144 A 
HETATM   29  N9  UNL     1     101.754  16.869  18.175  1.00  0.00    -0.233 N 
HETATM   30  N11 UNL     1     102.783  17.581  17.705  1.00  0.00    -0.014 NA
HETATM   31  N12 UNL     1     102.637  17.754  16.396  1.00  0.00    -0.285 N 
ATOM     32  H12 UNL     1     103.283  18.263  15.793  1.00  0.00     0.184 HD
BRANCH  29  33
HETATM   33  C12 UNL     1     101.506  16.454  19.508  1.00  0.00     0.125 A 
HETATM   34  C13 UNL     1     100.325  15.904  20.001  1.00  0.00     0.051 A 
HETATM   35  C14 UNL     1     100.465  15.630  21.335  1.00  0.00     0.021 A 
HETATM   36  C15 UNL     1     101.743  16.014  21.668  1.00  0.00     0.090 A 
HETATM   37  N10 UNL     1     102.350  16.508  20.550  1.00  0.00    -0.351 N 
ATOM     38  H10 UNL     1     103.304  16.865  20.512  1.00  0.00     0.166 HD
ENDBRANCH  29  33
ENDBRANCH  26  27
ENDBRANCH  22  26
ENDBRANCH  19  22
ENDBRANCH  13  16
ENDBRANCH  10  12
TORSDOF 7
ENDMDL
MODEL 2
REMARK VINA RESULT: -8.646986801      3.952      8.757
REMARK  7 active torsions:
REMARK  status: ('A' for Active; 'I' for Inactive)
REMARK       I    between atoms: C2_5  and  N3_6 
REMARK       I    between atoms: C2_5  and  N5_10 
REMARK    1  A    between atoms: N5_10  and  N6_12 
REMARK       I    between atoms: N6_12  and  C4_14 
REMARK    2  A    between atoms: C4_14  and  C5_16 
REMARK    3  A    between atoms: C8_19  and  N7_20 
REMARK    4  A    between atoms: N7_20  and  N8_21 
REMARK    5  A    between atoms: N7_20  and  C9_24 
REMARK    6  A    between atoms: C9_24  and  C10_25 
REMARK    7  A    between atoms: N9_27  and  C12_28 
ROOT
HETATM    1  N1  UNL     1     104.134  20.741  13.096  1.00  0.00    -0.171 NA
HETATM    2  C1  UNL     1     104.853  19.831  12.990  1.00  0.00     0.196 C 
HETATM    3  N2  UNL     1     105.710  18.733  12.870  1.00  0.00    -0.124 N 
ATOM      4  H2  UNL     1     106.655  18.804  13.246  1.00  0.00     0.197 HD
HETATM    5  C2  UNL     1     105.350  17.638  12.303  1.00  0.00     0.715 C 
HETATM    6  N3  UNL     1     106.243  16.541  12.195  1.00  0.00    -0.124 N 
ATOM      7  H3  UNL     1     106.879  16.294  12.953  1.00  0.00     0.197 HD
HETATM    8  C3  UNL     1     106.211  15.814  10.997  1.00  0.00     0.196 C 
HETATM    9  N4  UNL     1     106.197  15.223  10.001  1.00  0.00    -0.171 NA
HETATM   10  N5  UNL     1     104.048  17.506  11.767  1.00  0.00    -0.128 N 
ATOM     11  H5  UNL     1     103.865  17.813  10.812  1.00  0.00     0.205 HD
ENDROOT
BRANCH  10  12
HETATM   12  N6  UNL     1     103.014  16.967  12.520  1.00  0.00    -0.251 N 
HETATM   13  C4  UNL     1     101.728  17.538  12.633  1.00  0.00     0.270 C 
HETATM   14  O1  UNL     1     101.441  18.605  12.032  1.00  0.00    -0.266 OA
ATOM     15  H6  UNL     1     103.195  16.100  13.026  1.00  0.00     0.191 HD
BRANCH  13  16
HETATM   16  C5  UNL     1     100.710  16.900  13.447  1.00  0.00     0.033 A 
HETATM   17  C6  UNL     1     100.827  15.551  13.729  1.00  0.00     0.019 A 
HETATM   18  C7  UNL     1      99.881  14.929  14.488  1.00  0.00     0.032 A 
HETATM   19  C8  UNL     1      98.818  15.656  14.965  1.00  0.00     0.050 A 
HETATM   20  C16 UNL     1      98.661  16.997  14.711  1.00  0.00     0.032 A 
HETATM   21  C17 UNL     1      99.636  17.624  13.931  1.00  0.00     0.019 A 
BRANCH  19  22
HETATM   22  N7  UNL     1      97.829  15.019  15.757  1.00  0.00    -0.293 N 
BRANCH  22  23
HETATM   23  N8  UNL     1      97.187  13.878  15.269  1.00  0.00    -0.342 N 
ATOM     24  H82 UNL     1      96.856  13.800  14.307  1.00  0.00     0.177 HD
ATOM     25  H81 UNL     1      97.038  13.082  15.889  1.00  0.00     0.177 HD
ENDBRANCH  22  23
BRANCH  22  26
HETATM   26  C9  UNL     1      97.529  15.590  17.047  1.00  0.00     0.208 C 
BRANCH  26  27
HETATM   27  C10 UNL     1      98.582  15.163  17.998  1.00  0.00     0.060 A 
HETATM   28  C11 UNL     1      98.965  15.910  19.093  1.00  0.00     0.144 A 
HETATM   29  N9  UNL     1      99.944  15.231  19.745  1.00  0.00    -0.233 N 
HETATM   30  N11 UNL     1     100.157  14.099  19.066  1.00  0.00    -0.014 NA
HETATM   31  N12 UNL     1      99.342  14.055  18.019  1.00  0.00    -0.285 N 
ATOM     32  H12 UNL     1      99.300  13.299  17.335  1.00  0.00     0.184 HD
BRANCH  29  33
HETATM   33  C12 UNL     1     100.588  15.685  20.924  1.00  0.00     0.125 A 
HETATM   34  C13 UNL     1     101.911  16.107  21.039  1.00  0.00     0.051 A 
HETATM   35  C14 UNL     1     102.169  16.470  22.333  1.00  0.00     0.021 A 
HETATM   36  C15 UNL     1     100.996  16.269  23.024  1.00  0.00     0.090 A 
HETATM   37  N10 UNL     1     100.060  15.796  22.152  1.00  0.00    -0.351 N 
ATOM     38  H10 UNL     1      99.098  15.561  22.399  1.00  0.00     0.166 HD
ENDBRANCH  29  33
ENDBRANCH  26  27
ENDBRANCH  22  26
ENDBRANCH  19  22
ENDBRANCH  13  16
ENDBRANCH  10  12
TORSDOF 7
ENDMDL
MODEL 3
REMARK VINA RESULT: -8.581764835      3.978      6.690
REMARK  7 active torsions:
REMARK  status: ('A' for Active; 'I' for Inactive)
REMARK       I    between atoms: C2_5  and  N3_6 
REMARK       I    between atoms: C2_5  and  N5_10 
REMARK    1  A    between atoms: N5_10  and  N6_12 
REMARK       I    between atoms: N6_12  and  C4_14 
REMARK    2  A    between atoms: C4_14  and  C5_16 
REMARK    3  A    between atoms: C8_19  and  N7_20 
REMARK    4  A    between atoms: N7_20  and  N8_21 
REMARK    5  A    between atoms: N7_20  and  C9_24 
REMARK    6  A    between atoms: C9_24  and  C10_25 
REMARK    7  A    between atoms: N9_27  and  C12_28 
ROOT
HETATM    1  N1  UNL     1      92.598  13.773  10.088  1.00  0.00    -0.171 NA
HETATM    2  C1  UNL     1      91.649  14.397  10.343  1.00  0.00     0.196 C 
HETATM    3  N2  UNL     1      90.508  15.141  10.659  1.00  0.00    -0.124 N 
ATOM      4  H2  UNL     1      89.643  14.953  10.153  1.00  0.00     0.197 HD
HETATM    5  C2  UNL     1      90.511  16.054  11.563  1.00  0.00     0.715 C 
HETATM    6  N3  UNL     1      89.337  16.793  11.861  1.00  0.00    -0.124 N 
ATOM      7  H3  UNL     1      88.419  16.351  11.881  1.00  0.00     0.197 HD
HETATM    8  C3  UNL     1      89.500  18.160  12.126  1.00  0.00     0.196 C 
HETATM    9  N4  UNL     1      89.633  19.292  12.329  1.00  0.00    -0.171 NA
HETATM   10  N5  UNL     1      91.695  16.344  12.281  1.00  0.00    -0.128 N 
ATOM     11  H5  UNL     1      92.360  17.017  11.901  1.00  0.00     0.205 HD
ENDROOT
BRANCH  10  12
HETATM   12  N6  UNL     1      91.966  15.727  13.495  1.00  0.00    -0.251 N 
HETATM   13  C4  UNL     1      93.156  15.023  13.783  1.00  0.00     0.270 C 
HETATM   14  O1  UNL     1      94.066  14.915  12.922  1.00  0.00    -0.266 OA
ATOM     15  H6  UNL     1      91.260  15.786  14.229  1.00  0.00     0.191 HD
BRANCH  13  16
HETATM   16  C5  UNL     1      93.348  14.409  15.083  1.00  0.00     0.033 A 
HETATM   17  C6  UNL     1      93.342  13.029  15.180  1.00  0.00     0.019 A 
HETATM   18  C7  UNL     1      93.517  12.429  16.391  1.00  0.00     0.032 A 
HETATM   19  C8  UNL     1      93.698  13.209  17.507  1.00  0.00     0.050 A 
HETATM   20  C16 UNL     1      93.711  14.583  17.458  1.00  0.00     0.032 A 
HETATM   21  C17 UNL     1      93.531  15.186  16.211  1.00  0.00     0.019 A 
BRANCH  19  22
HETATM   22  N7  UNL     1      93.881  12.596  18.772  1.00  0.00    -0.293 N 
BRANCH  22  23
HETATM   23  N8  UNL     1      93.235  13.125  19.893  1.00  0.00    -0.342 N 
ATOM     24  H82 UNL     1      93.398  14.075  20.227  1.00  0.00     0.177 HD
ATOM     25  H81 UNL     1      92.569  12.547  20.406  1.00  0.00     0.177 HD
ENDBRANCH  22  23
BRANCH  22  26
HETATM   26  C9  UNL     1      94.740  11.440  18.841  1.00  0.00     0.208 C 
BRANCH  26  27
HETATM   27  C10 UNL     1      96.101  11.894  19.214  1.00  0.00     0.060 A 
HETATM   28  C11 UNL     1      96.685  13.038  18.711  1.00  0.00     0.144 A 
HETATM   29  N9  UNL     1      97.922  13.155  19.258  1.00  0.00    -0.233 N 
HETATM   30  N11 UNL     1      98.092  12.109  20.073  1.00  0.00    -0.014 NA
HETATM   31  N12 UNL     1      97.002  11.351  20.049  1.00  0.00    -0.285 N 
ATOM     32  H12 UNL     1      96.870  10.491  20.581  1.00  0.00     0.184 HD
BRANCH  29  33
HETATM   33  C12 UNL     1      98.827  14.212  18.980  1.00  0.00     0.125 A 
HETATM   34  C13 UNL     1      99.516  14.981  19.914  1.00  0.00     0.051 A 
HETATM   35  C14 UNL     1     100.294  15.904  19.268  1.00  0.00     0.021 A 
HETATM   36  C15 UNL     1     100.082  15.703  17.923  1.00  0.00     0.090 A 
HETATM   37  N10 UNL     1      99.194  14.678  17.777  1.00  0.00    -0.351 N 
ATOM     38  H10 UNL     1      98.858  14.318  16.883  1.00  0.00     0.166 HD
ENDBRANCH  29  33
ENDBRANCH  26  27
ENDBRANCH  22  26
ENDBRANCH  19  22
ENDBRANCH  13  16
ENDBRANCH  10  12
TORSDOF 7
ENDMDL
MODEL 4
REMARK VINA RESULT: -8.492623914      3.440      9.202
REMARK  7 active torsions:
REMARK  status: ('A' for Active; 'I' for Inactive)
REMARK       I    between atoms: C2_5  and  N3_6 
REMARK       I    between atoms: C2_5  and  N5_10 
REMARK    1  A    between atoms: N5_10  and  N6_12 
REMARK       I    between atoms: N6_12  and  C4_14 
REMARK    2  A    between atoms: C4_14  and  C5_16 
REMARK    3  A    between atoms: C8_19  and  N7_20 
REMARK    4  A    between atoms: N7_20  and  N8_21 
REMARK    5  A    between atoms: N7_20  and  C9_24 
REMARK    6  A    between atoms: C9_24  and  C10_25 
REMARK    7  A    between atoms: N9_27  and  C12_28 
ROOT
HETATM    1  N1  UNL     1     106.256  15.601  12.614  1.00  0.00    -0.171 NA
HETATM    2  C1  UNL     1     105.376  16.154  12.090  1.00  0.00     0.196 C 
HETATM    3  N2  UNL     1     104.312  16.813  11.466  1.00  0.00    -0.124 N 
ATOM      4  H2  UNL     1     104.089  16.580  10.499  1.00  0.00     0.197 HD
HETATM    5  C2  UNL     1     103.606  17.702  12.068  1.00  0.00     0.715 C 
HETATM    6  N3  UNL     1     102.533  18.355  11.408  1.00  0.00    -0.124 N 
ATOM      7  H3  UNL     1     101.911  17.852  10.775  1.00  0.00     0.197 HD
HETATM    8  C3  UNL     1     102.369  19.722  11.667  1.00  0.00     0.196 C 
HETATM    9  N4  UNL     1     102.243  20.856  11.868  1.00  0.00    -0.171 NA
HETATM   10  N5  UNL     1     103.890  18.052  13.408  1.00  0.00    -0.128 N 
ATOM     11  H5  UNL     1     104.581  18.776  13.602  1.00  0.00     0.205 HD
ENDROOT
BRANCH  10  12
HETATM   12  N6  UNL     1     103.244  17.425  14.465  1.00  0.00    -0.251 N 
HETATM   13  C4  UNL     1     102.249  18.032  15.263  1.00  0.00     0.270 C 
HETATM   14  O1  UNL     1     101.883  19.215  15.049  1.00  0.00    -0.266 OA
ATOM     15  H6  UNL     1     103.504  16.462  14.680  1.00  0.00     0.191 HD
BRANCH  13  16
HETATM   16  C5  UNL     1     101.631  17.295  16.350  1.00  0.00     0.033 A 
HETATM   17  C6  UNL     1     100.357  16.785  16.173  1.00  0.00     0.019 A 
HETATM   18  C7  UNL     1      99.753  16.093  17.180  1.00  0.00     0.032 A 
HETATM   19  C8  UNL     1     100.423  15.912  18.366  1.00  0.00     0.050 A 
HETATM   20  C16 UNL     1     101.689  16.402  18.586  1.00  0.00     0.032 A 
HETATM   21  C17 UNL     1     102.297  17.109  17.547  1.00  0.00     0.019 A 
BRANCH  19  22
HETATM   22  N7  UNL     1      99.805  15.194  19.421  1.00  0.00    -0.293 N 
BRANCH  22  23
HETATM   23  N8  UNL     1      99.152  15.893  20.439  1.00  0.00    -0.342 N 
ATOM     24  H82 UNL     1      99.134  16.912  20.484  1.00  0.00     0.177 HD
ATOM     25  H81 UNL     1      98.669  15.375  21.174  1.00  0.00     0.177 HD
ENDBRANCH  22  23
BRANCH  22  26
HETATM   26  C9  UNL     1      99.883  13.754  19.390  1.00  0.00     0.208 C 
BRANCH  26  27
HETATM   27  C10 UNL     1      98.502  13.216  19.364  1.00  0.00     0.060 A 
HETATM   28  C11 UNL     1      97.526  13.667  18.502  1.00  0.00     0.144 A 
HETATM   29  N9  UNL     1      96.390  12.964  18.744  1.00  0.00    -0.233 N 
HETATM   30  N11 UNL     1      96.664  12.105  19.731  1.00  0.00    -0.014 NA
HETATM   31  N12 UNL     1      97.929  12.253  20.105  1.00  0.00    -0.285 N 
ATOM     32  H12 UNL     1      98.393  11.720  20.841  1.00  0.00     0.184 HD
BRANCH  29  33
HETATM   33  C12 UNL     1      95.167  13.147  18.049  1.00  0.00     0.125 A 
HETATM   34  C13 UNL     1      94.189  12.182  17.821  1.00  0.00     0.051 A 
HETATM   35  C14 UNL     1      93.153  12.732  17.115  1.00  0.00     0.021 A 
HETATM   36  C15 UNL     1      93.496  14.048  16.905  1.00  0.00     0.090 A 
HETATM   37  N10 UNL     1      94.714  14.272  17.478  1.00  0.00    -0.351 N 
ATOM     38  H10 UNL     1      95.207  15.165  17.472  1.00  0.00     0.166 HD
ENDBRANCH  29  33
ENDBRANCH  26  27
ENDBRANCH  22  26
ENDBRANCH  19  22
ENDBRANCH  13  16
ENDBRANCH  10  12
TORSDOF 7
ENDMDL
MODEL 5
REMARK VINA RESULT: -8.323893872      3.930      8.611
REMARK  7 active torsions:
REMARK  status: ('A' for Active; 'I' for Inactive)
REMARK       I    between atoms: C2_5  and  N3_6 
REMARK       I    between atoms: C2_5  and  N5_10 
REMARK    1  A    between atoms: N5_10  and  N6_12 
REMARK       I    between atoms: N6_12  and  C4_14 
REMARK    2  A    between atoms: C4_14  and  C5_16 
REMARK    3  A    between atoms: C8_19  and  N7_20 
REMARK    4  A    between atoms: N7_20  and  N8_21 
REMARK    5  A    between atoms: N7_20  and  C9_24 
REMARK    6  A    between atoms: C9_24  and  C10_25 
REMARK    7  A    between atoms: N9_27  and  C12_28 
ROOT
HETATM    1  N1  UNL     1     106.622  15.014  12.609  1.00  0.00    -0.171 NA
HETATM    2  C1  UNL     1     106.082  15.650  11.796  1.00  0.00     0.196 C 
HETATM    3  N2  UNL     1     105.425  16.409  10.824  1.00  0.00    -0.124 N 
ATOM      4  H2  UNL     1     105.595  16.200   9.840  1.00  0.00     0.197 HD
HETATM    5  C2  UNL     1     104.615  17.360  11.124  1.00  0.00     0.715 C 
HETATM    6  N3  UNL     1     103.963  18.113  10.113  1.00  0.00    -0.124 N 
ATOM      7  H3  UNL     1     103.611  17.674   9.263  1.00  0.00     0.197 HD
HETATM    8  C3  UNL     1     103.827  19.490  10.339  1.00  0.00     0.196 C 
HETATM    9  N4  UNL     1     103.729  20.630  10.518  1.00  0.00    -0.171 NA
HETATM   10  N5  UNL     1     104.359  17.679  12.478  1.00  0.00    -0.128 N 
ATOM     11  H5  UNL     1     104.972  18.334  12.963  1.00  0.00     0.205 HD
ENDROOT
BRANCH  10  12
HETATM   12  N6  UNL     1     103.288  17.115  13.157  1.00  0.00    -0.251 N 
HETATM   13  C4  UNL     1     101.971  17.624  13.131  1.00  0.00     0.270 C 
HETATM   14  O1  UNL     1     101.690  18.653  12.465  1.00  0.00    -0.266 OA
ATOM     15  H6  UNL     1     103.463  16.277  13.711  1.00  0.00     0.191 HD
BRANCH  13  16
HETATM   16  C5  UNL     1     100.915  16.965  13.877  1.00  0.00     0.033 A 
HETATM   17  C6  UNL     1     100.788  15.591  13.785  1.00  0.00     0.019 A 
HETATM   18  C7  UNL     1      99.802  14.949  14.473  1.00  0.00     0.032 A 
HETATM   19  C8  UNL     1      98.940  15.683  15.252  1.00  0.00     0.050 A 
HETATM   20  C16 UNL     1      99.029  17.049  15.373  1.00  0.00     0.032 A 
HETATM   21  C17 UNL     1     100.044  17.695  14.663  1.00  0.00     0.019 A 
BRANCH  19  22
HETATM   22  N7  UNL     1      97.910  15.026  15.972  1.00  0.00    -0.293 N 
BRANCH  22  23
HETATM   23  N8  UNL     1      97.270  13.922  15.404  1.00  0.00    -0.342 N 
ATOM     24  H82 UNL     1      97.587  13.486  14.538  1.00  0.00     0.177 HD
ATOM     25  H81 UNL     1      96.450  13.526  15.864  1.00  0.00     0.177 HD
ENDBRANCH  22  23
BRANCH  22  26
HETATM   26  C9  UNL     1      97.570  15.539  17.276  1.00  0.00     0.208 C 
BRANCH  26  27
HETATM   27  C10 UNL     1      98.634  15.136  18.226  1.00  0.00     0.060 A 
HETATM   28  C11 UNL     1      98.994  15.884  19.327  1.00  0.00     0.144 A 
HETATM   29  N9  UNL     1      99.992  15.230  19.974  1.00  0.00    -0.233 N 
HETATM   30  N11 UNL     1     100.238  14.110  19.287  1.00  0.00    -0.014 NA
HETATM   31  N12 UNL     1      99.426  14.050  18.238  1.00  0.00    -0.285 N 
ATOM     32  H12 UNL     1      99.406  13.299  17.549  1.00  0.00     0.184 HD
BRANCH  29  33
HETATM   33  C12 UNL     1     100.622  15.693  21.158  1.00  0.00     0.125 A 
HETATM   34  C13 UNL     1     101.928  16.161  21.275  1.00  0.00     0.051 A 
HETATM   35  C14 UNL     1     102.176  16.519  22.573  1.00  0.00     0.021 A 
HETATM   36  C15 UNL     1     101.012  16.268  23.263  1.00  0.00     0.090 A 
HETATM   37  N10 UNL     1     100.092  15.771  22.388  1.00  0.00    -0.351 N 
ATOM     38  H10 UNL     1      99.140  15.498  22.633  1.00  0.00     0.166 HD
ENDBRANCH  29  33
ENDBRANCH  26  27
ENDBRANCH  22  26
ENDBRANCH  19  22
ENDBRANCH  13  16
ENDBRANCH  10  12
TORSDOF 7
ENDMDL
