MODEL 1
REMARK VINA RESULT: -7.408813143      0.000      0.000
REMARK  10 active torsions:
REMARK  status: ('A' for Active; 'I' for Inactive)
REMARK    1  A    between atoms: C4_4  and  C5_5 
REMARK    2  A    between atoms: C6_6  and  C7_7 
REMARK    3  A    between atoms: C7_7  and  C9_9 
REMARK    4  A    between atoms: C9_9  and  N1_10 
REMARK       I    between atoms: N1_10  and  C10_12 
REMARK    5  A    between atoms: C10_12  and  C11_14 
REMARK    6  A    between atoms: C11_14  and  C12_15 
REMARK    7  A    between atoms: C12_15  and  C13_16 
REMARK    8  A    between atoms: C13_16  and  C14_17 
REMARK    9  A    between atoms: C14_17  and  C15_18 
REMARK   10  A    between atoms: C15_18  and  N2_19 
REMARK       I    between atoms: N2_19  and  C16_21 
ROOT
HETATM    1  C1  UNL     1     -14.404  40.758  41.396  1.00  0.00     0.027 C 
HETATM    2  C2  UNL     1     -13.888  40.863  40.312  1.00  0.00    -0.025 C 
HETATM    3  C3  UNL     1     -13.260  40.973  39.046  1.00  0.00    -0.002 C 
HETATM    4  C4  UNL     1     -12.708  41.072  37.976  1.00  0.00    -0.001 C 
ENDROOT
BRANCH   4   5
HETATM    5  C5  UNL     1     -12.031  41.189  36.722  1.00  0.00    -0.009 C 
HETATM    6  C6  UNL     1     -11.452  41.308  35.669  1.00  0.00    -0.056 C 
BRANCH   6   7
HETATM    7  C7  UNL     1     -10.761  41.475  34.429  1.00  0.00     0.004 C 
HETATM    8  C8  UNL     1     -10.550  42.695  33.975  1.00  0.00     0.030 C 
BRANCH   7   9
HETATM    9  C9  UNL     1     -10.280  40.326  33.632  1.00  0.00     0.169 C 
BRANCH   9  10
HETATM   10  N1  UNL     1     -10.832  39.066  34.015  1.00  0.00    -0.356 N 
HETATM   11  C10 UNL     1     -10.144  38.232  34.926  1.00  0.00     0.217 C 
HETATM   12  O1  UNL     1      -9.026  38.615  35.405  1.00  0.00    -0.274 OA
ATOM     13  H1  UNL     1     -11.727  38.766  33.629  1.00  0.00     0.162 HD
BRANCH  11  14
HETATM   14  C11 UNL     1     -10.691  36.900  35.357  1.00  0.00     0.103 C 
BRANCH  14  15
HETATM   15  C12 UNL     1     -11.970  37.100  36.109  1.00  0.00     0.009 C 
BRANCH  15  16
HETATM   16  C13 UNL     1     -11.863  37.225  37.574  1.00  0.00     0.002 C 
BRANCH  16  17
HETATM   17  C14 UNL     1     -12.858  36.496  38.401  1.00  0.00     0.020 C 
BRANCH  17  18
HETATM   18  C15 UNL     1     -13.319  37.305  39.620  1.00  0.00     0.122 C 
BRANCH  18  19
HETATM   19  N2  UNL     1     -12.436  36.971  40.717  1.00  0.00    -0.364 N 
HETATM   20  C16 UNL     1     -11.676  37.955  41.398  1.00  0.00     0.197 C 
HETATM   21  N3  UNL     1     -10.464  38.404  40.855  1.00  0.00    -0.063 NA
HETATM   22  N4  UNL     1     -12.113  38.417  42.504  1.00  0.00    -0.268 N 
HETATM   23  C17 UNL     1     -11.451  39.387  43.262  1.00  0.00     0.184 C 
ATOM     24  H4  UNL     1     -13.000  38.057  42.856  1.00  0.00     0.180 HD
HETATM   25  N5  UNL     1     -10.887  40.188  43.877  1.00  0.00    -0.172 NA
ATOM     26  H2  UNL     1     -12.358  35.997  41.010  1.00  0.00     0.162 HD
ENDBRANCH  18  19
ENDBRANCH  17  18
ENDBRANCH  16  17
ENDBRANCH  15  16
ENDBRANCH  14  15
ENDBRANCH  11  14
ENDBRANCH   9  10
ENDBRANCH   7   9
ENDBRANCH   6   7
ENDBRANCH   4   5
TORSDOF 10
ENDMDL
MODEL 2
REMARK VINA RESULT: -7.397483590      1.997      2.777
REMARK  10 active torsions:
REMARK  status: ('A' for Active; 'I' for Inactive)
REMARK    1  A    between atoms: C4_4  and  C5_5 
REMARK    2  A    between atoms: C6_6  and  C7_7 
REMARK    3  A    between atoms: C7_7  and  C9_9 
REMARK    4  A    between atoms: C9_9  and  N1_10 
REMARK       I    between atoms: N1_10  and  C10_12 
REMARK    5  A    between atoms: C10_12  and  C11_14 
REMARK    6  A    between atoms: C11_14  and  C12_15 
REMARK    7  A    between atoms: C12_15  and  C13_16 
REMARK    8  A    between atoms: C13_16  and  C14_17 
REMARK    9  A    between atoms: C14_17  and  C15_18 
REMARK   10  A    between atoms: C15_18  and  N2_19 
REMARK       I    between atoms: N2_19  and  C16_21 
ROOT
HETATM    1  C1  UNL     1     -12.233  44.560  37.613  1.00  0.00     0.027 C 
HETATM    2  C2  UNL     1     -11.967  43.715  36.796  1.00  0.00    -0.025 C 
HETATM    3  C3  UNL     1     -11.678  42.711  35.838  1.00  0.00    -0.002 C 
HETATM    4  C4  UNL     1     -11.438  41.841  35.035  1.00  0.00    -0.001 C 
ENDROOT
BRANCH   4   5
HETATM    5  C5  UNL     1     -11.168  40.795  34.099  1.00  0.00    -0.009 C 
HETATM    6  C6  UNL     1     -10.929  39.925  33.296  1.00  0.00    -0.056 C 
BRANCH   6   7
HETATM    7  C7  UNL     1     -10.636  38.914  32.328  1.00  0.00     0.004 C 
HETATM    8  C8  UNL     1     -10.204  39.278  31.136  1.00  0.00     0.030 C 
BRANCH   7   9
HETATM    9  C9  UNL     1     -10.808  37.474  32.614  1.00  0.00     0.169 C 
BRANCH   9  10
HETATM   10  N1  UNL     1     -10.522  37.098  33.962  1.00  0.00    -0.356 N 
HETATM   11  C10 UNL     1     -11.207  36.016  34.563  1.00  0.00     0.217 C 
HETATM   12  O1  UNL     1     -12.083  35.378  33.890  1.00  0.00    -0.274 OA
ATOM     13  H1  UNL     1      -9.821  37.613  34.495  1.00  0.00     0.162 HD
BRANCH  11  14
HETATM   14  C11 UNL     1     -10.936  35.587  35.977  1.00  0.00     0.103 C 
BRANCH  14  15
HETATM   15  C12 UNL     1     -11.353  36.673  36.920  1.00  0.00     0.009 C 
BRANCH  15  16
HETATM   16  C13 UNL     1     -12.797  36.797  37.188  1.00  0.00     0.002 C 
BRANCH  16  17
HETATM   17  C14 UNL     1     -13.292  36.357  38.518  1.00  0.00     0.020 C 
BRANCH  17  18
HETATM   18  C15 UNL     1     -13.313  37.495  39.545  1.00  0.00     0.122 C 
BRANCH  18  19
HETATM   19  N2  UNL     1     -12.501  37.076  40.669  1.00  0.00    -0.364 N 
HETATM   20  C16 UNL     1     -11.690  37.986  41.392  1.00  0.00     0.197 C 
HETATM   21  N3  UNL     1     -10.426  38.341  40.899  1.00  0.00    -0.063 NA
HETATM   22  N4  UNL     1     -12.129  38.468  42.488  1.00  0.00    -0.268 N 
HETATM   23  C17 UNL     1     -11.419  39.371  43.284  1.00  0.00     0.184 C 
ATOM     24  H4  UNL     1     -13.055  38.178  42.803  1.00  0.00     0.180 HD
HETATM   25  N5  UNL     1     -10.816  40.116  43.932  1.00  0.00    -0.172 NA
ATOM     26  H2  UNL     1     -12.513  36.095  40.949  1.00  0.00     0.162 HD
ENDBRANCH  18  19
ENDBRANCH  17  18
ENDBRANCH  16  17
ENDBRANCH  15  16
ENDBRANCH  14  15
ENDBRANCH  11  14
ENDBRANCH   9  10
ENDBRANCH   7   9
ENDBRANCH   6   7
ENDBRANCH   4   5
TORSDOF 10
ENDMDL
MODEL 3
REMARK VINA RESULT: -7.344222191      6.417      9.884
REMARK  10 active torsions:
REMARK  status: ('A' for Active; 'I' for Inactive)
REMARK    1  A    between atoms: C4_4  and  C5_5 
REMARK    2  A    between atoms: C6_6  and  C7_7 
REMARK    3  A    between atoms: C7_7  and  C9_9 
REMARK    4  A    between atoms: C9_9  and  N1_10 
REMARK       I    between atoms: N1_10  and  C10_12 
REMARK    5  A    between atoms: C10_12  and  C11_14 
REMARK    6  A    between atoms: C11_14  and  C12_15 
REMARK    7  A    between atoms: C12_15  and  C13_16 
REMARK    8  A    between atoms: C13_16  and  C14_17 
REMARK    9  A    between atoms: C14_17  and  C15_18 
REMARK   10  A    between atoms: C15_18  and  N2_19 
REMARK       I    between atoms: N2_19  and  C16_21 
ROOT
HETATM    1  C1  UNL     1     -11.045  35.713  34.152  1.00  0.00     0.027 C 
HETATM    2  C2  UNL     1     -11.146  36.164  35.265  1.00  0.00    -0.025 C 
HETATM    3  C3  UNL     1     -11.290  36.686  36.575  1.00  0.00    -0.002 C 
HETATM    4  C4  UNL     1     -11.430  37.138  37.687  1.00  0.00    -0.001 C 
ENDROOT
BRANCH   4   5
HETATM    5  C5  UNL     1     -11.622  37.679  38.996  1.00  0.00    -0.009 C 
HETATM    6  C6  UNL     1     -11.800  38.121  40.105  1.00  0.00    -0.056 C 
BRANCH   6   7
HETATM    7  C7  UNL     1     -12.033  38.631  41.421  1.00  0.00     0.004 C 
HETATM    8  C8  UNL     1     -11.179  38.336  42.381  1.00  0.00     0.030 C 
BRANCH   7   9
HETATM    9  C9  UNL     1     -13.205  39.473  41.744  1.00  0.00     0.169 C 
BRANCH   9  10
HETATM   10  N1  UNL     1     -13.281  39.884  43.110  1.00  0.00    -0.356 N 
HETATM   11  C10 UNL     1     -12.972  41.215  43.474  1.00  0.00     0.217 C 
HETATM   12  O1  UNL     1     -12.623  42.047  42.572  1.00  0.00    -0.274 OA
ATOM     13  H1  UNL     1     -13.560  39.214  43.827  1.00  0.00     0.162 HD
BRANCH  11  14
HETATM   14  C11 UNL     1     -13.041  41.688  44.899  1.00  0.00     0.103 C 
BRANCH  14  15
HETATM   15  C12 UNL     1     -13.694  43.035  44.950  1.00  0.00     0.009 C 
BRANCH  15  16
HETATM   16  C13 UNL     1     -14.207  43.471  46.261  1.00  0.00     0.002 C 
BRANCH  16  17
HETATM   17  C14 UNL     1     -15.625  43.907  46.335  1.00  0.00     0.020 C 
BRANCH  17  18
HETATM   18  C15 UNL     1     -16.059  44.263  47.762  1.00  0.00     0.122 C 
BRANCH  18  19
HETATM   19  N2  UNL     1     -17.077  45.287  47.660  1.00  0.00    -0.364 N 
HETATM   20  C16 UNL     1     -18.278  45.232  48.410  1.00  0.00     0.197 C 
HETATM   21  N3  UNL     1     -19.347  44.441  47.964  1.00  0.00    -0.063 NA
HETATM   22  N4  UNL     1     -18.366  45.909  49.488  1.00  0.00    -0.268 N 
HETATM   23  C17 UNL     1     -19.498  45.932  50.307  1.00  0.00     0.184 C 
ATOM     24  H4  UNL     1     -17.560  46.468  49.769  1.00  0.00     0.180 HD
HETATM   25  N5  UNL     1     -20.445  45.942  50.971  1.00  0.00    -0.172 NA
ATOM     26  H2  UNL     1     -16.925  46.073  47.029  1.00  0.00     0.162 HD
ENDBRANCH  18  19
ENDBRANCH  17  18
ENDBRANCH  16  17
ENDBRANCH  15  16
ENDBRANCH  14  15
ENDBRANCH  11  14
ENDBRANCH   9  10
ENDBRANCH   7   9
ENDBRANCH   6   7
ENDBRANCH   4   5
TORSDOF 10
ENDMDL
MODEL 4
REMARK VINA RESULT: -7.299935355      4.985      8.457
REMARK  10 active torsions:
REMARK  status: ('A' for Active; 'I' for Inactive)
REMARK    1  A    between atoms: C4_4  and  C5_5 
REMARK    2  A    between atoms: C6_6  and  C7_7 
REMARK    3  A    between atoms: C7_7  and  C9_9 
REMARK    4  A    between atoms: C9_9  and  N1_10 
REMARK       I    between atoms: N1_10  and  C10_12 
REMARK    5  A    between atoms: C10_12  and  C11_14 
REMARK    6  A    between atoms: C11_14  and  C12_15 
REMARK    7  A    between atoms: C12_15  and  C13_16 
REMARK    8  A    between atoms: C13_16  and  C14_17 
REMARK    9  A    between atoms: C14_17  and  C15_18 
REMARK   10  A    between atoms: C15_18  and  N2_19 
REMARK       I    between atoms: N2_19  and  C16_21 
ROOT
HETATM    1  C1  UNL     1     -10.874  44.260  34.465  1.00  0.00     0.027 C 
HETATM    2  C2  UNL     1     -11.357  43.635  35.375  1.00  0.00    -0.025 C 
HETATM    3  C3  UNL     1     -11.916  42.918  36.462  1.00  0.00    -0.002 C 
HETATM    4  C4  UNL     1     -12.376  42.309  37.400  1.00  0.00    -0.001 C 
ENDROOT
BRANCH   4   5
HETATM    5  C5  UNL     1     -12.899  41.597  38.523  1.00  0.00    -0.009 C 
HETATM    6  C6  UNL     1     -13.321  40.994  39.481  1.00  0.00    -0.056 C 
BRANCH   6   7
HETATM    7  C7  UNL     1     -13.795  40.274  40.621  1.00  0.00     0.004 C 
HETATM    8  C8  UNL     1     -15.033  40.471  41.031  1.00  0.00     0.030 C 
BRANCH   7   9
HETATM    9  C9  UNL     1     -12.943  39.320  41.363  1.00  0.00     0.169 C 
BRANCH   9  10
HETATM   10  N1  UNL     1     -13.201  39.260  42.767  1.00  0.00    -0.356 N 
HETATM   11  C10 UNL     1     -12.189  39.597  43.694  1.00  0.00     0.217 C 
HETATM   12  O1  UNL     1     -11.042  39.954  43.268  1.00  0.00    -0.274 OA
ATOM     13  H1  UNL     1     -14.121  38.973  43.101  1.00  0.00     0.162 HD
BRANCH  11  14
HETATM   14  C11 UNL     1     -12.420  39.549  45.178  1.00  0.00     0.103 C 
BRANCH  14  15
HETATM   15  C12 UNL     1     -13.325  40.672  45.583  1.00  0.00     0.009 C 
BRANCH  15  16
HETATM   16  C13 UNL     1     -12.960  42.019  45.109  1.00  0.00     0.002 C 
BRANCH  16  17
HETATM   17  C14 UNL     1     -13.153  43.155  46.046  1.00  0.00     0.020 C 
BRANCH  17  18
HETATM   18  C15 UNL     1     -14.479  43.890  45.817  1.00  0.00     0.122 C 
BRANCH  18  19
HETATM   19  N2  UNL     1     -15.131  44.015  47.104  1.00  0.00    -0.364 N 
HETATM   20  C16 UNL     1     -16.523  44.248  47.222  1.00  0.00     0.197 C 
HETATM   21  N3  UNL     1     -17.029  45.550  47.091  1.00  0.00    -0.063 NA
HETATM   22  N4  UNL     1     -17.298  43.261  47.448  1.00  0.00    -0.268 N 
HETATM   23  C17 UNL     1     -18.685  43.371  47.584  1.00  0.00     0.184 C 
ATOM     24  H4  UNL     1     -16.881  42.334  47.535  1.00  0.00     0.180 HD
HETATM   25  N5  UNL     1     -19.831  43.481  47.697  1.00  0.00    -0.172 NA
ATOM     26  H2  UNL     1     -14.570  43.932  47.952  1.00  0.00     0.162 HD
ENDBRANCH  18  19
ENDBRANCH  17  18
ENDBRANCH  16  17
ENDBRANCH  15  16
ENDBRANCH  14  15
ENDBRANCH  11  14
ENDBRANCH   9  10
ENDBRANCH   7   9
ENDBRANCH   6   7
ENDBRANCH   4   5
TORSDOF 10
ENDMDL
MODEL 5
REMARK VINA RESULT: -7.223530933      4.553      7.786
REMARK  10 active torsions:
REMARK  status: ('A' for Active; 'I' for Inactive)
REMARK    1  A    between atoms: C4_4  and  C5_5 
REMARK    2  A    between atoms: C6_6  and  C7_7 
REMARK    3  A    between atoms: C7_7  and  C9_9 
REMARK    4  A    between atoms: C9_9  and  N1_10 
REMARK       I    between atoms: N1_10  and  C10_12 
REMARK    5  A    between atoms: C10_12  and  C11_14 
REMARK    6  A    between atoms: C11_14  and  C12_15 
REMARK    7  A    between atoms: C12_15  and  C13_16 
REMARK    8  A    between atoms: C13_16  and  C14_17 
REMARK    9  A    between atoms: C14_17  and  C15_18 
REMARK   10  A    between atoms: C15_18  and  N2_19 
REMARK       I    between atoms: N2_19  and  C16_21 
ROOT
HETATM    1  C1  UNL     1     -11.376  44.316  35.280  1.00  0.00     0.027 C 
HETATM    2  C2  UNL     1     -11.677  43.339  35.920  1.00  0.00    -0.025 C 
HETATM    3  C3  UNL     1     -12.013  42.177  36.658  1.00  0.00    -0.002 C 
HETATM    4  C4  UNL     1     -12.302  41.176  37.270  1.00  0.00    -0.001 C 
ENDROOT
BRANCH   4   5
HETATM    5  C5  UNL     1     -12.640  39.977  37.971  1.00  0.00    -0.009 C 
HETATM    6  C6  UNL     1     -12.940  38.959  38.547  1.00  0.00    -0.056 C 
BRANCH   6   7
HETATM    7  C7  UNL     1     -13.314  37.750  39.212  1.00  0.00     0.004 C 
HETATM    8  C8  UNL     1     -13.862  36.778  38.508  1.00  0.00     0.030 C 
BRANCH   7   9
HETATM    9  C9  UNL     1     -13.116  37.552  40.664  1.00  0.00     0.169 C 
BRANCH   9  10
HETATM   10  N1  UNL     1     -13.583  38.629  41.478  1.00  0.00    -0.356 N 
HETATM   11  C10 UNL     1     -12.670  39.403  42.231  1.00  0.00     0.217 C 
HETATM   12  O1  UNL     1     -11.425  39.132  42.178  1.00  0.00    -0.274 OA
ATOM     13  H1  UNL     1     -14.580  38.840  41.517  1.00  0.00     0.162 HD
BRANCH  11  14
HETATM   14  C11 UNL     1     -13.120  40.544  43.099  1.00  0.00     0.103 C 
BRANCH  14  15
HETATM   15  C12 UNL     1     -12.340  40.541  44.378  1.00  0.00     0.009 C 
BRANCH  15  16
HETATM   16  C13 UNL     1     -12.676  41.589  45.359  1.00  0.00     0.002 C 
BRANCH  16  17
HETATM   17  C14 UNL     1     -13.452  42.760  44.878  1.00  0.00     0.020 C 
BRANCH  17  18
HETATM   18  C15 UNL     1     -13.745  43.773  45.991  1.00  0.00     0.122 C 
BRANCH  18  19
HETATM   19  N2  UNL     1     -14.897  43.289  46.722  1.00  0.00    -0.364 N 
HETATM   20  C16 UNL     1     -16.150  43.949  46.675  1.00  0.00     0.197 C 
HETATM   21  N3  UNL     1     -16.384  45.067  47.488  1.00  0.00    -0.063 NA
HETATM   22  N4  UNL     1     -17.050  43.509  45.885  1.00  0.00    -0.268 N 
HETATM   23  C17 UNL     1     -18.321  44.078  45.755  1.00  0.00     0.184 C 
ATOM     24  H4  UNL     1     -16.830  42.693  45.314  1.00  0.00     0.180 HD
HETATM   25  N5  UNL     1     -19.368  44.559  45.662  1.00  0.00    -0.172 NA
ATOM     26  H2  UNL     1     -14.804  42.446  47.289  1.00  0.00     0.162 HD
ENDBRANCH  18  19
ENDBRANCH  17  18
ENDBRANCH  16  17
ENDBRANCH  15  16
ENDBRANCH  14  15
ENDBRANCH  11  14
ENDBRANCH   9  10
ENDBRANCH   7   9
ENDBRANCH   6   7
ENDBRANCH   4   5
TORSDOF 10
ENDMDL
