MODEL 1
REMARK VINA RESULT: -6.084859134      0.000      0.000
REMARK  10 active torsions:
REMARK  status: ('A' for Active; 'I' for Inactive)
REMARK    1  A    between atoms: N1_1  and  C1_5 
REMARK    2  A    between atoms: C1_5  and  C2_6 
REMARK    3  A    between atoms: C2_6  and  C3_7 
REMARK    4  A    between atoms: C3_7  and  C4_8 
REMARK    5  A    between atoms: C4_8  and  N2_9 
REMARK    6  A    between atoms: C7_16  and  C8_17 
REMARK    7  A    between atoms: C8_17  and  C9_18 
REMARK    8  A    between atoms: C9_18  and  C10_19 
REMARK    9  A    between atoms: C10_19  and  N4_20 
REMARK   10  A    between atoms: N4_20  and  C11_22 
ROOT
HETATM    1  N2  UNL     1     -11.229  38.813  34.186  1.00  0.00    -0.344 N 
HETATM    2  C5  UNL     1     -10.793  38.117  33.029  1.00  0.00     0.177 A 
HETATM    3  S1  UNL     1     -10.563  38.765  31.543  1.00  0.00    -0.041 SA
HETATM    4  N3  UNL     1     -10.575  36.747  33.327  1.00  0.00    -0.302 N 
ATOM      5  H3  UNL     1     -10.260  36.026  32.679  1.00  0.00     0.171 HD
HETATM    6  C6  UNL     1     -10.880  36.576  34.700  1.00  0.00     0.246 A 
HETATM    7  O1  UNL     1     -10.873  35.468  35.353  1.00  0.00    -0.271 OA
HETATM    8  C7  UNL     1     -11.207  37.879  35.261  1.00  0.00     0.179 A 
ENDROOT
BRANCH   1   9
HETATM    9  C4  UNL     1     -11.599  40.215  34.179  1.00  0.00     0.126 C 
BRANCH   9  10
HETATM   10  C3  UNL     1     -10.409  41.081  34.617  1.00  0.00     0.022 C 
BRANCH  10  11
HETATM   11  C2  UNL     1     -10.465  42.443  34.011  1.00  0.00     0.029 C 
BRANCH  11  12
HETATM   12  C1  UNL     1     -11.338  42.333  32.759  1.00  0.00     0.229 C 
BRANCH  12  13
HETATM   13  N1  UNL     1     -10.577  42.653  31.570  1.00  0.00    -0.079 N 
ATOM     14  H13 UNL     1     -11.086  42.408  30.720  1.00  0.00     0.274 HD
ATOM     15  H12 UNL     1     -10.510  43.660  31.425  1.00  0.00     0.274 HD
ATOM     16  H11 UNL     1      -9.657  42.213  31.598  1.00  0.00     0.274 HD
ENDBRANCH  12  13
ENDBRANCH  11  12
ENDBRANCH  10  11
ENDBRANCH   9  10
ENDBRANCH   1   9
BRANCH   8  17
HETATM   17  C8  UNL     1     -12.331  37.955  36.213  1.00  0.00     0.037 C 
BRANCH  17  18
HETATM   18  C9  UNL     1     -12.071  38.177  37.644  1.00  0.00     0.022 C 
BRANCH  18  19
HETATM   19  C10 UNL     1     -11.711  36.980  38.470  1.00  0.00     0.121 C 
BRANCH  19  20
HETATM   20  N4  UNL     1     -12.109  37.084  39.859  1.00  0.00    -0.369 N 
ATOM     21  H4  UNL     1     -12.714  36.349  40.226  1.00  0.00     0.161 HD
BRANCH  20  22
HETATM   22  C11 UNL     1     -11.733  38.111  40.750  1.00  0.00     0.180 C 
HETATM   23  N5  UNL     1     -10.376  38.359  41.088  1.00  0.00    -0.070 NA
HETATM   24  S2  UNL     1     -12.858  39.072  41.411  1.00  0.00    -0.044 SA
ENDBRANCH  20  22
ENDBRANCH  19  20
ENDBRANCH  18  19
ENDBRANCH  17  18
ENDBRANCH   8  17
TORSDOF 10
ENDMDL
MODEL 2
REMARK VINA RESULT: -6.046465532      3.303      4.398
REMARK  10 active torsions:
REMARK  status: ('A' for Active; 'I' for Inactive)
REMARK    1  A    between atoms: N1_1  and  C1_5 
REMARK    2  A    between atoms: C1_5  and  C2_6 
REMARK    3  A    between atoms: C2_6  and  C3_7 
REMARK    4  A    between atoms: C3_7  and  C4_8 
REMARK    5  A    between atoms: C4_8  and  N2_9 
REMARK    6  A    between atoms: C7_16  and  C8_17 
REMARK    7  A    between atoms: C8_17  and  C9_18 
REMARK    8  A    between atoms: C9_18  and  C10_19 
REMARK    9  A    between atoms: C10_19  and  N4_20 
REMARK   10  A    between atoms: N4_20  and  C11_22 
ROOT
HETATM    1  N2  UNL     1     -11.969  38.542  37.551  1.00  0.00    -0.344 N 
HETATM    2  C5  UNL     1     -11.617  37.203  37.862  1.00  0.00     0.177 A 
HETATM    3  S1  UNL     1     -11.476  35.970  36.795  1.00  0.00    -0.041 SA
HETATM    4  N3  UNL     1     -11.396  37.060  39.256  1.00  0.00    -0.302 N 
ATOM      5  H3  UNL     1     -11.132  36.205  39.746  1.00  0.00     0.171 HD
HETATM    6  C6  UNL     1     -11.614  38.334  39.836  1.00  0.00     0.246 A 
HETATM    7  O1  UNL     1     -11.577  38.620  41.090  1.00  0.00    -0.271 OA
HETATM    8  C7  UNL     1     -11.888  39.282  38.766  1.00  0.00     0.179 A 
ENDROOT
BRANCH   1   9
HETATM    9  C4  UNL     1     -12.322  38.982  36.216  1.00  0.00     0.126 C 
BRANCH   9  10
HETATM   10  C3  UNL     1     -11.238  39.917  35.660  1.00  0.00     0.022 C 
BRANCH  10  11
HETATM   11  C2  UNL     1     -10.062  39.156  35.147  1.00  0.00     0.029 C 
BRANCH  11  12
HETATM   12  C1  UNL     1      -9.496  39.956  33.972  1.00  0.00     0.229 C 
BRANCH  12  13
HETATM   13  N1  UNL     1      -8.319  39.314  33.429  1.00  0.00    -0.079 N 
ATOM     14  H13 UNL     1      -7.705  38.967  34.166  1.00  0.00     0.274 HD
ATOM     15  H12 UNL     1      -8.545  38.424  32.985  1.00  0.00     0.274 HD
ATOM     16  H11 UNL     1      -7.825  39.938  32.791  1.00  0.00     0.274 HD
ENDBRANCH  12  13
ENDBRANCH  11  12
ENDBRANCH  10  11
ENDBRANCH   9  10
ENDBRANCH   1   9
BRANCH   8  17
HETATM   17  C8  UNL     1     -12.947  40.283  38.990  1.00  0.00     0.037 C 
BRANCH  17  18
HETATM   18  C9  UNL     1     -14.296  39.852  39.388  1.00  0.00     0.022 C 
BRANCH  18  19
HETATM   19  C10 UNL     1     -14.868  40.451  40.636  1.00  0.00     0.121 C 
BRANCH  19  20
HETATM   20  N4  UNL     1     -14.060  40.227  41.818  1.00  0.00    -0.369 N 
ATOM     21  H4  UNL     1     -14.013  39.273  42.175  1.00  0.00     0.161 HD
BRANCH  20  22
HETATM   22  C11 UNL     1     -13.332  41.211  42.519  1.00  0.00     0.180 C 
HETATM   23  N5  UNL     1     -12.976  42.452  41.927  1.00  0.00    -0.070 NA
HETATM   24  S2  UNL     1     -12.891  40.961  44.058  1.00  0.00    -0.044 SA
ENDBRANCH  20  22
ENDBRANCH  19  20
ENDBRANCH  18  19
ENDBRANCH  17  18
ENDBRANCH   8  17
TORSDOF 10
ENDMDL
MODEL 3
REMARK VINA RESULT: -6.035605307      2.750      6.924
REMARK  10 active torsions:
REMARK  status: ('A' for Active; 'I' for Inactive)
REMARK    1  A    between atoms: N1_1  and  C1_5 
REMARK    2  A    between atoms: C1_5  and  C2_6 
REMARK    3  A    between atoms: C2_6  and  C3_7 
REMARK    4  A    between atoms: C3_7  and  C4_8 
REMARK    5  A    between atoms: C4_8  and  N2_9 
REMARK    6  A    between atoms: C7_16  and  C8_17 
REMARK    7  A    between atoms: C8_17  and  C9_18 
REMARK    8  A    between atoms: C9_18  and  C10_19 
REMARK    9  A    between atoms: C10_19  and  N4_20 
REMARK   10  A    between atoms: N4_20  and  C11_22 
ROOT
HETATM    1  N2  UNL     1     -13.332  38.300  38.998  1.00  0.00    -0.344 N 
HETATM    2  C5  UNL     1     -14.221  39.405  38.957  1.00  0.00     0.177 A 
HETATM    3  S1  UNL     1     -14.951  40.104  40.244  1.00  0.00    -0.041 SA
HETATM    4  N3  UNL     1     -14.404  39.842  37.620  1.00  0.00    -0.302 N 
ATOM      5  H3  UNL     1     -14.990  40.617  37.308  1.00  0.00     0.171 HD
HETATM    6  C6  UNL     1     -13.616  38.996  36.802  1.00  0.00     0.246 A 
HETATM    7  O1  UNL     1     -13.552  39.016  35.517  1.00  0.00    -0.271 OA
HETATM    8  C7  UNL     1     -12.878  38.085  37.666  1.00  0.00     0.179 A 
ENDROOT
BRANCH   1   9
HETATM    9  C4  UNL     1     -13.002  37.590  40.219  1.00  0.00     0.126 C 
BRANCH   9  10
HETATM   10  C3  UNL     1     -11.638  38.051  40.751  1.00  0.00     0.022 C 
BRANCH  10  11
HETATM   11  C2  UNL     1     -11.776  38.863  41.995  1.00  0.00     0.029 C 
BRANCH  11  12
HETATM   12  C1  UNL     1     -10.640  38.440  42.927  1.00  0.00     0.229 C 
BRANCH  12  13
HETATM   13  N1  UNL     1     -10.517  36.999  42.970  1.00  0.00    -0.079 N 
ATOM     14  H13 UNL     1     -11.254  36.542  42.432  1.00  0.00     0.274 HD
ATOM     15  H12 UNL     1      -9.712  36.673  42.435  1.00  0.00     0.274 HD
ATOM     16  H11 UNL     1     -10.491  36.664  43.933  1.00  0.00     0.274 HD
ENDBRANCH  12  13
ENDBRANCH  11  12
ENDBRANCH  10  11
ENDBRANCH   9  10
ENDBRANCH   1   9
BRANCH   8  17
HETATM   17  C8  UNL     1     -12.757  36.679  37.237  1.00  0.00     0.037 C 
BRANCH  17  18
HETATM   18  C9  UNL     1     -11.429  36.093  36.999  1.00  0.00     0.022 C 
BRANCH  18  19
HETATM   19  C10 UNL     1     -10.987  35.950  35.575  1.00  0.00     0.121 C 
BRANCH  19  20
HETATM   20  N4  UNL     1     -11.214  37.132  34.768  1.00  0.00    -0.369 N 
ATOM     21  H4  UNL     1     -12.143  37.247  34.363  1.00  0.00     0.161 HD
BRANCH  20  22
HETATM   22  C11 UNL     1     -10.265  38.138  34.493  1.00  0.00     0.180 C 
HETATM   23  N5  UNL     1      -9.315  38.564  35.459  1.00  0.00    -0.070 NA
HETATM   24  S2  UNL     1     -10.212  38.835  33.031  1.00  0.00    -0.044 SA
ENDBRANCH  20  22
ENDBRANCH  19  20
ENDBRANCH  18  19
ENDBRANCH  17  18
ENDBRANCH   8  17
TORSDOF 10
ENDMDL
MODEL 4
REMARK VINA RESULT: -5.979699529      2.838      3.649
REMARK  10 active torsions:
REMARK  status: ('A' for Active; 'I' for Inactive)
REMARK    1  A    between atoms: N1_1  and  C1_5 
REMARK    2  A    between atoms: C1_5  and  C2_6 
REMARK    3  A    between atoms: C2_6  and  C3_7 
REMARK    4  A    between atoms: C3_7  and  C4_8 
REMARK    5  A    between atoms: C4_8  and  N2_9 
REMARK    6  A    between atoms: C7_16  and  C8_17 
REMARK    7  A    between atoms: C8_17  and  C9_18 
REMARK    8  A    between atoms: C9_18  and  C10_19 
REMARK    9  A    between atoms: C10_19  and  N4_20 
REMARK   10  A    between atoms: N4_20  and  C11_22 
ROOT
HETATM    1  N2  UNL     1     -11.453  37.845  37.257  1.00  0.00    -0.344 N 
HETATM    2  C5  UNL     1     -11.561  36.477  36.896  1.00  0.00     0.177 A 
HETATM    3  S1  UNL     1     -10.878  35.767  35.590  1.00  0.00    -0.041 SA
HETATM    4  N3  UNL     1     -12.360  35.778  37.838  1.00  0.00    -0.302 N 
ATOM      5  H3  UNL     1     -12.598  34.787  37.818  1.00  0.00     0.171 HD
HETATM    6  C6  UNL     1     -12.765  36.725  38.811  1.00  0.00     0.246 A 
HETATM    7  O1  UNL     1     -13.553  36.512  39.805  1.00  0.00    -0.271 OA
HETATM    8  C7  UNL     1     -12.131  37.999  38.500  1.00  0.00     0.179 A 
ENDROOT
BRANCH   1   9
HETATM    9  C4  UNL     1     -10.756  38.827  36.450  1.00  0.00     0.126 C 
BRANCH   9  10
HETATM   10  C3  UNL     1     -11.593  39.192  35.215  1.00  0.00     0.022 C 
BRANCH  10  11
HETATM   11  C2  UNL     1     -10.760  39.236  33.977  1.00  0.00     0.029 C 
BRANCH  11  12
HETATM   12  C1  UNL     1      -9.312  39.003  34.411  1.00  0.00     0.229 C 
BRANCH  12  13
HETATM   13  N1  UNL     1      -8.396  39.298  33.330  1.00  0.00    -0.079 N 
ATOM     14  H13 UNL     1      -8.221  38.478  32.749  1.00  0.00     0.274 HD
ATOM     15  H12 UNL     1      -8.824  39.898  32.625  1.00  0.00     0.274 HD
ATOM     16  H11 UNL     1      -7.528  39.698  33.687  1.00  0.00     0.274 HD
ENDBRANCH  12  13
ENDBRANCH  11  12
ENDBRANCH  10  11
ENDBRANCH   9  10
ENDBRANCH   1   9
BRANCH   8  17
HETATM   17  C8  UNL     1     -12.938  39.223  38.654  1.00  0.00     0.037 C 
BRANCH  17  18
HETATM   18  C9  UNL     1     -12.791  40.055  39.858  1.00  0.00     0.022 C 
BRANCH  18  19
HETATM   19  C10 UNL     1     -13.566  39.647  41.073  1.00  0.00     0.121 C 
BRANCH  19  20
HETATM   20  N4  UNL     1     -12.885  38.674  41.905  1.00  0.00    -0.369 N 
ATOM     21  H4  UNL     1     -13.382  37.807  42.107  1.00  0.00     0.161 HD
BRANCH  20  22
HETATM   22  C11 UNL     1     -11.597  38.821  42.459  1.00  0.00     0.180 C 
HETATM   23  N5  UNL     1     -10.427  38.406  41.770  1.00  0.00    -0.070 NA
HETATM   24  S2  UNL     1     -11.407  39.501  43.917  1.00  0.00    -0.044 SA
ENDBRANCH  20  22
ENDBRANCH  19  20
ENDBRANCH  18  19
ENDBRANCH  17  18
ENDBRANCH   8  17
TORSDOF 10
ENDMDL
MODEL 5
REMARK VINA RESULT: -5.955089528      2.009      2.753
REMARK  10 active torsions:
REMARK  status: ('A' for Active; 'I' for Inactive)
REMARK    1  A    between atoms: N1_1  and  C1_5 
REMARK    2  A    between atoms: C1_5  and  C2_6 
REMARK    3  A    between atoms: C2_6  and  C3_7 
REMARK    4  A    between atoms: C3_7  and  C4_8 
REMARK    5  A    between atoms: C4_8  and  N2_9 
REMARK    6  A    between atoms: C7_16  and  C8_17 
REMARK    7  A    between atoms: C8_17  and  C9_18 
REMARK    8  A    between atoms: C9_18  and  C10_19 
REMARK    9  A    between atoms: C10_19  and  N4_20 
REMARK   10  A    between atoms: N4_20  and  C11_22 
ROOT
HETATM    1  N2  UNL     1     -11.833  38.438  35.172  1.00  0.00    -0.344 N 
HETATM    2  C5  UNL     1     -11.214  38.201  33.918  1.00  0.00     0.177 A 
HETATM    3  S1  UNL     1     -11.152  39.248  32.661  1.00  0.00    -0.041 SA
HETATM    4  N3  UNL     1     -10.639  36.905  33.886  1.00  0.00    -0.302 N 
ATOM      5  H3  UNL     1     -10.135  36.482  33.107  1.00  0.00     0.171 HD
HETATM    6  C6  UNL     1     -10.901  36.312  35.146  1.00  0.00     0.246 A 
HETATM    7  O1  UNL     1     -10.603  35.113  35.504  1.00  0.00    -0.271 OA
HETATM    8  C7  UNL     1     -11.572  37.297  35.983  1.00  0.00     0.179 A 
ENDROOT
BRANCH   1   9
HETATM    9  C4  UNL     1     -12.566  39.650  35.482  1.00  0.00     0.126 C 
BRANCH   9  10
HETATM   10  C3  UNL     1     -11.660  40.647  36.219  1.00  0.00     0.022 C 
BRANCH  10  11
HETATM   11  C2  UNL     1     -12.443  41.542  37.120  1.00  0.00     0.029 C 
BRANCH  11  12
HETATM   12  C1  UNL     1     -12.789  40.723  38.364  1.00  0.00     0.229 C 
BRANCH  12  13
HETATM   13  N1  UNL     1     -13.041  41.588  39.498  1.00  0.00    -0.079 N 
ATOM     14  H13 UNL     1     -12.234  42.176  39.709  1.00  0.00     0.274 HD
ATOM     15  H12 UNL     1     -13.712  42.321  39.271  1.00  0.00     0.274 HD
ATOM     16  H11 UNL     1     -13.334  41.046  40.310  1.00  0.00     0.274 HD
ENDBRANCH  12  13
ENDBRANCH  11  12
ENDBRANCH  10  11
ENDBRANCH   9  10
ENDBRANCH   1   9
BRANCH   8  17
HETATM   17  C8  UNL     1     -12.685  36.832  36.832  1.00  0.00     0.037 C 
BRANCH  17  18
HETATM   18  C9  UNL     1     -12.429  36.419  38.221  1.00  0.00     0.022 C 
BRANCH  18  19
HETATM   19  C10 UNL     1     -13.242  37.078  39.293  1.00  0.00     0.121 C 
BRANCH  19  20
HETATM   20  N4  UNL     1     -12.611  37.069  40.597  1.00  0.00    -0.369 N 
ATOM     21  H4  UNL     1     -12.716  36.223  41.159  1.00  0.00     0.161 HD
BRANCH  20  22
HETATM   22  C11 UNL     1     -11.864  38.124  41.160  1.00  0.00     0.180 C 
HETATM   23  N5  UNL     1     -10.488  38.316  40.865  1.00  0.00    -0.070 NA
HETATM   24  S2  UNL     1     -12.571  39.182  42.163  1.00  0.00    -0.044 SA
ENDBRANCH  20  22
ENDBRANCH  19  20
ENDBRANCH  18  19
ENDBRANCH  17  18
ENDBRANCH   8  17
TORSDOF 10
ENDMDL
