MODEL 1
REMARK VINA RESULT: -7.229812926      0.000      0.000
REMARK  9 active torsions:
REMARK  status: ('A' for Active; 'I' for Inactive)
REMARK    1  A    between atoms: C2_2  and  C3_3 
REMARK    2  A    between atoms: C3_3  and  C4_4 
REMARK    3  A    between atoms: C4_4  and  N1_5 
REMARK    4  A    between atoms: N1_5  and  C5_8 
REMARK    5  A    between atoms: C8_13  and  C9_14 
REMARK    6  A    between atoms: C9_14  and  C10_15 
REMARK    7  A    between atoms: C10_15  and  C11_16 
REMARK    8  A    between atoms: C11_16  and  N3_17 
REMARK    9  A    between atoms: N3_17  and  C12_19 
ROOT
HETATM    1  C5  UNL     1     -12.568  39.198  40.354  1.00  0.00     0.301 C 
HETATM    2  C6  UNL     1     -11.431  38.274  40.237  1.00  0.00     0.253 C 
HETATM    3  O1  UNL     1     -10.291  38.265  40.804  1.00  0.00    -0.271 OA
HETATM    4  N2  UNL     1     -12.130  37.506  39.314  1.00  0.00    -0.340 N 
HETATM    5  C7  UNL     1     -12.467  36.383  38.491  1.00  0.00     0.151 C 
HETATM    6  C8  UNL     1     -12.518  36.803  37.015  1.00  0.00     0.094 C 
HETATM    7  N5  UNL     1     -12.926  38.120  36.815  1.00  0.00    -0.413 N 
ATOM      8  H5  UNL     1     -13.490  38.361  36.000  1.00  0.00     0.153 HD
HETATM    9  C13 UNL     1     -12.554  39.143  37.758  1.00  0.00     0.142 C 
HETATM   10  C14 UNL     1     -13.043  38.651  39.095  1.00  0.00     0.144 C 
ENDROOT
BRANCH   6  11
HETATM   11  C9  UNL     1     -11.236  36.399  36.380  1.00  0.00     0.028 C 
BRANCH  11  12
HETATM   12  C10 UNL     1     -11.227  35.811  35.024  1.00  0.00     0.022 C 
BRANCH  12  13
HETATM   13  C11 UNL     1     -10.865  36.754  33.941  1.00  0.00     0.121 C 
BRANCH  13  14
HETATM   14  N3  UNL     1      -9.967  37.815  34.429  1.00  0.00    -0.369 N 
ATOM     15  H3  UNL     1      -9.538  37.699  35.348  1.00  0.00     0.161 HD
BRANCH  14  16
HETATM   16  C12 UNL     1      -9.667  38.976  33.699  1.00  0.00     0.180 C 
HETATM   17  N4  UNL     1      -8.924  40.017  34.304  1.00  0.00    -0.070 NA
HETATM   18  S1  UNL     1     -10.134  39.132  32.153  1.00  0.00    -0.044 SA
ENDBRANCH  14  16
ENDBRANCH  13  14
ENDBRANCH  12  13
ENDBRANCH  11  12
ENDBRANCH   6  11
BRANCH   1  19
HETATM   19  N1  UNL     1     -13.412  38.723  41.458  1.00  0.00    -0.060 N 
ATOM     20  H12 UNL     1     -13.315  37.715  41.581  1.00  0.00     0.278 HD
ATOM     21  H11 UNL     1     -14.399  38.768  41.205  1.00  0.00     0.278 HD
BRANCH  19  22
HETATM   22  C4  UNL     1     -13.171  39.407  42.680  1.00  0.00     0.237 C 
BRANCH  22  23
HETATM   23  C3  UNL     1     -13.552  40.862  42.491  1.00  0.00     0.054 C 
BRANCH  23  24
HETATM   24  C2  UNL     1     -12.997  41.666  43.603  1.00  0.00    -0.035 C 
HETATM   25  C1  UNL     1     -13.627  42.744  44.015  1.00  0.00     0.007 C 
ENDBRANCH  23  24
ENDBRANCH  22  23
ENDBRANCH  19  22
ENDBRANCH   1  19
TORSDOF 9
ENDMDL
MODEL 2
REMARK VINA RESULT: -7.209481941      1.423      1.686
REMARK  9 active torsions:
REMARK  status: ('A' for Active; 'I' for Inactive)
REMARK    1  A    between atoms: C2_2  and  C3_3 
REMARK    2  A    between atoms: C3_3  and  C4_4 
REMARK    3  A    between atoms: C4_4  and  N1_5 
REMARK    4  A    between atoms: N1_5  and  C5_8 
REMARK    5  A    between atoms: C8_13  and  C9_14 
REMARK    6  A    between atoms: C9_14  and  C10_15 
REMARK    7  A    between atoms: C10_15  and  C11_16 
REMARK    8  A    between atoms: C11_16  and  N3_17 
REMARK    9  A    between atoms: N3_17  and  C12_19 
ROOT
HETATM    1  C5  UNL     1     -12.668  39.342  41.475  1.00  0.00     0.301 C 
HETATM    2  C6  UNL     1     -11.663  38.421  40.926  1.00  0.00     0.253 C 
HETATM    3  O1  UNL     1     -10.392  38.417  41.006  1.00  0.00    -0.271 OA
HETATM    4  N2  UNL     1     -12.662  37.649  40.347  1.00  0.00    -0.340 N 
HETATM    5  C7  UNL     1     -13.287  36.523  39.719  1.00  0.00     0.151 C 
HETATM    6  C8  UNL     1     -13.909  36.941  38.378  1.00  0.00     0.094 C 
HETATM    7  N5  UNL     1     -14.368  38.256  38.352  1.00  0.00    -0.413 N 
ATOM      8  H5  UNL     1     -15.205  38.493  37.819  1.00  0.00     0.153 HD
HETATM    9  C13 UNL     1     -13.663  39.282  39.077  1.00  0.00     0.142 C 
HETATM   10  C14 UNL     1     -13.592  38.791  40.499  1.00  0.00     0.144 C 
ENDROOT
BRANCH   6  11
HETATM   11  C9  UNL     1     -12.972  36.539  37.297  1.00  0.00     0.028 C 
BRANCH  11  12
HETATM   12  C10 UNL     1     -11.511  36.618  37.507  1.00  0.00     0.022 C 
BRANCH  12  13
HETATM   13  C11 UNL     1     -10.843  37.740  36.808  1.00  0.00     0.121 C 
BRANCH  13  14
HETATM   14  N3  UNL     1     -10.418  37.352  35.451  1.00  0.00    -0.369 N 
ATOM     15  H3  UNL     1     -10.406  36.360  35.215  1.00  0.00     0.161 HD
BRANCH  14  16
HETATM   16  C12 UNL     1     -10.028  38.273  34.466  1.00  0.00     0.180 C 
HETATM   17  N4  UNL     1      -8.934  39.138  34.703  1.00  0.00    -0.070 NA
HETATM   18  S1  UNL     1     -10.798  38.341  33.039  1.00  0.00    -0.044 SA
ENDBRANCH  14  16
ENDBRANCH  13  14
ENDBRANCH  12  13
ENDBRANCH  11  12
ENDBRANCH   6  11
BRANCH   1  19
HETATM   19  N1  UNL     1     -13.016  38.866  42.819  1.00  0.00    -0.060 N 
ATOM     20  H12 UNL     1     -13.044  37.847  42.848  1.00  0.00     0.278 HD
ATOM     21  H11 UNL     1     -13.993  39.067  43.034  1.00  0.00     0.278 HD
BRANCH  19  22
HETATM   22  C4  UNL     1     -12.160  39.377  43.832  1.00  0.00     0.237 C 
BRANCH  22  23
HETATM   23  C3  UNL     1     -12.425  40.864  43.970  1.00  0.00     0.054 C 
BRANCH  23  24
HETATM   24  C2  UNL     1     -12.460  41.228  45.404  1.00  0.00    -0.035 C 
HETATM   25  C1  UNL     1     -12.958  42.387  45.777  1.00  0.00     0.007 C 
ENDBRANCH  23  24
ENDBRANCH  22  23
ENDBRANCH  19  22
ENDBRANCH   1  19
TORSDOF 9
ENDMDL
MODEL 3
REMARK VINA RESULT: -7.151606164      1.520      1.842
REMARK  9 active torsions:
REMARK  status: ('A' for Active; 'I' for Inactive)
REMARK    1  A    between atoms: C2_2  and  C3_3 
REMARK    2  A    between atoms: C3_3  and  C4_4 
REMARK    3  A    between atoms: C4_4  and  N1_5 
REMARK    4  A    between atoms: N1_5  and  C5_8 
REMARK    5  A    between atoms: C8_13  and  C9_14 
REMARK    6  A    between atoms: C9_14  and  C10_15 
REMARK    7  A    between atoms: C10_15  and  C11_16 
REMARK    8  A    between atoms: C11_16  and  N3_17 
REMARK    9  A    between atoms: N3_17  and  C12_19 
ROOT
HETATM    1  C5  UNL     1     -13.434  39.010  40.826  1.00  0.00     0.301 C 
HETATM    2  C6  UNL     1     -13.315  39.606  39.488  1.00  0.00     0.253 C 
HETATM    3  O1  UNL     1     -13.938  40.569  38.937  1.00  0.00    -0.271 OA
HETATM    4  N2  UNL     1     -12.309  38.706  39.159  1.00  0.00    -0.340 N 
HETATM    5  C7  UNL     1     -11.211  38.133  38.440  1.00  0.00     0.151 C 
HETATM    6  C8  UNL     1     -11.563  36.710  37.980  1.00  0.00     0.094 C 
HETATM    7  N5  UNL     1     -12.424  36.034  38.842  1.00  0.00    -0.413 N 
ATOM      8  H5  UNL     1     -12.323  35.028  38.977  1.00  0.00     0.153 HD
HETATM    9  C13 UNL     1     -13.456  36.752  39.543  1.00  0.00     0.142 C 
HETATM   10  C14 UNL     1     -12.744  37.851  40.288  1.00  0.00     0.144 C 
ENDROOT
BRANCH   6  11
HETATM   11  C9  UNL     1     -11.968  36.778  36.552  1.00  0.00     0.028 C 
BRANCH  11  12
HETATM   12  C10 UNL     1     -11.177  36.079  35.518  1.00  0.00     0.022 C 
BRANCH  12  13
HETATM   13  C11 UNL     1     -10.873  36.889  34.316  1.00  0.00     0.121 C 
BRANCH  13  14
HETATM   14  N3  UNL     1      -9.815  37.878  34.586  1.00  0.00    -0.369 N 
ATOM     15  H3  UNL     1      -9.198  37.719  35.383  1.00  0.00     0.161 HD
BRANCH  14  16
HETATM   16  C12 UNL     1      -9.608  39.028  33.807  1.00  0.00     0.180 C 
HETATM   17  N4  UNL     1      -8.918  40.135  34.354  1.00  0.00    -0.070 NA
HETATM   18  S1  UNL     1     -10.123  39.096  32.270  1.00  0.00    -0.044 SA
ENDBRANCH  14  16
ENDBRANCH  13  14
ENDBRANCH  12  13
ENDBRANCH  11  12
ENDBRANCH   6  11
BRANCH   1  19
HETATM   19  N1  UNL     1     -12.540  39.755  41.722  1.00  0.00    -0.060 N 
ATOM     20  H12 UNL     1     -12.381  40.700  41.373  1.00  0.00     0.278 HD
ATOM     21  H11 UNL     1     -11.588  39.394  41.667  1.00  0.00     0.278 HD
BRANCH  19  22
HETATM   22  C4  UNL     1     -12.994  39.783  43.068  1.00  0.00     0.237 C 
BRANCH  22  23
HETATM   23  C3  UNL     1     -12.694  41.154  43.641  1.00  0.00     0.054 C 
BRANCH  23  24
HETATM   24  C2  UNL     1     -12.362  41.027  45.078  1.00  0.00    -0.035 C 
HETATM   25  C1  UNL     1     -12.687  41.987  45.916  1.00  0.00     0.007 C 
ENDBRANCH  23  24
ENDBRANCH  22  23
ENDBRANCH  19  22
ENDBRANCH   1  19
TORSDOF 9
ENDMDL
MODEL 4
REMARK VINA RESULT: -7.102143624      1.833      2.468
REMARK  9 active torsions:
REMARK  status: ('A' for Active; 'I' for Inactive)
REMARK    1  A    between atoms: C2_2  and  C3_3 
REMARK    2  A    between atoms: C3_3  and  C4_4 
REMARK    3  A    between atoms: C4_4  and  N1_5 
REMARK    4  A    between atoms: N1_5  and  C5_8 
REMARK    5  A    between atoms: C8_13  and  C9_14 
REMARK    6  A    between atoms: C9_14  and  C10_15 
REMARK    7  A    between atoms: C10_15  and  C11_16 
REMARK    8  A    between atoms: C11_16  and  N3_17 
REMARK    9  A    between atoms: N3_17  and  C12_19 
ROOT
HETATM    1  C5  UNL     1     -12.759  39.651  42.338  1.00  0.00     0.301 C 
HETATM    2  C6  UNL     1     -11.793  38.774  41.662  1.00  0.00     0.253 C 
HETATM    3  O1  UNL     1     -10.540  38.617  41.824  1.00  0.00    -0.271 OA
HETATM    4  N2  UNL     1     -12.799  38.261  40.853  1.00  0.00    -0.340 N 
HETATM    5  C7  UNL     1     -13.463  37.376  39.943  1.00  0.00     0.151 C 
HETATM    6  C8  UNL     1     -13.922  38.145  38.695  1.00  0.00     0.094 C 
HETATM    7  N5  UNL     1     -14.259  39.474  38.942  1.00  0.00    -0.413 N 
ATOM      8  H5  UNL     1     -15.020  39.911  38.422  1.00  0.00     0.153 HD
HETATM    9  C13 UNL     1     -13.535  40.232  39.929  1.00  0.00     0.142 C 
HETATM   10  C14 UNL     1     -13.636  39.433  41.201  1.00  0.00     0.144 C 
ENDROOT
BRANCH   6  11
HETATM   11  C9  UNL     1     -12.930  37.898  37.616  1.00  0.00     0.028 C 
BRANCH  11  12
HETATM   12  C10 UNL     1     -12.707  36.528  37.107  1.00  0.00     0.022 C 
BRANCH  12  13
HETATM   13  C11 UNL     1     -11.286  36.119  37.029  1.00  0.00     0.121 C 
BRANCH  13  14
HETATM   14  N3  UNL     1     -10.855  35.932  35.632  1.00  0.00    -0.369 N 
ATOM     15  H3  UNL     1     -10.594  34.993  35.330  1.00  0.00     0.161 HD
BRANCH  14  16
HETATM   16  C12 UNL     1     -10.784  36.975  34.695  1.00  0.00     0.180 C 
HETATM   17  N4  UNL     1     -11.366  36.812  33.415  1.00  0.00    -0.070 NA
HETATM   18  S1  UNL     1     -10.069  38.383  35.067  1.00  0.00    -0.044 SA
ENDBRANCH  14  16
ENDBRANCH  13  14
ENDBRANCH  12  13
ENDBRANCH  11  12
ENDBRANCH   6  11
BRANCH   1  19
HETATM   19  N1  UNL     1     -13.267  38.927  43.510  1.00  0.00    -0.060 N 
ATOM     20  H12 UNL     1     -13.164  37.919  43.388  1.00  0.00     0.278 HD
ATOM     21  H11 UNL     1     -14.284  38.987  43.561  1.00  0.00     0.278 HD
BRANCH  19  22
HETATM   22  C4  UNL     1     -12.674  39.352  44.730  1.00  0.00     0.237 C 
BRANCH  22  23
HETATM   23  C3  UNL     1     -12.339  40.825  44.606  1.00  0.00     0.054 C 
BRANCH  23  24
HETATM   24  C2  UNL     1     -12.666  41.514  45.875  1.00  0.00    -0.035 C 
HETATM   25  C1  UNL     1     -13.038  42.775  45.862  1.00  0.00     0.007 C 
ENDBRANCH  23  24
ENDBRANCH  22  23
ENDBRANCH  19  22
ENDBRANCH   1  19
TORSDOF 9
ENDMDL
MODEL 5
REMARK VINA RESULT: -7.004633104      1.911      2.656
REMARK  9 active torsions:
REMARK  status: ('A' for Active; 'I' for Inactive)
REMARK    1  A    between atoms: C2_2  and  C3_3 
REMARK    2  A    between atoms: C3_3  and  C4_4 
REMARK    3  A    between atoms: C4_4  and  N1_5 
REMARK    4  A    between atoms: N1_5  and  C5_8 
REMARK    5  A    between atoms: C8_13  and  C9_14 
REMARK    6  A    between atoms: C9_14  and  C10_15 
REMARK    7  A    between atoms: C10_15  and  C11_16 
REMARK    8  A    between atoms: C11_16  and  N3_17 
REMARK    9  A    between atoms: N3_17  and  C12_19 
ROOT
HETATM    1  C5  UNL     1     -13.426  39.932  41.903  1.00  0.00     0.301 C 
HETATM    2  C6  UNL     1     -14.237  39.728  40.695  1.00  0.00     0.253 C 
HETATM    3  O1  UNL     1     -15.497  39.756  40.512  1.00  0.00    -0.271 OA
HETATM    4  N2  UNL     1     -13.090  39.515  39.941  1.00  0.00    -0.340 N 
HETATM    5  C7  UNL     1     -12.258  39.376  38.783  1.00  0.00     0.151 C 
HETATM    6  C8  UNL     1     -11.575  38.001  38.783  1.00  0.00     0.094 C 
HETATM    7  N5  UNL     1     -11.302  37.504  40.056  1.00  0.00    -0.413 N 
ATOM      8  H5  UNL     1     -10.459  36.953  40.218  1.00  0.00     0.153 HD
HETATM    9  C13 UNL     1     -12.208  37.768  41.144  1.00  0.00     0.142 C 
HETATM   10  C14 UNL     1     -12.345  39.266  41.196  1.00  0.00     0.144 C 
ENDROOT
BRANCH   6  11
HETATM   11  C9  UNL     1     -12.339  37.112  37.870  1.00  0.00     0.028 C 
BRANCH  11  12
HETATM   12  C10 UNL     1     -11.647  36.051  37.108  1.00  0.00     0.022 C 
BRANCH  12  13
HETATM   13  C11 UNL     1     -11.512  36.316  35.657  1.00  0.00     0.121 C 
BRANCH  13  14
HETATM   14  N3  UNL     1     -10.249  37.011  35.352  1.00  0.00    -0.369 N 
ATOM     15  H3  UNL     1      -9.382  36.476  35.397  1.00  0.00     0.161 HD
BRANCH  14  16
HETATM   16  C12 UNL     1     -10.174  38.368  35.001  1.00  0.00     0.180 C 
HETATM   17  N4  UNL     1      -8.911  38.977  34.807  1.00  0.00    -0.070 NA
HETATM   18  S1  UNL     1     -11.520  39.248  34.784  1.00  0.00    -0.044 SA
ENDBRANCH  14  16
ENDBRANCH  13  14
ENDBRANCH  12  13
ENDBRANCH  11  12
ENDBRANCH   6  11
BRANCH   1  19
HETATM   19  N1  UNL     1     -13.145  41.369  42.010  1.00  0.00    -0.060 N 
ATOM     20  H12 UNL     1     -13.661  41.893  41.303  1.00  0.00     0.278 HD
ATOM     21  H11 UNL     1     -12.192  41.576  41.711  1.00  0.00     0.278 HD
BRANCH  19  22
HETATM   22  C4  UNL     1     -13.394  41.892  43.308  1.00  0.00     0.237 C 
BRANCH  22  23
HETATM   23  C3  UNL     1     -12.479  41.183  44.287  1.00  0.00     0.054 C 
BRANCH  23  24
HETATM   24  C2  UNL     1     -12.771  41.650  45.661  1.00  0.00    -0.035 C 
HETATM   25  C1  UNL     1     -13.129  42.898  45.871  1.00  0.00     0.007 C 
ENDBRANCH  23  24
ENDBRANCH  22  23
ENDBRANCH  19  22
ENDBRANCH   1  19
TORSDOF 9
ENDMDL
