MODEL 1
REMARK VINA RESULT: -7.782256753      0.000      0.000
REMARK  11 active torsions:
REMARK  status: ('A' for Active; 'I' for Inactive)
REMARK    1  A    between atoms: N1_1  and  C1_5 
REMARK    2  A    between atoms: C1_5  and  C2_6 
REMARK    3  A    between atoms: C2_6  and  N2_7 
REMARK    4  A    between atoms: N2_7  and  C3_9 
REMARK    5  A    between atoms: C6_14  and  N4_15 
REMARK    6  A    between atoms: N4_15  and  C7_17 
REMARK    7  A    between atoms: C7_17  and  C8_18 
REMARK    8  A    between atoms: C8_18  and  C9_19 
REMARK    9  A    between atoms: C9_19  and  C10_20 
REMARK   10  A    between atoms: C10_20  and  C11_21 
REMARK   11  A    between atoms: C11_21  and  N5_22 
ROOT
HETATM    1  C3  UNL     1     -11.864  39.046  41.942  1.00  0.00     0.118 A 
HETATM    2  C4  UNL     1     -10.836  38.143  41.906  1.00  0.00     0.066 A 
HETATM    3  C5  UNL     1     -10.044  37.997  43.019  1.00  0.00     0.110 A 
HETATM    4  N3  UNL     1     -10.286  38.738  44.124  1.00  0.00    -0.202 N 
ATOM      5  H3  UNL     1      -9.701  38.632  44.953  1.00  0.00     0.183 HD
HETATM    6  C6  UNL     1     -11.305  39.614  44.121  1.00  0.00     0.679 A 
HETATM    7  N7  UNL     1     -12.113  39.790  43.039  1.00  0.00    -0.177 N 
ATOM      8  H7  UNL     1     -12.881  40.461  43.058  1.00  0.00     0.185 HD
ENDROOT
BRANCH   6   9
HETATM    9  N4  UNL     1     -11.550  40.322  45.152  1.00  0.00    -0.226 N 
ATOM     10  H4  UNL     1     -10.833  40.434  45.869  1.00  0.00     0.177 HD
BRANCH   9  11
HETATM   11  C7  UNL     1     -12.821  40.961  45.316  1.00  0.00     0.138 C 
BRANCH  11  12
HETATM   12  C8  UNL     1     -12.713  42.296  46.006  1.00  0.00     0.020 C 
BRANCH  12  13
HETATM   13  C9  UNL     1     -13.543  43.290  45.257  1.00  0.00     0.003 C 
BRANCH  13  14
HETATM   14  C10 UNL     1     -15.009  43.231  45.610  1.00  0.00     0.020 C 
BRANCH  14  15
HETATM   15  C11 UNL     1     -15.288  43.995  46.884  1.00  0.00     0.127 C 
BRANCH  15  16
HETATM   16  N5  UNL     1     -16.615  43.798  47.379  1.00  0.00    -0.334 N 
HETATM   17  C12 UNL     1     -17.059  42.562  48.029  1.00  0.00     0.129 C 
HETATM   18  C13 UNL     1     -18.329  42.068  47.427  1.00  0.00     0.040 C 
HETATM   19  C14 UNL     1     -19.337  43.104  47.076  1.00  0.00     0.126 C 
HETATM   20  N6  UNL     1     -18.956  44.462  47.360  1.00  0.00    -0.343 N 
HETATM   21  C15 UNL     1     -17.590  44.818  47.262  1.00  0.00     0.318 C 
ATOM     22  H6  UNL     1     -19.656  45.153  47.628  1.00  0.00     0.164 HD
HETATM   23  O1  UNL     1     -17.197  45.996  47.074  1.00  0.00    -0.247 OA
ENDBRANCH  15  16
ENDBRANCH  14  15
ENDBRANCH  13  14
ENDBRANCH  12  13
ENDBRANCH  11  12
ENDBRANCH   9  11
ENDBRANCH   6   9
BRANCH   1  24
HETATM   24  N2  UNL     1     -12.616  39.206  40.929  1.00  0.00    -0.374 N 
ATOM     25  H2  UNL     1     -12.354  39.914  40.244  1.00  0.00     0.161 HD
BRANCH  24  26
HETATM   26  C2  UNL     1     -13.823  38.440  40.689  1.00  0.00     0.148 C 
BRANCH  26  27
HETATM   27  C1  UNL     1     -13.663  37.604  39.440  1.00  0.00     0.249 C 
BRANCH  27  28
HETATM   28  N1  UNL     1     -13.047  36.337  39.700  1.00  0.00    -0.078 N 
ATOM     29  H13 UNL     1     -12.425  36.069  38.939  1.00  0.00     0.274 HD
ATOM     30  H12 UNL     1     -12.364  36.409  40.454  1.00  0.00     0.274 HD
ATOM     31  H11 UNL     1     -13.729  35.603  39.893  1.00  0.00     0.274 HD
ENDBRANCH  27  28
ENDBRANCH  26  27
ENDBRANCH  24  26
ENDBRANCH   1  24
TORSDOF 11
ENDMDL
MODEL 2
REMARK VINA RESULT: -7.627953905      3.117      9.654
REMARK  11 active torsions:
REMARK  status: ('A' for Active; 'I' for Inactive)
REMARK    1  A    between atoms: N1_1  and  C1_5 
REMARK    2  A    between atoms: C1_5  and  C2_6 
REMARK    3  A    between atoms: C2_6  and  N2_7 
REMARK    4  A    between atoms: N2_7  and  C3_9 
REMARK    5  A    between atoms: C6_14  and  N4_15 
REMARK    6  A    between atoms: N4_15  and  C7_17 
REMARK    7  A    between atoms: C7_17  and  C8_18 
REMARK    8  A    between atoms: C8_18  and  C9_19 
REMARK    9  A    between atoms: C9_19  and  C10_20 
REMARK   10  A    between atoms: C10_20  and  C11_21 
REMARK   11  A    between atoms: C11_21  and  N5_22 
ROOT
HETATM    1  C3  UNL     1     -17.426  44.472  48.348  1.00  0.00     0.118 A 
HETATM    2  C4  UNL     1     -18.324  43.990  47.435  1.00  0.00     0.066 A 
HETATM    3  C5  UNL     1     -17.858  43.525  46.229  1.00  0.00     0.110 A 
HETATM    4  N3  UNL     1     -16.532  43.549  45.961  1.00  0.00    -0.202 N 
ATOM      5  H3  UNL     1     -16.181  43.204  45.068  1.00  0.00     0.183 HD
HETATM    6  C6  UNL     1     -15.682  44.030  46.883  1.00  0.00     0.679 A 
HETATM    7  N7  UNL     1     -16.103  44.500  48.091  1.00  0.00    -0.177 N 
ATOM      8  H7  UNL     1     -15.439  44.861  48.776  1.00  0.00     0.185 HD
ENDROOT
BRANCH   6   9
HETATM    9  N4  UNL     1     -14.429  44.061  46.651  1.00  0.00    -0.226 N 
ATOM     10  H4  UNL     1     -13.810  44.560  47.290  1.00  0.00     0.177 HD
BRANCH   9  11
HETATM   11  C7  UNL     1     -13.880  43.402  45.505  1.00  0.00     0.138 C 
BRANCH  11  12
HETATM   12  C8  UNL     1     -13.086  42.173  45.867  1.00  0.00     0.020 C 
BRANCH  12  13
HETATM   13  C9  UNL     1     -12.630  41.509  44.607  1.00  0.00     0.003 C 
BRANCH  13  14
HETATM   14  C10 UNL     1     -12.942  40.033  44.563  1.00  0.00     0.020 C 
BRANCH  14  15
HETATM   15  C11 UNL     1     -11.806  39.260  43.936  1.00  0.00     0.127 C 
BRANCH  15  16
HETATM   16  N5  UNL     1     -11.997  39.011  42.540  1.00  0.00    -0.334 N 
HETATM   17  C12 UNL     1     -13.088  39.600  41.758  1.00  0.00     0.129 C 
HETATM   18  C13 UNL     1     -13.811  38.555  40.979  1.00  0.00     0.040 C 
HETATM   19  C14 UNL     1     -12.971  37.493  40.365  1.00  0.00     0.126 C 
HETATM   20  N6  UNL     1     -11.557  37.605  40.604  1.00  0.00    -0.343 N 
HETATM   21  C15 UNL     1     -11.117  38.160  41.829  1.00  0.00     0.318 C 
ATOM     22  H6  UNL     1     -10.885  37.291  39.904  1.00  0.00     0.164 HD
HETATM   23  O1  UNL     1      -9.983  37.936  42.320  1.00  0.00    -0.247 OA
ENDBRANCH  15  16
ENDBRANCH  14  15
ENDBRANCH  13  14
ENDBRANCH  12  13
ENDBRANCH  11  12
ENDBRANCH   9  11
ENDBRANCH   6   9
BRANCH   1  24
HETATM   24  N2  UNL     1     -17.825  44.909  49.474  1.00  0.00    -0.374 N 
ATOM     25  H2  UNL     1     -17.170  44.887  50.255  1.00  0.00     0.161 HD
BRANCH  24  26
HETATM   26  C2  UNL     1     -19.154  45.436  49.712  1.00  0.00     0.148 C 
BRANCH  26  27
HETATM   27  C1  UNL     1     -19.424  45.495  51.198  1.00  0.00     0.249 C 
BRANCH  27  28
HETATM   28  N1  UNL     1     -19.844  46.795  51.630  1.00  0.00    -0.078 N 
ATOM     29  H13 UNL     1     -19.574  47.510  50.955  1.00  0.00     0.274 HD
ATOM     30  H12 UNL     1     -20.858  46.891  51.575  1.00  0.00     0.274 HD
ATOM     31  H11 UNL     1     -19.504  47.027  52.564  1.00  0.00     0.274 HD
ENDBRANCH  27  28
ENDBRANCH  26  27
ENDBRANCH  24  26
ENDBRANCH   1  24
TORSDOF 11
ENDMDL
MODEL 3
REMARK VINA RESULT: -7.569554170      0.887      1.304
REMARK  11 active torsions:
REMARK  status: ('A' for Active; 'I' for Inactive)
REMARK    1  A    between atoms: N1_1  and  C1_5 
REMARK    2  A    between atoms: C1_5  and  C2_6 
REMARK    3  A    between atoms: C2_6  and  N2_7 
REMARK    4  A    between atoms: N2_7  and  C3_9 
REMARK    5  A    between atoms: C6_14  and  N4_15 
REMARK    6  A    between atoms: N4_15  and  C7_17 
REMARK    7  A    between atoms: C7_17  and  C8_18 
REMARK    8  A    between atoms: C8_18  and  C9_19 
REMARK    9  A    between atoms: C9_19  and  C10_20 
REMARK   10  A    between atoms: C10_20  and  C11_21 
REMARK   11  A    between atoms: C11_21  and  N5_22 
ROOT
HETATM    1  C3  UNL     1     -12.045  39.008  41.989  1.00  0.00     0.118 A 
HETATM    2  C4  UNL     1     -10.987  38.146  41.891  1.00  0.00     0.066 A 
HETATM    3  C5  UNL     1     -10.118  38.040  42.951  1.00  0.00     0.110 A 
HETATM    4  N3  UNL     1     -10.317  38.780  44.066  1.00  0.00    -0.202 N 
ATOM      5  H3  UNL     1      -9.676  38.704  44.855  1.00  0.00     0.183 HD
HETATM    6  C6  UNL     1     -11.367  39.615  44.124  1.00  0.00     0.679 A 
HETATM    7  N7  UNL     1     -12.251  39.750  43.097  1.00  0.00    -0.177 N 
ATOM      8  H7  UNL     1     -13.043  40.391  43.162  1.00  0.00     0.185 HD
ENDROOT
BRANCH   6   9
HETATM    9  N4  UNL     1     -11.573  40.321  45.165  1.00  0.00    -0.226 N 
ATOM     10  H4  UNL     1     -10.825  40.444  45.847  1.00  0.00     0.177 HD
BRANCH   9  11
HETATM   11  C7  UNL     1     -12.843  40.945  45.388  1.00  0.00     0.138 C 
BRANCH  11  12
HETATM   12  C8  UNL     1     -12.715  42.322  45.984  1.00  0.00     0.020 C 
BRANCH  12  13
HETATM   13  C9  UNL     1     -13.567  43.266  45.196  1.00  0.00     0.003 C 
BRANCH  13  14
HETATM   14  C10 UNL     1     -15.026  43.215  45.578  1.00  0.00     0.020 C 
BRANCH  14  15
HETATM   15  C11 UNL     1     -15.277  43.987  46.852  1.00  0.00     0.127 C 
BRANCH  15  16
HETATM   16  N5  UNL     1     -16.598  43.806  47.369  1.00  0.00    -0.334 N 
HETATM   17  C12 UNL     1     -17.048  42.573  48.019  1.00  0.00     0.129 C 
HETATM   18  C13 UNL     1     -18.336  42.101  47.436  1.00  0.00     0.040 C 
HETATM   19  C14 UNL     1     -19.335  43.154  47.110  1.00  0.00     0.126 C 
HETATM   20  N6  UNL     1     -18.929  44.504  47.396  1.00  0.00    -0.343 N 
HETATM   21  C15 UNL     1     -17.560  44.841  47.276  1.00  0.00     0.318 C 
ATOM     22  H6  UNL     1     -19.614  45.204  47.680  1.00  0.00     0.164 HD
HETATM   23  O1  UNL     1     -17.153  46.014  47.090  1.00  0.00    -0.247 OA
ENDBRANCH  15  16
ENDBRANCH  14  15
ENDBRANCH  13  14
ENDBRANCH  12  13
ENDBRANCH  11  12
ENDBRANCH   9  11
ENDBRANCH   6   9
BRANCH   1  24
HETATM   24  N2  UNL     1     -12.867  39.129  41.028  1.00  0.00    -0.374 N 
ATOM     25  H2  UNL     1     -13.861  39.183  41.250  1.00  0.00     0.161 HD
BRANCH  24  26
HETATM   26  C2  UNL     1     -12.477  39.196  39.633  1.00  0.00     0.148 C 
BRANCH  26  27
HETATM   27  C1  UNL     1     -13.175  40.354  38.958  1.00  0.00     0.249 C 
BRANCH  27  28
HETATM   28  N1  UNL     1     -13.078  41.569  39.710  1.00  0.00    -0.078 N 
ATOM     29  H13 UNL     1     -12.114  41.753  39.985  1.00  0.00     0.274 HD
ATOM     30  H12 UNL     1     -13.238  42.382  39.116  1.00  0.00     0.274 HD
ATOM     31  H11 UNL     1     -13.698  41.579  40.520  1.00  0.00     0.274 HD
ENDBRANCH  27  28
ENDBRANCH  26  27
ENDBRANCH  24  26
ENDBRANCH   1  24
TORSDOF 11
ENDMDL
MODEL 4
REMARK VINA RESULT: -7.361217869      1.295      1.843
REMARK  11 active torsions:
REMARK  status: ('A' for Active; 'I' for Inactive)
REMARK    1  A    between atoms: N1_1  and  C1_5 
REMARK    2  A    between atoms: C1_5  and  C2_6 
REMARK    3  A    between atoms: C2_6  and  N2_7 
REMARK    4  A    between atoms: N2_7  and  C3_9 
REMARK    5  A    between atoms: C6_14  and  N4_15 
REMARK    6  A    between atoms: N4_15  and  C7_17 
REMARK    7  A    between atoms: C7_17  and  C8_18 
REMARK    8  A    between atoms: C8_18  and  C9_19 
REMARK    9  A    between atoms: C9_19  and  C10_20 
REMARK   10  A    between atoms: C10_20  and  C11_21 
REMARK   11  A    between atoms: C11_21  and  N5_22 
ROOT
HETATM    1  C3  UNL     1     -12.892  38.491  41.198  1.00  0.00     0.118 A 
HETATM    2  C4  UNL     1     -13.605  39.480  40.576  1.00  0.00     0.066 A 
HETATM    3  C5  UNL     1     -13.888  40.631  41.271  1.00  0.00     0.110 A 
HETATM    4  N3  UNL     1     -13.463  40.772  42.548  1.00  0.00    -0.202 N 
ATOM      5  H3  UNL     1     -13.670  41.624  43.068  1.00  0.00     0.183 HD
HETATM    6  C6  UNL     1     -12.766  39.778  43.125  1.00  0.00     0.679 A 
HETATM    7  N7  UNL     1     -12.465  38.622  42.470  1.00  0.00    -0.177 N 
ATOM      8  H7  UNL     1     -11.934  37.880  42.928  1.00  0.00     0.185 HD
ENDROOT
BRANCH   6   9
HETATM    9  N4  UNL     1     -12.357  39.891  44.326  1.00  0.00    -0.226 N 
ATOM     10  H4  UNL     1     -11.456  39.493  44.591  1.00  0.00     0.177 HD
BRANCH   9  11
HETATM   11  C7  UNL     1     -13.147  40.569  45.309  1.00  0.00     0.138 C 
BRANCH  11  12
HETATM   12  C8  UNL     1     -12.404  41.701  45.969  1.00  0.00     0.020 C 
BRANCH  12  13
HETATM   13  C9  UNL     1     -13.211  42.953  45.825  1.00  0.00     0.003 C 
BRANCH  13  14
HETATM   14  C10 UNL     1     -14.696  42.725  45.959  1.00  0.00     0.020 C 
BRANCH  14  15
HETATM   15  C11 UNL     1     -15.405  44.003  46.343  1.00  0.00     0.127 C 
BRANCH  15  16
HETATM   16  N5  UNL     1     -16.590  43.780  47.112  1.00  0.00    -0.334 N 
HETATM   17  C12 UNL     1     -16.905  42.501  47.755  1.00  0.00     0.129 C 
HETATM   18  C13 UNL     1     -18.291  42.064  47.425  1.00  0.00     0.040 C 
HETATM   19  C14 UNL     1     -19.326  43.131  47.389  1.00  0.00     0.126 C 
HETATM   20  N6  UNL     1     -18.857  44.460  47.676  1.00  0.00    -0.343 N 
HETATM   21  C15 UNL     1     -17.540  44.813  47.294  1.00  0.00     0.318 C 
ATOM     22  H6  UNL     1     -19.461  45.135  48.146  1.00  0.00     0.164 HD
HETATM   23  O1  UNL     1     -17.171  45.998  47.108  1.00  0.00    -0.247 OA
ENDBRANCH  15  16
ENDBRANCH  14  15
ENDBRANCH  13  14
ENDBRANCH  12  13
ENDBRANCH  11  12
ENDBRANCH   9  11
ENDBRANCH   6   9
BRANCH   1  24
HETATM   24  N2  UNL     1     -12.613  37.414  40.582  1.00  0.00    -0.374 N 
ATOM     25  H2  UNL     1     -11.730  36.953  40.799  1.00  0.00     0.161 HD
BRANCH  24  26
HETATM   26  C2  UNL     1     -13.476  36.802  39.590  1.00  0.00     0.148 C 
BRANCH  26  27
HETATM   27  C1  UNL     1     -12.767  36.746  38.257  1.00  0.00     0.249 C 
BRANCH  27  28
HETATM   28  N1  UNL     1     -11.595  35.923  38.291  1.00  0.00    -0.078 N 
ATOM     29  H13 UNL     1     -10.769  36.471  38.528  1.00  0.00     0.274 HD
ATOM     30  H12 UNL     1     -11.612  35.294  39.093  1.00  0.00     0.274 HD
ATOM     31  H11 UNL     1     -11.455  35.405  37.423  1.00  0.00     0.274 HD
ENDBRANCH  27  28
ENDBRANCH  26  27
ENDBRANCH  24  26
ENDBRANCH   1  24
TORSDOF 11
ENDMDL
MODEL 5
REMARK VINA RESULT: -7.335120409      2.364      8.779
REMARK  11 active torsions:
REMARK  status: ('A' for Active; 'I' for Inactive)
REMARK    1  A    between atoms: N1_1  and  C1_5 
REMARK    2  A    between atoms: C1_5  and  C2_6 
REMARK    3  A    between atoms: C2_6  and  N2_7 
REMARK    4  A    between atoms: N2_7  and  C3_9 
REMARK    5  A    between atoms: C6_14  and  N4_15 
REMARK    6  A    between atoms: N4_15  and  C7_17 
REMARK    7  A    between atoms: C7_17  and  C8_18 
REMARK    8  A    between atoms: C8_18  and  C9_19 
REMARK    9  A    between atoms: C9_19  and  C10_20 
REMARK   10  A    between atoms: C10_20  and  C11_21 
REMARK   11  A    between atoms: C11_21  and  N5_22 
ROOT
HETATM    1  C3  UNL     1     -18.605  43.972  48.016  1.00  0.00     0.118 A 
HETATM    2  C4  UNL     1     -18.391  44.710  49.149  1.00  0.00     0.066 A 
HETATM    3  C5  UNL     1     -17.190  45.360  49.300  1.00  0.00     0.110 A 
HETATM    4  N3  UNL     1     -16.243  45.264  48.338  1.00  0.00    -0.202 N 
ATOM      5  H3  UNL     1     -15.351  45.746  48.445  1.00  0.00     0.183 HD
HETATM    6  C6  UNL     1     -16.490  44.531  47.240  1.00  0.00     0.679 A 
HETATM    7  N7  UNL     1     -17.667  43.871  47.052  1.00  0.00    -0.177 N 
ATOM      8  H7  UNL     1     -17.834  43.319  46.210  1.00  0.00     0.185 HD
ENDROOT
BRANCH   6   9
HETATM    9  N4  UNL     1     -15.613  44.428  46.322  1.00  0.00    -0.226 N 
ATOM     10  H4  UNL     1     -15.429  45.222  45.708  1.00  0.00     0.177 HD
BRANCH   9  11
HETATM   11  C7  UNL     1     -14.880  43.211  46.141  1.00  0.00     0.138 C 
BRANCH  11  12
HETATM   12  C8  UNL     1     -13.445  43.451  45.752  1.00  0.00     0.020 C 
BRANCH  12  13
HETATM   13  C9  UNL     1     -12.642  42.242  46.115  1.00  0.00     0.003 C 
BRANCH  13  14
HETATM   14  C10 UNL     1     -13.044  41.005  45.350  1.00  0.00     0.020 C 
BRANCH  14  15
HETATM   15  C11 UNL     1     -12.537  41.063  43.928  1.00  0.00     0.127 C 
BRANCH  15  16
HETATM   16  N5  UNL     1     -12.277  39.771  43.370  1.00  0.00    -0.334 N 
HETATM   17  C12 UNL     1     -11.330  38.817  43.953  1.00  0.00     0.129 C 
HETATM   18  C13 UNL     1     -10.387  38.303  42.920  1.00  0.00     0.040 C 
HETATM   19  C14 UNL     1     -10.969  38.019  41.581  1.00  0.00     0.126 C 
HETATM   20  N6  UNL     1     -12.377  38.282  41.449  1.00  0.00    -0.343 N 
HETATM   21  C15 UNL     1     -12.943  39.342  42.197  1.00  0.00     0.318 C 
ATOM     22  H6  UNL     1     -12.956  37.717  40.828  1.00  0.00     0.164 HD
HETATM   23  O1  UNL     1     -14.008  39.922  41.873  1.00  0.00    -0.247 OA
ENDBRANCH  15  16
ENDBRANCH  14  15
ENDBRANCH  13  14
ENDBRANCH  12  13
ENDBRANCH  11  12
ENDBRANCH   9  11
ENDBRANCH   6   9
BRANCH   1  24
HETATM   24  N2  UNL     1     -19.705  43.359  47.846  1.00  0.00    -0.374 N 
ATOM     25  H2  UNL     1     -20.529  43.706  48.338  1.00  0.00     0.161 HD
BRANCH  24  26
HETATM   26  C2  UNL     1     -19.861  42.197  46.993  1.00  0.00     0.148 C 
BRANCH  26  27
HETATM   27  C1  UNL     1     -20.440  41.050  47.789  1.00  0.00     0.249 C 
BRANCH  27  28
HETATM   28  N1  UNL     1     -19.454  40.072  48.144  1.00  0.00    -0.078 N 
ATOM     29  H13 UNL     1     -19.240  39.465  47.354  1.00  0.00     0.274 HD
ATOM     30  H12 UNL     1     -18.539  40.504  48.272  1.00  0.00     0.274 HD
ATOM     31  H11 UNL     1     -19.720  39.527  48.964  1.00  0.00     0.274 HD
ENDBRANCH  27  28
ENDBRANCH  26  27
ENDBRANCH  24  26
ENDBRANCH   1  24
TORSDOF 11
ENDMDL
