MODEL 1
REMARK VINA RESULT: -8.661550724      0.000      0.000
REMARK  14 active torsions:
REMARK  status: ('A' for Active; 'I' for Inactive)
REMARK    1  A    between atoms: O1_2  and  C2_3 
REMARK    2  A    between atoms: C2_3  and  O3_5 
REMARK    3  A    between atoms: O3_5  and  C3_6 
REMARK    4  A    between atoms: C3_6  and  C4_8 
REMARK    5  A    between atoms: C4_8  and  O5_9 
REMARK    6  A    between atoms: O5_9  and  C5_10 
REMARK    7  A    between atoms: C7_12  and  N1_13 
REMARK    8  A    between atoms: N1_13  and  C8_14 
REMARK    9  A    between atoms: C8_14  and  O6_15 
REMARK   10  A    between atoms: C8_14  and  C9_17 
REMARK   11  A    between atoms: C9_17  and  C10_19 
REMARK   12  A    between atoms: C11_21  and  N2_22 
REMARK   13  A    between atoms: C13_29  and  N5_30 
REMARK   14  A    between atoms: C15_34  and  O11_35 
ROOT
HETATM    1  C5  UNL     1       5.196  -1.270  38.456  1.00  0.00     0.105 A 
HETATM    2  C6  UNL     1       5.101  -2.225  39.445  1.00  0.00     0.087 A 
HETATM    3  C7  UNL     1       5.633  -3.522  39.332  1.00  0.00     0.146 A 
HETATM    4  C13 UNL     1       6.274  -3.815  38.150  1.00  0.00     0.146 A 
HETATM    5  C14 UNL     1       6.379  -2.852  37.136  1.00  0.00     0.079 A 
HETATM    6  C15 UNL     1       5.843  -1.607  37.307  1.00  0.00     0.101 A 
ENDROOT
BRANCH   3   7
HETATM    7  N1  UNL     1       5.675  -4.374  40.412  1.00  0.00    -0.374 NA
BRANCH   7   8
HETATM    8  C8  UNL     1       5.714  -5.202  41.456  1.00  0.00     0.269 C 
BRANCH   8   9
HETATM    9  O6  UNL     1       6.788  -5.599  42.104  1.00  0.00    -0.332 OA
ATOM     10  H6  UNL     1       7.105  -6.491  42.184  1.00  0.00     0.220 HD
ENDBRANCH   8   9
BRANCH   8  11
HETATM   11  C9  UNL     1       4.499  -5.847  42.069  1.00  0.00     0.273 C 
HETATM   12  O7  UNL     1       4.600  -6.763  42.897  1.00  0.00    -0.279 OA
BRANCH  11  13
HETATM   13  C10 UNL     1       3.157  -5.402  41.701  1.00  0.00     0.176 A 
HETATM   14  O8  UNL     1       2.630  -4.214  41.944  1.00  0.00    -0.272 OA
HETATM   15  C11 UNL     1       1.394  -4.152  41.481  1.00  0.00     0.223 A 
HETATM   16  N3  UNL     1       1.108  -5.320  40.924  1.00  0.00    -0.308 N 
HETATM   17  C12 UNL     1       2.180  -6.113  41.046  1.00  0.00     0.158 A 
ATOM     18  H3  UNL     1       0.225  -5.570  40.480  1.00  0.00     0.170 HD
HETATM   19  N4  UNL     1       2.308  -7.450  40.572  1.00  0.00    -0.079 NA
BRANCH  15  20
HETATM   20  N2  UNL     1       0.658  -3.082  41.598  1.00  0.00    -0.365 N 
ATOM     21  H22 UNL     1       0.626  -2.393  42.349  1.00  0.00     0.159 HD
ATOM     22  H21 UNL     1      -0.019  -2.805  40.887  1.00  0.00     0.159 HD
ENDBRANCH  15  20
ENDBRANCH  11  13
ENDBRANCH   8  11
ENDBRANCH   7   8
ENDBRANCH   3   7
BRANCH   4  23
HETATM   23  N5  UNL     1       6.814  -5.101  37.849  1.00  0.00    -0.112 N 
HETATM   24  O9  UNL     1       6.403  -5.792  36.908  1.00  0.00    -0.532 OA
HETATM   25  O10 UNL     1       7.880  -5.575  38.577  1.00  0.00    -0.532 OA
ENDBRANCH   4  23
BRANCH   1  26
HETATM   26  O5  UNL     1       4.619   0.001  38.682  1.00  0.00    -0.339 OA
BRANCH  26  27
HETATM   27  C4  UNL     1       3.239   0.195  38.409  1.00  0.00     0.287 C 
BRANCH  27  28
HETATM   28  C3  UNL     1       2.694   1.176  39.381  1.00  0.00     0.292 C 
HETATM   29  O4  UNL     1       3.301   1.497  40.434  1.00  0.00    -0.262 OA
BRANCH  28  30
HETATM   30  O3  UNL     1       1.458   1.796  39.154  1.00  0.00    -0.219 OA
BRANCH  30  31
HETATM   31  C2  UNL     1       1.193   2.508  37.994  1.00  0.00     0.413 C 
HETATM   32  O2  UNL     1       0.880   1.928  36.925  1.00  0.00    -0.229 OA
BRANCH  31  33
HETATM   33  O1  UNL     1       1.280   3.879  38.047  1.00  0.00    -0.303 OA
HETATM   34  C1  UNL     1       0.161   4.738  38.048  1.00  0.00     0.215 C 
ENDBRANCH  31  33
ENDBRANCH  30  31
ENDBRANCH  28  30
ENDBRANCH  27  28
ENDBRANCH  26  27
ENDBRANCH   1  26
BRANCH   6  35
HETATM   35  O11 UNL     1       5.941  -0.633  36.294  1.00  0.00    -0.358 OA
ATOM     36  H11 UNL     1       5.704  -0.885  35.409  1.00  0.00     0.217 HD
ENDBRANCH   6  35
TORSDOF 14
ENDMDL
MODEL 2
REMARK VINA RESULT: -8.638007869      0.837      1.410
REMARK  14 active torsions:
REMARK  status: ('A' for Active; 'I' for Inactive)
REMARK    1  A    between atoms: O1_2  and  C2_3 
REMARK    2  A    between atoms: C2_3  and  O3_5 
REMARK    3  A    between atoms: O3_5  and  C3_6 
REMARK    4  A    between atoms: C3_6  and  C4_8 
REMARK    5  A    between atoms: C4_8  and  O5_9 
REMARK    6  A    between atoms: O5_9  and  C5_10 
REMARK    7  A    between atoms: C7_12  and  N1_13 
REMARK    8  A    between atoms: N1_13  and  C8_14 
REMARK    9  A    between atoms: C8_14  and  O6_15 
REMARK   10  A    between atoms: C8_14  and  C9_17 
REMARK   11  A    between atoms: C9_17  and  C10_19 
REMARK   12  A    between atoms: C11_21  and  N2_22 
REMARK   13  A    between atoms: C13_29  and  N5_30 
REMARK   14  A    between atoms: C15_34  and  O11_35 
ROOT
HETATM    1  C5  UNL     1       5.119  -1.267  38.507  1.00  0.00     0.105 A 
HETATM    2  C6  UNL     1       5.040  -2.238  39.481  1.00  0.00     0.087 A 
HETATM    3  C7  UNL     1       5.602  -3.520  39.354  1.00  0.00     0.146 A 
HETATM    4  C13 UNL     1       6.257  -3.782  38.171  1.00  0.00     0.146 A 
HETATM    5  C14 UNL     1       6.346  -2.802  37.172  1.00  0.00     0.079 A 
HETATM    6  C15 UNL     1       5.780  -1.573  37.358  1.00  0.00     0.101 A 
ENDROOT
BRANCH   3   7
HETATM    7  N1  UNL     1       5.657  -4.388  40.421  1.00  0.00    -0.374 NA
BRANCH   7   8
HETATM    8  C8  UNL     1       5.708  -5.229  41.453  1.00  0.00     0.269 C 
BRANCH   8   9
HETATM    9  O6  UNL     1       6.767  -5.518  42.179  1.00  0.00    -0.332 OA
ATOM     10  H6  UNL     1       7.634  -5.734  41.855  1.00  0.00     0.220 HD
ENDBRANCH   8   9
BRANCH   8  11
HETATM   11  C9  UNL     1       4.531  -6.020  41.959  1.00  0.00     0.273 C 
HETATM   12  O7  UNL     1       4.597  -6.685  43.002  1.00  0.00    -0.279 OA
BRANCH  11  13
HETATM   13  C10 UNL     1       3.266  -6.019  41.227  1.00  0.00     0.176 A 
HETATM   14  O8  UNL     1       2.777  -7.012  40.505  1.00  0.00    -0.272 OA
HETATM   15  C11 UNL     1       1.616  -6.672  39.974  1.00  0.00     0.223 A 
HETATM   16  N3  UNL     1       1.340  -5.434  40.357  1.00  0.00    -0.308 N 
HETATM   17  C12 UNL     1       2.343  -5.004  41.133  1.00  0.00     0.158 A 
ATOM     18  H3  UNL     1       0.508  -4.901  40.104  1.00  0.00     0.170 HD
HETATM   19  N4  UNL     1       2.444  -3.734  41.769  1.00  0.00    -0.079 NA
BRANCH  15  20
HETATM   20  N2  UNL     1       0.932  -7.481  39.215  1.00  0.00    -0.365 N 
ATOM     21  H22 UNL     1       1.231  -8.024  38.405  1.00  0.00     0.159 HD
ATOM     22  H21 UNL     1      -0.059  -7.669  39.370  1.00  0.00     0.159 HD
ENDBRANCH  15  20
ENDBRANCH  11  13
ENDBRANCH   8  11
ENDBRANCH   7   8
ENDBRANCH   3   7
BRANCH   4  23
HETATM   23  N5  UNL     1       6.828  -5.051  37.855  1.00  0.00    -0.112 N 
HETATM   24  O9  UNL     1       6.436  -5.739  36.903  1.00  0.00    -0.532 OA
HETATM   25  O10 UNL     1       7.901  -5.510  38.581  1.00  0.00    -0.532 OA
ENDBRANCH   4  23
BRANCH   1  26
HETATM   26  O5  UNL     1       4.512  -0.013  38.748  1.00  0.00    -0.339 OA
BRANCH  26  27
HETATM   27  C4  UNL     1       3.168   0.198  38.339  1.00  0.00     0.287 C 
BRANCH  27  28
HETATM   28  C3  UNL     1       2.500   1.076  39.331  1.00  0.00     0.292 C 
HETATM   29  O4  UNL     1       2.994   1.322  40.461  1.00  0.00    -0.262 OA
BRANCH  28  30
HETATM   30  O3  UNL     1       1.269   1.678  39.038  1.00  0.00    -0.219 OA
BRANCH  30  31
HETATM   31  C2  UNL     1       1.093   2.494  37.932  1.00  0.00     0.413 C 
HETATM   32  O2  UNL     1       0.836   2.016  36.799  1.00  0.00    -0.229 OA
BRANCH  31  33
HETATM   33  O1  UNL     1       1.204   3.852  38.110  1.00  0.00    -0.303 OA
HETATM   34  C1  UNL     1       0.105   4.736  38.111  1.00  0.00     0.215 C 
ENDBRANCH  31  33
ENDBRANCH  30  31
ENDBRANCH  28  30
ENDBRANCH  27  28
ENDBRANCH  26  27
ENDBRANCH   1  26
BRANCH   6  35
HETATM   35  O11 UNL     1       5.862  -0.582  36.359  1.00  0.00    -0.358 OA
ATOM     36  H11 UNL     1       6.438  -0.740  35.620  1.00  0.00     0.217 HD
ENDBRANCH   6  35
TORSDOF 14
ENDMDL
MODEL 3
REMARK VINA RESULT: -8.616716512      2.146      4.974
REMARK  14 active torsions:
REMARK  status: ('A' for Active; 'I' for Inactive)
REMARK    1  A    between atoms: O1_2  and  C2_3 
REMARK    2  A    between atoms: C2_3  and  O3_5 
REMARK    3  A    between atoms: O3_5  and  C3_6 
REMARK    4  A    between atoms: C3_6  and  C4_8 
REMARK    5  A    between atoms: C4_8  and  O5_9 
REMARK    6  A    between atoms: O5_9  and  C5_10 
REMARK    7  A    between atoms: C7_12  and  N1_13 
REMARK    8  A    between atoms: N1_13  and  C8_14 
REMARK    9  A    between atoms: C8_14  and  O6_15 
REMARK   10  A    between atoms: C8_14  and  C9_17 
REMARK   11  A    between atoms: C9_17  and  C10_19 
REMARK   12  A    between atoms: C11_21  and  N2_22 
REMARK   13  A    between atoms: C13_29  and  N5_30 
REMARK   14  A    between atoms: C15_34  and  O11_35 
ROOT
HETATM    1  C5  UNL     1       1.834  -2.263  41.212  1.00  0.00     0.105 A 
HETATM    2  C6  UNL     1       3.104  -2.607  40.805  1.00  0.00     0.087 A 
HETATM    3  C7  UNL     1       3.554  -3.934  40.687  1.00  0.00     0.146 A 
HETATM    4  C13 UNL     1       2.644  -4.915  41.010  1.00  0.00     0.146 A 
HETATM    5  C14 UNL     1       1.348  -4.578  41.424  1.00  0.00     0.079 A 
HETATM    6  C15 UNL     1       0.970  -3.269  41.516  1.00  0.00     0.101 A 
ENDROOT
BRANCH   3   7
HETATM    7  N1  UNL     1       4.764  -4.231  40.102  1.00  0.00    -0.374 NA
BRANCH   7   8
HETATM    8  C8  UNL     1       5.938  -4.516  39.539  1.00  0.00     0.269 C 
BRANCH   8   9
HETATM    9  O6  UNL     1       6.869  -5.310  40.024  1.00  0.00    -0.332 OA
ATOM     10  H6  UNL     1       6.731  -6.127  40.490  1.00  0.00     0.220 HD
ENDBRANCH   8   9
BRANCH   8  11
HETATM   11  C9  UNL     1       6.407  -3.948  38.226  1.00  0.00     0.273 C 
HETATM   12  O7  UNL     1       7.078  -4.620  37.431  1.00  0.00    -0.279 OA
BRANCH  11  13
HETATM   13  C10 UNL     1       6.075  -2.575  37.850  1.00  0.00     0.176 A 
HETATM   14  O8  UNL     1       5.761  -2.147  36.640  1.00  0.00    -0.272 OA
HETATM   15  C11 UNL     1       5.526  -0.847  36.655  1.00  0.00     0.223 A 
HETATM   16  N3  UNL     1       5.688  -0.417  37.897  1.00  0.00    -0.308 N 
HETATM   17  C12 UNL     1       6.029  -1.465  38.659  1.00  0.00     0.158 A 
ATOM     18  H3  UNL     1       5.574   0.544  38.218  1.00  0.00     0.170 HD
HETATM   19  N4  UNL     1       6.283  -1.452  40.060  1.00  0.00    -0.079 NA
BRANCH  15  20
HETATM   20  N2  UNL     1       5.197  -0.185  35.581  1.00  0.00    -0.365 N 
ATOM     21  H22 UNL     1       4.345  -0.230  35.023  1.00  0.00     0.159 HD
ATOM     22  H21 UNL     1       5.816   0.505  35.154  1.00  0.00     0.159 HD
ENDBRANCH  15  20
ENDBRANCH  11  13
ENDBRANCH   8  11
ENDBRANCH   7   8
ENDBRANCH   3   7
BRANCH   4  23
HETATM   23  N5  UNL     1       2.957  -6.307  41.006  1.00  0.00    -0.112 N 
HETATM   24  O9  UNL     1       3.709  -6.824  41.844  1.00  0.00    -0.532 OA
HETATM   25  O10 UNL     1       2.355  -7.134  40.087  1.00  0.00    -0.532 OA
ENDBRANCH   4  23
BRANCH   1  26
HETATM   26  O5  UNL     1       1.495  -0.893  41.294  1.00  0.00    -0.339 OA
BRANCH  26  27
HETATM   27  C4  UNL     1       1.358  -0.138  40.099  1.00  0.00     0.287 C 
BRANCH  27  28
HETATM   28  C3  UNL     1       2.626   0.592  39.847  1.00  0.00     0.292 C 
HETATM   29  O4  UNL     1       3.296   1.125  40.767  1.00  0.00    -0.262 OA
BRANCH  28  30
HETATM   30  O3  UNL     1       3.134   0.714  38.547  1.00  0.00    -0.219 OA
BRANCH  30  31
HETATM   31  C2  UNL     1       2.584   1.586  37.620  1.00  0.00     0.413 C 
HETATM   32  O2  UNL     1       2.498   1.281  36.404  1.00  0.00    -0.229 OA
BRANCH  31  33
HETATM   33  O1  UNL     1       2.127   2.801  38.071  1.00  0.00    -0.303 OA
HETATM   34  C1  UNL     1       0.761   3.132  38.187  1.00  0.00     0.215 C 
ENDBRANCH  31  33
ENDBRANCH  30  31
ENDBRANCH  28  30
ENDBRANCH  27  28
ENDBRANCH  26  27
ENDBRANCH   1  26
BRANCH   6  35
HETATM   35  O11 UNL     1      -0.330  -2.920  41.933  1.00  0.00    -0.358 OA
ATOM     36  H11 UNL     1      -0.441  -2.106  42.411  1.00  0.00     0.217 HD
ENDBRANCH   6  35
TORSDOF 14
ENDMDL
MODEL 4
REMARK VINA RESULT: -8.597665961      1.839      4.570
REMARK  14 active torsions:
REMARK  status: ('A' for Active; 'I' for Inactive)
REMARK    1  A    between atoms: O1_2  and  C2_3 
REMARK    2  A    between atoms: C2_3  and  O3_5 
REMARK    3  A    between atoms: O3_5  and  C3_6 
REMARK    4  A    between atoms: C3_6  and  C4_8 
REMARK    5  A    between atoms: C4_8  and  O5_9 
REMARK    6  A    between atoms: O5_9  and  C5_10 
REMARK    7  A    between atoms: C7_12  and  N1_13 
REMARK    8  A    between atoms: N1_13  and  C8_14 
REMARK    9  A    between atoms: C8_14  and  O6_15 
REMARK   10  A    between atoms: C8_14  and  C9_17 
REMARK   11  A    between atoms: C9_17  and  C10_19 
REMARK   12  A    between atoms: C11_21  and  N2_22 
REMARK   13  A    between atoms: C13_29  and  N5_30 
REMARK   14  A    between atoms: C15_34  and  O11_35 
ROOT
HETATM    1  C5  UNL     1       3.165  -0.272  40.191  1.00  0.00     0.105 A 
HETATM    2  C6  UNL     1       3.871  -1.422  40.468  1.00  0.00     0.087 A 
HETATM    3  C7  UNL     1       3.294  -2.578  41.022  1.00  0.00     0.146 A 
HETATM    4  C13 UNL     1       1.946  -2.516  41.291  1.00  0.00     0.146 A 
HETATM    5  C14 UNL     1       1.215  -1.352  41.012  1.00  0.00     0.079 A 
HETATM    6  C15 UNL     1       1.833  -0.261  40.471  1.00  0.00     0.101 A 
ENDROOT
BRANCH   3   7
HETATM    7  N1  UNL     1       3.997  -3.758  41.108  1.00  0.00    -0.374 NA
BRANCH   7   8
HETATM    8  C8  UNL     1       4.680  -4.900  41.194  1.00  0.00     0.269 C 
BRANCH   8   9
HETATM    9  O6  UNL     1       4.351  -5.960  41.902  1.00  0.00    -0.332 OA
ATOM     10  H6  UNL     1       4.847  -6.340  42.618  1.00  0.00     0.220 HD
ENDBRANCH   8   9
BRANCH   8  11
HETATM   11  C9  UNL     1       5.983  -5.163  40.487  1.00  0.00     0.273 C 
HETATM   12  O7  UNL     1       6.835  -5.926  40.961  1.00  0.00    -0.279 OA
BRANCH  11  13
HETATM   13  C10 UNL     1       6.277  -4.518  39.209  1.00  0.00     0.176 A 
HETATM   14  O8  UNL     1       6.001  -3.268  38.879  1.00  0.00    -0.272 OA
HETATM   15  C11 UNL     1       6.398  -3.017  37.644  1.00  0.00     0.223 A 
HETATM   16  N3  UNL     1       6.944  -4.122  37.158  1.00  0.00    -0.308 N 
HETATM   17  C12 UNL     1       6.883  -5.068  38.104  1.00  0.00     0.158 A 
ATOM     18  H3  UNL     1       7.341  -4.233  36.225  1.00  0.00     0.170 HD
HETATM   19  N4  UNL     1       7.369  -6.403  38.006  1.00  0.00    -0.079 NA
BRANCH  15  20
HETATM   20  N2  UNL     1       6.236  -1.851  37.082  1.00  0.00    -0.365 N 
ATOM     21  H22 UNL     1       6.617  -0.943  37.347  1.00  0.00     0.159 HD
ATOM     22  H21 UNL     1       5.662  -1.722  36.249  1.00  0.00     0.159 HD
ENDBRANCH  15  20
ENDBRANCH  11  13
ENDBRANCH   8  11
ENDBRANCH   7   8
ENDBRANCH   3   7
BRANCH   4  23
HETATM   23  N5  UNL     1       1.219  -3.577  41.910  1.00  0.00    -0.112 N 
HETATM   24  O9  UNL     1       0.920  -3.567  43.111  1.00  0.00    -0.532 OA
HETATM   25  O10 UNL     1       0.766  -4.624  41.143  1.00  0.00    -0.532 OA
ENDBRANCH   4  23
BRANCH   1  26
HETATM   26  O5  UNL     1       3.854   0.831  39.636  1.00  0.00    -0.339 OA
BRANCH  26  27
HETATM   27  C4  UNL     1       4.222   0.801  38.265  1.00  0.00     0.287 C 
BRANCH  27  28
HETATM   28  C3  UNL     1       3.200   1.536  37.479  1.00  0.00     0.292 C 
HETATM   29  O4  UNL     1       2.991   1.312  36.260  1.00  0.00    -0.262 OA
BRANCH  28  30
HETATM   30  O3  UNL     1       2.413   2.527  38.081  1.00  0.00    -0.219 OA
BRANCH  30  31
HETATM   31  C2  UNL     1       1.254   3.007  37.489  1.00  0.00     0.413 C 
HETATM   32  O2  UNL     1       0.503   2.257  36.817  1.00  0.00    -0.229 OA
BRANCH  31  33
HETATM   33  O1  UNL     1       0.946   4.335  37.662  1.00  0.00    -0.303 OA
HETATM   34  C1  UNL     1      -0.207   4.792  38.333  1.00  0.00     0.215 C 
ENDBRANCH  31  33
ENDBRANCH  30  31
ENDBRANCH  28  30
ENDBRANCH  27  28
ENDBRANCH  26  27
ENDBRANCH   1  26
BRANCH   6  35
HETATM   35  O11 UNL     1       1.108   0.914  40.189  1.00  0.00    -0.358 OA
ATOM     36  H11 UNL     1       1.202   1.649  40.783  1.00  0.00     0.217 HD
ENDBRANCH   6  35
TORSDOF 14
ENDMDL
MODEL 5
REMARK VINA RESULT: -8.562853718      3.015      6.993
REMARK  14 active torsions:
REMARK  status: ('A' for Active; 'I' for Inactive)
REMARK    1  A    between atoms: O1_2  and  C2_3 
REMARK    2  A    between atoms: C2_3  and  O3_5 
REMARK    3  A    between atoms: O3_5  and  C3_6 
REMARK    4  A    between atoms: C3_6  and  C4_8 
REMARK    5  A    between atoms: C4_8  and  O5_9 
REMARK    6  A    between atoms: O5_9  and  C5_10 
REMARK    7  A    between atoms: C7_12  and  N1_13 
REMARK    8  A    between atoms: N1_13  and  C8_14 
REMARK    9  A    between atoms: C8_14  and  O6_15 
REMARK   10  A    between atoms: C8_14  and  C9_17 
REMARK   11  A    between atoms: C9_17  and  C10_19 
REMARK   12  A    between atoms: C11_21  and  N2_22 
REMARK   13  A    between atoms: C13_29  and  N5_30 
REMARK   14  A    between atoms: C15_34  and  O11_35 
ROOT
HETATM    1  C5  UNL     1       3.783  -5.103  41.861  1.00  0.00     0.105 A 
HETATM    2  C6  UNL     1       3.220  -3.863  41.653  1.00  0.00     0.087 A 
HETATM    3  C7  UNL     1       3.765  -2.892  40.793  1.00  0.00     0.146 A 
HETATM    4  C13 UNL     1       4.929  -3.238  40.145  1.00  0.00     0.146 A 
HETATM    5  C14 UNL     1       5.512  -4.498  40.348  1.00  0.00     0.079 A 
HETATM    6  C15 UNL     1       4.932  -5.399  41.195  1.00  0.00     0.101 A 
ENDROOT
BRANCH   3   7
HETATM    7  N1  UNL     1       3.072  -1.746  40.476  1.00  0.00    -0.374 NA
BRANCH   7   8
HETATM    8  C8  UNL     1       2.403  -0.636  40.166  1.00  0.00     0.269 C 
BRANCH   8   9
HETATM    9  O6  UNL     1       1.100  -0.460  40.233  1.00  0.00    -0.332 OA
ATOM     10  H6  UNL     1       0.545  -0.078  39.563  1.00  0.00     0.220 HD
ENDBRANCH   8   9
BRANCH   8  11
HETATM   11  C9  UNL     1       3.047   0.628  39.662  1.00  0.00     0.273 C 
HETATM   12  O7  UNL     1       3.342   1.556  40.427  1.00  0.00    -0.279 OA
BRANCH  11  13
HETATM   13  C10 UNL     1       3.347   0.792  38.241  1.00  0.00     0.176 A 
HETATM   14  O8  UNL     1       4.461   0.430  37.627  1.00  0.00    -0.272 OA
HETATM   15  C11 UNL     1       4.401   0.732  36.343  1.00  0.00     0.223 A 
HETATM   16  N3  UNL     1       3.227   1.300  36.111  1.00  0.00    -0.308 N 
HETATM   17  C12 UNL     1       2.553   1.350  37.268  1.00  0.00     0.158 A 
ATOM     18  H3  UNL     1       2.894   1.639  35.209  1.00  0.00     0.170 HD
HETATM   19  N4  UNL     1       1.243   1.870  37.468  1.00  0.00    -0.079 NA
BRANCH  15  20
HETATM   20  N2  UNL     1       5.380   0.477  35.519  1.00  0.00    -0.365 N 
ATOM     21  H22 UNL     1       5.589  -0.375  34.999  1.00  0.00     0.159 HD
ATOM     22  H21 UNL     1       6.097   1.167  35.294  1.00  0.00     0.159 HD
ENDBRANCH  15  20
ENDBRANCH  11  13
ENDBRANCH   8  11
ENDBRANCH   7   8
ENDBRANCH   3   7
BRANCH   4  23
HETATM   23  N5  UNL     1       5.645  -2.349  39.289  1.00  0.00    -0.112 N 
HETATM   24  O9  UNL     1       6.335  -1.418  39.723  1.00  0.00    -0.532 OA
HETATM   25  O10 UNL     1       5.636  -2.564  37.931  1.00  0.00    -0.532 OA
ENDBRANCH   4  23
BRANCH   1  26
HETATM   26  O5  UNL     1       3.146  -5.996  42.752  1.00  0.00    -0.339 OA
BRANCH  26  27
HETATM   27  C4  UNL     1       1.915  -6.594  42.373  1.00  0.00     0.287 C 
BRANCH  27  28
HETATM   28  C3  UNL     1       0.801  -5.728  42.833  1.00  0.00     0.292 C 
HETATM   29  O4  UNL     1       0.667  -5.377  44.033  1.00  0.00    -0.262 OA
BRANCH  28  30
HETATM   30  O3  UNL     1      -0.160  -5.258  41.929  1.00  0.00    -0.219 OA
BRANCH  30  31
HETATM   31  C2  UNL     1      -0.679  -3.975  42.006  1.00  0.00     0.413 C 
HETATM   32  O2  UNL     1      -0.052  -2.985  41.553  1.00  0.00    -0.229 OA
BRANCH  31  33
HETATM   33  O1  UNL     1      -1.911  -3.813  42.594  1.00  0.00    -0.303 OA
HETATM   34  C1  UNL     1      -3.124  -3.769  41.876  1.00  0.00     0.215 C 
ENDBRANCH  31  33
ENDBRANCH  30  31
ENDBRANCH  28  30
ENDBRANCH  27  28
ENDBRANCH  26  27
ENDBRANCH   1  26
BRANCH   6  35
HETATM   35  O11 UNL     1       5.510  -6.667  41.407  1.00  0.00    -0.358 OA
ATOM     36  H11 UNL     1       6.376  -6.827  41.050  1.00  0.00     0.217 HD
ENDBRANCH   6  35
TORSDOF 14
ENDMDL
