MODEL 1
REMARK VINA RESULT: -7.929120741      0.000      0.000
REMARK  13 active torsions:
REMARK  status: ('A' for Active; 'I' for Inactive)
REMARK    1  A    between atoms: O1_2  and  C2_3 
REMARK    2  A    between atoms: C2_3  and  C3_5 
REMARK    3  A    between atoms: C4_7  and  N1_8 
REMARK    4  A    between atoms: N1_8  and  N2_10 
REMARK    5  A    between atoms: C5_12  and  C6_13 
REMARK    6  A    between atoms: C7_15  and  C8_16 
REMARK    7  A    between atoms: C8_16  and  O4_17 
REMARK    8  A    between atoms: C8_16  and  C9_19 
REMARK    9  A    between atoms: C10_22  and  N3_23 
REMARK   10  A    between atoms: C11_26  and  O9_27 
REMARK   11  A    between atoms: C12_31  and  C13_32 
REMARK   12  A    between atoms: C13_32  and  N5_33 
REMARK   13  A    between atoms: C13_32  and  N6_37 
ROOT
HETATM    1  N1  UNL     1       5.940  -3.435  38.272  1.00  0.00    -0.280 N 
ATOM      2  H1  UNL     1       6.634  -3.661  37.559  1.00  0.00     0.189 HD
ENDROOT
BRANCH   1   3
HETATM    3  C4  UNL     1       5.371  -2.249  38.328  1.00  0.00     0.164 A 
HETATM    4  S1  UNL     1       4.614  -1.487  39.635  1.00  0.00    -0.044 SA
HETATM    5  C3  UNL     1       4.164   0.005  38.839  1.00  0.00     0.110 A 
HETATM    6  C12 UNL     1       4.652  -0.213  37.592  1.00  0.00     0.092 A 
HETATM    7  N4  UNL     1       5.260  -1.360  37.353  1.00  0.00    -0.334 N 
ATOM      8  H4  UNL     1       5.639  -1.560  36.428  1.00  0.00     0.168 HD
BRANCH   5   9
HETATM    9  C2  UNL     1       3.430   1.089  39.476  1.00  0.00     0.302 C 
HETATM   10  O2  UNL     1       3.459   1.323  40.674  1.00  0.00    -0.259 OA
BRANCH   9  11
HETATM   11  O1  UNL     1       2.631   1.936  38.686  1.00  0.00    -0.322 OA
HETATM   12  C1  UNL     1       1.218   1.901  38.792  1.00  0.00     0.213 C 
ENDBRANCH   9  11
ENDBRANCH   5   9
BRANCH   6  13
HETATM   13  C13 UNL     1       4.573   0.856  36.507  1.00  0.00     0.428 C 
BRANCH  13  14
HETATM   14  N5  UNL     1       3.203   1.028  36.086  1.00  0.00    -0.045 N 
ATOM     15  H53 UNL     1       2.559   0.460  36.636  1.00  0.00     0.277 HD
ATOM     16  H52 UNL     1       2.839   1.948  36.335  1.00  0.00     0.277 HD
ATOM     17  H51 UNL     1       3.120   0.842  35.087  1.00  0.00     0.277 HD
ENDBRANCH  13  14
BRANCH  13  18
HETATM   18  N6  UNL     1       5.411   0.455  35.387  1.00  0.00    -0.045 N 
ATOM     19  H63 UNL     1       5.979   1.223  35.032  1.00  0.00     0.277 HD
ATOM     20  H62 UNL     1       6.170  -0.165  35.671  1.00  0.00     0.277 HD
ATOM     21  H61 UNL     1       4.821   0.041  34.664  1.00  0.00     0.277 HD
ENDBRANCH  13  18
ENDBRANCH   6  13
ENDBRANCH   1   3
BRANCH   1  22
HETATM   22  N2  UNL     1       5.551  -4.364  39.230  1.00  0.00    -0.307 N 
HETATM   23  C5  UNL     1       6.260  -4.664  40.251  1.00  0.00     0.147 C 
ATOM     24  H2  UNL     1       4.652  -4.832  39.112  1.00  0.00     0.186 HD
BRANCH  23  25
HETATM   25  C6  UNL     1       5.825  -5.645  41.243  1.00  0.00     0.128 A 
HETATM   26  O3  UNL     1       4.631  -6.179  41.259  1.00  0.00    -0.305 OA
HETATM   27  C7  UNL     1       4.521  -7.036  42.273  1.00  0.00     0.129 A 
HETATM   28  C10 UNL     1       5.713  -7.056  42.951  1.00  0.00     0.171 A 
HETATM   29  C11 UNL     1       6.549  -6.157  42.281  1.00  0.00     0.137 A 
BRANCH  27  30
HETATM   30  C8  UNL     1       3.303  -7.812  42.580  1.00  0.00     0.278 C 
BRANCH  30  31
HETATM   31  O4  UNL     1       3.581  -9.184  42.660  1.00  0.00    -0.378 OA
ATOM     32  H4  UNL     1       2.851  -9.662  43.035  1.00  0.00     0.211 HD
ENDBRANCH  30  31
BRANCH  30  33
HETATM   33  C9  UNL     1       2.682  -7.362  43.822  1.00  0.00     0.209 C 
HETATM   34  O5  UNL     1       1.860  -6.393  43.753  1.00  0.00    -0.646 OA
HETATM   35  O6  UNL     1       2.929  -7.926  45.066  1.00  0.00    -0.646 OA
ENDBRANCH  30  33
ENDBRANCH  27  30
BRANCH  28  36
HETATM   36  N3  UNL     1       6.149  -7.800  44.070  1.00  0.00    -0.110 N 
HETATM   37  O7  UNL     1       6.616  -7.256  45.062  1.00  0.00    -0.532 OA
HETATM   38  O8  UNL     1       6.052  -9.184  43.991  1.00  0.00    -0.532 OA
ENDBRANCH  28  36
BRANCH  29  39
HETATM   39  O9  UNL     1       7.842  -5.889  42.652  1.00  0.00    -0.356 OA
ATOM     40  H9  UNL     1       8.429  -6.401  43.195  1.00  0.00     0.218 HD
ENDBRANCH  29  39
ENDBRANCH  23  25
ENDBRANCH   1  22
TORSDOF 13
ENDMDL
MODEL 2
REMARK VINA RESULT: -7.828836178      0.922      1.268
REMARK  13 active torsions:
REMARK  status: ('A' for Active; 'I' for Inactive)
REMARK    1  A    between atoms: O1_2  and  C2_3 
REMARK    2  A    between atoms: C2_3  and  C3_5 
REMARK    3  A    between atoms: C4_7  and  N1_8 
REMARK    4  A    between atoms: N1_8  and  N2_10 
REMARK    5  A    between atoms: C5_12  and  C6_13 
REMARK    6  A    between atoms: C7_15  and  C8_16 
REMARK    7  A    between atoms: C8_16  and  O4_17 
REMARK    8  A    between atoms: C8_16  and  C9_19 
REMARK    9  A    between atoms: C10_22  and  N3_23 
REMARK   10  A    between atoms: C11_26  and  O9_27 
REMARK   11  A    between atoms: C12_31  and  C13_32 
REMARK   12  A    between atoms: C13_32  and  N5_33 
REMARK   13  A    between atoms: C13_32  and  N6_37 
ROOT
HETATM    1  N1  UNL     1       5.910  -3.355  38.364  1.00  0.00    -0.280 N 
ATOM      2  H1  UNL     1       6.652  -3.579  37.701  1.00  0.00     0.189 HD
ENDROOT
BRANCH   1   3
HETATM    3  C4  UNL     1       5.342  -2.167  38.386  1.00  0.00     0.164 A 
HETATM    4  S1  UNL     1       4.572  -1.375  39.668  1.00  0.00    -0.044 SA
HETATM    5  C3  UNL     1       4.133   0.099  38.833  1.00  0.00     0.110 A 
HETATM    6  C12 UNL     1       4.634  -0.149  37.596  1.00  0.00     0.092 A 
HETATM    7  N4  UNL     1       5.242  -1.302  37.390  1.00  0.00    -0.334 N 
ATOM      8  H4  UNL     1       5.631  -1.523  36.474  1.00  0.00     0.168 HD
BRANCH   5   9
HETATM    9  C2  UNL     1       3.393   1.198  39.436  1.00  0.00     0.302 C 
HETATM   10  O2  UNL     1       3.418   1.466  40.627  1.00  0.00    -0.259 OA
BRANCH   9  11
HETATM   11  O1  UNL     1       2.593   2.019  38.619  1.00  0.00    -0.322 OA
HETATM   12  C1  UNL     1       1.181   1.990  38.731  1.00  0.00     0.213 C 
ENDBRANCH   9  11
ENDBRANCH   5   9
BRANCH   6  13
HETATM   13  C13 UNL     1       4.567   0.894  36.485  1.00  0.00     0.428 C 
BRANCH  13  14
HETATM   14  N5  UNL     1       3.200   1.064  36.053  1.00  0.00    -0.045 N 
ATOM     15  H53 UNL     1       2.841   0.235  35.581  1.00  0.00     0.277 HD
ATOM     16  H52 UNL     1       2.549   1.082  36.838  1.00  0.00     0.277 HD
ATOM     17  H51 UNL     1       3.121   1.899  35.472  1.00  0.00     0.277 HD
ENDBRANCH  13  14
BRANCH  13  18
HETATM   18  N6  UNL     1       5.408   0.462  35.380  1.00  0.00    -0.045 N 
ATOM     19  H63 UNL     1       6.364   0.809  35.460  1.00  0.00     0.277 HD
ATOM     20  H62 UNL     1       5.616  -0.537  35.417  1.00  0.00     0.277 HD
ATOM     21  H61 UNL     1       4.967   0.734  34.501  1.00  0.00     0.277 HD
ENDBRANCH  13  18
ENDBRANCH   6  13
ENDBRANCH   1   3
BRANCH   1  22
HETATM   22  N2  UNL     1       5.452  -4.288  39.288  1.00  0.00    -0.307 N 
HETATM   23  C5  UNL     1       6.144  -4.694  40.284  1.00  0.00     0.147 C 
ATOM     24  H2  UNL     1       4.514  -4.670  39.164  1.00  0.00     0.186 HD
BRANCH  23  25
HETATM   25  C6  UNL     1       5.635  -5.676  41.239  1.00  0.00     0.128 A 
HETATM   26  O3  UNL     1       4.450  -6.223  41.154  1.00  0.00    -0.305 OA
HETATM   27  C7  UNL     1       4.262  -7.077  42.159  1.00  0.00     0.129 A 
HETATM   28  C10 UNL     1       5.391  -7.081  42.937  1.00  0.00     0.171 A 
HETATM   29  C11 UNL     1       6.272  -6.176  42.338  1.00  0.00     0.137 A 
BRANCH  27  30
HETATM   30  C8  UNL     1       3.031  -7.866  42.363  1.00  0.00     0.278 C 
BRANCH  30  31
HETATM   31  O4  UNL     1       2.462  -7.605  43.619  1.00  0.00    -0.378 OA
ATOM     32  H4  UNL     1       2.096  -8.394  44.002  1.00  0.00     0.211 HD
ENDBRANCH  30  31
BRANCH  30  33
HETATM   33  C9  UNL     1       2.049  -7.604  41.315  1.00  0.00     0.209 C 
HETATM   34  O5  UNL     1       1.235  -6.642  41.496  1.00  0.00    -0.646 OA
HETATM   35  O6  UNL     1       1.950  -8.334  40.139  1.00  0.00    -0.646 OA
ENDBRANCH  30  33
ENDBRANCH  27  30
BRANCH  28  36
HETATM   36  N3  UNL     1       5.737  -7.816  44.094  1.00  0.00    -0.110 N 
HETATM   37  O7  UNL     1       5.112  -7.702  45.140  1.00  0.00    -0.532 OA
HETATM   38  O8  UNL     1       6.839  -8.659  44.006  1.00  0.00    -0.532 OA
ENDBRANCH  28  36
BRANCH  29  39
HETATM   39  O9  UNL     1       7.525  -5.891  42.818  1.00  0.00    -0.356 OA
ATOM     40  H9  UNL     1       8.373  -6.091  42.438  1.00  0.00     0.218 HD
ENDBRANCH  29  39
ENDBRANCH  23  25
ENDBRANCH   1  22
TORSDOF 13
ENDMDL
MODEL 3
REMARK VINA RESULT: -7.556664237      1.412      2.698
REMARK  13 active torsions:
REMARK  status: ('A' for Active; 'I' for Inactive)
REMARK    1  A    between atoms: O1_2  and  C2_3 
REMARK    2  A    between atoms: C2_3  and  C3_5 
REMARK    3  A    between atoms: C4_7  and  N1_8 
REMARK    4  A    between atoms: N1_8  and  N2_10 
REMARK    5  A    between atoms: C5_12  and  C6_13 
REMARK    6  A    between atoms: C7_15  and  C8_16 
REMARK    7  A    between atoms: C8_16  and  O4_17 
REMARK    8  A    between atoms: C8_16  and  C9_19 
REMARK    9  A    between atoms: C10_22  and  N3_23 
REMARK   10  A    between atoms: C11_26  and  O9_27 
REMARK   11  A    between atoms: C12_31  and  C13_32 
REMARK   12  A    between atoms: C13_32  and  N5_33 
REMARK   13  A    between atoms: C13_32  and  N6_37 
ROOT
HETATM    1  N1  UNL     1       5.941  -3.497  38.765  1.00  0.00    -0.280 N 
ATOM      2  H1  UNL     1       6.847  -3.684  38.333  1.00  0.00     0.189 HD
ENDROOT
BRANCH   1   3
HETATM    3  C4  UNL     1       5.374  -2.311  38.689  1.00  0.00     0.164 A 
HETATM    4  S1  UNL     1       4.568  -1.434  39.890  1.00  0.00    -0.044 SA
HETATM    5  C3  UNL     1       4.156  -0.020  38.944  1.00  0.00     0.110 A 
HETATM    6  C12 UNL     1       4.693  -0.351  37.743  1.00  0.00     0.092 A 
HETATM    7  N4  UNL     1       5.306  -1.515  37.634  1.00  0.00    -0.334 N 
ATOM      8  H4  UNL     1       5.722  -1.798  36.747  1.00  0.00     0.168 HD
BRANCH   5   9
HETATM    9  C2  UNL     1       3.400   1.117  39.449  1.00  0.00     0.302 C 
HETATM   10  O2  UNL     1       3.366   1.448  40.624  1.00  0.00    -0.259 OA
BRANCH   9  11
HETATM   11  O1  UNL     1       2.654   1.901  38.549  1.00  0.00    -0.322 OA
HETATM   12  C1  UNL     1       1.251   2.033  38.699  1.00  0.00     0.213 C 
ENDBRANCH   9  11
ENDBRANCH   5   9
BRANCH   6  13
HETATM   13  C13 UNL     1       4.661   0.615  36.562  1.00  0.00     0.428 C 
BRANCH  13  14
HETATM   14  N5  UNL     1       3.310   0.748  36.073  1.00  0.00    -0.045 N 
ATOM     15  H53 UNL     1       3.153   0.200  35.227  1.00  0.00     0.277 HD
ATOM     16  H52 UNL     1       2.636   0.281  36.679  1.00  0.00     0.277 HD
ATOM     17  H51 UNL     1       3.085   1.733  35.938  1.00  0.00     0.277 HD
ENDBRANCH  13  14
BRANCH  13  18
HETATM   18  N6  UNL     1       5.542   0.113  35.518  1.00  0.00    -0.045 N 
ATOM     19  H63 UNL     1       5.792  -0.866  35.658  1.00  0.00     0.277 HD
ATOM     20  H62 UNL     1       5.064   0.011  34.622  1.00  0.00     0.277 HD
ATOM     21  H61 UNL     1       6.360   0.719  35.455  1.00  0.00     0.277 HD
ENDBRANCH  13  18
ENDBRANCH   6  13
ENDBRANCH   1   3
BRANCH   1  22
HETATM   22  N2  UNL     1       5.248  -4.481  39.461  1.00  0.00    -0.307 N 
HETATM   23  C5  UNL     1       5.671  -5.008  40.547  1.00  0.00     0.147 C 
ATOM     24  H2  UNL     1       4.356  -4.801  39.085  1.00  0.00     0.186 HD
BRANCH  23  25
HETATM   25  C6  UNL     1       4.921  -6.041  41.257  1.00  0.00     0.128 A 
HETATM   26  O3  UNL     1       5.426  -6.775  42.215  1.00  0.00    -0.305 OA
HETATM   27  C7  UNL     1       4.512  -7.629  42.674  1.00  0.00     0.129 A 
HETATM   28  C10 UNL     1       3.351  -7.435  41.972  1.00  0.00     0.171 A 
HETATM   29  C11 UNL     1       3.621  -6.410  41.060  1.00  0.00     0.137 A 
BRANCH  27  30
HETATM   30  C8  UNL     1       4.752  -8.603  43.757  1.00  0.00     0.278 C 
BRANCH  30  31
HETATM   31  O4  UNL     1       4.490  -9.913  43.330  1.00  0.00    -0.378 OA
ATOM     32  H4  UNL     1       5.079 -10.534  43.743  1.00  0.00     0.211 HD
ENDBRANCH  30  31
BRANCH  30  33
HETATM   33  C9  UNL     1       6.119  -8.515  44.262  1.00  0.00     0.209 C 
HETATM   34  O5  UNL     1       6.928  -9.442  43.939  1.00  0.00    -0.646 OA
HETATM   35  O6  UNL     1       6.588  -7.485  45.067  1.00  0.00    -0.646 OA
ENDBRANCH  30  33
ENDBRANCH  27  30
BRANCH  28  36
HETATM   36  N3  UNL     1       2.078  -8.041  42.069  1.00  0.00    -0.110 N 
HETATM   37  O7  UNL     1       1.917  -9.238  41.874  1.00  0.00    -0.532 OA
HETATM   38  O8  UNL     1       1.001  -7.214  42.369  1.00  0.00    -0.532 OA
ENDBRANCH  28  36
BRANCH  29  39
HETATM   39  O9  UNL     1       2.706  -5.918  40.164  1.00  0.00    -0.356 OA
ATOM     40  H9  UNL     1       2.020  -5.275  40.300  1.00  0.00     0.218 HD
ENDBRANCH  29  39
ENDBRANCH  23  25
ENDBRANCH   1  22
TORSDOF 13
ENDMDL
MODEL 4
REMARK VINA RESULT: -7.495834122      1.175      2.536
REMARK  13 active torsions:
REMARK  status: ('A' for Active; 'I' for Inactive)
REMARK    1  A    between atoms: O1_2  and  C2_3 
REMARK    2  A    between atoms: C2_3  and  C3_5 
REMARK    3  A    between atoms: C4_7  and  N1_8 
REMARK    4  A    between atoms: N1_8  and  N2_10 
REMARK    5  A    between atoms: C5_12  and  C6_13 
REMARK    6  A    between atoms: C7_15  and  C8_16 
REMARK    7  A    between atoms: C8_16  and  O4_17 
REMARK    8  A    between atoms: C8_16  and  C9_19 
REMARK    9  A    between atoms: C10_22  and  N3_23 
REMARK   10  A    between atoms: C11_26  and  O9_27 
REMARK   11  A    between atoms: C12_31  and  C13_32 
REMARK   12  A    between atoms: C13_32  and  N5_33 
REMARK   13  A    between atoms: C13_32  and  N6_37 
ROOT
HETATM    1  N1  UNL     1       5.917  -3.468  38.702  1.00  0.00    -0.280 N 
ATOM      2  H1  UNL     1       6.701  -3.719  38.099  1.00  0.00     0.189 HD
ENDROOT
BRANCH   1   3
HETATM    3  C4  UNL     1       5.354  -2.279  38.641  1.00  0.00     0.164 A 
HETATM    4  S1  UNL     1       4.557  -1.411  39.854  1.00  0.00    -0.044 SA
HETATM    5  C3  UNL     1       4.147   0.014  38.924  1.00  0.00     0.110 A 
HETATM    6  C12 UNL     1       4.677  -0.307  37.717  1.00  0.00     0.092 A 
HETATM    7  N4  UNL     1       5.284  -1.472  37.594  1.00  0.00    -0.334 N 
ATOM      8  H4  UNL     1       5.695  -1.748  36.702  1.00  0.00     0.168 HD
BRANCH   5   9
HETATM    9  C2  UNL     1       3.398   1.150  39.444  1.00  0.00     0.302 C 
HETATM   10  O2  UNL     1       3.397   1.488  40.616  1.00  0.00    -0.259 OA
BRANCH   9  11
HETATM   11  O1  UNL     1       2.618   1.921  38.562  1.00  0.00    -0.322 OA
HETATM   12  C1  UNL     1       1.213   2.003  38.724  1.00  0.00     0.213 C 
ENDBRANCH   9  11
ENDBRANCH   5   9
BRANCH   6  13
HETATM   13  C13 UNL     1       4.645   0.671  36.546  1.00  0.00     0.428 C 
BRANCH  13  14
HETATM   14  N5  UNL     1       3.291   0.818  36.068  1.00  0.00    -0.045 N 
ATOM     15  H53 UNL     1       3.138   0.320  35.191  1.00  0.00     0.277 HD
ATOM     16  H52 UNL     1       2.622   0.310  36.647  1.00  0.00     0.277 HD
ATOM     17  H51 UNL     1       3.056   1.808  35.991  1.00  0.00     0.277 HD
ENDBRANCH  13  14
BRANCH  13  18
HETATM   18  N6  UNL     1       5.514   0.173  35.491  1.00  0.00    -0.045 N 
ATOM     19  H63 UNL     1       5.093  -0.597  34.971  1.00  0.00     0.277 HD
ATOM     20  H62 UNL     1       5.606   0.834  34.719  1.00  0.00     0.277 HD
ATOM     21  H61 UNL     1       6.416  -0.079  35.897  1.00  0.00     0.277 HD
ENDBRANCH  13  18
ENDBRANCH   6  13
ENDBRANCH   1   3
BRANCH   1  22
HETATM   22  N2  UNL     1       5.391  -4.365  39.626  1.00  0.00    -0.307 N 
HETATM   23  C5  UNL     1       6.101  -4.981  40.493  1.00  0.00     0.147 C 
ATOM     24  H2  UNL     1       4.387  -4.541  39.611  1.00  0.00     0.186 HD
BRANCH  23  25
HETATM   25  C6  UNL     1       5.521  -5.918  41.453  1.00  0.00     0.128 A 
HETATM   26  O3  UNL     1       6.166  -6.386  42.490  1.00  0.00    -0.305 OA
HETATM   27  C7  UNL     1       5.388  -7.216  43.183  1.00  0.00     0.129 A 
HETATM   28  C10 UNL     1       4.171  -7.288  42.557  1.00  0.00     0.171 A 
HETATM   29  C11 UNL     1       4.263  -6.448  41.442  1.00  0.00     0.137 A 
BRANCH  27  30
HETATM   30  C8  UNL     1       5.807  -7.919  44.412  1.00  0.00     0.278 C 
BRANCH  30  31
HETATM   31  O4  UNL     1       4.814  -7.850  45.400  1.00  0.00    -0.378 OA
ATOM     32  H4  UNL     1       5.018  -8.417  46.135  1.00  0.00     0.211 HD
ENDBRANCH  30  31
BRANCH  30  33
HETATM   33  C9  UNL     1       6.136  -9.315  44.143  1.00  0.00     0.209 C 
HETATM   34  O5  UNL     1       7.354  -9.668  44.263  1.00  0.00    -0.646 OA
HETATM   35  O6  UNL     1       5.209 -10.278  43.768  1.00  0.00    -0.646 OA
ENDBRANCH  30  33
ENDBRANCH  27  30
BRANCH  28  36
HETATM   36  N3  UNL     1       2.985  -7.986  42.878  1.00  0.00    -0.110 N 
HETATM   37  O7  UNL     1       2.544  -8.872  42.158  1.00  0.00    -0.532 OA
HETATM   38  O8  UNL     1       2.317  -7.607  44.037  1.00  0.00    -0.532 OA
ENDBRANCH  28  36
BRANCH  29  39
HETATM   39  O9  UNL     1       3.243  -6.244  40.548  1.00  0.00    -0.356 OA
ATOM     40  H9  UNL     1       2.417  -5.792  40.674  1.00  0.00     0.218 HD
ENDBRANCH  29  39
ENDBRANCH  23  25
ENDBRANCH   1  22
TORSDOF 13
ENDMDL
MODEL 5
REMARK VINA RESULT: -7.424959169      2.312      3.231
REMARK  13 active torsions:
REMARK  status: ('A' for Active; 'I' for Inactive)
REMARK    1  A    between atoms: O1_2  and  C2_3 
REMARK    2  A    between atoms: C2_3  and  C3_5 
REMARK    3  A    between atoms: C4_7  and  N1_8 
REMARK    4  A    between atoms: N1_8  and  N2_10 
REMARK    5  A    between atoms: C5_12  and  C6_13 
REMARK    6  A    between atoms: C7_15  and  C8_16 
REMARK    7  A    between atoms: C8_16  and  O4_17 
REMARK    8  A    between atoms: C8_16  and  C9_19 
REMARK    9  A    between atoms: C10_22  and  N3_23 
REMARK   10  A    between atoms: C11_26  and  O9_27 
REMARK   11  A    between atoms: C12_31  and  C13_32 
REMARK   12  A    between atoms: C13_32  and  N5_33 
REMARK   13  A    between atoms: C13_32  and  N6_37 
ROOT
HETATM    1  N1  UNL     1       2.211  -1.244  41.195  1.00  0.00    -0.280 N 
ATOM      2  H1  UNL     1       1.498  -1.191  41.923  1.00  0.00     0.189 HD
ENDROOT
BRANCH   1   3
HETATM    3  C4  UNL     1       2.233  -0.395  40.189  1.00  0.00     0.164 A 
HETATM    4  S1  UNL     1       1.072   0.747  39.729  1.00  0.00    -0.044 SA
HETATM    5  C3  UNL     1       1.901   1.409  38.337  1.00  0.00     0.110 A 
HETATM    6  C12 UNL     1       3.041   0.674  38.344  1.00  0.00     0.092 A 
HETATM    7  N4  UNL     1       3.190  -0.235  39.290  1.00  0.00    -0.334 N 
ATOM      8  H4  UNL     1       4.034  -0.807  39.327  1.00  0.00     0.168 HD
BRANCH   5   9
HETATM    9  C2  UNL     1       1.361   2.453  37.477  1.00  0.00     0.302 C 
HETATM   10  O2  UNL     1       0.810   2.240  36.408  1.00  0.00    -0.259 OA
BRANCH   9  11
HETATM   11  O1  UNL     1       1.468   3.797  37.877  1.00  0.00    -0.322 OA
HETATM   12  C1  UNL     1       0.309   4.552  38.187  1.00  0.00     0.213 C 
ENDBRANCH   9  11
ENDBRANCH   5   9
BRANCH   6  13
HETATM   13  C13 UNL     1       4.159   0.926  37.337  1.00  0.00     0.428 C 
BRANCH  13  14
HETATM   14  N5  UNL     1       3.684   0.666  36.000  1.00  0.00    -0.045 N 
ATOM     15  H53 UNL     1       2.694   0.887  35.895  1.00  0.00     0.277 HD
ATOM     16  H52 UNL     1       4.057   1.332  35.324  1.00  0.00     0.277 HD
ATOM     17  H51 UNL     1       3.890  -0.299  35.739  1.00  0.00     0.277 HD
ENDBRANCH  13  14
BRANCH  13  18
HETATM   18  N6  UNL     1       5.288   0.068  37.660  1.00  0.00    -0.045 N 
ATOM     19  H63 UNL     1       6.178   0.565  37.621  1.00  0.00     0.277 HD
ATOM     20  H62 UNL     1       5.312  -0.189  38.648  1.00  0.00     0.277 HD
ATOM     21  H61 UNL     1       5.270  -0.748  37.047  1.00  0.00     0.277 HD
ENDBRANCH  13  18
ENDBRANCH   6  13
ENDBRANCH   1   3
BRANCH   1  22
HETATM   22  N2  UNL     1       3.205  -2.217  41.218  1.00  0.00    -0.307 N 
HETATM   23  C5  UNL     1       2.998  -3.428  41.574  1.00  0.00     0.147 C 
ATOM     24  H2  UNL     1       4.148  -1.950  40.938  1.00  0.00     0.186 HD
BRANCH  23  25
HETATM   25  C6  UNL     1       4.063  -4.429  41.588  1.00  0.00     0.128 A 
HETATM   26  O3  UNL     1       4.019  -5.524  42.301  1.00  0.00    -0.305 OA
HETATM   27  C7  UNL     1       5.125  -6.244  42.115  1.00  0.00     0.129 A 
HETATM   28  C10 UNL     1       5.928  -5.574  41.228  1.00  0.00     0.171 A 
HETATM   29  C11 UNL     1       5.238  -4.405  40.893  1.00  0.00     0.137 A 
BRANCH  27  30
HETATM   30  C8  UNL     1       5.398  -7.538  42.770  1.00  0.00     0.278 C 
BRANCH  30  31
HETATM   31  O4  UNL     1       6.352  -7.400  43.789  1.00  0.00    -0.378 OA
ATOM     32  H4  UNL     1       6.044  -6.817  44.473  1.00  0.00     0.211 HD
ENDBRANCH  30  31
BRANCH  30  33
HETATM   33  C9  UNL     1       4.179  -8.129  43.315  1.00  0.00     0.209 C 
HETATM   34  O5  UNL     1       3.558  -8.971  42.590  1.00  0.00    -0.646 OA
HETATM   35  O6  UNL     1       3.660  -7.833  44.568  1.00  0.00    -0.646 OA
ENDBRANCH  30  33
ENDBRANCH  27  30
BRANCH  28  36
HETATM   36  N3  UNL     1       7.183  -5.895  40.665  1.00  0.00    -0.110 N 
HETATM   37  O7  UNL     1       7.460  -5.615  39.506  1.00  0.00    -0.532 OA
HETATM   38  O8  UNL     1       8.090  -6.571  41.473  1.00  0.00    -0.532 OA
ENDBRANCH  28  36
BRANCH  29  39
HETATM   39  O9  UNL     1       5.711  -3.456  40.023  1.00  0.00    -0.356 OA
ATOM     40  H9  UNL     1       6.608  -3.200  39.845  1.00  0.00     0.218 HD
ENDBRANCH  29  39
ENDBRANCH  23  25
ENDBRANCH   1  22
TORSDOF 13
ENDMDL
