MODEL 1
REMARK VINA RESULT: -8.362726326      0.000      0.000
REMARK  9 active torsions:
REMARK  status: ('A' for Active; 'I' for Inactive)
REMARK    1  A    between atoms: O1_2  and  C2_3 
REMARK    2  A    between atoms: C2_3  and  C3_5 
REMARK    3  A    between atoms: C3_5  and  C4_6 
REMARK    4  A    between atoms: C4_6  and  N1_7 
REMARK    5  A    between atoms: C7_13  and  O3_14 
REMARK    6  A    between atoms: O3_14  and  C8_15 
REMARK    7  A    between atoms: C9_16  and  N4_17 
REMARK       I    between atoms: N4_17  and  C10_19 
REMARK    8  A    between atoms: C12_30  and  N9_31 
REMARK       I    between atoms: N9_31  and  C13_33 
REMARK    9  A    between atoms: C13_33  and  O6_35 
ROOT
HETATM    1  N1  UNL     1       1.524  -3.064  41.553  1.00  0.00    -0.275 N 
HETATM    2  N2  UNL     1       0.889  -1.971  41.196  1.00  0.00    -0.285 N 
ATOM      3  H2  UNL     1      -0.107  -1.815  41.346  1.00  0.00     0.188 HD
HETATM    4  C5  UNL     1       1.710  -1.086  40.611  1.00  0.00     0.166 A 
HETATM    5  C6  UNL     1       1.279   0.184  40.107  1.00  0.00     0.122 C 
HETATM    6  N3  UNL     1       0.958   1.212  39.693  1.00  0.00    -0.190 NA
HETATM    7  C7  UNL     1       2.992  -1.644  40.580  1.00  0.00     0.157 A 
HETATM    8  C15 UNL     1       2.792  -2.887  41.191  1.00  0.00     0.170 A 
HETATM    9  N10 UNL     1       3.779  -3.888  41.455  1.00  0.00    -0.078 NA
ENDROOT
BRANCH   7  10
HETATM   10  O3  UNL     1       4.160  -1.117  40.091  1.00  0.00    -0.296 OA
BRANCH  10  11
HETATM   11  C8  UNL     1       4.843  -1.275  38.942  1.00  0.00     0.165 A 
HETATM   12  C9  UNL     1       4.750  -0.214  38.020  1.00  0.00     0.162 A 
HETATM   13  N6  UNL     1       5.394  -0.321  36.865  1.00  0.00    -0.174 N 
HETATM   14  C11 UNL     1       6.126  -1.385  36.537  1.00  0.00     0.679 A 
ATOM     15  H6  UNL     1       5.326   0.447  36.196  1.00  0.00     0.186 HD
HETATM   16  N7  UNL     1       6.752  -1.477  35.396  1.00  0.00    -0.234 N 
HETATM   17  N8  UNL     1       6.214  -2.409  37.438  1.00  0.00    -0.174 N 
ATOM     18  H72 UNL     1       6.687  -0.713  34.723  1.00  0.00     0.174 HD
ATOM     19  H71 UNL     1       7.312  -2.292  35.145  1.00  0.00     0.174 HD
HETATM   20  C12 UNL     1       5.602  -2.395  38.629  1.00  0.00     0.163 A 
ATOM     21  H8  UNL     1       6.776  -3.225  37.191  1.00  0.00     0.186 HD
BRANCH  12  22
HETATM   22  N4  UNL     1       4.011   0.978  38.366  1.00  0.00    -0.294 N 
HETATM   23  C10 UNL     1       3.173   1.591  37.428  1.00  0.00     0.334 C 
HETATM   24  N5  UNL     1       2.455   2.759  37.789  1.00  0.00    -0.040 NA
HETATM   25  O4  UNL     1       3.046   1.118  36.261  1.00  0.00    -0.251 OA
ATOM     26  H4  UNL     1       4.101   1.375  39.301  1.00  0.00     0.172 HD
ENDBRANCH  12  22
BRANCH  20  27
HETATM   27  N9  UNL     1       5.744  -3.457  39.554  1.00  0.00    -0.286 N 
HETATM   28  C13 UNL     1       6.523  -4.597  39.452  1.00  0.00     0.365 C 
HETATM   29  O5  UNL     1       6.536  -5.432  40.425  1.00  0.00    -0.238 OA
ATOM     30  H9  UNL     1       5.199  -3.370  40.411  1.00  0.00     0.172 HD
BRANCH  28  31
HETATM   31  O6  UNL     1       7.313  -4.947  38.387  1.00  0.00    -0.309 OA
HETATM   32  C14 UNL     1       6.817  -5.798  37.382  1.00  0.00     0.215 C 
ENDBRANCH  28  31
ENDBRANCH  20  27
ENDBRANCH  10  11
ENDBRANCH   7  10
BRANCH   1  33
HETATM   33  C4  UNL     1       0.925  -4.234  42.215  1.00  0.00     0.160 C 
BRANCH  33  34
HETATM   34  C3  UNL     1      -0.163  -4.766  41.330  1.00  0.00     0.133 C 
BRANCH  34  35
HETATM   35  C2  UNL     1       0.366  -5.737  40.333  1.00  0.00     0.260 C 
HETATM   36  O2  UNL     1       1.503  -6.255  40.429  1.00  0.00    -0.265 OA
BRANCH  35  37
HETATM   37  O1  UNL     1      -0.397  -6.124  39.217  1.00  0.00    -0.326 OA
HETATM   38  C1  UNL     1       0.190  -6.562  38.008  1.00  0.00     0.213 C 
ENDBRANCH  35  37
ENDBRANCH  34  35
ENDBRANCH  33  34
ENDBRANCH   1  33
TORSDOF 9
ENDMDL
MODEL 2
REMARK VINA RESULT: -8.342854670      1.077      1.195
REMARK  9 active torsions:
REMARK  status: ('A' for Active; 'I' for Inactive)
REMARK    1  A    between atoms: O1_2  and  C2_3 
REMARK    2  A    between atoms: C2_3  and  C3_5 
REMARK    3  A    between atoms: C3_5  and  C4_6 
REMARK    4  A    between atoms: C4_6  and  N1_7 
REMARK    5  A    between atoms: C7_13  and  O3_14 
REMARK    6  A    between atoms: O3_14  and  C8_15 
REMARK    7  A    between atoms: C9_16  and  N4_17 
REMARK       I    between atoms: N4_17  and  C10_19 
REMARK    8  A    between atoms: C12_30  and  N9_31 
REMARK       I    between atoms: N9_31  and  C13_33 
REMARK    9  A    between atoms: C13_33  and  O6_35 
ROOT
HETATM    1  N1  UNL     1       1.522  -3.047  41.561  1.00  0.00    -0.275 N 
HETATM    2  N2  UNL     1       0.891  -1.950  41.212  1.00  0.00    -0.285 N 
ATOM      3  H2  UNL     1      -0.104  -1.788  41.367  1.00  0.00     0.188 HD
HETATM    4  C5  UNL     1       1.713  -1.067  40.625  1.00  0.00     0.166 A 
HETATM    5  C6  UNL     1       1.285   0.206  40.126  1.00  0.00     0.122 C 
HETATM    6  N3  UNL     1       0.967   1.237  39.718  1.00  0.00    -0.190 NA
HETATM    7  C7  UNL     1       2.992  -1.631  40.585  1.00  0.00     0.157 A 
HETATM    8  C15 UNL     1       2.789  -2.875  41.194  1.00  0.00     0.170 A 
HETATM    9  N10 UNL     1       3.772  -3.882  41.449  1.00  0.00    -0.078 NA
ENDROOT
BRANCH   7  10
HETATM   10  O3  UNL     1       4.159  -1.108  40.092  1.00  0.00    -0.296 OA
BRANCH  10  11
HETATM   11  C8  UNL     1       4.838  -1.270  38.941  1.00  0.00     0.165 A 
HETATM   12  C9  UNL     1       4.741  -0.213  38.014  1.00  0.00     0.162 A 
HETATM   13  N6  UNL     1       5.381  -0.325  36.857  1.00  0.00    -0.174 N 
HETATM   14  C11 UNL     1       6.112  -1.390  36.531  1.00  0.00     0.679 A 
ATOM     15  H6  UNL     1       5.310   0.440  36.186  1.00  0.00     0.186 HD
HETATM   16  N7  UNL     1       6.735  -1.486  35.388  1.00  0.00    -0.234 N 
HETATM   17  N8  UNL     1       6.205  -2.411  37.436  1.00  0.00    -0.174 N 
ATOM     18  H72 UNL     1       6.666  -0.725  34.713  1.00  0.00     0.174 HD
ATOM     19  H71 UNL     1       7.294  -2.301  35.138  1.00  0.00     0.174 HD
HETATM   20  C12 UNL     1       5.597  -2.392  38.629  1.00  0.00     0.163 A 
ATOM     21  H8  UNL     1       6.766  -3.226  37.190  1.00  0.00     0.186 HD
BRANCH  12  22
HETATM   22  N4  UNL     1       4.003   0.979  38.358  1.00  0.00    -0.294 N 
HETATM   23  C10 UNL     1       3.163   1.590  37.420  1.00  0.00     0.334 C 
HETATM   24  N5  UNL     1       2.446   2.759  37.780  1.00  0.00    -0.040 NA
HETATM   25  O4  UNL     1       3.034   1.113  36.255  1.00  0.00    -0.251 OA
ATOM     26  H4  UNL     1       4.095   1.379  39.292  1.00  0.00     0.172 HD
ENDBRANCH  12  22
BRANCH  20  27
HETATM   27  N9  UNL     1       5.743  -3.450  39.558  1.00  0.00    -0.286 N 
HETATM   28  C13 UNL     1       6.523  -4.589  39.458  1.00  0.00     0.365 C 
HETATM   29  O5  UNL     1       6.539  -5.421  40.434  1.00  0.00    -0.238 OA
ATOM     30  H9  UNL     1       5.201  -3.360  40.417  1.00  0.00     0.172 HD
BRANCH  28  31
HETATM   31  O6  UNL     1       7.308  -4.943  38.391  1.00  0.00    -0.309 OA
HETATM   32  C14 UNL     1       6.803  -5.783  37.381  1.00  0.00     0.215 C 
ENDBRANCH  28  31
ENDBRANCH  20  27
ENDBRANCH  10  11
ENDBRANCH   7  10
BRANCH   1  33
HETATM   33  C4  UNL     1       0.921  -4.216  42.224  1.00  0.00     0.160 C 
BRANCH  33  34
HETATM   34  C3  UNL     1       0.003  -4.886  41.245  1.00  0.00     0.133 C 
BRANCH  34  35
HETATM   35  C2  UNL     1      -1.418  -4.503  41.474  1.00  0.00     0.260 C 
HETATM   36  O2  UNL     1      -1.753  -3.575  42.247  1.00  0.00    -0.265 OA
BRANCH  35  37
HETATM   37  O1  UNL     1      -2.467  -5.175  40.823  1.00  0.00    -0.326 OA
HETATM   38  C1  UNL     1      -2.327  -5.738  39.533  1.00  0.00     0.213 C 
ENDBRANCH  35  37
ENDBRANCH  34  35
ENDBRANCH  33  34
ENDBRANCH   1  33
TORSDOF 9
ENDMDL
MODEL 3
REMARK VINA RESULT: -8.187949223      2.645      7.515
REMARK  9 active torsions:
REMARK  status: ('A' for Active; 'I' for Inactive)
REMARK    1  A    between atoms: O1_2  and  C2_3 
REMARK    2  A    between atoms: C2_3  and  C3_5 
REMARK    3  A    between atoms: C3_5  and  C4_6 
REMARK    4  A    between atoms: C4_6  and  N1_7 
REMARK    5  A    between atoms: C7_13  and  O3_14 
REMARK    6  A    between atoms: O3_14  and  C8_15 
REMARK    7  A    between atoms: C9_16  and  N4_17 
REMARK       I    between atoms: N4_17  and  C10_19 
REMARK    8  A    between atoms: C12_30  and  N9_31 
REMARK       I    between atoms: N9_31  and  C13_33 
REMARK    9  A    between atoms: C13_33  and  O6_35 
ROOT
HETATM    1  N1  UNL     1       2.748  -0.480  39.927  1.00  0.00    -0.275 N 
HETATM    2  N2  UNL     1       3.881  -0.941  39.450  1.00  0.00    -0.285 N 
ATOM      3  H2  UNL     1       4.464  -0.442  38.779  1.00  0.00     0.188 HD
HETATM    4  C5  UNL     1       4.178  -2.151  39.950  1.00  0.00     0.166 A 
HETATM    5  C6  UNL     1       5.345  -2.896  39.586  1.00  0.00     0.122 C 
HETATM    6  N3  UNL     1       6.278  -3.516  39.309  1.00  0.00    -0.190 NA
HETATM    7  C7  UNL     1       3.154  -2.515  40.831  1.00  0.00     0.157 A 
HETATM    8  C15 UNL     1       2.295  -1.412  40.762  1.00  0.00     0.170 A 
HETATM    9  N10 UNL     1       1.076  -1.221  41.484  1.00  0.00    -0.078 NA
ENDROOT
BRANCH   7  10
HETATM   10  O3  UNL     1       3.017  -3.651  41.585  1.00  0.00    -0.296 OA
BRANCH  10  11
HETATM   11  C8  UNL     1       2.528  -4.880  41.337  1.00  0.00     0.165 A 
HETATM   12  C9  UNL     1       3.483  -5.906  41.198  1.00  0.00     0.162 A 
HETATM   13  N6  UNL     1       3.057  -7.136  40.940  1.00  0.00    -0.174 N 
HETATM   14  C11 UNL     1       1.768  -7.446  40.808  1.00  0.00     0.679 A 
ATOM     15  H6  UNL     1       3.749  -7.880  40.839  1.00  0.00     0.186 HD
HETATM   16  N7  UNL     1       1.366  -8.661  40.553  1.00  0.00    -0.234 N 
HETATM   17  N8  UNL     1       0.847  -6.447  40.948  1.00  0.00    -0.174 N 
ATOM     18  H72 UNL     1       2.053  -9.407  40.449  1.00  0.00     0.174 HD
ATOM     19  H71 UNL     1       0.379  -8.898  40.452  1.00  0.00     0.174 HD
HETATM   20  C12 UNL     1       1.177  -5.174  41.208  1.00  0.00     0.163 A 
ATOM     21  H8  UNL     1      -0.141  -6.681  40.850  1.00  0.00     0.186 HD
BRANCH  12  22
HETATM   22  N4  UNL     1       4.884  -5.616  41.390  1.00  0.00    -0.294 N 
HETATM   23  C10 UNL     1       5.651  -6.371  42.285  1.00  0.00     0.334 C 
HETATM   24  N5  UNL     1       7.026  -6.070  42.457  1.00  0.00    -0.040 NA
HETATM   25  O4  UNL     1       5.134  -7.319  42.944  1.00  0.00    -0.251 OA
ATOM     26  H4  UNL     1       5.319  -4.854  40.869  1.00  0.00     0.172 HD
ENDBRANCH  12  22
BRANCH  20  27
HETATM   27  N9  UNL     1       0.195  -4.170  41.383  1.00  0.00    -0.286 N 
HETATM   28  C13 UNL     1      -1.184  -4.292  41.357  1.00  0.00     0.365 C 
HETATM   29  O5  UNL     1      -1.905  -3.253  41.570  1.00  0.00    -0.238 OA
ATOM     30  H9  UNL     1       0.552  -3.230  41.551  1.00  0.00     0.172 HD
BRANCH  28  31
HETATM   31  O6  UNL     1      -1.892  -5.441  41.118  1.00  0.00    -0.309 OA
HETATM   32  C14 UNL     1      -2.556  -5.628  39.891  1.00  0.00     0.215 C 
ENDBRANCH  28  31
ENDBRANCH  20  27
ENDBRANCH  10  11
ENDBRANCH   7  10
BRANCH   1  33
HETATM   33  C4  UNL     1       2.130   0.812  39.588  1.00  0.00     0.160 C 
BRANCH  33  34
HETATM   34  C3  UNL     1       2.490   1.143  38.170  1.00  0.00     0.133 C 
BRANCH  34  35
HETATM   35  C2  UNL     1       1.597   2.194  37.608  1.00  0.00     0.260 C 
HETATM   36  O2  UNL     1       0.830   1.982  36.639  1.00  0.00    -0.265 OA
BRANCH  35  37
HETATM   37  O1  UNL     1       1.574   3.493  38.144  1.00  0.00    -0.326 OA
HETATM   38  C1  UNL     1       0.420   4.310  38.108  1.00  0.00     0.213 C 
ENDBRANCH  35  37
ENDBRANCH  34  35
ENDBRANCH  33  34
ENDBRANCH   1  33
TORSDOF 9
ENDMDL
MODEL 4
REMARK VINA RESULT: -8.184739584      1.685      4.939
REMARK  9 active torsions:
REMARK  status: ('A' for Active; 'I' for Inactive)
REMARK    1  A    between atoms: O1_2  and  C2_3 
REMARK    2  A    between atoms: C2_3  and  C3_5 
REMARK    3  A    between atoms: C3_5  and  C4_6 
REMARK    4  A    between atoms: C4_6  and  N1_7 
REMARK    5  A    between atoms: C7_13  and  O3_14 
REMARK    6  A    between atoms: O3_14  and  C8_15 
REMARK    7  A    between atoms: C9_16  and  N4_17 
REMARK       I    between atoms: N4_17  and  C10_19 
REMARK    8  A    between atoms: C12_30  and  N9_31 
REMARK       I    between atoms: N9_31  and  C13_33 
REMARK    9  A    between atoms: C13_33  and  O6_35 
ROOT
HETATM    1  N1  UNL     1       1.441  -4.269  41.850  1.00  0.00    -0.275 N 
HETATM    2  N2  UNL     1       2.398  -5.163  41.947  1.00  0.00    -0.285 N 
ATOM      3  H2  UNL     1       2.254  -6.122  42.262  1.00  0.00     0.188 HD
HETATM    4  C5  UNL     1       3.588  -4.661  41.583  1.00  0.00     0.166 A 
HETATM    5  C6  UNL     1       4.808  -5.412  41.610  1.00  0.00     0.122 C 
HETATM    6  N3  UNL     1       5.804  -5.994  41.623  1.00  0.00    -0.190 NA
HETATM    7  C7  UNL     1       3.397  -3.326  41.215  1.00  0.00     0.157 A 
HETATM    8  C15 UNL     1       2.021  -3.156  41.410  1.00  0.00     0.170 A 
HETATM    9  N10 UNL     1       1.254  -1.974  41.166  1.00  0.00    -0.078 NA
ENDROOT
BRANCH   7  10
HETATM   10  O3  UNL     1       4.310  -2.407  40.765  1.00  0.00    -0.296 OA
BRANCH  10  11
HETATM   11  C8  UNL     1       4.554  -1.848  39.565  1.00  0.00     0.165 A 
HETATM   12  C9  UNL     1       5.471  -2.532  38.743  1.00  0.00     0.162 A 
HETATM   13  N6  UNL     1       5.758  -2.019  37.553  1.00  0.00    -0.174 N 
HETATM   14  C11 UNL     1       5.219  -0.888  37.100  1.00  0.00     0.679 A 
ATOM     15  H6  UNL     1       6.423  -2.513  36.957  1.00  0.00     0.186 HD
HETATM   16  N7  UNL     1       5.513  -0.395  35.927  1.00  0.00    -0.234 N 
HETATM   17  N8  UNL     1       4.327  -0.232  37.902  1.00  0.00    -0.174 N 
ATOM     18  H72 UNL     1       6.178  -0.885  35.329  1.00  0.00     0.174 HD
ATOM     19  H71 UNL     1       5.100   0.471  35.581  1.00  0.00     0.174 HD
HETATM   20  C12 UNL     1       3.973  -0.668  39.117  1.00  0.00     0.163 A 
ATOM     21  H8  UNL     1       3.911   0.633  37.557  1.00  0.00     0.186 HD
BRANCH  12  22
HETATM   22  N4  UNL     1       6.031  -3.788  39.179  1.00  0.00    -0.294 N 
HETATM   23  C10 UNL     1       6.879  -4.519  38.339  1.00  0.00     0.334 C 
HETATM   24  N5  UNL     1       7.420  -5.750  38.789  1.00  0.00    -0.040 NA
HETATM   25  O4  UNL     1       7.171  -4.096  37.183  1.00  0.00    -0.251 OA
ATOM     26  H4  UNL     1       5.807  -4.147  40.108  1.00  0.00     0.172 HD
ENDBRANCH  12  22
BRANCH  20  27
HETATM   27  N9  UNL     1       3.019   0.016  39.908  1.00  0.00    -0.286 N 
HETATM   28  C13 UNL     1       1.984   0.839  39.497  1.00  0.00     0.365 C 
HETATM   29  O5  UNL     1       1.203   1.345  40.380  1.00  0.00    -0.238 OA
ATOM     30  H9  UNL     1       3.107  -0.114  40.915  1.00  0.00     0.172 HD
BRANCH  28  31
HETATM   31  O6  UNL     1       1.688   1.187  38.205  1.00  0.00    -0.309 OA
HETATM   32  C14 UNL     1       1.253   2.490  37.899  1.00  0.00     0.215 C 
ENDBRANCH  28  31
ENDBRANCH  20  27
ENDBRANCH  10  11
ENDBRANCH   7  10
BRANCH   1  33
HETATM   33  C4  UNL     1       0.021  -4.485  42.173  1.00  0.00     0.160 C 
BRANCH  33  34
HETATM   34  C3  UNL     1      -0.360  -5.858  41.704  1.00  0.00     0.133 C 
BRANCH  34  35
HETATM   35  C2  UNL     1      -0.532  -5.905  40.226  1.00  0.00     0.260 C 
HETATM   36  O2  UNL     1      -1.658  -5.908  39.675  1.00  0.00    -0.265 OA
BRANCH  35  37
HETATM   37  O1  UNL     1       0.578  -5.952  39.365  1.00  0.00    -0.326 OA
HETATM   38  C1  UNL     1       1.266  -7.153  39.074  1.00  0.00     0.213 C 
ENDBRANCH  35  37
ENDBRANCH  34  35
ENDBRANCH  33  34
ENDBRANCH   1  33
TORSDOF 9
ENDMDL
MODEL 5
REMARK VINA RESULT: -8.138479663      2.524      7.378
REMARK  9 active torsions:
REMARK  status: ('A' for Active; 'I' for Inactive)
REMARK    1  A    between atoms: O1_2  and  C2_3 
REMARK    2  A    between atoms: C2_3  and  C3_5 
REMARK    3  A    between atoms: C3_5  and  C4_6 
REMARK    4  A    between atoms: C4_6  and  N1_7 
REMARK    5  A    between atoms: C7_13  and  O3_14 
REMARK    6  A    between atoms: O3_14  and  C8_15 
REMARK    7  A    between atoms: C9_16  and  N4_17 
REMARK       I    between atoms: N4_17  and  C10_19 
REMARK    8  A    between atoms: C12_30  and  N9_31 
REMARK       I    between atoms: N9_31  and  C13_33 
REMARK    9  A    between atoms: C13_33  and  O6_35 
ROOT
HETATM    1  N1  UNL     1       2.516  -0.599  39.989  1.00  0.00    -0.275 N 
HETATM    2  N2  UNL     1       3.679  -0.984  39.516  1.00  0.00    -0.285 N 
ATOM      3  H2  UNL     1       4.230  -0.447  38.847  1.00  0.00     0.188 HD
HETATM    4  C5  UNL     1       4.054  -2.170  40.020  1.00  0.00     0.166 A 
HETATM    5  C6  UNL     1       5.271  -2.835  39.662  1.00  0.00     0.122 C 
HETATM    6  N3  UNL     1       6.245  -3.391  39.390  1.00  0.00    -0.190 NA
HETATM    7  C7  UNL     1       3.054  -2.600  40.898  1.00  0.00     0.157 A 
HETATM    8  C15 UNL     1       2.123  -1.558  40.823  1.00  0.00     0.170 A 
HETATM    9  N10 UNL     1       0.891  -1.449  41.541  1.00  0.00    -0.078 NA
ENDROOT
BRANCH   7  10
HETATM   10  O3  UNL     1       2.992  -3.742  41.654  1.00  0.00    -0.296 OA
BRANCH  10  11
HETATM   11  C8  UNL     1       2.530  -4.985  41.426  1.00  0.00     0.165 A 
HETATM   12  C9  UNL     1       3.507  -5.994  41.312  1.00  0.00     0.162 A 
HETATM   13  N6  UNL     1       3.108  -7.237  41.075  1.00  0.00    -0.174 N 
HETATM   14  C11 UNL     1       1.827  -7.576  40.941  1.00  0.00     0.679 A 
ATOM     15  H6  UNL     1       3.816  -7.968  40.992  1.00  0.00     0.186 HD
HETATM   16  N7  UNL     1       1.451  -8.804  40.707  1.00  0.00    -0.234 N 
HETATM   17  N8  UNL     1       0.884  -6.594  41.056  1.00  0.00    -0.174 N 
ATOM     18  H72 UNL     1       2.154  -9.538  40.621  1.00  0.00     0.174 HD
ATOM     19  H71 UNL     1       0.470  -9.064  40.604  1.00  0.00     0.174 HD
HETATM   20  C12 UNL     1       1.185  -5.310  41.294  1.00  0.00     0.163 A 
ATOM     21  H8  UNL     1      -0.098  -6.850  40.956  1.00  0.00     0.186 HD
BRANCH  12  22
HETATM   22  N4  UNL     1       4.900  -5.671  41.507  1.00  0.00    -0.294 N 
HETATM   23  C10 UNL     1       5.689  -6.427  42.382  1.00  0.00     0.334 C 
HETATM   24  N5  UNL     1       7.056  -6.093  42.557  1.00  0.00    -0.040 NA
HETATM   25  O4  UNL     1       5.200  -7.404  43.019  1.00  0.00    -0.251 OA
ATOM     26  H4  UNL     1       5.313  -4.886  41.004  1.00  0.00     0.172 HD
ENDBRANCH  12  22
BRANCH  20  27
HETATM   27  N9  UNL     1       0.182  -4.324  41.444  1.00  0.00    -0.286 N 
HETATM   28  C13 UNL     1      -1.193  -4.466  41.362  1.00  0.00     0.365 C 
HETATM   29  O5  UNL     1      -1.938  -3.441  41.561  1.00  0.00    -0.238 OA
ATOM     30  H9  UNL     1       0.518  -3.381  41.639  1.00  0.00     0.172 HD
BRANCH  28  31
HETATM   31  O6  UNL     1      -1.873  -5.622  41.080  1.00  0.00    -0.309 OA
HETATM   32  C14 UNL     1      -2.438  -5.825  39.807  1.00  0.00     0.215 C 
ENDBRANCH  28  31
ENDBRANCH  20  27
ENDBRANCH  10  11
ENDBRANCH   7  10
BRANCH   1  33
HETATM   33  C4  UNL     1       1.813   0.647  39.645  1.00  0.00     0.160 C 
BRANCH  33  34
HETATM   34  C3  UNL     1       2.709   1.459  38.758  1.00  0.00     0.133 C 
BRANCH  34  35
HETATM   35  C2  UNL     1       2.148   1.595  37.386  1.00  0.00     0.260 C 
HETATM   36  O2  UNL     1       0.972   1.971  37.170  1.00  0.00    -0.265 OA
BRANCH  35  37
HETATM   37  O1  UNL     1       2.922   1.302  36.249  1.00  0.00    -0.326 OA
HETATM   38  C1  UNL     1       4.289   0.947  36.330  1.00  0.00     0.213 C 
ENDBRANCH  35  37
ENDBRANCH  34  35
ENDBRANCH  33  34
ENDBRANCH   1  33
TORSDOF 9
ENDMDL
