MODEL 1
REMARK VINA RESULT: -8.909100765      0.000      0.000
REMARK  11 active torsions:
REMARK  status: ('A' for Active; 'I' for Inactive)
REMARK    1  A    between atoms: O1_2  and  C2_3 
REMARK    2  A    between atoms: C4_5  and  N1_6 
REMARK    3  A    between atoms: C7_11  and  N2_12 
REMARK    4  A    between atoms: N2_12  and  C8_14 
REMARK    5  A    between atoms: C9_17  and  N4_18 
REMARK    6  A    between atoms: C10_23  and  N6_24 
REMARK    7  A    between atoms: N7_27  and  N8_28 
REMARK    8  A    between atoms: C11_30  and  C12_31 
REMARK    9  A    between atoms: C12_31  and  C13_32 
REMARK   10  A    between atoms: C12_31  and  N12_42 
REMARK   11  A    between atoms: C14_38  and  N11_39 
ROOT
HETATM    1  C8  UNL     1       5.714  -2.326  38.177  1.00  0.00     0.733 A 
HETATM    2  N3  UNL     1       6.472  -1.710  37.255  1.00  0.00    -0.020 N 
ATOM      3  H3  UNL     1       6.403  -0.699  37.140  1.00  0.00     0.203 HD
HETATM    4  C9  UNL     1       7.334  -2.422  36.470  1.00  0.00     0.705 A 
HETATM    5  N5  UNL     1       7.423  -3.755  36.626  1.00  0.00    -0.020 N 
ATOM      6  H5  UNL     1       8.063  -4.298  36.047  1.00  0.00     0.203 HD
HETATM    7  C10 UNL     1       6.661  -4.365  37.551  1.00  0.00     0.726 A 
HETATM    8  N7  UNL     1       5.801  -3.656  38.333  1.00  0.00     0.090 N 
ENDROOT
BRANCH   8   9
HETATM    9  N8  UNL     1       5.055  -4.379  39.263  1.00  0.00    -0.277 N 
HETATM   10  C11 UNL     1       5.534  -5.042  40.234  1.00  0.00     0.120 C 
ATOM     11  H8  UNL     1       4.040  -4.376  39.153  1.00  0.00     0.187 HD
BRANCH  10  12
HETATM   12  C12 UNL     1       4.654  -5.779  41.170  1.00  0.00     0.251 C 
BRANCH  12  13
HETATM   13  C13 UNL     1       5.389  -6.449  42.268  1.00  0.00     0.113 A 
HETATM   14  N9  UNL     1       6.602  -6.150  42.761  1.00  0.00    -0.239 N 
HETATM   15  O4  UNL     1       6.905  -6.957  43.714  1.00  0.00    -0.155 OA
ATOM     16  H9  UNL     1       7.198  -5.392  42.428  1.00  0.00     0.196 HD
HETATM   17  N10 UNL     1       5.952  -7.795  43.894  1.00  0.00    -0.224 N 
HETATM   18  C14 UNL     1       4.969  -7.535  43.023  1.00  0.00     0.148 A 
ATOM     19  H10 UNL     1       5.944  -8.540  44.589  1.00  0.00     0.198 HD
BRANCH  18  20
HETATM   20  N11 UNL     1       3.871  -8.173  42.921  1.00  0.00    -0.382 N 
ATOM     21 2H11 UNL     1       3.764  -9.187  42.925  1.00  0.00     0.157 HD
ATOM     22 1H11 UNL     1       2.934  -7.784  42.819  1.00  0.00     0.157 HD
ENDBRANCH  18  20
ENDBRANCH  12  13
BRANCH  12  23
HETATM   23  N12 UNL     1       3.598  -4.933  41.694  1.00  0.00    -0.139 N 
HETATM   24  O5  UNL     1       3.787  -3.712  41.745  1.00  0.00    -0.536 OA
HETATM   25  O6  UNL     1       2.401  -5.425  42.135  1.00  0.00    -0.536 OA
ENDBRANCH  12  23
ENDBRANCH  10  12
ENDBRANCH   8   9
BRANCH   1  26
HETATM   26  N2  UNL     1       4.915  -1.672  38.904  1.00  0.00    -0.186 N 
ATOM     27  H2  UNL     1       4.880  -1.951  39.885  1.00  0.00     0.184 HD
BRANCH  26  28
HETATM   28  C7  UNL     1       4.072  -0.616  38.543  1.00  0.00     0.082 A 
HETATM   29  C2  UNL     1       3.015  -0.279  39.362  1.00  0.00     0.097 A 
HETATM   30  C3  UNL     1       2.150   0.761  39.046  1.00  0.00     0.075 A 
HETATM   31  C4  UNL     1       2.327   1.500  37.882  1.00  0.00     0.105 A 
HETATM   32  C5  UNL     1       3.388   1.148  37.076  1.00  0.00     0.038 A 
HETATM   33  C6  UNL     1       4.260   0.109  37.384  1.00  0.00     0.035 A 
BRANCH  29  34
HETATM   34  O1  UNL     1       2.846  -1.021  40.522  1.00  0.00    -0.354 OA
HETATM   35  C1  UNL     1       1.523  -1.308  40.928  1.00  0.00     0.210 C 
ENDBRANCH  29  34
BRANCH  31  36
HETATM   36  N1  UNL     1       1.458   2.568  37.532  1.00  0.00    -0.116 N 
HETATM   37  O2  UNL     1       1.447   3.670  38.104  1.00  0.00    -0.532 OA
HETATM   38  O3  UNL     1       0.579   2.370  36.501  1.00  0.00    -0.532 OA
ENDBRANCH  31  36
ENDBRANCH  26  28
ENDBRANCH   1  26
BRANCH   7  39
HETATM   39  N6  UNL     1       6.769  -5.643  37.675  1.00  0.00    -0.232 N 
ATOM     40  H62 UNL     1       6.800  -6.249  36.855  1.00  0.00     0.174 HD
ATOM     41  H61 UNL     1       6.823  -6.029  38.618  1.00  0.00     0.174 HD
ENDBRANCH   7  39
BRANCH   4  42
HETATM   42  N4  UNL     1       8.076  -1.866  35.577  1.00  0.00    -0.234 N 
ATOM     43  H42 UNL     1       7.642  -1.588  34.697  1.00  0.00     0.174 HD
ATOM     44  H41 UNL     1       9.072  -1.698  35.719  1.00  0.00     0.174 HD
ENDBRANCH   4  42
TORSDOF 11
ENDMDL
MODEL 2
REMARK VINA RESULT: -8.895573812      2.319      4.464
REMARK  11 active torsions:
REMARK  status: ('A' for Active; 'I' for Inactive)
REMARK    1  A    between atoms: O1_2  and  C2_3 
REMARK    2  A    between atoms: C4_5  and  N1_6 
REMARK    3  A    between atoms: C7_11  and  N2_12 
REMARK    4  A    between atoms: N2_12  and  C8_14 
REMARK    5  A    between atoms: C9_17  and  N4_18 
REMARK    6  A    between atoms: C10_23  and  N6_24 
REMARK    7  A    between atoms: N7_27  and  N8_28 
REMARK    8  A    between atoms: C11_30  and  C12_31 
REMARK    9  A    between atoms: C12_31  and  C13_32 
REMARK   10  A    between atoms: C12_31  and  N12_42 
REMARK   11  A    between atoms: C14_38  and  N11_39 
ROOT
HETATM    1  C8  UNL     1       4.629  -0.550  38.580  1.00  0.00     0.733 A 
HETATM    2  N3  UNL     1       4.016   0.445  37.918  1.00  0.00    -0.020 N 
ATOM      3  H3  UNL     1       3.352   1.043  38.410  1.00  0.00     0.203 HD
HETATM    4  C9  UNL     1       4.271   0.665  36.594  1.00  0.00     0.705 A 
HETATM    5  N5  UNL     1       5.147  -0.125  35.949  1.00  0.00    -0.020 N 
ATOM      6  H5  UNL     1       5.347   0.029  34.961  1.00  0.00     0.203 HD
HETATM    7  C10 UNL     1       5.758  -1.120  36.618  1.00  0.00     0.726 A 
HETATM    8  N7  UNL     1       5.504  -1.339  37.937  1.00  0.00     0.090 N 
ENDROOT
BRANCH   8   9
HETATM    9  N8  UNL     1       6.187  -2.395  38.541  1.00  0.00    -0.277 N 
HETATM   10  C11 UNL     1       5.731  -3.570  38.699  1.00  0.00     0.120 C 
ATOM     11  H8  UNL     1       7.129  -2.208  38.885  1.00  0.00     0.187 HD
BRANCH  10  12
HETATM   12  C12 UNL     1       6.537  -4.625  39.355  1.00  0.00     0.251 C 
BRANCH  12  13
HETATM   13  C13 UNL     1       5.785  -5.397  40.372  1.00  0.00     0.113 A 
HETATM   14  N9  UNL     1       4.495  -5.771  40.346  1.00  0.00    -0.239 N 
HETATM   15  O4  UNL     1       4.204  -6.430  41.409  1.00  0.00    -0.155 OA
ATOM     16  H9  UNL     1       3.841  -5.562  39.591  1.00  0.00     0.196 HD
HETATM   17  N10 UNL     1       5.237  -6.523  42.161  1.00  0.00    -0.224 N 
HETATM   18  C14 UNL     1       6.265  -5.898  41.573  1.00  0.00     0.148 A 
ATOM     19  H10 UNL     1       5.271  -6.998  43.062  1.00  0.00     0.198 HD
BRANCH  18  20
HETATM   20  N11 UNL     1       7.444  -5.794  42.042  1.00  0.00    -0.382 N 
ATOM     21 2H11 UNL     1       7.991  -4.935  42.105  1.00  0.00     0.157 HD
ATOM     22 1H11 UNL     1       8.029  -6.537  42.424  1.00  0.00     0.157 HD
ENDBRANCH  18  20
ENDBRANCH  12  13
BRANCH  12  23
HETATM   23  N12 UNL     1       7.156  -5.510  38.386  1.00  0.00    -0.139 N 
HETATM   24  O5  UNL     1       6.825  -5.411  37.198  1.00  0.00    -0.536 OA
HETATM   25  O6  UNL     1       8.090  -6.448  38.726  1.00  0.00    -0.536 OA
ENDBRANCH  12  23
ENDBRANCH  10  12
ENDBRANCH   8   9
BRANCH   1  26
HETATM   26  N2  UNL     1       4.396  -0.758  39.804  1.00  0.00    -0.186 N 
ATOM     27  H2  UNL     1       5.087  -0.385  40.455  1.00  0.00     0.184 HD
BRANCH  26  28
HETATM   28  C7  UNL     1       3.316  -1.432  40.383  1.00  0.00     0.082 A 
HETATM   29  C2  UNL     1       2.170  -0.733  40.699  1.00  0.00     0.097 A 
HETATM   30  C3  UNL     1       1.071  -1.357  41.276  1.00  0.00     0.075 A 
HETATM   31  C4  UNL     1       1.096  -2.719  41.555  1.00  0.00     0.105 A 
HETATM   32  C5  UNL     1       2.251  -3.399  41.233  1.00  0.00     0.038 A 
HETATM   33  C6  UNL     1       3.356  -2.784  40.655  1.00  0.00     0.035 A 
BRANCH  29  34
HETATM   34  O1  UNL     1       2.153   0.625  40.416  1.00  0.00    -0.354 OA
HETATM   35  C1  UNL     1       1.154   1.097  39.534  1.00  0.00     0.210 C 
ENDBRANCH  29  34
BRANCH  31  36
HETATM   36  N1  UNL     1      -0.011  -3.384  42.146  1.00  0.00    -0.116 N 
HETATM   37  O2  UNL     1      -1.177  -3.298  41.728  1.00  0.00    -0.532 OA
HETATM   38  O3  UNL     1       0.222  -4.169  43.243  1.00  0.00    -0.532 OA
ENDBRANCH  31  36
ENDBRANCH  26  28
ENDBRANCH   1  26
BRANCH   7  39
HETATM   39  N6  UNL     1       6.592  -1.859  35.971  1.00  0.00    -0.232 N 
ATOM     40  H62 UNL     1       7.546  -1.991  36.306  1.00  0.00     0.174 HD
ATOM     41  H61 UNL     1       6.268  -2.308  35.115  1.00  0.00     0.174 HD
ENDBRANCH   7  39
BRANCH   4  42
HETATM   42  N4  UNL     1       3.702   1.609  35.928  1.00  0.00    -0.234 N 
ATOM     43  H42 UNL     1       4.155   2.523  35.908  1.00  0.00     0.174 HD
ATOM     44  H41 UNL     1       2.824   1.475  35.427  1.00  0.00     0.174 HD
ENDBRANCH   4  42
TORSDOF 11
ENDMDL
MODEL 3
REMARK VINA RESULT: -8.771494636      1.623      2.686
REMARK  11 active torsions:
REMARK  status: ('A' for Active; 'I' for Inactive)
REMARK    1  A    between atoms: O1_2  and  C2_3 
REMARK    2  A    between atoms: C4_5  and  N1_6 
REMARK    3  A    between atoms: C7_11  and  N2_12 
REMARK    4  A    between atoms: N2_12  and  C8_14 
REMARK    5  A    between atoms: C9_17  and  N4_18 
REMARK    6  A    between atoms: C10_23  and  N6_24 
REMARK    7  A    between atoms: N7_27  and  N8_28 
REMARK    8  A    between atoms: C11_30  and  C12_31 
REMARK    9  A    between atoms: C12_31  and  C13_32 
REMARK   10  A    between atoms: C12_31  and  N12_42 
REMARK   11  A    between atoms: C14_38  and  N11_39 
ROOT
HETATM    1  C8  UNL     1       5.622  -2.009  38.537  1.00  0.00     0.733 A 
HETATM    2  N3  UNL     1       6.263  -1.580  37.437  1.00  0.00    -0.020 N 
ATOM      3  H3  UNL     1       6.150  -0.613  37.133  1.00  0.00     0.203 HD
HETATM    4  C9  UNL     1       7.066  -2.423  36.722  1.00  0.00     0.705 A 
HETATM    5  N5  UNL     1       7.214  -3.697  37.128  1.00  0.00    -0.020 N 
ATOM      6  H5  UNL     1       7.811  -4.337  36.604  1.00  0.00     0.203 HD
HETATM    7  C10 UNL     1       6.570  -4.120  38.230  1.00  0.00     0.726 A 
HETATM    8  N7  UNL     1       5.769  -3.280  38.942  1.00  0.00     0.090 N 
ENDROOT
BRANCH   8   9
HETATM    9  N8  UNL     1       5.144  -3.812  40.069  1.00  0.00    -0.277 N 
HETATM   10  C11 UNL     1       4.040  -4.440  40.068  1.00  0.00     0.120 C 
ATOM     11  H8  UNL     1       5.611  -3.687  40.967  1.00  0.00     0.187 HD
BRANCH  10  12
HETATM   12  C12 UNL     1       3.456  -4.970  41.322  1.00  0.00     0.251 C 
BRANCH  12  13
HETATM   13  C13 UNL     1       2.033  -5.361  41.193  1.00  0.00     0.113 A 
HETATM   14  N9  UNL     1       1.479  -6.204  40.306  1.00  0.00    -0.239 N 
HETATM   15  O4  UNL     1       0.214  -6.291  40.508  1.00  0.00    -0.155 OA
ATOM     16  H9  UNL     1       1.990  -6.704  39.578  1.00  0.00     0.196 HD
HETATM   17  N10 UNL     1      -0.122  -5.544  41.493  1.00  0.00    -0.224 N 
HETATM   18  C14 UNL     1       0.968  -4.931  41.971  1.00  0.00     0.148 A 
ATOM     19  H10 UNL     1      -1.069  -5.434  41.855  1.00  0.00     0.198 HD
BRANCH  18  20
HETATM   20  N11 UNL     1       1.000  -4.115  42.948  1.00  0.00    -0.382 N 
ATOM     21 2H11 UNL     1       0.653  -4.294  43.891  1.00  0.00     0.157 HD
ATOM     22 1H11 UNL     1       1.370  -3.165  42.953  1.00  0.00     0.157 HD
ENDBRANCH  18  20
ENDBRANCH  12  13
BRANCH  12  23
HETATM   23  N12 UNL     1       4.246  -6.060  41.865  1.00  0.00    -0.139 N 
HETATM   24  O5  UNL     1       3.745  -6.774  42.742  1.00  0.00    -0.536 OA
HETATM   25  O6  UNL     1       5.519  -6.333  41.451  1.00  0.00    -0.536 OA
ENDBRANCH  12  23
ENDBRANCH  10  12
ENDBRANCH   8   9
BRANCH   1  26
HETATM   26  N2  UNL     1       4.879  -1.233  39.200  1.00  0.00    -0.186 N 
ATOM     27  H2  UNL     1       4.934  -1.327  40.215  1.00  0.00     0.184 HD
BRANCH  26  28
HETATM   28  C7  UNL     1       3.989  -0.262  38.728  1.00  0.00     0.082 A 
HETATM   29  C2  UNL     1       2.876   0.059  39.475  1.00  0.00     0.097 A 
HETATM   30  C3  UNL     1       1.963   1.016  39.048  1.00  0.00     0.075 A 
HETATM   31  C4  UNL     1       2.148   1.683  37.843  1.00  0.00     0.105 A 
HETATM   32  C5  UNL     1       3.266   1.348  37.111  1.00  0.00     0.038 A 
HETATM   33  C6  UNL     1       4.186   0.392  37.529  1.00  0.00     0.035 A 
BRANCH  29  34
HETATM   34  O1  UNL     1       2.699  -0.611  40.677  1.00  0.00    -0.354 OA
HETATM   35  C1  UNL     1       1.503  -1.344  40.847  1.00  0.00     0.210 C 
ENDBRANCH  29  34
BRANCH  31  36
HETATM   36  N1  UNL     1       1.231   2.665  37.381  1.00  0.00    -0.116 N 
HETATM   37  O2  UNL     1       1.097   3.787  37.895  1.00  0.00    -0.532 OA
HETATM   38  O3  UNL     1       0.448   2.355  36.301  1.00  0.00    -0.532 OA
ENDBRANCH  31  36
ENDBRANCH  26  28
ENDBRANCH   1  26
BRANCH   7  39
HETATM   39  N6  UNL     1       6.732  -5.346  38.591  1.00  0.00    -0.232 N 
ATOM     40  H62 UNL     1       7.646  -5.689  38.887  1.00  0.00     0.174 HD
ATOM     41  H61 UNL     1       5.919  -5.961  38.573  1.00  0.00     0.174 HD
ENDBRANCH   7  39
BRANCH   4  42
HETATM   42  N4  UNL     1       7.696  -2.047  35.664  1.00  0.00    -0.234 N 
ATOM     43  H42 UNL     1       7.527  -1.104  35.314  1.00  0.00     0.174 HD
ATOM     44  H41 UNL     1       8.350  -2.655  35.170  1.00  0.00     0.174 HD
ENDBRANCH   4  42
TORSDOF 11
ENDMDL
MODEL 4
REMARK VINA RESULT: -8.625585069      2.120      6.959
REMARK  11 active torsions:
REMARK  status: ('A' for Active; 'I' for Inactive)
REMARK    1  A    between atoms: O1_2  and  C2_3 
REMARK    2  A    between atoms: C4_5  and  N1_6 
REMARK    3  A    between atoms: C7_11  and  N2_12 
REMARK    4  A    between atoms: N2_12  and  C8_14 
REMARK    5  A    between atoms: C9_17  and  N4_18 
REMARK    6  A    between atoms: C10_23  and  N6_24 
REMARK    7  A    between atoms: N7_27  and  N8_28 
REMARK    8  A    between atoms: C11_30  and  C12_31 
REMARK    9  A    between atoms: C12_31  and  C13_32 
REMARK   10  A    between atoms: C12_31  and  N12_42 
REMARK   11  A    between atoms: C14_38  and  N11_39 
ROOT
HETATM    1  C8  UNL     1       5.482  -3.604  39.516  1.00  0.00     0.733 A 
HETATM    2  N3  UNL     1       5.995  -4.777  39.110  1.00  0.00    -0.020 N 
ATOM      3  H3  UNL     1       5.907  -5.599  39.707  1.00  0.00     0.203 HD
HETATM    4  C9  UNL     1       6.634  -4.882  37.907  1.00  0.00     0.705 A 
HETATM    5  N5  UNL     1       6.748  -3.796  37.122  1.00  0.00    -0.020 N 
ATOM      6  H5  UNL     1       7.222  -3.861  36.221  1.00  0.00     0.203 HD
HETATM    7  C10 UNL     1       6.232  -2.624  37.534  1.00  0.00     0.726 A 
HETATM    8  N7  UNL     1       5.596  -2.519  38.733  1.00  0.00     0.090 N 
ENDROOT
BRANCH   8   9
HETATM    9  N8  UNL     1       5.095  -1.262  39.071  1.00  0.00    -0.277 N 
HETATM   10  C11 UNL     1       4.106  -0.691  38.515  1.00  0.00     0.120 C 
ATOM     11  H8  UNL     1       5.562  -0.760  39.827  1.00  0.00     0.187 HD
BRANCH  10  12
HETATM   12  C12 UNL     1       3.650   0.649  38.949  1.00  0.00     0.251 C 
BRANCH  12  13
HETATM   13  C13 UNL     1       2.629   1.243  38.054  1.00  0.00     0.113 A 
HETATM   14  N9  UNL     1       1.403   1.691  38.372  1.00  0.00    -0.239 N 
HETATM   15  O4  UNL     1       0.810   2.138  37.325  1.00  0.00    -0.155 OA
ATOM     16  H9  UNL     1       1.001   1.678  39.309  1.00  0.00     0.196 HD
HETATM   17  N10 UNL     1       1.575   2.016  36.305  1.00  0.00    -0.224 N 
HETATM   18  C14 UNL     1       2.732   1.463  36.688  1.00  0.00     0.148 A 
ATOM     19  H10 UNL     1       1.341   2.296  35.353  1.00  0.00     0.198 HD
BRANCH  18  20
HETATM   20  N11 UNL     1       3.722   1.197  35.931  1.00  0.00    -0.382 N 
ATOM     21 2H11 UNL     1       4.630   0.844  36.234  1.00  0.00     0.157 HD
ATOM     22 1H11 UNL     1       3.771   1.290  34.917  1.00  0.00     0.157 HD
ENDBRANCH  18  20
ENDBRANCH  12  13
BRANCH  12  23
HETATM   23  N12 UNL     1       3.191   0.642  40.325  1.00  0.00    -0.139 N 
HETATM   24  O5  UNL     1       4.027   0.509  41.227  1.00  0.00    -0.536 OA
HETATM   25  O6  UNL     1       1.876   0.778  40.671  1.00  0.00    -0.536 OA
ENDBRANCH  12  23
ENDBRANCH  10  12
ENDBRANCH   8   9
BRANCH   1  26
HETATM   26  N2  UNL     1       4.892  -3.502  40.627  1.00  0.00    -0.186 N 
ATOM     27  H2  UNL     1       5.473  -3.206  41.412  1.00  0.00     0.184 HD
BRANCH  26  28
HETATM   28  C7  UNL     1       3.546  -3.741  40.925  1.00  0.00     0.082 A 
HETATM   29  C2  UNL     1       3.099  -5.040  41.047  1.00  0.00     0.097 A 
HETATM   30  C3  UNL     1       1.772  -5.329  41.342  1.00  0.00     0.075 A 
HETATM   31  C4  UNL     1       0.847  -4.306  41.522  1.00  0.00     0.105 A 
HETATM   32  C5  UNL     1       1.314  -3.016  41.395  1.00  0.00     0.038 A 
HETATM   33  C6  UNL     1       2.640  -2.716  41.102  1.00  0.00     0.035 A 
BRANCH  29  34
HETATM   34  O1  UNL     1       4.027  -6.054  40.866  1.00  0.00    -0.354 OA
HETATM   35  C1  UNL     1       4.459  -6.758  42.014  1.00  0.00     0.210 C 
ENDBRANCH  29  34
BRANCH  31  36
HETATM   36  N1  UNL     1      -0.515  -4.571  41.822  1.00  0.00    -0.116 N 
HETATM   37  O2  UNL     1      -1.278  -3.756  42.367  1.00  0.00    -0.532 OA
HETATM   38  O3  UNL     1      -1.019  -5.800  41.490  1.00  0.00    -0.532 OA
ENDBRANCH  31  36
ENDBRANCH  26  28
ENDBRANCH   1  26
BRANCH   7  39
HETATM   39  N6  UNL     1       6.358  -1.603  36.759  1.00  0.00    -0.232 N 
ATOM     40  H62 UNL     1       5.620  -0.903  36.689  1.00  0.00     0.174 HD
ATOM     41  H61 UNL     1       7.219  -1.517  36.218  1.00  0.00     0.174 HD
ENDBRANCH   7  39
BRANCH   4  42
HETATM   42  N4  UNL     1       7.138  -5.989  37.486  1.00  0.00    -0.234 N 
ATOM     43  H42 UNL     1       7.966  -5.946  36.892  1.00  0.00     0.174 HD
ATOM     44  H41 UNL     1       6.739  -6.898  37.722  1.00  0.00     0.174 HD
ENDBRANCH   4  42
TORSDOF 11
ENDMDL
MODEL 5
REMARK VINA RESULT: -8.193550077      2.759      4.497
REMARK  11 active torsions:
REMARK  status: ('A' for Active; 'I' for Inactive)
REMARK    1  A    between atoms: O1_2  and  C2_3 
REMARK    2  A    between atoms: C4_5  and  N1_6 
REMARK    3  A    between atoms: C7_11  and  N2_12 
REMARK    4  A    between atoms: N2_12  and  C8_14 
REMARK    5  A    between atoms: C9_17  and  N4_18 
REMARK    6  A    between atoms: C10_23  and  N6_24 
REMARK    7  A    between atoms: N7_27  and  N8_28 
REMARK    8  A    between atoms: C11_30  and  C12_31 
REMARK    9  A    between atoms: C12_31  and  C13_32 
REMARK   10  A    between atoms: C12_31  and  N12_42 
REMARK   11  A    between atoms: C14_38  and  N11_39 
ROOT
HETATM    1  C8  UNL     1       4.571  -2.723  40.081  1.00  0.00     0.733 A 
HETATM    2  N3  UNL     1       5.591  -2.890  39.224  1.00  0.00    -0.020 N 
ATOM      3  H3  UNL     1       6.114  -2.077  38.899  1.00  0.00     0.203 HD
HETATM    4  C9  UNL     1       5.938  -4.136  38.784  1.00  0.00     0.705 A 
HETATM    5  N5  UNL     1       5.247  -5.205  39.216  1.00  0.00    -0.020 N 
ATOM      6  H5  UNL     1       5.495  -6.141  38.896  1.00  0.00     0.203 HD
HETATM    7  C10 UNL     1       4.226  -5.031  40.074  1.00  0.00     0.726 A 
HETATM    8  N7  UNL     1       3.880  -3.790  40.513  1.00  0.00     0.090 N 
ENDROOT
BRANCH   8   9
HETATM    9  N8  UNL     1       2.808  -3.713  41.401  1.00  0.00    -0.277 N 
HETATM   10  C11 UNL     1       1.592  -3.930  41.104  1.00  0.00     0.120 C 
ATOM     11  H8  UNL     1       3.017  -3.461  42.367  1.00  0.00     0.187 HD
BRANCH  10  12
HETATM   12  C12 UNL     1       0.522  -3.823  42.123  1.00  0.00     0.251 C 
BRANCH  12  13
HETATM   13  C13 UNL     1      -0.824  -4.160  41.603  1.00  0.00     0.113 A 
HETATM   14  N9  UNL     1      -1.915  -3.378  41.549  1.00  0.00    -0.239 N 
HETATM   15  O4  UNL     1      -2.897  -4.022  41.030  1.00  0.00    -0.155 OA
ATOM     16  H9  UNL     1      -1.957  -2.412  41.874  1.00  0.00     0.196 HD
HETATM   17  N10 UNL     1      -2.526  -5.211  40.727  1.00  0.00    -0.224 N 
HETATM   18  C14 UNL     1      -1.238  -5.367  41.058  1.00  0.00     0.148 A 
ATOM     19  H10 UNL     1      -3.117  -5.924  40.301  1.00  0.00     0.198 HD
BRANCH  18  20
HETATM   20  N11 UNL     1      -0.547  -6.424  40.897  1.00  0.00    -0.382 N 
ATOM     21 2H11 UNL     1       0.424  -6.554  41.181  1.00  0.00     0.157 HD
ATOM     22 1H11 UNL     1      -0.841  -7.300  40.466  1.00  0.00     0.157 HD
ENDBRANCH  18  20
ENDBRANCH  12  13
BRANCH  12  23
HETATM   23  N12 UNL     1       0.829  -4.600  43.310  1.00  0.00    -0.139 N 
HETATM   24  O5  UNL     1       1.546  -5.601  43.193  1.00  0.00    -0.536 OA
HETATM   25  O6  UNL     1       0.361  -4.276  44.552  1.00  0.00    -0.536 OA
ENDBRANCH  12  23
ENDBRANCH  10  12
ENDBRANCH   8   9
BRANCH   1  26
HETATM   26  N2  UNL     1       4.247  -1.573  40.490  1.00  0.00    -0.186 N 
ATOM     27  H2  UNL     1       4.644  -1.294  41.388  1.00  0.00     0.184 HD
BRANCH  26  28
HETATM   28  C7  UNL     1       3.414  -0.631  39.876  1.00  0.00     0.082 A 
HETATM   29  C2  UNL     1       3.848   0.019  38.740  1.00  0.00     0.097 A 
HETATM   30  C3  UNL     1       3.058   0.963  38.094  1.00  0.00     0.075 A 
HETATM   31  C4  UNL     1       1.795   1.281  38.580  1.00  0.00     0.105 A 
HETATM   32  C5  UNL     1       1.380   0.620  39.716  1.00  0.00     0.038 A 
HETATM   33  C6  UNL     1       2.163  -0.326  40.370  1.00  0.00     0.035 A 
BRANCH  29  34
HETATM   34  O1  UNL     1       5.109  -0.304  38.262  1.00  0.00    -0.354 OA
HETATM   35  C1  UNL     1       5.257  -0.466  36.865  1.00  0.00     0.210 C 
ENDBRANCH  29  34
BRANCH  31  36
HETATM   36  N1  UNL     1       0.966   2.241  37.942  1.00  0.00    -0.116 N 
HETATM   37  O2  UNL     1       0.373   3.154  38.540  1.00  0.00    -0.532 OA
HETATM   38  O3  UNL     1       0.812   2.156  36.584  1.00  0.00    -0.532 OA
ENDBRANCH  31  36
ENDBRANCH  26  28
ENDBRANCH   1  26
BRANCH   7  39
HETATM   39  N6  UNL     1       3.584  -6.077  40.469  1.00  0.00    -0.232 N 
ATOM     40  H62 UNL     1       2.973  -6.040  41.285  1.00  0.00     0.174 HD
ATOM     41  H61 UNL     1       3.706  -6.940  39.940  1.00  0.00     0.174 HD
ENDBRANCH   7  39
BRANCH   4  42
HETATM   42  N4  UNL     1       6.910  -4.334  37.963  1.00  0.00    -0.234 N 
ATOM     43  H42 UNL     1       7.619  -3.607  37.874  1.00  0.00     0.174 HD
ATOM     44  H41 UNL     1       6.992  -5.184  37.405  1.00  0.00     0.174 HD
ENDBRANCH   4  42
TORSDOF 11
ENDMDL
