MODEL 1
REMARK VINA RESULT: -8.130359458      0.000      0.000
REMARK  6 active torsions:
REMARK  status: ('A' for Active; 'I' for Inactive)
REMARK    1  A    between atoms: N1_1  and  C1_5 
REMARK    2  A    between atoms: C1_5  and  C2_6 
REMARK    3  A    between atoms: C4_8  and  C5_9 
REMARK    4  A    between atoms: C7_13  and  O1_14 
REMARK    5  A    between atoms: O1_14  and  C8_15 
REMARK    6  A    between atoms: C8_15  and  C9_18 
ROOT
HETATM    1  C5  UNL     1      -7.253  11.500   0.376  1.00  0.00    -0.005 A 
HETATM    2  C6  UNL     1      -6.907  12.709  -0.181  1.00  0.00     0.102 A 
HETATM    3  N2  UNL     1      -5.650  13.160  -0.228  1.00  0.00    -0.343 N 
ATOM      4  H2  UNL     1      -5.462  14.066  -0.657  1.00  0.00     0.167 HD
HETATM    5  C7  UNL     1      -4.600  12.431   0.289  1.00  0.00     0.187 A 
HETATM    6  C19 UNL     1      -4.949  11.235   0.840  1.00  0.00     0.168 A 
HETATM    7  F3  UNL     1      -4.008  10.426   1.391  1.00  0.00    -0.202 F 
HETATM    8  C20 UNL     1      -6.242  10.741   0.903  1.00  0.00     0.060 A 
ENDROOT
BRANCH   5   9
HETATM    9  O1  UNL     1      -3.352  12.908   0.229  1.00  0.00    -0.262 OA
BRANCH   9  10
HETATM   10  C8  UNL     1      -2.505  13.589   1.042  1.00  0.00     0.386 C 
HETATM   11  F1  UNL     1      -1.244  13.805   0.470  1.00  0.00    -0.172 F 
HETATM   12  F2  UNL     1      -2.361  13.027   2.319  1.00  0.00    -0.172 F 
BRANCH  10  13
HETATM   13  C9  UNL     1      -2.995  15.030   1.320  1.00  0.00     0.224 C 
HETATM   14  C10 UNL     1      -4.140  14.854   2.317  1.00  0.00     0.042 C 
HETATM   15  C11 UNL     1      -4.565  16.153   2.916  1.00  0.00     0.012 C 
HETATM   16  C12 UNL     1      -5.166  17.101   1.902  1.00  0.00    -0.035 C 
HETATM   17  C13 UNL     1      -5.751  18.257   2.700  1.00  0.00     0.036 C 
HETATM   18  C16 UNL     1      -6.277  16.476   1.135  1.00  0.00     0.036 C 
HETATM   19  C17 UNL     1      -4.060  17.652   1.070  1.00  0.00     0.036 C 
HETATM   20  C14 UNL     1      -6.746  19.062   1.923  1.00  0.00     0.168 C 
HETATM   21  O2  UNL     1      -7.761  18.261   1.381  1.00  0.00    -0.391 OA
HETATM   22  C15 UNL     1      -7.122  17.462   0.409  1.00  0.00     0.168 C 
HETATM   23  C18 UNL     1      -3.582  16.819  -0.041  1.00  0.00     0.169 C 
HETATM   24  O3  UNL     1      -3.535  15.473   0.141  1.00  0.00    -0.377 OA
ENDBRANCH  10  13
ENDBRANCH   9  10
ENDBRANCH   5   9
BRANCH   1  25
HETATM   25  C4  UNL     1      -8.631  11.030   0.415  1.00  0.00     0.000 A 
HETATM   26  C3  UNL     1      -9.447  10.771   1.491  1.00  0.00     0.048 A 
HETATM   27  C2  UNL     1     -10.679  10.340   0.991  1.00  0.00     0.078 A 
HETATM   28  O4  UNL     1     -10.555  10.356  -0.309  1.00  0.00    -0.324 OA
HETATM   29  C21 UNL     1      -9.380  10.751  -0.704  1.00  0.00     0.154 A 
BRANCH  27  30
HETATM   30  C1  UNL     1     -11.866   9.950   1.805  1.00  0.00     0.294 C 
BRANCH  30  31
HETATM   31  N1  UNL     1     -11.502  10.041   3.216  1.00  0.00    -0.074 N 
ATOM     32  H13 UNL     1     -11.290   9.131   3.626  1.00  0.00     0.274 HD
ATOM     33  H12 UNL     1     -10.590  10.473   3.360  1.00  0.00     0.274 HD
ATOM     34  H11 UNL     1     -12.250  10.528   3.708  1.00  0.00     0.274 HD
ENDBRANCH  30  31
ENDBRANCH  27  30
ENDBRANCH   1  25
TORSDOF 6
ENDMDL
MODEL 2
REMARK VINA RESULT: -7.941534612      2.622      7.551
REMARK  6 active torsions:
REMARK  status: ('A' for Active; 'I' for Inactive)
REMARK    1  A    between atoms: N1_1  and  C1_5 
REMARK    2  A    between atoms: C1_5  and  C2_6 
REMARK    3  A    between atoms: C4_8  and  C5_9 
REMARK    4  A    between atoms: C7_13  and  O1_14 
REMARK    5  A    between atoms: O1_14  and  C8_15 
REMARK    6  A    between atoms: C8_15  and  C9_18 
ROOT
HETATM    1  C5  UNL     1      -5.508  17.618   1.400  1.00  0.00    -0.005 A 
HETATM    2  C6  UNL     1      -5.409  16.792   0.304  1.00  0.00     0.102 A 
HETATM    3  N2  UNL     1      -5.014  15.518   0.381  1.00  0.00    -0.343 N 
ATOM      4  H2  UNL     1      -4.963  14.960  -0.472  1.00  0.00     0.167 HD
HETATM    5  C7  UNL     1      -4.673  14.938   1.584  1.00  0.00     0.187 A 
HETATM    6  C19 UNL     1      -4.773  15.760   2.666  1.00  0.00     0.168 A 
HETATM    7  F3  UNL     1      -4.457  15.310   3.908  1.00  0.00    -0.202 F 
HETATM    8  C20 UNL     1      -5.179  17.084   2.618  1.00  0.00     0.060 A 
ENDROOT
BRANCH   5   9
HETATM    9  O1  UNL     1      -4.281  13.660   1.630  1.00  0.00    -0.262 OA
BRANCH   9  10
HETATM   10  C8  UNL     1      -4.816  12.441   1.364  1.00  0.00     0.386 C 
HETATM   11  F1  UNL     1      -4.302  11.422   2.176  1.00  0.00    -0.172 F 
HETATM   12  F2  UNL     1      -4.737  12.064   0.015  1.00  0.00    -0.172 F 
BRANCH  10  13
HETATM   13  C9  UNL     1      -6.330  12.388   1.680  1.00  0.00     0.224 C 
HETATM   14  C10 UNL     1      -6.659  10.895   1.702  1.00  0.00     0.042 C 
HETATM   15  C11 UNL     1      -8.016  10.630   2.260  1.00  0.00     0.012 C 
HETATM   16  C12 UNL     1      -9.127  11.191   1.400  1.00  0.00    -0.035 C 
HETATM   17  C13 UNL     1     -10.424  10.640   1.973  1.00  0.00     0.036 C 
HETATM   18  C16 UNL     1      -9.031  10.736  -0.013  1.00  0.00     0.036 C 
HETATM   19  C17 UNL     1      -9.155  12.669   1.584  1.00  0.00     0.036 C 
HETATM   20  C14 UNL     1     -11.573  10.730   1.017  1.00  0.00     0.168 C 
HETATM   21  O2  UNL     1     -11.277  10.137  -0.218  1.00  0.00    -0.391 OA
HETATM   22  C15 UNL     1     -10.281  10.954  -0.791  1.00  0.00     0.168 C 
HETATM   23  C18 UNL     1      -8.194  13.457   0.799  1.00  0.00     0.169 C 
HETATM   24  O3  UNL     1      -6.956  12.937   0.593  1.00  0.00    -0.377 OA
ENDBRANCH  10  13
ENDBRANCH   9  10
ENDBRANCH   5   9
BRANCH   1  25
HETATM   25  C4  UNL     1      -5.941  19.004   1.291  1.00  0.00     0.000 A 
HETATM   26  C3  UNL     1      -5.438  20.137   1.886  1.00  0.00     0.048 A 
HETATM   27  C2  UNL     1      -6.211  21.218   1.454  1.00  0.00     0.078 A 
HETATM   28  O4  UNL     1      -7.109  20.710   0.653  1.00  0.00    -0.324 OA
HETATM   29  C21 UNL     1      -7.000  19.420   0.519  1.00  0.00     0.154 A 
BRANCH  27  30
HETATM   30  C1  UNL     1      -6.021  22.643   1.849  1.00  0.00     0.294 C 
BRANCH  30  31
HETATM   31  N1  UNL     1      -7.264  23.361   1.581  1.00  0.00    -0.074 N 
ATOM     32  H13 UNL     1      -8.092  22.823   1.838  1.00  0.00     0.274 HD
ATOM     33  H12 UNL     1      -7.409  24.146   2.216  1.00  0.00     0.274 HD
ATOM     34  H11 UNL     1      -7.267  23.642   0.601  1.00  0.00     0.274 HD
ENDBRANCH  30  31
ENDBRANCH  27  30
ENDBRANCH   1  25
TORSDOF 6
ENDMDL
MODEL 3
REMARK VINA RESULT: -7.841779917      3.767      8.720
REMARK  6 active torsions:
REMARK  status: ('A' for Active; 'I' for Inactive)
REMARK    1  A    between atoms: N1_1  and  C1_5 
REMARK    2  A    between atoms: C1_5  and  C2_6 
REMARK    3  A    between atoms: C4_8  and  C5_9 
REMARK    4  A    between atoms: C7_13  and  O1_14 
REMARK    5  A    between atoms: O1_14  and  C8_15 
REMARK    6  A    between atoms: C8_15  and  C9_18 
ROOT
HETATM    1  C5  UNL     1      -6.511  20.221   1.264  1.00  0.00    -0.005 A 
HETATM    2  C6  UNL     1      -6.977  19.486   0.198  1.00  0.00     0.102 A 
HETATM    3  N2  UNL     1      -6.966  18.150   0.169  1.00  0.00    -0.343 N 
ATOM      4  H2  UNL     1      -7.328  17.668  -0.653  1.00  0.00     0.167 HD
HETATM    5  C7  UNL     1      -6.478  17.408   1.223  1.00  0.00     0.187 A 
HETATM    6  C19 UNL     1      -6.018  18.140   2.276  1.00  0.00     0.168 A 
HETATM    7  F3  UNL     1      -5.503  17.527   3.373  1.00  0.00    -0.202 F 
HETATM    8  C20 UNL     1      -6.016  19.525   2.335  1.00  0.00     0.060 A 
ENDROOT
BRANCH   5   9
HETATM    9  O1  UNL     1      -6.479  16.072   1.166  1.00  0.00    -0.262 OA
BRANCH   9  10
HETATM   10  C8  UNL     1      -5.562  15.072   1.201  1.00  0.00     0.386 C 
HETATM   11  F1  UNL     1      -5.072  14.816   2.488  1.00  0.00    -0.172 F 
HETATM   12  F2  UNL     1      -4.494  15.243   0.308  1.00  0.00    -0.172 F 
BRANCH  10  13
HETATM   13  C9  UNL     1      -6.171  13.707   0.799  1.00  0.00     0.224 C 
HETATM   14  C10 UNL     1      -7.248  14.062  -0.226  1.00  0.00     0.042 C 
HETATM   15  C11 UNL     1      -7.765  12.855  -0.934  1.00  0.00     0.012 C 
HETATM   16  C12 UNL     1      -8.496  11.900  -0.016  1.00  0.00    -0.035 C 
HETATM   17  C13 UNL     1      -9.150  10.864  -0.919  1.00  0.00     0.036 C 
HETATM   18  C16 UNL     1      -9.578  12.574   0.751  1.00  0.00     0.036 C 
HETATM   19  C17 UNL     1      -7.485  11.189   0.814  1.00  0.00     0.036 C 
HETATM   20  C14 UNL     1     -10.250  10.107  -0.242  1.00  0.00     0.168 C 
HETATM   21  O2  UNL     1     -11.209  10.962   0.318  1.00  0.00    -0.391 OA
HETATM   22  C15 UNL     1     -10.543  11.625   1.369  1.00  0.00     0.168 C 
HETATM   23  C18 UNL     1      -6.983  11.893   2.002  1.00  0.00     0.169 C 
HETATM   24  O3  UNL     1      -6.802  13.238   1.921  1.00  0.00    -0.377 OA
ENDBRANCH  10  13
ENDBRANCH   9  10
ENDBRANCH   5   9
BRANCH   1  25
HETATM   25  C4  UNL     1      -6.534  21.677   1.272  1.00  0.00     0.000 A 
HETATM   26  C3  UNL     1      -7.530  22.548   0.897  1.00  0.00     0.048 A 
HETATM   27  C2  UNL     1      -7.052  23.845   1.098  1.00  0.00     0.078 A 
HETATM   28  O4  UNL     1      -5.840  23.705   1.563  1.00  0.00    -0.324 OA
HETATM   29  C21 UNL     1      -5.483  22.460   1.688  1.00  0.00     0.154 A 
BRANCH  27  30
HETATM   30  C1  UNL     1      -7.800  25.106   0.823  1.00  0.00     0.294 C 
BRANCH  30  31
HETATM   31  N1  UNL     1      -8.512  25.489   2.038  1.00  0.00    -0.074 N 
ATOM     32  H13 UNL     1      -8.659  24.703   2.672  1.00  0.00     0.274 HD
ATOM     33  H12 UNL     1      -7.944  26.064   2.662  1.00  0.00     0.274 HD
ATOM     34  H11 UNL     1      -9.383  25.945   1.768  1.00  0.00     0.274 HD
ENDBRANCH  30  31
ENDBRANCH  27  30
ENDBRANCH   1  25
TORSDOF 6
ENDMDL
MODEL 4
REMARK VINA RESULT: -7.830954852      3.656      8.034
REMARK  6 active torsions:
REMARK  status: ('A' for Active; 'I' for Inactive)
REMARK    1  A    between atoms: N1_1  and  C1_5 
REMARK    2  A    between atoms: C1_5  and  C2_6 
REMARK    3  A    between atoms: C4_8  and  C5_9 
REMARK    4  A    between atoms: C7_13  and  O1_14 
REMARK    5  A    between atoms: O1_14  and  C8_15 
REMARK    6  A    between atoms: C8_15  and  C9_18 
ROOT
HETATM    1  C5  UNL     1      -1.880  13.333  -1.929  1.00  0.00    -0.005 A 
HETATM    2  C6  UNL     1      -2.933  14.211  -1.808  1.00  0.00     0.102 A 
HETATM    3  N2  UNL     1      -3.953  14.018  -0.966  1.00  0.00    -0.343 N 
ATOM      4  H2  UNL     1      -4.702  14.709  -0.926  1.00  0.00     0.167 HD
HETATM    5  C7  UNL     1      -4.018  12.908  -0.152  1.00  0.00     0.187 A 
HETATM    6  C19 UNL     1      -2.973  12.042  -0.276  1.00  0.00     0.168 A 
HETATM    7  F3  UNL     1      -2.924  10.906   0.465  1.00  0.00    -0.202 F 
HETATM    8  C20 UNL     1      -1.903  12.215  -1.139  1.00  0.00     0.060 A 
ENDROOT
BRANCH   5   9
HETATM    9  O1  UNL     1      -5.052  12.741   0.680  1.00  0.00    -0.262 OA
BRANCH   9  10
HETATM   10  C8  UNL     1      -5.645  13.433   1.687  1.00  0.00     0.386 C 
HETATM   11  F1  UNL     1      -5.837  14.788   1.387  1.00  0.00    -0.172 F 
HETATM   12  F2  UNL     1      -5.001  13.303   2.927  1.00  0.00    -0.172 F 
BRANCH  10  13
HETATM   13  C9  UNL     1      -7.087  12.944   1.960  1.00  0.00     0.224 C 
HETATM   14  C10 UNL     1      -6.975  11.420   1.970  1.00  0.00     0.042 C 
HETATM   15  C11 UNL     1      -8.214  10.772   2.489  1.00  0.00     0.012 C 
HETATM   16  C12 UNL     1      -9.415  10.999   1.598  1.00  0.00    -0.035 C 
HETATM   17  C13 UNL     1     -10.514  10.093   2.134  1.00  0.00     0.036 C 
HETATM   18  C16 UNL     1      -9.155  10.604   0.188  1.00  0.00     0.036 C 
HETATM   19  C17 UNL     1      -9.870  12.405   1.784  1.00  0.00     0.036 C 
HETATM   20  C14 UNL     1     -11.615   9.859   1.146  1.00  0.00     0.168 C 
HETATM   21  O2  UNL     1     -11.128   9.387  -0.081  1.00  0.00    -0.391 OA
HETATM   22  C15 UNL     1     -10.393  10.461  -0.624  1.00  0.00     0.168 C 
HETATM   23  C18 UNL     1      -9.156  13.442   1.028  1.00  0.00     0.169 C 
HETATM   24  O3  UNL     1      -7.815  13.301   0.856  1.00  0.00    -0.377 OA
ENDBRANCH  10  13
ENDBRANCH   9  10
ENDBRANCH   5   9
BRANCH   1  25
HETATM   25  C4  UNL     1      -0.779  13.565  -2.854  1.00  0.00     0.000 A 
HETATM   26  C3  UNL     1      -0.677  13.282  -4.196  1.00  0.00     0.048 A 
HETATM   27  C2  UNL     1       0.587  13.704  -4.620  1.00  0.00     0.078 A 
HETATM   28  O4  UNL     1       1.165  14.199  -3.559  1.00  0.00    -0.324 OA
HETATM   29  C21 UNL     1       0.415  14.146  -2.497  1.00  0.00     0.154 A 
BRANCH  27  30
HETATM   30  C1  UNL     1       1.128  13.592  -6.005  1.00  0.00     0.294 C 
BRANCH  30  31
HETATM   31  N1  UNL     1       0.876  12.237  -6.486  1.00  0.00    -0.074 N 
ATOM     32  H13 UNL     1       1.103  11.524  -5.792  1.00  0.00     0.274 HD
ATOM     33  H12 UNL     1      -0.119  12.029  -6.575  1.00  0.00     0.274 HD
ATOM     34  H11 UNL     1       1.383  12.109  -7.361  1.00  0.00     0.274 HD
ENDBRANCH  30  31
ENDBRANCH  27  30
ENDBRANCH   1  25
TORSDOF 6
ENDMDL
MODEL 5
REMARK VINA RESULT: -7.820743082      3.403      7.009
REMARK  6 active torsions:
REMARK  status: ('A' for Active; 'I' for Inactive)
REMARK    1  A    between atoms: N1_1  and  C1_5 
REMARK    2  A    between atoms: C1_5  and  C2_6 
REMARK    3  A    between atoms: C4_8  and  C5_9 
REMARK    4  A    between atoms: C7_13  and  O1_14 
REMARK    5  A    between atoms: O1_14  and  C8_15 
REMARK    6  A    between atoms: C8_15  and  C9_18 
ROOT
HETATM    1  C5  UNL     1      -8.632  16.656  -0.846  1.00  0.00    -0.005 A 
HETATM    2  C6  UNL     1      -8.798  16.355   0.486  1.00  0.00     0.102 A 
HETATM    3  N2  UNL     1      -8.587  15.137   0.993  1.00  0.00    -0.343 N 
ATOM      4  H2  UNL     1      -8.729  14.982   1.991  1.00  0.00     0.167 HD
HETATM    5  C7  UNL     1      -8.182  14.084   0.201  1.00  0.00     0.187 A 
HETATM    6  C19 UNL     1      -8.018  14.388  -1.117  1.00  0.00     0.168 A 
HETATM    7  F3  UNL     1      -7.631  13.435  -2.004  1.00  0.00    -0.202 F 
HETATM    8  C20 UNL     1      -8.230  15.640  -1.672  1.00  0.00     0.060 A 
ENDROOT
BRANCH   5   9
HETATM    9  O1  UNL     1      -7.979  12.875   0.736  1.00  0.00    -0.262 OA
BRANCH   9  10
HETATM   10  C8  UNL     1      -6.941  12.182   1.269  1.00  0.00     0.386 C 
HETATM   11  F1  UNL     1      -7.173  10.802   1.334  1.00  0.00    -0.172 F 
HETATM   12  F2  UNL     1      -6.519  12.655   2.521  1.00  0.00    -0.172 F 
BRANCH  10  13
HETATM   13  C9  UNL     1      -5.671  12.265   0.390  1.00  0.00     0.224 C 
HETATM   14  C10 UNL     1      -4.731  11.215   0.982  1.00  0.00     0.042 C 
HETATM   15  C11 UNL     1      -3.557  10.955   0.100  1.00  0.00     0.012 C 
HETATM   16  C12 UNL     1      -2.648  12.156  -0.041  1.00  0.00    -0.035 C 
HETATM   17  C13 UNL     1      -1.403  11.660  -0.763  1.00  0.00     0.036 C 
HETATM   18  C16 UNL     1      -2.218  12.696   1.276  1.00  0.00     0.036 C 
HETATM   19  C17 UNL     1      -3.316  13.140  -0.937  1.00  0.00     0.036 C 
HETATM   20  C14 UNL     1      -0.232  12.581  -0.613  1.00  0.00     0.168 C 
HETATM   21  O2  UNL     1       0.045  12.862   0.732  1.00  0.00    -0.391 OA
HETATM   22  C15 UNL     1      -1.055  13.619   1.186  1.00  0.00     0.168 C 
HETATM   23  C18 UNL     1      -4.325  14.017  -0.328  1.00  0.00     0.169 C 
HETATM   24  O3  UNL     1      -5.127  13.498   0.639  1.00  0.00    -0.377 OA
ENDBRANCH  10  13
ENDBRANCH   9  10
ENDBRANCH   5   9
BRANCH   1  25
HETATM   25  C4  UNL     1      -8.868  17.992  -1.376  1.00  0.00     0.000 A 
HETATM   26  C3  UNL     1      -8.272  19.189  -1.053  1.00  0.00     0.048 A 
HETATM   27  C2  UNL     1      -8.856  20.178  -1.849  1.00  0.00     0.078 A 
HETATM   28  O4  UNL     1      -9.741  19.560  -2.584  1.00  0.00    -0.324 OA
HETATM   29  C21 UNL     1      -9.793  18.280  -2.351  1.00  0.00     0.154 A 
BRANCH  27  30
HETATM   30  C1  UNL     1      -8.515  21.629  -1.833  1.00  0.00     0.294 C 
BRANCH  30  31
HETATM   31  N1  UNL     1      -9.192  22.246  -0.696  1.00  0.00    -0.074 N 
ATOM     32  H13 UNL     1      -8.770  23.133  -0.420  1.00  0.00     0.274 HD
ATOM     33  H12 UNL     1     -10.117  22.604  -0.937  1.00  0.00     0.274 HD
ATOM     34  H11 UNL     1      -9.219  21.569   0.066  1.00  0.00     0.274 HD
ENDBRANCH  30  31
ENDBRANCH  27  30
ENDBRANCH   1  25
TORSDOF 6
ENDMDL
