MODEL 1
REMARK VINA RESULT: -8.232465156      0.000      0.000
REMARK  5 active torsions:
REMARK  status: ('A' for Active; 'I' for Inactive)
REMARK    1  A    between atoms: C7_7  and  C8_8 
REMARK    2  A    between atoms: C8_8  and  O1_9 
REMARK    3  A    between atoms: O1_9  and  C9_10 
REMARK       I    between atoms: C9_10  and  N1_12 
REMARK    4  A    between atoms: C14_23  and  O3_24 
REMARK    5  A    between atoms: O3_24  and  C15_25 
ROOT
HETATM    1  C9  UNL     1      -4.659  10.836   0.928  1.00  0.00     0.366 C 
HETATM    2  O2  UNL     1      -4.232  10.042   1.819  1.00  0.00    -0.238 OA
HETATM    3  N1  UNL     1      -3.844  11.767   0.261  1.00  0.00    -0.286 N 
ATOM      4  H1  UNL     1      -3.672  11.610  -0.732  1.00  0.00     0.172 HD
HETATM    5  C10 UNL     1      -3.302  12.786   0.791  1.00  0.00     0.147 A 
HETATM    6  N2  UNL     1      -3.491  13.042   2.087  1.00  0.00    -0.317 N 
ATOM      7  H2  UNL     1      -4.069  12.420   2.652  1.00  0.00     0.169 HD
HETATM    8  C11 UNL     1      -2.915  14.126   2.647  1.00  0.00     0.189 A 
HETATM    9  C12 UNL     1      -3.144  14.364   4.041  1.00  0.00     0.137 C 
HETATM   10  N3  UNL     1      -3.349  14.561   5.168  1.00  0.00    -0.188 NA
HETATM   11  N4  UNL     1      -2.156  14.928   1.875  1.00  0.00    -0.341 N 
ATOM     12  H4  UNL     1      -1.724  15.745   2.308  1.00  0.00     0.167 HD
HETATM   13  C13 UNL     1      -1.937  14.712   0.570  1.00  0.00     0.131 A 
HETATM   14  C14 UNL     1      -2.526  13.597  -0.022  1.00  0.00     0.137 A 
ENDROOT
BRANCH  14  15
HETATM   15  O3  UNL     1      -2.342  13.313  -1.367  1.00  0.00    -0.250 OA
BRANCH  15  16
HETATM   16  C15 UNL     1      -1.204  12.654  -1.880  1.00  0.00     0.530 C 
HETATM   17  F1  UNL     1      -1.387  11.295  -1.647  1.00  0.00    -0.144 F 
HETATM   18  F2  UNL     1      -1.105  12.864  -3.248  1.00  0.00    -0.144 F 
HETATM   19  F3  UNL     1      -0.044  13.009  -1.226  1.00  0.00    -0.144 F 
ENDBRANCH  15  16
ENDBRANCH  14  15
BRANCH   1  20
HETATM   20  O1  UNL     1      -6.006  10.755   0.622  1.00  0.00    -0.303 OA
BRANCH  20  21
HETATM   21  C8  UNL     1      -7.003  11.257   1.524  1.00  0.00     0.185 C 
BRANCH  21  22
HETATM   22  C7  UNL     1      -8.225  11.661   0.689  1.00  0.00     0.017 C 
HETATM   23  C6  UNL     1      -8.340  10.860  -0.564  1.00  0.00     0.022 C 
HETATM   24  C5  UNL     1      -9.815  10.722  -0.920  1.00  0.00     0.048 C 
HETATM   25  C4  UNL     1     -10.560   9.953   0.152  1.00  0.00     0.024 C 
HETATM   26  S1  UNL     1     -10.474  12.428  -0.862  1.00  0.00    -0.164 SA
HETATM   27  C2  UNL     1     -10.265  10.442   1.539  1.00  0.00    -0.042 C 
HETATM   28  C1  UNL     1      -9.548   9.358   2.283  1.00  0.00     0.015 C 
HETATM   29  C3  UNL     1     -11.547  10.728   2.319  1.00  0.00     0.015 C 
HETATM   30  C16 UNL     1      -9.479  11.730   1.512  1.00  0.00     0.009 C 
HETATM   31  C17 UNL     1     -10.336  12.841   0.927  1.00  0.00     0.080 C 
ENDBRANCH  21  22
ENDBRANCH  20  21
ENDBRANCH   1  20
TORSDOF 5
ENDMDL
MODEL 2
REMARK VINA RESULT: -8.232377723      2.221      3.084
REMARK  5 active torsions:
REMARK  status: ('A' for Active; 'I' for Inactive)
REMARK    1  A    between atoms: C7_7  and  C8_8 
REMARK    2  A    between atoms: C8_8  and  O1_9 
REMARK    3  A    between atoms: O1_9  and  C9_10 
REMARK       I    between atoms: C9_10  and  N1_12 
REMARK    4  A    between atoms: C14_23  and  O3_24 
REMARK    5  A    between atoms: O3_24  and  C15_25 
ROOT
HETATM    1  C9  UNL     1      -4.373  14.128   2.776  1.00  0.00     0.366 C 
HETATM    2  O2  UNL     1      -4.201  14.540   3.961  1.00  0.00    -0.238 OA
HETATM    3  N1  UNL     1      -3.377  13.478   2.026  1.00  0.00    -0.286 N 
ATOM      4  H1  UNL     1      -3.522  12.492   1.811  1.00  0.00     0.172 HD
HETATM    5  C10 UNL     1      -2.310  14.017   1.594  1.00  0.00     0.147 A 
HETATM    6  N2  UNL     1      -2.066  15.305   1.845  1.00  0.00    -0.317 N 
ATOM      7  H2  UNL     1      -2.734  15.857   2.383  1.00  0.00     0.169 HD
HETATM    8  C11 UNL     1      -0.933  15.874   1.384  1.00  0.00     0.189 A 
HETATM    9  C12 UNL     1      -0.710  17.258   1.675  1.00  0.00     0.137 C 
HETATM   10  N3  UNL     1      -0.544  18.387   1.900  1.00  0.00    -0.188 NA
HETATM   11  N4  UNL     1      -0.069  15.119   0.678  1.00  0.00    -0.341 N 
ATOM     12  H4  UNL     1       0.785  15.559   0.334  1.00  0.00     0.167 HD
HETATM   13  C13 UNL     1      -0.271  13.822   0.401  1.00  0.00     0.131 A 
HETATM   14  C14 UNL     1      -1.436  13.222   0.870  1.00  0.00     0.137 A 
ENDROOT
BRANCH  14  15
HETATM   15  O3  UNL     1      -1.709  11.884   0.621  1.00  0.00    -0.250 OA
BRANCH  15  16
HETATM   16  C15 UNL     1      -2.348  11.419  -0.548  1.00  0.00     0.530 C 
HETATM   17  F1  UNL     1      -3.056  12.494  -1.075  1.00  0.00    -0.144 F 
HETATM   18  F2  UNL     1      -1.405  11.006  -1.477  1.00  0.00    -0.144 F 
HETATM   19  F3  UNL     1      -3.275  10.431  -0.291  1.00  0.00    -0.144 F 
ENDBRANCH  15  16
ENDBRANCH  14  15
BRANCH   1  20
HETATM   20  O1  UNL     1      -5.621  14.346   2.221  1.00  0.00    -0.303 OA
BRANCH  20  21
HETATM   21  C8  UNL     1      -5.816  14.316   0.799  1.00  0.00     0.185 C 
BRANCH  21  22
HETATM   22  C7  UNL     1      -7.263  13.876   0.537  1.00  0.00     0.017 C 
HETATM   23  C6  UNL     1      -7.484  13.495  -0.889  1.00  0.00     0.022 C 
HETATM   24  C5  UNL     1      -8.561  12.417  -0.942  1.00  0.00     0.048 C 
HETATM   25  C4  UNL     1      -8.105  11.162  -0.227  1.00  0.00     0.024 C 
HETATM   26  S1  UNL     1      -9.944  13.086   0.051  1.00  0.00    -0.164 SA
HETATM   27  C2  UNL     1      -7.521  11.436   1.128  1.00  0.00    -0.042 C 
HETATM   28  C1  UNL     1      -6.068  11.074   1.101  1.00  0.00     0.015 C 
HETATM   29  C3  UNL     1      -8.165  10.565   2.204  1.00  0.00     0.015 C 
HETATM   30  C16 UNL     1      -7.743  12.870   1.542  1.00  0.00     0.009 C 
HETATM   31  C17 UNL     1      -9.229  13.120   1.747  1.00  0.00     0.080 C 
ENDBRANCH  21  22
ENDBRANCH  20  21
ENDBRANCH   1  20
TORSDOF 5
ENDMDL
MODEL 3
REMARK VINA RESULT: -8.195770326      1.028      2.205
REMARK  5 active torsions:
REMARK  status: ('A' for Active; 'I' for Inactive)
REMARK    1  A    between atoms: C7_7  and  C8_8 
REMARK    2  A    between atoms: C8_8  and  O1_9 
REMARK    3  A    between atoms: O1_9  and  C9_10 
REMARK       I    between atoms: C9_10  and  N1_12 
REMARK    4  A    between atoms: C14_23  and  O3_24 
REMARK    5  A    between atoms: O3_24  and  C15_25 
ROOT
HETATM    1  C9  UNL     1      -4.501  10.854   0.827  1.00  0.00     0.366 C 
HETATM    2  O2  UNL     1      -4.031  10.048   1.684  1.00  0.00    -0.238 OA
HETATM    3  N1  UNL     1      -3.729  11.831   0.174  1.00  0.00    -0.286 N 
ATOM      4  H1  UNL     1      -3.572  11.711  -0.827  1.00  0.00     0.172 HD
HETATM    5  C10 UNL     1      -3.211  12.851   0.726  1.00  0.00     0.147 A 
HETATM    6  N2  UNL     1      -3.383  13.061   2.032  1.00  0.00    -0.317 N 
ATOM      7  H2  UNL     1      -3.929  12.403   2.588  1.00  0.00     0.169 HD
HETATM    8  C11 UNL     1      -2.832  14.145   2.615  1.00  0.00     0.189 A 
HETATM    9  C12 UNL     1      -3.042  14.333   4.019  1.00  0.00     0.137 C 
HETATM   10  N3  UNL     1      -3.231  14.488   5.156  1.00  0.00    -0.188 NA
HETATM   11  N4  UNL     1      -2.115  14.996   1.855  1.00  0.00    -0.341 N 
ATOM     12  H4  UNL     1      -1.701  15.813   2.306  1.00  0.00     0.167 HD
HETATM   13  C13 UNL     1      -1.914  14.827   0.540  1.00  0.00     0.131 A 
HETATM   14  C14 UNL     1      -2.477  13.712  -0.075  1.00  0.00     0.137 A 
ENDROOT
BRANCH  14  15
HETATM   15  O3  UNL     1      -2.310  13.475  -1.432  1.00  0.00    -0.250 OA
BRANCH  15  16
HETATM   16  C15 UNL     1      -1.182  12.829  -1.982  1.00  0.00     0.530 C 
HETATM   17  F1  UNL     1      -1.339  11.469  -1.739  1.00  0.00    -0.144 F 
HETATM   18  F2  UNL     1      -1.132  13.036  -3.352  1.00  0.00    -0.144 F 
HETATM   19  F3  UNL     1      -0.005  13.200  -1.368  1.00  0.00    -0.144 F 
ENDBRANCH  15  16
ENDBRANCH  14  15
BRANCH   1  20
HETATM   20  O1  UNL     1      -5.849  10.738   0.543  1.00  0.00    -0.303 OA
BRANCH  20  21
HETATM   21  C8  UNL     1      -6.841  10.918   1.565  1.00  0.00     0.185 C 
BRANCH  21  22
HETATM   22  C7  UNL     1      -8.177  11.213   0.870  1.00  0.00     0.017 C 
HETATM   23  C6  UNL     1      -9.193  11.759   1.816  1.00  0.00     0.022 C 
HETATM   24  C5  UNL     1     -10.118  12.696   1.048  1.00  0.00     0.048 C 
HETATM   25  C4  UNL     1      -9.353  13.884   0.504  1.00  0.00     0.024 C 
HETATM   26  S1  UNL     1     -10.654  11.734  -0.412  1.00  0.00    -0.164 SA
HETATM   27  C2  UNL     1      -8.085  13.497  -0.198  1.00  0.00    -0.042 C 
HETATM   28  C1  UNL     1      -6.925  14.031   0.584  1.00  0.00     0.015 C 
HETATM   29  C3  UNL     1      -7.997  14.125  -1.588  1.00  0.00     0.015 C 
HETATM   30  C16 UNL     1      -8.001  12.002  -0.393  1.00  0.00     0.009 C 
HETATM   31  C17 UNL     1      -9.085  11.549  -1.358  1.00  0.00     0.080 C 
ENDBRANCH  21  22
ENDBRANCH  20  21
ENDBRANCH   1  20
TORSDOF 5
ENDMDL
MODEL 4
REMARK VINA RESULT: -8.195726686      2.502      2.708
REMARK  5 active torsions:
REMARK  status: ('A' for Active; 'I' for Inactive)
REMARK    1  A    between atoms: C7_7  and  C8_8 
REMARK    2  A    between atoms: C8_8  and  O1_9 
REMARK    3  A    between atoms: O1_9  and  C9_10 
REMARK       I    between atoms: C9_10  and  N1_12 
REMARK    4  A    between atoms: C14_23  and  O3_24 
REMARK    5  A    between atoms: O3_24  and  C15_25 
ROOT
HETATM    1  C9  UNL     1      -4.881  11.051   0.891  1.00  0.00     0.366 C 
HETATM    2  O2  UNL     1      -3.813  10.416   1.137  1.00  0.00    -0.238 OA
HETATM    3  N1  UNL     1      -4.906  12.353   0.361  1.00  0.00    -0.286 N 
ATOM      4  H1  UNL     1      -5.265  12.464  -0.588  1.00  0.00     0.172 HD
HETATM    5  C10 UNL     1      -4.520  13.402   0.964  1.00  0.00     0.147 A 
HETATM    6  N2  UNL     1      -4.041  13.318   2.206  1.00  0.00    -0.317 N 
ATOM      7  H2  UNL     1      -3.985  12.413   2.672  1.00  0.00     0.169 HD
HETATM    8  C11 UNL     1      -3.632  14.434   2.844  1.00  0.00     0.189 A 
HETATM    9  C12 UNL     1      -3.126  14.299   4.177  1.00  0.00     0.137 C 
HETATM   10  N3  UNL     1      -2.733  14.184   5.265  1.00  0.00    -0.188 NA
HETATM   11  N4  UNL     1      -3.718  15.616   2.203  1.00  0.00    -0.341 N 
ATOM     12  H4  UNL     1      -3.405  16.454   2.693  1.00  0.00     0.167 HD
HETATM   13  C13 UNL     1      -4.191  15.750   0.955  1.00  0.00     0.131 A 
HETATM   14  C14 UNL     1      -4.617  14.607   0.284  1.00  0.00     0.137 A 
ENDROOT
BRANCH  14  15
HETATM   15  O3  UNL     1      -5.117  14.672  -1.008  1.00  0.00    -0.250 OA
BRANCH  15  16
HETATM   16  C15 UNL     1      -6.490  14.795  -1.312  1.00  0.00     0.530 C 
HETATM   17  F1  UNL     1      -6.869  13.614  -1.942  1.00  0.00    -0.144 F 
HETATM   18  F2  UNL     1      -7.228  14.937  -0.147  1.00  0.00    -0.144 F 
HETATM   19  F3  UNL     1      -6.748  15.812  -2.205  1.00  0.00    -0.144 F 
ENDBRANCH  15  16
ENDBRANCH  14  15
BRANCH   1  20
HETATM   20  O1  UNL     1      -6.068  10.399   1.173  1.00  0.00    -0.303 OA
BRANCH  20  21
HETATM   21  C8  UNL     1      -7.112  11.045   1.915  1.00  0.00     0.185 C 
BRANCH  21  22
HETATM   22  C7  UNL     1      -8.151  11.557   0.908  1.00  0.00     0.017 C 
HETATM   23  C6  UNL     1      -8.123  10.786  -0.370  1.00  0.00     0.022 C 
HETATM   24  C5  UNL     1      -9.528  10.770  -0.959  1.00  0.00     0.048 C 
HETATM   25  C4  UNL     1     -10.490  10.046  -0.041  1.00  0.00     0.024 C 
HETATM   26  S1  UNL     1     -10.057  12.521  -0.960  1.00  0.00    -0.164 SA
HETATM   27  C2  UNL     1     -10.386  10.489   1.389  1.00  0.00    -0.042 C 
HETATM   28  C1  UNL     1      -9.881   9.341   2.207  1.00  0.00     0.015 C 
HETATM   29  C3  UNL     1     -11.751  10.863   1.962  1.00  0.00     0.015 C 
HETATM   30  C16 UNL     1      -9.511  11.712   1.522  1.00  0.00     0.009 C 
HETATM   31  C17 UNL     1     -10.177  12.896   0.839  1.00  0.00     0.080 C 
ENDBRANCH  21  22
ENDBRANCH  20  21
ENDBRANCH   1  20
TORSDOF 5
ENDMDL
MODEL 5
REMARK VINA RESULT: -8.191599117      3.342      3.702
REMARK  5 active torsions:
REMARK  status: ('A' for Active; 'I' for Inactive)
REMARK    1  A    between atoms: C7_7  and  C8_8 
REMARK    2  A    between atoms: C8_8  and  O1_9 
REMARK    3  A    between atoms: O1_9  and  C9_10 
REMARK       I    between atoms: C9_10  and  N1_12 
REMARK    4  A    between atoms: C14_23  and  O3_24 
REMARK    5  A    between atoms: O3_24  and  C15_25 
ROOT
HETATM    1  C9  UNL     1      -5.351  11.552   0.637  1.00  0.00     0.366 C 
HETATM    2  O2  UNL     1      -4.162  11.163   0.439  1.00  0.00    -0.238 OA
HETATM    3  N1  UNL     1      -5.763  12.889   0.504  1.00  0.00    -0.286 N 
ATOM      4  H1  UNL     1      -6.396  13.109  -0.265  1.00  0.00     0.172 HD
HETATM    5  C10 UNL     1      -5.413  13.847   1.262  1.00  0.00     0.147 A 
HETATM    6  N2  UNL     1      -4.586  13.620   2.284  1.00  0.00    -0.317 N 
ATOM      7  H2  UNL     1      -4.235  12.678   2.458  1.00  0.00     0.169 HD
HETATM    8  C11 UNL     1      -4.216  14.639   3.087  1.00  0.00     0.189 A 
HETATM    9  C12 UNL     1      -3.329  14.350   4.173  1.00  0.00     0.137 C 
HETATM   10  N3  UNL     1      -2.621  14.106   5.063  1.00  0.00    -0.188 NA
HETATM   11  N4  UNL     1      -4.696  15.871   2.832  1.00  0.00    -0.341 N 
ATOM     12  H4  UNL     1      -4.410  16.636   3.445  1.00  0.00     0.167 HD
HETATM   13  C13 UNL     1      -5.528  16.149   1.818  1.00  0.00     0.131 A 
HETATM   14  C14 UNL     1      -5.918  15.107   0.981  1.00  0.00     0.137 A 
ENDROOT
BRANCH  14  15
HETATM   15  O3  UNL     1      -6.776  15.322  -0.088  1.00  0.00    -0.250 OA
BRANCH  15  16
HETATM   16  C15 UNL     1      -8.173  15.475   0.046  1.00  0.00     0.530 C 
HETATM   17  F1  UNL     1      -8.561  14.687   1.125  1.00  0.00    -0.144 F 
HETATM   18  F2  UNL     1      -8.487  16.797   0.323  1.00  0.00    -0.144 F 
HETATM   19  F3  UNL     1      -8.867  15.005  -1.048  1.00  0.00    -0.144 F 
ENDBRANCH  15  16
ENDBRANCH  14  15
BRANCH   1  20
HETATM   20  O1  UNL     1      -6.266  10.581   1.001  1.00  0.00    -0.303 OA
BRANCH  20  21
HETATM   21  C8  UNL     1      -7.383  10.896   1.846  1.00  0.00     0.185 C 
BRANCH  21  22
HETATM   22  C7  UNL     1      -8.560  11.280   0.939  1.00  0.00     0.017 C 
HETATM   23  C6  UNL     1      -8.572  10.495  -0.329  1.00  0.00     0.022 C 
HETATM   24  C5  UNL     1     -10.018  10.324  -0.781  1.00  0.00     0.048 C 
HETATM   25  C4  UNL     1     -10.808   9.520   0.230  1.00  0.00     0.024 C 
HETATM   26  S1  UNL     1     -10.724  12.011  -0.744  1.00  0.00    -0.164 SA
HETATM   27  C2  UNL     1     -10.617   9.997   1.640  1.00  0.00    -0.042 C 
HETATM   28  C1  UNL     1      -9.920   8.921   2.415  1.00  0.00     0.015 C 
HETATM   29  C3  UNL     1     -11.953  10.238   2.339  1.00  0.00     0.015 C 
HETATM   30  C16 UNL     1      -9.865  11.305   1.680  1.00  0.00     0.009 C 
HETATM   31  C17 UNL     1     -10.712  12.402   1.055  1.00  0.00     0.080 C 
ENDBRANCH  21  22
ENDBRANCH  20  21
ENDBRANCH   1  20
TORSDOF 5
ENDMDL
