MODEL 1
REMARK VINA RESULT: -7.412941114      0.000      0.000
REMARK  5 active torsions:
REMARK  status: ('A' for Active; 'I' for Inactive)
REMARK    1  A    between atoms: C3_3  and  S1_4 
REMARK    2  A    between atoms: S1_4  and  C4_5 
REMARK    3  A    between atoms: C4_5  and  C5_6 
REMARK       I    between atoms: C5_6  and  N1_8 
REMARK    4  A    between atoms: N1_8  and  C6_10 
REMARK    5  A    between atoms: C11_18  and  C12_19 
ROOT
HETATM    1  C1  UNL     1      -3.211  11.221   0.740  1.00  0.00     0.052 C 
HETATM    2  C2  UNL     1      -4.093  12.259   0.165  1.00  0.00    -0.017 A 
HETATM    3  C3  UNL     1      -5.457  12.289   0.519  1.00  0.00     0.092 A 
HETATM    4  N2  UNL     1      -6.267  13.234  -0.021  1.00  0.00    -0.284 N 
ATOM      5  H2  UNL     1      -7.250  13.235   0.250  1.00  0.00     0.188 HD
HETATM    6  N3  UNL     1      -5.859  14.152  -0.877  1.00  0.00    -0.219 N 
HETATM    7  C11 UNL     1      -6.459  15.175  -1.533  1.00  0.00     0.175 A 
HETATM    8  N4  UNL     1      -5.505  15.770  -2.278  1.00  0.00    -0.282 N 
ATOM      9  H4  UNL     1      -5.660  16.575  -2.883  1.00  0.00     0.188 HD
HETATM   10  N5  UNL     1      -4.340  15.163  -2.114  1.00  0.00    -0.282 N 
ATOM     11  H5  UNL     1      -3.453  15.403  -2.556  1.00  0.00     0.188 HD
HETATM   12  C13 UNL     1      -4.570  14.158  -1.239  1.00  0.00     0.150 A 
HETATM   13  C14 UNL     1      -3.661  13.212  -0.727  1.00  0.00    -0.006 A 
HETATM   14  C15 UNL     1      -2.246  13.229  -1.106  1.00  0.00     0.053 C 
ENDROOT
BRANCH   3  15
HETATM   15  S1  UNL     1      -5.986  11.092   1.704  1.00  0.00    -0.101 SA
BRANCH  15  16
HETATM   16  C4  UNL     1      -7.301  11.570   2.788  1.00  0.00     0.183 C 
BRANCH  16  17
HETATM   17  C5  UNL     1      -8.587  11.921   2.166  1.00  0.00     0.227 C 
HETATM   18  O1  UNL     1      -8.773  13.081   1.733  1.00  0.00    -0.273 OA
HETATM   19  N1  UNL     1      -9.618  10.973   2.047  1.00  0.00    -0.356 N 
ATOM     20  H1  UNL     1      -9.424  10.041   2.411  1.00  0.00     0.162 HD
BRANCH  19  21
HETATM   21  C6  UNL     1     -10.921  11.177   1.467  1.00  0.00     0.084 C 
HETATM   22  C7  UNL     1     -10.850  10.910  -0.056  1.00  0.00     0.025 C 
HETATM   23  C8  UNL     1     -10.857   9.373   0.006  1.00  0.00     0.002 C 
HETATM   24  C9  UNL     1     -12.102   9.176   0.845  1.00  0.00     0.002 C 
HETATM   25  C10 UNL     1     -11.934  10.178   1.959  1.00  0.00     0.025 C 
ENDBRANCH  19  21
ENDBRANCH  16  17
ENDBRANCH  15  16
ENDBRANCH   3  15
BRANCH   7  26
HETATM   26  C12 UNL     1      -7.915  15.525  -1.429  1.00  0.00     0.249 C 
HETATM   27 CL1  UNL     1      -8.310  16.156   0.161  1.00  0.00    -0.075 Cl
HETATM   28 CL2  UNL     1      -8.273  16.790  -2.636  1.00  0.00    -0.075 Cl
HETATM   29 CL3  UNL     1      -8.905  14.095  -1.835  1.00  0.00    -0.075 Cl
ENDBRANCH   7  26
TORSDOF 5
ENDMDL
MODEL 2
REMARK VINA RESULT: -7.191411735      3.643      4.607
REMARK  5 active torsions:
REMARK  status: ('A' for Active; 'I' for Inactive)
REMARK    1  A    between atoms: C3_3  and  S1_4 
REMARK    2  A    between atoms: S1_4  and  C4_5 
REMARK    3  A    between atoms: C4_5  and  C5_6 
REMARK       I    between atoms: C5_6  and  N1_8 
REMARK    4  A    between atoms: N1_8  and  C6_10 
REMARK    5  A    between atoms: C11_18  and  C12_19 
ROOT
HETATM    1  C1  UNL     1      -7.418  16.636   0.731  1.00  0.00     0.052 C 
HETATM    2  C2  UNL     1      -6.218  15.776   0.806  1.00  0.00    -0.017 A 
HETATM    3  C3  UNL     1      -6.107  14.658  -0.046  1.00  0.00     0.092 A 
HETATM    4  N2  UNL     1      -5.011  13.862   0.036  1.00  0.00    -0.284 N 
ATOM      5  H2  UNL     1      -4.953  13.059  -0.590  1.00  0.00     0.188 HD
HETATM    6  N3  UNL     1      -4.015  14.064   0.879  1.00  0.00    -0.219 N 
HETATM    7  C11 UNL     1      -2.845  13.431   1.138  1.00  0.00     0.175 A 
HETATM    8  N4  UNL     1      -2.240  14.125   2.123  1.00  0.00    -0.282 N 
ATOM      9  H4  UNL     1      -1.337  13.885   2.532  1.00  0.00     0.188 HD
HETATM   10  N5  UNL     1      -2.980  15.161   2.486  1.00  0.00    -0.282 N 
ATOM     11  H5  UNL     1      -2.764  15.850   3.205  1.00  0.00     0.188 HD
HETATM   12  C13 UNL     1      -4.083  15.116   1.704  1.00  0.00     0.150 A 
HETATM   13  C14 UNL     1      -5.185  15.992   1.687  1.00  0.00    -0.006 A 
HETATM   14  C15 UNL     1      -5.251  17.155   2.576  1.00  0.00     0.053 C 
ENDROOT
BRANCH   3  15
HETATM   15  S1  UNL     1      -7.416  14.422  -1.205  1.00  0.00    -0.101 SA
BRANCH  15  16
HETATM   16  C4  UNL     1      -8.885  13.640  -0.602  1.00  0.00     0.183 C 
BRANCH  16  17
HETATM   17  C5  UNL     1      -8.760  12.250  -0.139  1.00  0.00     0.227 C 
HETATM   18  O1  UNL     1      -7.627  11.727  -0.035  1.00  0.00    -0.273 OA
HETATM   19  N1  UNL     1      -9.896  11.490   0.191  1.00  0.00    -0.356 N 
ATOM     20  H1  UNL     1     -10.799  11.955   0.094  1.00  0.00     0.162 HD
BRANCH  19  21
HETATM   21  C6  UNL     1      -9.923  10.125   0.653  1.00  0.00     0.084 C 
HETATM   22  C7  UNL     1     -10.248  10.104   2.166  1.00  0.00     0.025 C 
HETATM   23  C8  UNL     1     -11.763  10.345   2.053  1.00  0.00     0.002 C 
HETATM   24  C9  UNL     1     -12.110   9.226   1.095  1.00  0.00     0.002 C 
HETATM   25  C10 UNL     1     -11.043   9.331   0.035  1.00  0.00     0.025 C 
ENDBRANCH  19  21
ENDBRANCH  16  17
ENDBRANCH  15  16
ENDBRANCH   3  15
BRANCH   7  26
HETATM   26  C12 UNL     1      -2.372  12.187   0.446  1.00  0.00     0.249 C 
HETATM   27 CL1  UNL     1      -3.551  10.892   0.578  1.00  0.00    -0.075 Cl
HETATM   28 CL2  UNL     1      -2.146  12.562  -1.285  1.00  0.00    -0.075 Cl
HETATM   29 CL3  UNL     1      -0.784  11.701   1.105  1.00  0.00    -0.075 Cl
ENDBRANCH   7  26
TORSDOF 5
ENDMDL
MODEL 3
REMARK VINA RESULT: -7.129928603      1.567      1.794
REMARK  5 active torsions:
REMARK  status: ('A' for Active; 'I' for Inactive)
REMARK    1  A    between atoms: C3_3  and  S1_4 
REMARK    2  A    between atoms: S1_4  and  C4_5 
REMARK    3  A    between atoms: C4_5  and  C5_6 
REMARK       I    between atoms: C5_6  and  N1_8 
REMARK    4  A    between atoms: N1_8  and  C6_10 
REMARK    5  A    between atoms: C11_18  and  C12_19 
ROOT
HETATM    1  C1  UNL     1      -3.690  10.489   0.350  1.00  0.00     0.052 C 
HETATM    2  C2  UNL     1      -3.955  11.943   0.310  1.00  0.00    -0.017 A 
HETATM    3  C3  UNL     1      -5.100  12.461   0.948  1.00  0.00     0.092 A 
HETATM    4  N2  UNL     1      -5.348  13.795   0.898  1.00  0.00    -0.284 N 
ATOM      5  H2  UNL     1      -6.182  14.145   1.367  1.00  0.00     0.188 HD
HETATM    6  N3  UNL     1      -4.573  14.664   0.277  1.00  0.00    -0.219 N 
HETATM    7  C11 UNL     1      -4.605  16.007   0.095  1.00  0.00     0.175 A 
HETATM    8  N4  UNL     1      -3.518  16.325  -0.636  1.00  0.00    -0.282 N 
ATOM      9  H4  UNL     1      -3.273  17.269  -0.932  1.00  0.00     0.188 HD
HETATM   10  N5  UNL     1      -2.811  15.241  -0.915  1.00  0.00    -0.282 N 
ATOM     11  H5  UNL     1      -1.946  15.192  -1.452  1.00  0.00     0.188 HD
HETATM   12  C13 UNL     1      -3.475  14.212  -0.341  1.00  0.00     0.150 A 
HETATM   13  C14 UNL     1      -3.144  12.843  -0.339  1.00  0.00    -0.006 A 
HETATM   14  C15 UNL     1      -1.932  12.349  -0.998  1.00  0.00     0.053 C 
ENDROOT
BRANCH   3  15
HETATM   15  S1  UNL     1      -6.104  11.301   1.821  1.00  0.00    -0.101 SA
BRANCH  15  16
HETATM   16  C4  UNL     1      -7.426  11.963   2.793  1.00  0.00     0.183 C 
BRANCH  16  17
HETATM   17  C5  UNL     1      -8.706  12.201   2.109  1.00  0.00     0.227 C 
HETATM   18  O1  UNL     1      -8.940  13.320   1.599  1.00  0.00    -0.273 OA
HETATM   19  N1  UNL     1      -9.679  11.191   2.019  1.00  0.00    -0.356 N 
ATOM     20  H1  UNL     1      -9.447  10.295   2.447  1.00  0.00     0.162 HD
BRANCH  19  21
HETATM   21  C6  UNL     1     -10.970  11.283   1.385  1.00  0.00     0.084 C 
HETATM   22  C7  UNL     1     -10.831  10.920  -0.113  1.00  0.00     0.025 C 
HETATM   23  C8  UNL     1     -10.759   9.392   0.053  1.00  0.00     0.002 C 
HETATM   24  C9  UNL     1     -12.021   9.183   0.864  1.00  0.00     0.002 C 
HETATM   25  C10 UNL     1     -11.945  10.264   1.912  1.00  0.00     0.025 C 
ENDBRANCH  19  21
ENDBRANCH  16  17
ENDBRANCH  15  16
ENDBRANCH   3  15
BRANCH   7  26
HETATM   26  C12 UNL     1      -5.680  16.917   0.614  1.00  0.00     0.249 C 
HETATM   27 CL1  UNL     1      -5.490  17.219   2.333  1.00  0.00    -0.075 Cl
HETATM   28 CL2  UNL     1      -5.551  18.478  -0.244  1.00  0.00    -0.075 Cl
HETATM   29 CL3  UNL     1      -7.284  16.226   0.239  1.00  0.00    -0.075 Cl
ENDBRANCH   7  26
TORSDOF 5
ENDMDL
MODEL 4
REMARK VINA RESULT: -7.128934154      1.546      2.034
REMARK  5 active torsions:
REMARK  status: ('A' for Active; 'I' for Inactive)
REMARK    1  A    between atoms: C3_3  and  S1_4 
REMARK    2  A    between atoms: S1_4  and  C4_5 
REMARK    3  A    between atoms: C4_5  and  C5_6 
REMARK       I    between atoms: C5_6  and  N1_8 
REMARK    4  A    between atoms: N1_8  and  C6_10 
REMARK    5  A    between atoms: C11_18  and  C12_19 
ROOT
HETATM    1  C1  UNL     1      -3.682  10.484   0.358  1.00  0.00     0.052 C 
HETATM    2  C2  UNL     1      -3.960  11.936   0.302  1.00  0.00    -0.017 A 
HETATM    3  C3  UNL     1      -5.112  12.449   0.932  1.00  0.00     0.092 A 
HETATM    4  N2  UNL     1      -5.373  13.780   0.867  1.00  0.00    -0.284 N 
ATOM      5  H2  UNL     1      -6.213  14.127   1.329  1.00  0.00     0.188 HD
HETATM    6  N3  UNL     1      -4.604  14.650   0.240  1.00  0.00    -0.219 N 
HETATM    7  C11 UNL     1      -4.648  15.991   0.046  1.00  0.00     0.175 A 
HETATM    8  N4  UNL     1      -3.562  16.312  -0.684  1.00  0.00    -0.282 N 
ATOM      9  H4  UNL     1      -3.325  17.256  -0.989  1.00  0.00     0.188 HD
HETATM   10  N5  UNL     1      -2.844  15.232  -0.951  1.00  0.00    -0.282 N 
ATOM     11  H5  UNL     1      -1.976  15.186  -1.484  1.00  0.00     0.188 HD
HETATM   12  C13 UNL     1      -3.500  14.203  -0.369  1.00  0.00     0.150 A 
HETATM   13  C14 UNL     1      -3.156  12.837  -0.352  1.00  0.00    -0.006 A 
HETATM   14  C15 UNL     1      -1.937  12.348  -1.002  1.00  0.00     0.053 C 
ENDROOT
BRANCH   3  15
HETATM   15  S1  UNL     1      -6.109  11.288   1.811  1.00  0.00    -0.101 SA
BRANCH  15  16
HETATM   16  C4  UNL     1      -7.423  11.949   2.796  1.00  0.00     0.183 C 
BRANCH  16  17
HETATM   17  C5  UNL     1      -8.706  12.195   2.122  1.00  0.00     0.227 C 
HETATM   18  O1  UNL     1      -8.946  13.323   1.633  1.00  0.00    -0.273 OA
HETATM   19  N1  UNL     1      -9.676  11.183   2.015  1.00  0.00    -0.356 N 
ATOM     20  H1  UNL     1      -9.439  10.280   2.427  1.00  0.00     0.162 HD
BRANCH  19  21
HETATM   21  C6  UNL     1     -10.970  11.284   1.388  1.00  0.00     0.084 C 
HETATM   22  C7  UNL     1     -10.834  10.954  -0.118  1.00  0.00     0.025 C 
HETATM   23  C8  UNL     1     -10.754   9.423   0.014  1.00  0.00     0.002 C 
HETATM   24  C9  UNL     1     -12.012   9.190   0.825  1.00  0.00     0.002 C 
HETATM   25  C10 UNL     1     -11.938  10.249   1.896  1.00  0.00     0.025 C 
ENDBRANCH  19  21
ENDBRANCH  16  17
ENDBRANCH  15  16
ENDBRANCH   3  15
BRANCH   7  26
HETATM   26  C12 UNL     1      -5.734  16.895   0.551  1.00  0.00     0.249 C 
HETATM   27 CL1  UNL     1      -7.323  16.189   0.307  1.00  0.00    -0.075 Cl
HETATM   28 CL2  UNL     1      -5.493  17.132   2.304  1.00  0.00    -0.075 Cl
HETATM   29 CL3  UNL     1      -5.596  18.494  -0.234  1.00  0.00    -0.075 Cl
ENDBRANCH   7  26
TORSDOF 5
ENDMDL
MODEL 5
REMARK VINA RESULT: -7.079641316      3.654      4.551
REMARK  5 active torsions:
REMARK  status: ('A' for Active; 'I' for Inactive)
REMARK    1  A    between atoms: C3_3  and  S1_4 
REMARK    2  A    between atoms: S1_4  and  C4_5 
REMARK    3  A    between atoms: C4_5  and  C5_6 
REMARK       I    between atoms: C5_6  and  N1_8 
REMARK    4  A    between atoms: N1_8  and  C6_10 
REMARK    5  A    between atoms: C11_18  and  C12_19 
ROOT
HETATM    1  C1  UNL     1      -7.384  16.688   0.729  1.00  0.00     0.052 C 
HETATM    2  C2  UNL     1      -6.183  15.827   0.789  1.00  0.00    -0.017 A 
HETATM    3  C3  UNL     1      -6.055  14.745  -0.106  1.00  0.00     0.092 A 
HETATM    4  N2  UNL     1      -4.958  13.948  -0.039  1.00  0.00    -0.284 N 
ATOM      5  H2  UNL     1      -4.889  13.171  -0.696  1.00  0.00     0.188 HD
HETATM    6  N3  UNL     1      -3.977  14.118   0.827  1.00  0.00    -0.219 N 
HETATM    7  C11 UNL     1      -2.810  13.477   1.079  1.00  0.00     0.175 A 
HETATM    8  N4  UNL     1      -2.222  14.131   2.101  1.00  0.00    -0.282 N 
ATOM      9  H4  UNL     1      -1.325  13.877   2.514  1.00  0.00     0.188 HD
HETATM   10  N5  UNL     1      -2.970  15.150   2.493  1.00  0.00    -0.282 N 
ATOM     11  H5  UNL     1      -2.767  15.810   3.244  1.00  0.00     0.188 HD
HETATM   12  C13 UNL     1      -4.060  15.135   1.693  1.00  0.00     0.150 A 
HETATM   13  C14 UNL     1      -5.164  16.009   1.693  1.00  0.00    -0.006 A 
HETATM   14  C15 UNL     1      -5.247  17.135   2.627  1.00  0.00     0.053 C 
ENDROOT
BRANCH   3  15
HETATM   15  S1  UNL     1      -7.346  14.553  -1.295  1.00  0.00    -0.101 SA
BRANCH  15  16
HETATM   16  C4  UNL     1      -8.271  13.046  -1.232  1.00  0.00     0.183 C 
BRANCH  16  17
HETATM   17  C5  UNL     1      -9.114  12.828  -0.047  1.00  0.00     0.227 C 
HETATM   18  O1  UNL     1      -9.190  13.713   0.835  1.00  0.00    -0.273 OA
HETATM   19  N1  UNL     1      -9.841  11.635   0.116  1.00  0.00    -0.356 N 
ATOM     20  H1  UNL     1      -9.752  10.942  -0.626  1.00  0.00     0.162 HD
BRANCH  19  21
HETATM   21  C6  UNL     1     -10.700  11.287   1.220  1.00  0.00     0.084 C 
HETATM   22  C7  UNL     1     -11.956  10.560   0.681  1.00  0.00     0.025 C 
HETATM   23  C8  UNL     1     -11.308   9.185   0.442  1.00  0.00     0.002 C 
HETATM   24  C9  UNL     1     -10.722   8.957   1.819  1.00  0.00     0.002 C 
HETATM   25  C10 UNL     1     -10.070  10.278   2.143  1.00  0.00     0.025 C 
ENDBRANCH  19  21
ENDBRANCH  16  17
ENDBRANCH  15  16
ENDBRANCH   3  15
BRANCH   7  26
HETATM   26  C12 UNL     1      -2.322  12.262   0.345  1.00  0.00     0.249 C 
HETATM   27 CL1  UNL     1      -3.502  10.963   0.401  1.00  0.00    -0.075 Cl
HETATM   28 CL2  UNL     1      -2.065  12.709  -1.364  1.00  0.00    -0.075 Cl
HETATM   29 CL3  UNL     1      -0.746  11.750   1.013  1.00  0.00    -0.075 Cl
ENDBRANCH   7  26
TORSDOF 5
ENDMDL
