MODEL 1
REMARK VINA RESULT: -7.829719860      0.000      0.000
REMARK  4 active torsions:
REMARK  status: ('A' for Active; 'I' for Inactive)
REMARK    1  A    between atoms: C7_9  and  C8_10 
REMARK    2  A    between atoms: C12_14  and  O1_15 
REMARK    3  A    between atoms: O1_15  and  C13_16 
REMARK    4  A    between atoms: N2_19  and  C16_20 
ROOT
HETATM    1  C1  UNL     1      24.725   9.868  64.814  1.00  0.00     0.051 C 
HETATM    2  C2  UNL     1      24.776  11.098  63.953  1.00  0.00    -0.025 A 
HETATM    3  C3  UNL     1      25.712  11.105  62.994  1.00  0.00     0.053 A 
HETATM    4  C4  UNL     1      25.781  12.144  62.103  1.00  0.00     0.138 A 
HETATM    5  F1  UNL     1      26.737  12.115  61.146  1.00  0.00    -0.204 F 
HETATM    6  C5  UNL     1      24.885  13.158  62.207  1.00  0.00     0.096 A 
HETATM    7  C6  UNL     1      25.046  14.321  61.371  1.00  0.00     0.103 C 
HETATM    8  N1  UNL     1      25.194  15.283  60.731  1.00  0.00    -0.191 NA
HETATM    9  C7  UNL     1      23.869  13.244  63.170  1.00  0.00     0.024 A 
HETATM   10  C12 UNL     1      23.872  12.137  64.051  1.00  0.00     0.087 A 
ENDROOT
BRANCH   9  11
HETATM   11  C8  UNL     1      22.792  14.156  62.937  1.00  0.00    -0.065 C 
HETATM   12  C9  UNL     1      21.592  14.235  62.168  1.00  0.00     0.035 C 
HETATM   13  C10 UNL     1      21.111  15.359  63.169  1.00  0.00     0.009 C 
HETATM   14  C11 UNL     1      22.485  15.313  63.856  1.00  0.00     0.035 C 
ENDBRANCH   9  11
BRANCH  10  15
HETATM   15  O1  UNL     1      22.918  12.098  65.066  1.00  0.00    -0.344 OA
BRANCH  15  16
HETATM   16  C13 UNL     1      21.685  11.491  64.821  1.00  0.00     0.132 C 
HETATM   17  C14 UNL     1      21.496  10.165  65.614  1.00  0.00     0.062 C 
HETATM   18  C15 UNL     1      20.042   9.801  65.708  1.00  0.00     0.275 C 
HETATM   19  N2  UNL     1      19.241  10.201  64.609  1.00  0.00     0.095 N 
HETATM   20  C20 UNL     1      19.328  11.550  64.215  1.00  0.00     0.275 C 
HETATM   21  C21 UNL     1      20.453  12.287  64.962  1.00  0.00     0.062 C 
BRANCH  19  22
HETATM   22  C16 UNL     1      17.921   9.680  64.732  1.00  0.00     0.250 C 
HETATM   23  C17 UNL     1      17.705   8.466  63.850  1.00  0.00     0.065 C 
HETATM   24  C18 UNL     1      16.784   8.957  62.766  1.00  0.00     0.234 C 
HETATM   25  N3  UNL     1      16.209  10.199  63.159  1.00  0.00    -0.073 N 
HETATM   26  C19 UNL     1      16.824  10.619  64.400  1.00  0.00     0.268 C 
ATOM     27  H32 UNL     1      16.275  10.909  62.430  1.00  0.00     0.277 HD
ATOM     28  H31 UNL     1      15.192  10.157  63.222  1.00  0.00     0.277 HD
ENDBRANCH  19  22
ENDBRANCH  15  16
ENDBRANCH  10  15
TORSDOF 4
ENDMDL
MODEL 2
REMARK VINA RESULT: -7.648946858      2.336      4.007
REMARK  4 active torsions:
REMARK  status: ('A' for Active; 'I' for Inactive)
REMARK    1  A    between atoms: C7_9  and  C8_10 
REMARK    2  A    between atoms: C12_14  and  O1_15 
REMARK    3  A    between atoms: O1_15  and  C13_16 
REMARK    4  A    between atoms: N2_19  and  C16_20 
ROOT
HETATM    1  C1  UNL     1      20.662  15.769  62.736  1.00  0.00     0.051 C 
HETATM    2  C2  UNL     1      21.912  15.351  63.455  1.00  0.00    -0.025 A 
HETATM    3  C3  UNL     1      22.528  16.306  64.165  1.00  0.00     0.053 A 
HETATM    4  C4  UNL     1      23.627  16.002  64.926  1.00  0.00     0.138 A 
HETATM    5  F1  UNL     1      24.221  16.992  65.632  1.00  0.00    -0.204 F 
HETATM    6  C5  UNL     1      24.074  14.721  64.949  1.00  0.00     0.096 A 
HETATM    7  C6  UNL     1      25.312  14.426  65.624  1.00  0.00     0.103 C 
HETATM    8  N1  UNL     1      26.334  14.186  66.130  1.00  0.00    -0.191 NA
HETATM    9  C7  UNL     1      23.501  13.652  64.246  1.00  0.00     0.024 A 
HETATM   10  C12 UNL     1      22.378  14.053  63.484  1.00  0.00     0.087 A 
ENDROOT
BRANCH   9  11
HETATM   11  C8  UNL     1      23.839  12.321  64.646  1.00  0.00    -0.065 C 
HETATM   12  C9  UNL     1      23.458  11.361  65.633  1.00  0.00     0.035 C 
HETATM   13  C10 UNL     1      24.095  10.257  64.698  1.00  0.00     0.009 C 
HETATM   14  C11 UNL     1      24.595  11.364  63.757  1.00  0.00     0.035 C 
ENDBRANCH   9  11
BRANCH  10  15
HETATM   15  O1  UNL     1      21.716  13.088  62.726  1.00  0.00    -0.344 OA
BRANCH  15  16
HETATM   16  C13 UNL     1      20.635  12.404  63.286  1.00  0.00     0.132 C 
HETATM   17  C14 UNL     1      19.273  12.795  62.642  1.00  0.00     0.062 C 
HETATM   18  C15 UNL     1      18.235  11.743  62.907  1.00  0.00     0.275 C 
HETATM   19  N2  UNL     1      18.373  11.047  64.135  1.00  0.00     0.095 N 
HETATM   20  C20 UNL     1      19.636  10.492  64.414  1.00  0.00     0.275 C 
HETATM   21  C21 UNL     1      20.690  10.934  63.383  1.00  0.00     0.062 C 
BRANCH  19  22
HETATM   22  C16 UNL     1      17.261  10.184  64.352  1.00  0.00     0.250 C 
HETATM   23  C17 UNL     1      17.692   8.757  64.623  1.00  0.00     0.065 C 
HETATM   24  C18 UNL     1      17.288   8.007  63.383  1.00  0.00     0.234 C 
HETATM   25  N3  UNL     1      16.381   8.801  62.623  1.00  0.00    -0.073 N 
HETATM   26  C19 UNL     1      16.281  10.105  63.243  1.00  0.00     0.268 C 
ATOM     27  H32 UNL     1      16.639   8.855  61.638  1.00  0.00     0.277 HD
ATOM     28  H31 UNL     1      15.472   8.353  62.506  1.00  0.00     0.277 HD
ENDBRANCH  19  22
ENDBRANCH  15  16
ENDBRANCH  10  15
TORSDOF 4
ENDMDL
MODEL 3
REMARK VINA RESULT: -7.613526782      2.129      2.716
REMARK  4 active torsions:
REMARK  status: ('A' for Active; 'I' for Inactive)
REMARK    1  A    between atoms: C7_9  and  C8_10 
REMARK    2  A    between atoms: C12_14  and  O1_15 
REMARK    3  A    between atoms: O1_15  and  C13_16 
REMARK    4  A    between atoms: N2_19  and  C16_20 
ROOT
HETATM    1  C1  UNL     1      24.723  11.013  63.745  1.00  0.00     0.051 C 
HETATM    2  C2  UNL     1      24.389  12.423  64.139  1.00  0.00    -0.025 A 
HETATM    3  C3  UNL     1      25.272  13.034  64.941  1.00  0.00     0.053 A 
HETATM    4  C4  UNL     1      25.099  14.350  65.283  1.00  0.00     0.138 A 
HETATM    5  F1  UNL     1      26.013  14.935  66.092  1.00  0.00    -0.204 F 
HETATM    6  C5  UNL     1      24.024  15.020  64.795  1.00  0.00     0.096 A 
HETATM    7  C6  UNL     1      23.757  16.353  65.271  1.00  0.00     0.103 C 
HETATM    8  N1  UNL     1      23.509  17.414  65.683  1.00  0.00    -0.191 NA
HETATM    9  C7  UNL     1      23.047  14.474  63.951  1.00  0.00     0.024 A 
HETATM   10  C12 UNL     1      23.298  13.113  63.651  1.00  0.00     0.087 A 
ENDROOT
BRANCH   9  11
HETATM   11  C8  UNL     1      22.198  15.371  63.230  1.00  0.00    -0.065 C 
HETATM   12  C9  UNL     1      22.091  15.944  61.927  1.00  0.00     0.035 C 
HETATM   13  C10 UNL     1      20.573  16.234  62.259  1.00  0.00     0.009 C 
HETATM   14  C11 UNL     1      20.807  15.733  63.692  1.00  0.00     0.035 C 
ENDBRANCH   9  11
BRANCH  10  15
HETATM   15  O1  UNL     1      22.396  12.442  62.826  1.00  0.00    -0.344 OA
BRANCH  15  16
HETATM   16  C13 UNL     1      21.173  12.022  63.352  1.00  0.00     0.132 C 
HETATM   17  C14 UNL     1      19.960  12.444  62.473  1.00  0.00     0.062 C 
HETATM   18  C15 UNL     1      18.756  11.603  62.784  1.00  0.00     0.275 C 
HETATM   19  N2  UNL     1      18.658  11.151  64.124  1.00  0.00     0.095 N 
HETATM   20  C20 UNL     1      19.788  10.509  64.664  1.00  0.00     0.275 C 
HETATM   21  C21 UNL     1      20.999  10.605  63.720  1.00  0.00     0.062 C 
BRANCH  19  22
HETATM   22  C16 UNL     1      17.413  10.494  64.344  1.00  0.00     0.250 C 
HETATM   23  C17 UNL     1      17.599   9.050  64.766  1.00  0.00     0.065 C 
HETATM   24  C18 UNL     1      17.145   8.255  63.572  1.00  0.00     0.234 C 
HETATM   25  N3  UNL     1      16.413   9.101  62.690  1.00  0.00    -0.073 N 
HETATM   26  C19 UNL     1      16.490  10.458  63.186  1.00  0.00     0.268 C 
ATOM     27  H32 UNL     1      16.725   9.020  61.722  1.00  0.00     0.277 HD
ATOM     28  H31 UNL     1      15.452   8.788  62.554  1.00  0.00     0.277 HD
ENDBRANCH  19  22
ENDBRANCH  15  16
ENDBRANCH  10  15
TORSDOF 4
ENDMDL
MODEL 4
REMARK VINA RESULT: -7.340569430      3.110      7.382
REMARK  4 active torsions:
REMARK  status: ('A' for Active; 'I' for Inactive)
REMARK    1  A    between atoms: C7_9  and  C8_10 
REMARK    2  A    between atoms: C12_14  and  O1_15 
REMARK    3  A    between atoms: O1_15  and  C13_16 
REMARK    4  A    between atoms: N2_19  and  C16_20 
ROOT
HETATM    1  C1  UNL     1      19.872  12.484  60.175  1.00  0.00     0.051 C 
HETATM    2  C2  UNL     1      19.646  11.787  61.486  1.00  0.00    -0.025 A 
HETATM    3  C3  UNL     1      18.538  11.038  61.570  1.00  0.00     0.053 A 
HETATM    4  C4  UNL     1      18.291  10.294  62.694  1.00  0.00     0.138 A 
HETATM    5  F1  UNL     1      17.163   9.546  62.741  1.00  0.00    -0.204 F 
HETATM    6  C5  UNL     1      19.185  10.328  63.714  1.00  0.00     0.096 A 
HETATM    7  C6  UNL     1      18.858   9.669  64.952  1.00  0.00     0.103 C 
HETATM    8  N1  UNL     1      18.581   9.178  65.972  1.00  0.00    -0.191 NA
HETATM    9  C7  UNL     1      20.371  11.076  63.724  1.00  0.00     0.024 A 
HETATM   10  C12 UNL     1      20.548  11.817  62.531  1.00  0.00     0.087 A 
ENDROOT
BRANCH   9  11
HETATM   11  C8  UNL     1      21.378  10.735  64.681  1.00  0.00    -0.065 C 
HETATM   12  C9  UNL     1      22.583   9.973  64.757  1.00  0.00     0.035 C 
HETATM   13  C10 UNL     1      22.953  10.821  66.037  1.00  0.00     0.009 C 
HETATM   14  C11 UNL     1      21.574  11.496  65.970  1.00  0.00     0.035 C 
ENDBRANCH   9  11
BRANCH  10  15
HETATM   15  O1  UNL     1      21.684  12.614  62.411  1.00  0.00    -0.344 OA
BRANCH  15  16
HETATM   16  C13 UNL     1      21.698  13.876  63.007  1.00  0.00     0.132 C 
HETATM   17  C14 UNL     1      22.970  14.124  63.870  1.00  0.00     0.062 C 
HETATM   18  C15 UNL     1      23.188  15.592  64.093  1.00  0.00     0.275 C 
HETATM   19  N2  UNL     1      22.011  16.380  64.153  1.00  0.00     0.095 N 
HETATM   20  C20 UNL     1      21.091  16.232  63.098  1.00  0.00     0.275 C 
HETATM   21  C21 UNL     1      21.476  15.069  62.169  1.00  0.00     0.062 C 
BRANCH  19  22
HETATM   22  C16 UNL     1      22.322  17.723  64.514  1.00  0.00     0.250 C 
HETATM   23  C17 UNL     1      21.892  18.712  63.449  1.00  0.00     0.065 C 
HETATM   24  C18 UNL     1      23.185  19.190  62.846  1.00  0.00     0.234 C 
HETATM   25  N3  UNL     1      24.268  18.829  63.699  1.00  0.00    -0.073 N 
HETATM   26  C19 UNL     1      23.753  18.005  64.771  1.00  0.00     0.268 C 
ATOM     27  H32 UNL     1      25.032  18.380  63.193  1.00  0.00     0.277 HD
ATOM     28  H31 UNL     1      24.784  19.639  64.041  1.00  0.00     0.277 HD
ENDBRANCH  19  22
ENDBRANCH  15  16
ENDBRANCH  10  15
TORSDOF 4
ENDMDL
MODEL 5
REMARK VINA RESULT: -7.315229911      3.051      6.894
REMARK  4 active torsions:
REMARK  status: ('A' for Active; 'I' for Inactive)
REMARK    1  A    between atoms: C7_9  and  C8_10 
REMARK    2  A    between atoms: C12_14  and  O1_15 
REMARK    3  A    between atoms: O1_15  and  C13_16 
REMARK    4  A    between atoms: N2_19  and  C16_20 
ROOT
HETATM    1  C1  UNL     1      21.802  10.172  66.057  1.00  0.00     0.051 C 
HETATM    2  C2  UNL     1      20.715  10.264  65.025  1.00  0.00    -0.025 A 
HETATM    3  C3  UNL     1      19.521   9.772  65.384  1.00  0.00     0.053 A 
HETATM    4  C4  UNL     1      18.444   9.890  64.545  1.00  0.00     0.138 A 
HETATM    5  F1  UNL     1      17.253   9.384  64.943  1.00  0.00    -0.204 F 
HETATM    6  C5  UNL     1      18.608  10.513  63.350  1.00  0.00     0.096 A 
HETATM    7  C6  UNL     1      17.522  10.506  62.404  1.00  0.00     0.103 C 
HETATM    8  N1  UNL     1      16.665  10.466  61.616  1.00  0.00    -0.191 NA
HETATM    9  C7  UNL     1      19.811  11.061  62.883  1.00  0.00     0.024 A 
HETATM   10  C12 UNL     1      20.871  10.893  63.806  1.00  0.00     0.087 A 
ENDROOT
BRANCH   9  11
HETATM   11  C8  UNL     1      19.754  11.993  61.799  1.00  0.00    -0.065 C 
HETATM   12  C9  UNL     1      19.621  13.399  61.591  1.00  0.00     0.035 C 
HETATM   13  C10 UNL     1      20.233  13.169  60.152  1.00  0.00     0.009 C 
HETATM   14  C11 UNL     1      20.209  11.653  60.401  1.00  0.00     0.035 C 
ENDBRANCH   9  11
BRANCH  10  15
HETATM   15  O1  UNL     1      22.129  11.384  63.464  1.00  0.00    -0.344 OA
BRANCH  15  16
HETATM   16  C13 UNL     1      22.371  12.757  63.545  1.00  0.00     0.132 C 
HETATM   17  C14 UNL     1      22.950  13.189  64.923  1.00  0.00     0.062 C 
HETATM   18  C15 UNL     1      23.627  14.525  64.824  1.00  0.00     0.275 C 
HETATM   19  N2  UNL     1      23.078  15.417  63.867  1.00  0.00     0.095 N 
HETATM   20  C20 UNL     1      22.900  14.921  62.562  1.00  0.00     0.275 C 
HETATM   21  C21 UNL     1      23.169  13.408  62.490  1.00  0.00     0.062 C 
BRANCH  19  22
HETATM   22  C16 UNL     1      23.696  16.697  63.960  1.00  0.00     0.250 C 
HETATM   23  C17 UNL     1      23.598  17.276  65.357  1.00  0.00     0.065 C 
HETATM   24  C18 UNL     1      22.614  18.407  65.220  1.00  0.00     0.234 C 
HETATM   25  N3  UNL     1      22.438  18.716  63.841  1.00  0.00    -0.073 N 
HETATM   26  C19 UNL     1      23.158  17.739  63.054  1.00  0.00     0.268 C 
ATOM     27  H32 UNL     1      21.454  18.783  63.578  1.00  0.00     0.277 HD
ATOM     28  H31 UNL     1      22.707  19.674  63.617  1.00  0.00     0.277 HD
ENDBRANCH  19  22
ENDBRANCH  15  16
ENDBRANCH  10  15
TORSDOF 4
ENDMDL
