MODEL 1
REMARK VINA RESULT: -6.073339274      0.000      0.000
REMARK  4 active torsions:
REMARK  status: ('A' for Active; 'I' for Inactive)
REMARK    1  A    between atoms: C5_9  and  C6_10 
REMARK    2  A    between atoms: C7_11  and  C8_12 
REMARK    3  A    between atoms: C8_12  and  S1_13 
REMARK    4  A    between atoms: S1_13  and  C9_14 
ROOT
HETATM    1  C6  UNL     1      22.511   6.811   9.089  1.00  0.00    -0.098 C 
HETATM    2  C7  UNL     1      22.542   7.057   7.890  1.00  0.00    -0.096 C 
ENDROOT
BRANCH   2   3
HETATM    3  C8  UNL     1      22.490   7.412   6.475  1.00  0.00     0.176 C 
BRANCH   3   4
HETATM    4  S1  UNL     1      23.457   8.852   6.116  1.00  0.00    -0.080 SA
BRANCH   4   5
HETATM    5  C9  UNL     1      25.150   8.623   6.676  1.00  0.00     0.160 A 
HETATM    6  N2  UNL     1      25.605   9.072   7.848  1.00  0.00    -0.331 N 
HETATM    7  C10 UNL     1      26.875   8.616   7.979  1.00  0.00     0.199 A 
ATOM      8  H2  UNL     1      25.095   9.649   8.517  1.00  0.00     0.168 HD
HETATM    9  N3  UNL     1      27.177   7.889   6.868  1.00  0.00    -0.294 N 
HETATM   10  N4  UNL     1      26.132   7.891   6.073  1.00  0.00    -0.279 N 
ATOM     11  H3  UNL     1      28.065   7.421   6.685  1.00  0.00     0.187 HD
ATOM     12  H4  UNL     1      26.067   7.428   5.167  1.00  0.00     0.189 HD
ENDBRANCH   4   5
ENDBRANCH   3   4
ENDBRANCH   2   3
BRANCH   1  13
HETATM   13  C5  UNL     1      22.409   6.564  10.563  1.00  0.00     0.102 C 
HETATM   14  C1  UNL     1      21.713   5.227  10.716  1.00  0.00     0.211 C 
HETATM   15  F1  UNL     1      22.053   4.474   9.595  1.00  0.00    -0.246 F 
HETATM   16  C2  UNL     1      22.000   4.475  11.949  1.00  0.00     0.270 C 
HETATM   17  N1  UNL     1      23.343   4.583  12.456  1.00  0.00    -0.072 N 
HETATM   18  C3  UNL     1      23.831   5.939  12.460  1.00  0.00     0.233 C 
ATOM     19  H12 UNL     1      23.419   4.165  13.384  1.00  0.00     0.277 HD
ATOM     20  H11 UNL     1      23.977   3.968  11.946  1.00  0.00     0.277 HD
HETATM   21  C4  UNL     1      23.844   6.466  11.062  1.00  0.00     0.047 C 
ENDBRANCH   1  13
TORSDOF 4
ENDMDL
MODEL 2
REMARK VINA RESULT: -6.027555008      1.973      2.775
REMARK  4 active torsions:
REMARK  status: ('A' for Active; 'I' for Inactive)
REMARK    1  A    between atoms: C5_9  and  C6_10 
REMARK    2  A    between atoms: C7_11  and  C8_12 
REMARK    3  A    between atoms: C8_12  and  S1_13 
REMARK    4  A    between atoms: S1_13  and  C9_14 
ROOT
HETATM    1  C6  UNL     1      23.762   7.605   9.857  1.00  0.00    -0.098 C 
HETATM    2  C7  UNL     1      24.520   8.288   9.181  1.00  0.00    -0.096 C 
ENDROOT
BRANCH   2   3
HETATM    3  C8  UNL     1      25.376   9.190   8.417  1.00  0.00     0.176 C 
BRANCH   3   4
HETATM    4  S1  UNL     1      25.827   8.509   6.847  1.00  0.00    -0.080 SA
BRANCH   4   5
HETATM    5  C9  UNL     1      24.382   8.377   5.785  1.00  0.00     0.160 A 
HETATM    6  N2  UNL     1      23.502   7.377   5.862  1.00  0.00    -0.331 N 
HETATM    7  C10 UNL     1      22.496   7.670   5.001  1.00  0.00     0.199 A 
ATOM      8  H2  UNL     1      23.572   6.550   6.454  1.00  0.00     0.168 HD
HETATM    9  N3  UNL     1      22.786   8.859   4.404  1.00  0.00    -0.294 N 
HETATM   10  N4  UNL     1      23.933   9.292   4.877  1.00  0.00    -0.279 N 
ATOM     11  H3  UNL     1      22.211   9.333   3.709  1.00  0.00     0.187 HD
ATOM     12  H4  UNL     1      24.402  10.158   4.612  1.00  0.00     0.189 HD
ENDBRANCH   4   5
ENDBRANCH   3   4
ENDBRANCH   2   3
BRANCH   1  13
HETATM   13  C5  UNL     1      22.803   6.840  10.718  1.00  0.00     0.102 C 
HETATM   14  C1  UNL     1      21.861   6.131   9.767  1.00  0.00     0.211 C 
HETATM   15  F1  UNL     1      22.588   5.877   8.607  1.00  0.00    -0.246 F 
HETATM   16  C2  UNL     1      21.234   4.894  10.263  1.00  0.00     0.270 C 
HETATM   17  N1  UNL     1      22.049   4.074  11.121  1.00  0.00    -0.072 N 
HETATM   18  C3  UNL     1      22.742   4.836  12.128  1.00  0.00     0.233 C 
ATOM     19  H12 UNL     1      21.499   3.326  11.543  1.00  0.00     0.277 HD
ATOM     20  H11 UNL     1      22.702   3.511  10.575  1.00  0.00     0.277 HD
HETATM   21  C4  UNL     1      23.650   5.822  11.470  1.00  0.00     0.047 C 
ENDBRANCH   1  13
TORSDOF 4
ENDMDL
MODEL 3
REMARK VINA RESULT: -5.996122757      2.251      2.964
REMARK  4 active torsions:
REMARK  status: ('A' for Active; 'I' for Inactive)
REMARK    1  A    between atoms: C5_9  and  C6_10 
REMARK    2  A    between atoms: C7_11  and  C8_12 
REMARK    3  A    between atoms: C8_12  and  S1_13 
REMARK    4  A    between atoms: S1_13  and  C9_14 
ROOT
HETATM    1  C6  UNL     1      24.100   7.591  10.249  1.00  0.00    -0.098 C 
HETATM    2  C7  UNL     1      24.112   8.337   9.278  1.00  0.00    -0.096 C 
ENDROOT
BRANCH   2   3
HETATM    3  C8  UNL     1      24.113   9.138   8.059  1.00  0.00     0.176 C 
BRANCH   3   4
HETATM    4  S1  UNL     1      23.332   8.297   6.710  1.00  0.00    -0.080 SA
BRANCH   4   5
HETATM    5  C9  UNL     1      24.221   8.612   5.180  1.00  0.00     0.160 A 
HETATM    6  N2  UNL     1      23.649   8.566   3.974  1.00  0.00    -0.331 N 
HETATM    7  C10 UNL     1      24.584   8.970   3.079  1.00  0.00     0.199 A 
ATOM      8  H2  UNL     1      22.692   8.282   3.766  1.00  0.00     0.168 HD
HETATM    9  N3  UNL     1      25.725   9.256   3.763  1.00  0.00    -0.294 N 
HETATM   10  N4  UNL     1      25.510   9.039   5.040  1.00  0.00    -0.279 N 
ATOM     11  H3  UNL     1      26.600   9.584   3.353  1.00  0.00     0.187 HD
ATOM     12  H4  UNL     1      26.186   9.166   5.793  1.00  0.00     0.189 HD
ENDBRANCH   4   5
ENDBRANCH   3   4
ENDBRANCH   2   3
BRANCH   1  13
HETATM   13  C5  UNL     1      24.072   6.614  11.384  1.00  0.00     0.102 C 
HETATM   14  C1  UNL     1      23.611   7.393  12.598  1.00  0.00     0.211 C 
HETATM   15  F1  UNL     1      22.777   8.404  12.124  1.00  0.00    -0.246 F 
HETATM   16  C2  UNL     1      22.937   6.623  13.657  1.00  0.00     0.270 C 
HETATM   17  N1  UNL     1      22.103   5.536  13.214  1.00  0.00    -0.072 N 
HETATM   18  C3  UNL     1      22.732   4.729  12.199  1.00  0.00     0.233 C 
ATOM     19  H12 UNL     1      21.801   4.962  14.001  1.00  0.00     0.277 HD
ATOM     20  H11 UNL     1      21.195   5.877  12.899  1.00  0.00     0.277 HD
HETATM   21  C4  UNL     1      23.026   5.574  11.003  1.00  0.00     0.047 C 
ENDBRANCH   1  13
TORSDOF 4
ENDMDL
MODEL 4
REMARK VINA RESULT: -5.962794939      2.055      2.623
REMARK  4 active torsions:
REMARK  status: ('A' for Active; 'I' for Inactive)
REMARK    1  A    between atoms: C5_9  and  C6_10 
REMARK    2  A    between atoms: C7_11  and  C8_12 
REMARK    3  A    between atoms: C8_12  and  S1_13 
REMARK    4  A    between atoms: S1_13  and  C9_14 
ROOT
HETATM    1  C6  UNL     1      23.431   7.483   9.564  1.00  0.00    -0.098 C 
HETATM    2  C7  UNL     1      23.866   7.954   8.521  1.00  0.00    -0.096 C 
ENDROOT
BRANCH   2   3
HETATM    3  C8  UNL     1      24.443   8.583   7.338  1.00  0.00     0.176 C 
BRANCH   3   4
HETATM    4  S1  UNL     1      23.273   8.715   6.016  1.00  0.00    -0.080 SA
BRANCH   4   5
HETATM    5  C9  UNL     1      24.123   8.788   4.434  1.00  0.00     0.160 A 
HETATM    6  N2  UNL     1      23.584   8.362   3.289  1.00  0.00    -0.331 N 
HETATM    7  C10 UNL     1      24.455   8.682   2.300  1.00  0.00     0.199 A 
ATOM      8  H2  UNL     1      22.688   7.888   3.178  1.00  0.00     0.168 HD
HETATM    9  N3  UNL     1      25.526   9.302   2.868  1.00  0.00    -0.294 N 
HETATM   10  N4  UNL     1      25.329   9.368   4.165  1.00  0.00    -0.279 N 
ATOM     11  H3  UNL     1      26.343   9.656   2.370  1.00  0.00     0.187 HD
ATOM     12  H4  UNL     1      25.964   9.779   4.848  1.00  0.00     0.189 HD
ENDBRANCH   4   5
ENDBRANCH   3   4
ENDBRANCH   2   3
BRANCH   1  13
HETATM   13  C5  UNL     1      22.950   6.960  10.883  1.00  0.00     0.102 C 
HETATM   14  C1  UNL     1      22.007   5.819  10.563  1.00  0.00     0.211 C 
HETATM   15  F1  UNL     1      22.451   5.263   9.366  1.00  0.00    -0.246 F 
HETATM   16  C2  UNL     1      21.860   4.777  11.593  1.00  0.00     0.270 C 
HETATM   17  N1  UNL     1      23.048   4.461  12.343  1.00  0.00    -0.072 N 
HETATM   18  C3  UNL     1      23.761   5.635  12.780  1.00  0.00     0.233 C 
ATOM     19  H12 UNL     1      22.832   3.851  13.131  1.00  0.00     0.277 HD
ATOM     20  H11 UNL     1      23.659   3.838  11.815  1.00  0.00     0.277 HD
HETATM   21  C4  UNL     1      24.190   6.428  11.590  1.00  0.00     0.047 C 
ENDBRANCH   1  13
TORSDOF 4
ENDMDL
MODEL 5
REMARK VINA RESULT: -5.951613349      1.288      1.638
REMARK  4 active torsions:
REMARK  status: ('A' for Active; 'I' for Inactive)
REMARK    1  A    between atoms: C5_9  and  C6_10 
REMARK    2  A    between atoms: C7_11  and  C8_12 
REMARK    3  A    between atoms: C8_12  and  S1_13 
REMARK    4  A    between atoms: S1_13  and  C9_14 
ROOT
HETATM    1  C6  UNL     1      23.048   6.883   9.464  1.00  0.00    -0.098 C 
HETATM    2  C7  UNL     1      22.716   7.252   8.345  1.00  0.00    -0.096 C 
ENDROOT
BRANCH   2   3
HETATM    3  C8  UNL     1      22.363   7.599   6.973  1.00  0.00     0.176 C 
BRANCH   3   4
HETATM    4  S1  UNL     1      23.374   8.906   6.336  1.00  0.00    -0.080 SA
BRANCH   4   5
HETATM    5  C9  UNL     1      25.096   8.632   6.770  1.00  0.00     0.160 A 
HETATM    6  N2  UNL     1      25.650   9.076   7.901  1.00  0.00    -0.331 N 
HETATM    7  C10 UNL     1      26.913   8.584   7.941  1.00  0.00     0.199 A 
ATOM      8  H2  UNL     1      25.207   9.672   8.601  1.00  0.00     0.168 HD
HETATM    9  N3  UNL     1      27.110   7.841   6.818  1.00  0.00    -0.294 N 
HETATM   10  N4  UNL     1      26.010   7.869   6.102  1.00  0.00    -0.279 N 
ATOM     11  H3  UNL     1      27.969   7.347   6.574  1.00  0.00     0.187 HD
ATOM     12  H4  UNL     1      25.863   7.402   5.208  1.00  0.00     0.189 HD
ENDBRANCH   4   5
ENDBRANCH   3   4
ENDBRANCH   2   3
BRANCH   1  13
HETATM   13  C5  UNL     1      23.482   6.360  10.799  1.00  0.00     0.102 C 
HETATM   14  C1  UNL     1      23.073   7.407  11.814  1.00  0.00     0.211 C 
HETATM   15  F1  UNL     1      21.936   8.029  11.303  1.00  0.00    -0.246 F 
HETATM   16  C2  UNL     1      22.829   6.934  13.186  1.00  0.00     0.270 C 
HETATM   17  N1  UNL     1      22.232   5.629  13.306  1.00  0.00    -0.072 N 
HETATM   18  C3  UNL     1      22.843   4.654  12.440  1.00  0.00     0.233 C 
ATOM     19  H12 UNL     1      22.238   5.311  14.276  1.00  0.00     0.277 HD
ATOM     20  H11 UNL     1      21.224   5.673  13.153  1.00  0.00     0.277 HD
HETATM   21  C4  UNL     1      22.684   5.081  11.018  1.00  0.00     0.047 C 
ENDBRANCH   1  13
TORSDOF 4
ENDMDL
