MODEL 1
REMARK VINA RESULT: -5.809169842      0.000      0.000
REMARK  3 active torsions:
REMARK  status: ('A' for Active; 'I' for Inactive)
REMARK    1  A    between atoms: C8_12  and  N2_13 
REMARK    2  A    between atoms: C10_15  and  C11_16 
REMARK    3  A    between atoms: C11_16  and  O1_17 
ROOT
HETATM    1  C1  UNL     1      23.003   4.369  12.149  1.00  0.00     0.012 C 
HETATM    2  C2  UNL     1      22.768   5.445  11.645  1.00  0.00    -0.107 C 
HETATM    3  C3  UNL     1      22.492   6.750  11.051  1.00  0.00     0.124 C 
HETATM    4  C4  UNL     1      23.243   6.864   9.743  1.00  0.00     0.189 C 
HETATM    5  F1  UNL     1      22.606   6.082   8.816  1.00  0.00    -0.248 F 
HETATM    6  C5  UNL     1      23.342   8.291   9.266  1.00  0.00     0.066 C 
HETATM    7  C6  UNL     1      22.014   8.965   9.413  1.00  0.00     0.235 C 
HETATM    8  N1  UNL     1      22.068   9.779  10.610  1.00  0.00    -0.073 N 
ATOM      9  H11 UNL     1      21.442  10.582  10.541  1.00  0.00     0.277 HD
ATOM     10  H12 UNL     1      22.956  10.275  10.683  1.00  0.00     0.277 HD
HETATM   11  C7  UNL     1      21.800   9.002  11.804  1.00  0.00     0.260 C 
HETATM   12  C8  UNL     1      22.797   7.873  11.986  1.00  0.00     0.151 C 
ENDROOT
BRANCH  12  13
HETATM   13  N2  UNL     1      22.765   7.454  13.390  1.00  0.00    -0.295 N 
HETATM   14  C9  UNL     1      23.823   7.304  14.209  1.00  0.00     0.121 A 
HETATM   15  C10 UNL     1      23.391   6.897  15.455  1.00  0.00    -0.001 A 
HETATM   16  C12 UNL     1      22.017   6.808  15.348  1.00  0.00     0.118 A 
HETATM   17  N3  UNL     1      21.706   7.150  14.102  1.00  0.00    -0.309 N 
ATOM     18  H3  UNL     1      20.753   7.173  13.741  1.00  0.00     0.186 HD
BRANCH  15  19
HETATM   19  C11 UNL     1      24.218   6.609  16.673  1.00  0.00     0.205 C 
BRANCH  19  20
HETATM   20  O1  UNL     1      24.617   5.269  16.700  1.00  0.00    -0.396 OA
ATOM     21  H1  UNL     1      25.563   5.196  16.668  1.00  0.00     0.209 HD
ENDBRANCH  19  20
ENDBRANCH  15  19
ENDBRANCH  12  13
TORSDOF 3
ENDMDL
MODEL 2
REMARK VINA RESULT: -5.786637083      3.505      5.580
REMARK  3 active torsions:
REMARK  status: ('A' for Active; 'I' for Inactive)
REMARK    1  A    between atoms: C8_12  and  N2_13 
REMARK    2  A    between atoms: C10_15  and  C11_16 
REMARK    3  A    between atoms: C11_16  and  O1_17 
ROOT
HETATM    1  C1  UNL     1      20.456   6.392  14.491  1.00  0.00     0.012 C 
HETATM    2  C2  UNL     1      21.595   6.643  14.813  1.00  0.00    -0.107 C 
HETATM    3  C3  UNL     1      22.975   6.944  15.185  1.00  0.00     0.124 C 
HETATM    4  C4  UNL     1      23.005   8.260  15.932  1.00  0.00     0.189 C 
HETATM    5  F1  UNL     1      22.499   8.049  17.188  1.00  0.00    -0.248 F 
HETATM    6  C5  UNL     1      24.395   8.842  16.002  1.00  0.00     0.066 C 
HETATM    7  C6  UNL     1      25.374   7.768  16.362  1.00  0.00     0.235 C 
HETATM    8  N1  UNL     1      26.037   7.356  15.143  1.00  0.00    -0.073 N 
ATOM      9  H11 UNL     1      26.977   7.007  15.332  1.00  0.00     0.277 HD
ATOM     10  H12 UNL     1      26.278   8.158  14.561  1.00  0.00     0.277 HD
HETATM   11  C7  UNL     1      25.254   6.387  14.404  1.00  0.00     0.260 C 
HETATM   12  C8  UNL     1      23.894   6.932  14.010  1.00  0.00     0.151 C 
ENDROOT
BRANCH  12  13
HETATM   13  N2  UNL     1      23.375   6.120  12.905  1.00  0.00    -0.295 N 
HETATM   14  C9  UNL     1      22.959   6.567  11.706  1.00  0.00     0.121 A 
HETATM   15  C10 UNL     1      22.541   5.501  10.934  1.00  0.00    -0.001 A 
HETATM   16  C12 UNL     1      22.726   4.387  11.728  1.00  0.00     0.118 A 
HETATM   17  N3  UNL     1      23.222   4.818  12.883  1.00  0.00    -0.309 N 
ATOM     18  H3  UNL     1      23.457   4.205  13.663  1.00  0.00     0.186 HD
BRANCH  15  19
HETATM   19  C11 UNL     1      22.001   5.528   9.534  1.00  0.00     0.205 C 
BRANCH  19  20
HETATM   20  O1  UNL     1      22.763   6.372   8.721  1.00  0.00    -0.396 OA
ATOM     21  H1  UNL     1      22.600   6.196   7.802  1.00  0.00     0.209 HD
ENDBRANCH  19  20
ENDBRANCH  15  19
ENDBRANCH  12  13
TORSDOF 3
ENDMDL
MODEL 3
REMARK VINA RESULT: -5.751873241      2.245      3.253
REMARK  3 active torsions:
REMARK  status: ('A' for Active; 'I' for Inactive)
REMARK    1  A    between atoms: C8_12  and  N2_13 
REMARK    2  A    between atoms: C10_15  and  C11_16 
REMARK    3  A    between atoms: C11_16  and  O1_17 
ROOT
HETATM    1  C1  UNL     1      24.484   8.631   9.783  1.00  0.00     0.012 C 
HETATM    2  C2  UNL     1      23.736   7.701   9.580  1.00  0.00    -0.107 C 
HETATM    3  C3  UNL     1      22.829   6.579   9.352  1.00  0.00     0.124 C 
HETATM    4  C4  UNL     1      21.905   6.922   8.204  1.00  0.00     0.189 C 
HETATM    5  F1  UNL     1      22.623   6.839   7.040  1.00  0.00    -0.248 F 
HETATM    6  C5  UNL     1      20.699   6.018   8.156  1.00  0.00     0.066 C 
HETATM    7  C6  UNL     1      21.124   4.597   8.361  1.00  0.00     0.235 C 
HETATM    8  N1  UNL     1      20.836   4.250   9.737  1.00  0.00    -0.073 N 
ATOM      9  H11 UNL     1      20.655   3.251   9.837  1.00  0.00     0.277 HD
ATOM     10  H12 UNL     1      19.926   4.607  10.028  1.00  0.00     0.277 HD
HETATM   11  C7  UNL     1      21.885   4.688  10.636  1.00  0.00     0.260 C 
HETATM   12  C8  UNL     1      22.087   6.191  10.587  1.00  0.00     0.151 C 
ENDROOT
BRANCH  12  13
HETATM   13  N2  UNL     1      22.786   6.601  11.809  1.00  0.00    -0.295 N 
HETATM   14  C9  UNL     1      23.841   5.987  12.376  1.00  0.00     0.121 A 
HETATM   15  C10 UNL     1      24.219   6.670  13.514  1.00  0.00    -0.001 A 
HETATM   16  C12 UNL     1      23.338   7.729  13.607  1.00  0.00     0.118 A 
HETATM   17  N3  UNL     1      22.513   7.634  12.569  1.00  0.00    -0.309 N 
ATOM     18  H3  UNL     1      21.755   8.291  12.384  1.00  0.00     0.186 HD
BRANCH  15  19
HETATM   19  C11 UNL     1      25.340   6.349  14.458  1.00  0.00     0.205 C 
BRANCH  19  20
HETATM   20  O1  UNL     1      26.456   5.871  13.763  1.00  0.00    -0.396 OA
ATOM     21  H1  UNL     1      26.832   5.117  14.203  1.00  0.00     0.209 HD
ENDBRANCH  19  20
ENDBRANCH  15  19
ENDBRANCH  12  13
TORSDOF 3
ENDMDL
MODEL 4
REMARK VINA RESULT: -5.748120958      1.338      1.657
REMARK  3 active torsions:
REMARK  status: ('A' for Active; 'I' for Inactive)
REMARK    1  A    between atoms: C8_12  and  N2_13 
REMARK    2  A    between atoms: C10_15  and  C11_16 
REMARK    3  A    between atoms: C11_16  and  O1_17 
ROOT
HETATM    1  C1  UNL     1      22.346   4.033  11.581  1.00  0.00     0.012 C 
HETATM    2  C2  UNL     1      22.371   5.133  11.077  1.00  0.00    -0.107 C 
HETATM    3  C3  UNL     1      22.416   6.464  10.478  1.00  0.00     0.124 C 
HETATM    4  C4  UNL     1      22.456   6.324   8.972  1.00  0.00     0.189 C 
HETATM    5  F1  UNL     1      21.208   5.953   8.545  1.00  0.00    -0.248 F 
HETATM    6  C5  UNL     1      22.901   7.595   8.293  1.00  0.00     0.066 C 
HETATM    7  C6  UNL     1      22.198   8.766   8.905  1.00  0.00     0.235 C 
HETATM    8  N1  UNL     1      23.122   9.400   9.822  1.00  0.00    -0.073 N 
ATOM      9  H11 UNL     1      22.926  10.397   9.916  1.00  0.00     0.277 HD
ATOM     10  H12 UNL     1      24.059   9.458   9.424  1.00  0.00     0.277 HD
HETATM   11  C7  UNL     1      23.139   8.742  11.113  1.00  0.00     0.260 C 
HETATM   12  C8  UNL     1      23.545   7.285  11.006  1.00  0.00     0.151 C 
ENDROOT
BRANCH  12  13
HETATM   13  N2  UNL     1      23.992   6.833  12.327  1.00  0.00    -0.295 N 
HETATM   14  C9  UNL     1      23.424   7.128  13.511  1.00  0.00     0.121 A 
HETATM   15  C10 UNL     1      24.130   6.518  14.528  1.00  0.00    -0.001 A 
HETATM   16  C12 UNL     1      25.154   5.838  13.899  1.00  0.00     0.118 A 
HETATM   17  N3  UNL     1      25.019   6.063  12.596  1.00  0.00    -0.309 N 
ATOM     18  H3  UNL     1      25.643   5.681  11.886  1.00  0.00     0.186 HD
BRANCH  15  19
HETATM   19  C11 UNL     1      23.860   6.569  16.003  1.00  0.00     0.205 C 
BRANCH  19  20
HETATM   20  O1  UNL     1      24.484   5.505  16.662  1.00  0.00    -0.396 OA
ATOM     21  H1  UNL     1      25.428   5.611  16.659  1.00  0.00     0.209 HD
ENDBRANCH  19  20
ENDBRANCH  15  19
ENDBRANCH  12  13
TORSDOF 3
ENDMDL
MODEL 5
REMARK VINA RESULT: -5.689747113      3.547      6.007
REMARK  3 active torsions:
REMARK  status: ('A' for Active; 'I' for Inactive)
REMARK    1  A    between atoms: C8_12  and  N2_13 
REMARK    2  A    between atoms: C10_15  and  C11_16 
REMARK    3  A    between atoms: C11_16  and  O1_17 
ROOT
HETATM    1  C1  UNL     1      20.677   6.340  14.862  1.00  0.00     0.012 C 
HETATM    2  C2  UNL     1      21.529   6.787  15.597  1.00  0.00    -0.107 C 
HETATM    3  C3  UNL     1      22.567   7.329  16.470  1.00  0.00     0.124 C 
HETATM    4  C4  UNL     1      21.969   8.433  17.315  1.00  0.00     0.189 C 
HETATM    5  F1  UNL     1      21.180   7.855  18.275  1.00  0.00    -0.248 F 
HETATM    6  C5  UNL     1      23.028   9.305  17.942  1.00  0.00     0.066 C 
HETATM    7  C6  UNL     1      24.116   8.448  18.511  1.00  0.00     0.235 C 
HETATM    8  N1  UNL     1      25.220   8.464  17.574  1.00  0.00    -0.073 N 
ATOM      9  H11 UNL     1      26.111   8.321  18.049  1.00  0.00     0.277 HD
ATOM     10  H12 UNL     1      25.383   9.402  17.209  1.00  0.00     0.277 HD
HETATM   11  C7  UNL     1      25.033   7.507  16.503  1.00  0.00     0.260 C 
HETATM   12  C8  UNL     1      23.769   7.778  15.709  1.00  0.00     0.151 C 
ENDROOT
BRANCH  12  13
HETATM   13  N2  UNL     1      23.889   7.108  14.411  1.00  0.00    -0.295 N 
HETATM   14  C9  UNL     1      23.688   7.660  13.199  1.00  0.00     0.121 A 
HETATM   15  C10 UNL     1      23.896   6.712  12.218  1.00  0.00    -0.001 A 
HETATM   16  C12 UNL     1      24.234   5.559  12.897  1.00  0.00     0.118 A 
HETATM   17  N3  UNL     1      24.212   5.856  14.192  1.00  0.00    -0.309 N 
ATOM     18  H3  UNL     1      24.423   5.186  14.932  1.00  0.00     0.186 HD
BRANCH  15  19
HETATM   19  C11 UNL     1      23.786   6.879  10.731  1.00  0.00     0.205 C 
BRANCH  19  20
HETATM   20  O1  UNL     1      24.674   7.857  10.271  1.00  0.00    -0.396 OA
ATOM     21  H1  UNL     1      24.284   8.367   9.570  1.00  0.00     0.209 HD
ENDBRANCH  19  20
ENDBRANCH  15  19
ENDBRANCH  12  13
TORSDOF 3
ENDMDL
