MODEL 1
REMARK VINA RESULT: -4.547249916      0.000      0.000
REMARK  4 active torsions:
REMARK  status: ('A' for Active; 'I' for Inactive)
REMARK    1  A    between atoms: C3_4  and  C4_5 
REMARK    2  A    between atoms: C4_5  and  O1_6 
REMARK    3  A    between atoms: C5_10  and  S1_11 
REMARK    4  A    between atoms: S1_11  and  C6_12 
ROOT
HETATM    1  C1  UNL     1      24.537   9.058  15.062  1.00  0.00     0.151 C 
HETATM    2  N1  UNL     1      24.601   7.840  15.843  1.00  0.00    -0.364 N 
HETATM    3  C2  UNL     1      24.591   7.844  17.302  1.00  0.00     0.151 C 
HETATM    4  C3  UNL     1      24.264   6.423  17.613  1.00  0.00     0.125 C 
HETATM    5  N2  UNL     1      24.489   5.712  16.409  1.00  0.00    -0.362 N 
ATOM      6  H2  UNL     1      24.498   4.694  16.345  1.00  0.00     0.162 HD
HETATM    7  C5  UNL     1      24.679   6.491  15.410  1.00  0.00     0.139 C 
ENDROOT
BRANCH   4   8
HETATM    8  C4  UNL     1      25.136   5.958  18.762  1.00  0.00     0.191 C 
BRANCH   8   9
HETATM    9  O1  UNL     1      26.395   6.504  18.728  1.00  0.00    -0.399 OA
ATOM     10  H1  UNL     1      26.467   7.296  19.248  1.00  0.00     0.209 HD
ENDBRANCH   8   9
ENDBRANCH   4   8
BRANCH   7  11
HETATM   11  S1  UNL     1      24.997   6.003  13.730  1.00  0.00    -0.084 SA
BRANCH  11  12
HETATM   12  C6  UNL     1      23.587   6.380  12.655  1.00  0.00     0.167 C 
HETATM   13 BR1  UNL     1      22.848   4.699  12.044  1.00  0.00    -0.085 Br
ENDBRANCH  11  12
ENDBRANCH   7  11
TORSDOF 4
ENDMDL
MODEL 2
REMARK VINA RESULT: -4.421496355      6.902      8.875
REMARK  4 active torsions:
REMARK  status: ('A' for Active; 'I' for Inactive)
REMARK    1  A    between atoms: C3_4  and  C4_5 
REMARK    2  A    between atoms: C4_5  and  O1_6 
REMARK    3  A    between atoms: C5_10  and  S1_11 
REMARK    4  A    between atoms: S1_11  and  C6_12 
ROOT
HETATM    1  C1  UNL     1      21.593   7.888   6.502  1.00  0.00     0.151 C 
HETATM    2  N1  UNL     1      22.930   8.014   7.045  1.00  0.00    -0.364 N 
HETATM    3  C2  UNL     1      24.041   8.556   6.272  1.00  0.00     0.151 C 
HETATM    4  C3  UNL     1      25.042   8.856   7.336  1.00  0.00     0.125 C 
HETATM    5  N2  UNL     1      24.598   8.151   8.480  1.00  0.00    -0.362 N 
ATOM      6  H2  UNL     1      25.155   8.036   9.327  1.00  0.00     0.162 HD
HETATM    7  C5  UNL     1      23.418   7.674   8.333  1.00  0.00     0.139 C 
ENDROOT
BRANCH   4   8
HETATM    8  C4  UNL     1      26.414   8.428   6.856  1.00  0.00     0.191 C 
BRANCH   8   9
HETATM    9  O1  UNL     1      26.361   7.609   5.756  1.00  0.00    -0.399 OA
ATOM     10  H1  UNL     1      27.011   7.830   5.100  1.00  0.00     0.209 HD
ENDBRANCH   8   9
ENDBRANCH   4   8
BRANCH   7  11
HETATM   11  S1  UNL     1      22.500   6.727   9.526  1.00  0.00    -0.084 SA
BRANCH  11  12
HETATM   12  C6  UNL     1      23.535   6.264  10.939  1.00  0.00     0.167 C 
HETATM   13 BR1  UNL     1      22.676   4.778  11.834  1.00  0.00    -0.085 Br
ENDBRANCH  11  12
ENDBRANCH   7  11
TORSDOF 4
ENDMDL
MODEL 3
REMARK VINA RESULT: -4.323600778      8.494     10.212
REMARK  4 active torsions:
REMARK  status: ('A' for Active; 'I' for Inactive)
REMARK    1  A    between atoms: C3_4  and  C4_5 
REMARK    2  A    between atoms: C4_5  and  O1_6 
REMARK    3  A    between atoms: C5_10  and  S1_11 
REMARK    4  A    between atoms: S1_11  and  C6_12 
ROOT
HETATM    1  C1  UNL     1      26.514   8.634   8.344  1.00  0.00     0.151 C 
HETATM    2  N1  UNL     1      25.599   8.681   7.222  1.00  0.00    -0.364 N 
HETATM    3  C2  UNL     1      26.043   8.521   5.843  1.00  0.00     0.151 C 
HETATM    4  C3  UNL     1      24.762   8.237   5.135  1.00  0.00     0.125 C 
HETATM    5  N2  UNL     1      23.740   8.620   6.038  1.00  0.00    -0.362 N 
ATOM      6  H2  UNL     1      22.755   8.688   5.783  1.00  0.00     0.162 HD
HETATM    7  C5  UNL     1      24.193   8.871   7.209  1.00  0.00     0.139 C 
ENDROOT
BRANCH   4   8
HETATM    8  C4  UNL     1      24.738   9.010   3.832  1.00  0.00     0.191 C 
BRANCH   8   9
HETATM    9  O1  UNL     1      25.990   9.385   3.413  1.00  0.00    -0.399 OA
ATOM     10  H1  UNL     1      25.975   9.870   2.597  1.00  0.00     0.209 HD
ENDBRANCH   8   9
ENDBRANCH   4   8
BRANCH   7  11
HETATM   11  S1  UNL     1      23.246   9.384   8.625  1.00  0.00    -0.084 SA
BRANCH  11  12
HETATM   12  C6  UNL     1      22.463   7.970   9.443  1.00  0.00     0.167 C 
HETATM   13 BR1  UNL     1      23.792   7.135  10.574  1.00  0.00    -0.085 Br
ENDBRANCH  11  12
ENDBRANCH   7  11
TORSDOF 4
ENDMDL
MODEL 4
REMARK VINA RESULT: -4.313905223      1.807      2.021
REMARK  4 active torsions:
REMARK  status: ('A' for Active; 'I' for Inactive)
REMARK    1  A    between atoms: C3_4  and  C4_5 
REMARK    2  A    between atoms: C4_5  and  O1_6 
REMARK    3  A    between atoms: C5_10  and  S1_11 
REMARK    4  A    between atoms: S1_11  and  C6_12 
ROOT
HETATM    1  C1  UNL     1      23.954   9.358  13.270  1.00  0.00     0.151 C 
HETATM    2  N1  UNL     1      23.840   8.213  14.151  1.00  0.00    -0.364 N 
HETATM    3  C2  UNL     1      23.981   8.323  15.599  1.00  0.00     0.151 C 
HETATM    4  C3  UNL     1      23.395   7.034  16.066  1.00  0.00     0.125 C 
HETATM    5  N2  UNL     1      23.338   6.208  14.917  1.00  0.00    -0.362 N 
ATOM      6  H2  UNL     1      23.126   5.210  14.946  1.00  0.00     0.162 HD
HETATM    7  C5  UNL     1      23.585   6.853  13.839  1.00  0.00     0.139 C 
ENDROOT
BRANCH   4   8
HETATM    8  C4  UNL     1      24.263   6.472  17.173  1.00  0.00     0.191 C 
BRANCH   8   9
HETATM    9  O1  UNL     1      24.694   5.195  16.915  1.00  0.00    -0.399 OA
ATOM     10  H1  UNL     1      24.663   4.976  15.991  1.00  0.00     0.209 HD
ENDBRANCH   8   9
ENDBRANCH   4   8
BRANCH   7  11
HETATM   11  S1  UNL     1      23.616   6.190  12.189  1.00  0.00    -0.084 SA
BRANCH  11  12
HETATM   12  C6  UNL     1      23.005   4.485  12.151  1.00  0.00     0.167 C 
HETATM   13 BR1  UNL     1      21.712   4.355  10.717  1.00  0.00    -0.085 Br
ENDBRANCH  11  12
ENDBRANCH   7  11
TORSDOF 4
ENDMDL
MODEL 5
REMARK VINA RESULT: -4.205353129      2.011      2.100
REMARK  4 active torsions:
REMARK  status: ('A' for Active; 'I' for Inactive)
REMARK    1  A    between atoms: C3_4  and  C4_5 
REMARK    2  A    between atoms: C4_5  and  O1_6 
REMARK    3  A    between atoms: C5_10  and  S1_11 
REMARK    4  A    between atoms: S1_11  and  C6_12 
ROOT
HETATM    1  C1  UNL     1      23.837   9.258  13.559  1.00  0.00     0.151 C 
HETATM    2  N1  UNL     1      23.656   8.179  14.509  1.00  0.00    -0.364 N 
HETATM    3  C2  UNL     1      24.205   8.225  15.859  1.00  0.00     0.151 C 
HETATM    4  C3  UNL     1      23.438   7.144  16.542  1.00  0.00     0.125 C 
HETATM    5  N2  UNL     1      22.852   6.383  15.502  1.00  0.00    -0.362 N 
ATOM      6  H2  UNL     1      22.391   5.485  15.648  1.00  0.00     0.162 HD
HETATM    7  C5  UNL     1      22.966   6.949  14.359  1.00  0.00     0.139 C 
ENDROOT
BRANCH   4   8
HETATM    8  C4  UNL     1      24.383   6.347  17.417  1.00  0.00     0.191 C 
BRANCH   8   9
HETATM    9  O1  UNL     1      24.722   5.136  16.868  1.00  0.00    -0.399 OA
ATOM     10  H1  UNL     1      24.570   4.408  17.459  1.00  0.00     0.209 HD
ENDBRANCH   8   9
ENDBRANCH   4   8
BRANCH   7  11
HETATM   11  S1  UNL     1      22.371   6.326  12.803  1.00  0.00    -0.084 SA
BRANCH  11  12
HETATM   12  C6  UNL     1      23.733   6.043  11.641  1.00  0.00     0.167 C 
HETATM   13 BR1  UNL     1      23.456   7.202  10.117  1.00  0.00    -0.085 Br
ENDBRANCH  11  12
ENDBRANCH   7  11
TORSDOF 4
ENDMDL
