MODEL 1
REMARK VINA RESULT: -6.590923100      0.000      0.000
REMARK  4 active torsions:
REMARK  status: ('A' for Active; 'I' for Inactive)
REMARK    1  A    between atoms: N1_2  and  C2_4 
REMARK    2  A    between atoms: C2_4  and  N2_6 
REMARK    3  A    between atoms: N2_6  and  N3_8 
REMARK    4  A    between atoms: C3_10  and  C4_11 
ROOT
HETATM    1  N3  UNL     1      24.172   9.350   4.805  1.00  0.00    -0.311 N 
ATOM      2  H3  UNL     1      23.622  10.148   5.125  1.00  0.00     0.185 HD
HETATM    3  C3  UNL     1      24.438   8.418   5.650  1.00  0.00     0.116 C 
ENDROOT
BRANCH   3   4
HETATM    4  C4  UNL     1      23.993   8.451   7.035  1.00  0.00     0.195 C 
HETATM    5  O1  UNL     1      23.365   7.240   7.426  1.00  0.00    -0.376 OA
HETATM    6  C5  UNL     1      22.687   7.493   8.611  1.00  0.00     0.169 C 
HETATM    7  C6  UNL     1      23.550   7.878   9.761  1.00  0.00     0.031 C 
HETATM    8  C7  UNL     1      24.572   8.944   9.440  1.00  0.00     0.045 C 
HETATM    9  C8  UNL     1      25.023   8.689   8.054  1.00  0.00     0.022 C 
HETATM   10  C9  UNL     1      26.284   8.677   7.776  1.00  0.00     0.272 C 
HETATM   11  F1  UNL     1      27.206   8.903   8.754  1.00  0.00    -0.173 F 
HETATM   12  F2  UNL     1      26.786   8.447   6.544  1.00  0.00    -0.173 F 
ENDBRANCH   3   4
BRANCH   1  13
HETATM   13  N2  UNL     1      24.589   9.332   3.480  1.00  0.00    -0.277 N 
ATOM     14  H2  UNL     1      25.416   9.872   3.222  1.00  0.00     0.189 HD
BRANCH  13  15
HETATM   15  C2  UNL     1      23.921   8.599   2.476  1.00  0.00     0.186 C 
HETATM   16  S1  UNL     1      22.395   8.108   2.722  1.00  0.00    -0.040 SA
BRANCH  15  17
HETATM   17  N1  UNL     1      24.573   8.289   1.256  1.00  0.00    -0.370 N 
HETATM   18  C1  UNL     1      24.174   7.153   0.457  1.00  0.00     0.148 C 
ATOM     19  H1  UNL     1      25.341   8.880   0.936  1.00  0.00     0.161 HD
ENDBRANCH  15  17
ENDBRANCH  13  15
ENDBRANCH   1  13
TORSDOF 4
ENDMDL
MODEL 2
REMARK VINA RESULT: -6.471086502      7.774     10.170
REMARK  4 active torsions:
REMARK  status: ('A' for Active; 'I' for Inactive)
REMARK    1  A    between atoms: N1_2  and  C2_4 
REMARK    2  A    between atoms: C2_4  and  N2_6 
REMARK    3  A    between atoms: N2_6  and  N3_8 
REMARK    4  A    between atoms: C3_10  and  C4_11 
ROOT
HETATM    1  N3  UNL     1      23.958   6.274  14.528  1.00  0.00    -0.311 N 
ATOM      2  H3  UNL     1      23.188   6.936  14.625  1.00  0.00     0.185 HD
HETATM    3  C3  UNL     1      24.334   5.950  13.341  1.00  0.00     0.116 C 
ENDROOT
BRANCH   3   4
HETATM    4  C4  UNL     1      23.712   6.481  12.137  1.00  0.00     0.195 C 
HETATM    5  O1  UNL     1      24.670   6.933  11.193  1.00  0.00    -0.376 OA
HETATM    6  C5  UNL     1      23.995   7.717  10.267  1.00  0.00     0.169 C 
HETATM    7  C6  UNL     1      22.963   7.001   9.468  1.00  0.00     0.031 C 
HETATM    8  C7  UNL     1      22.030   6.142  10.290  1.00  0.00     0.045 C 
HETATM    9  C8  UNL     1      22.842   5.569  11.386  1.00  0.00     0.022 C 
HETATM   10  C9  UNL     1      22.772   4.307  11.650  1.00  0.00     0.272 C 
HETATM   11  F1  UNL     1      21.950   3.497  10.926  1.00  0.00    -0.173 F 
HETATM   12  F2  UNL     1      23.480   3.698  12.625  1.00  0.00    -0.173 F 
ENDBRANCH   3   4
BRANCH   1  13
HETATM   13  N2  UNL     1      24.542   5.775  15.684  1.00  0.00    -0.277 N 
ATOM     14  H2  UNL     1      25.167   4.972  15.608  1.00  0.00     0.189 HD
BRANCH  13  15
HETATM   15  C2  UNL     1      24.310   6.330  16.962  1.00  0.00     0.186 C 
HETATM   16  S1  UNL     1      23.163   7.462  17.147  1.00  0.00    -0.040 SA
BRANCH  15  17
HETATM   17  N1  UNL     1      25.071   5.907  18.080  1.00  0.00    -0.370 N 
HETATM   18  C1  UNL     1      25.908   6.830  18.813  1.00  0.00     0.148 C 
ATOM     19  H1  UNL     1      25.027   4.932  18.374  1.00  0.00     0.161 HD
ENDBRANCH  15  17
ENDBRANCH  13  15
ENDBRANCH   1  13
TORSDOF 4
ENDMDL
MODEL 3
REMARK VINA RESULT: -6.371896405      1.148      1.148
REMARK  4 active torsions:
REMARK  status: ('A' for Active; 'I' for Inactive)
REMARK    1  A    between atoms: N1_2  and  C2_4 
REMARK    2  A    between atoms: C2_4  and  N2_6 
REMARK    3  A    between atoms: N2_6  and  N3_8 
REMARK    4  A    between atoms: C3_10  and  C4_11 
ROOT
HETATM    1  N3  UNL     1      22.997   8.638   4.674  1.00  0.00    -0.311 N 
ATOM      2  H3  UNL     1      22.075   8.601   5.108  1.00  0.00     0.185 HD
HETATM    3  C3  UNL     1      24.029   8.640   5.441  1.00  0.00     0.116 C 
ENDROOT
BRANCH   3   4
HETATM    4  C4  UNL     1      23.940   8.594   6.893  1.00  0.00     0.195 C 
HETATM    5  O1  UNL     1      23.297   7.416   7.354  1.00  0.00    -0.376 OA
HETATM    6  C5  UNL     1      22.959   7.628   8.684  1.00  0.00     0.169 C 
HETATM    7  C6  UNL     1      24.111   7.832   9.604  1.00  0.00     0.031 C 
HETATM    8  C7  UNL     1      25.136   8.824   9.102  1.00  0.00     0.045 C 
HETATM    9  C8  UNL     1      25.206   8.648   7.635  1.00  0.00     0.022 C 
HETATM   10  C9  UNL     1      26.354   8.546   7.050  1.00  0.00     0.272 C 
HETATM   11  F1  UNL     1      27.504   8.602   7.778  1.00  0.00    -0.173 F 
HETATM   12  F2  UNL     1      26.513   8.378   5.720  1.00  0.00    -0.173 F 
ENDBRANCH   3   4
BRANCH   1  13
HETATM   13  N2  UNL     1      23.068   8.682   3.288  1.00  0.00    -0.277 N 
ATOM     14  H2  UNL     1      23.839   9.191   2.854  1.00  0.00     0.189 HD
BRANCH  13  15
HETATM   15  C2  UNL     1      22.119   8.054   2.451  1.00  0.00     0.186 C 
HETATM   16  S1  UNL     1      20.536   8.257   2.742  1.00  0.00    -0.040 SA
BRANCH  15  17
HETATM   17  N1  UNL     1      22.539   7.250   1.363  1.00  0.00    -0.370 N 
HETATM   18  C1  UNL     1      23.854   7.397   0.783  1.00  0.00     0.148 C 
ATOM     19  H1  UNL     1      21.900   6.554   0.980  1.00  0.00     0.161 HD
ENDBRANCH  15  17
ENDBRANCH  13  15
ENDBRANCH   1  13
TORSDOF 4
ENDMDL
MODEL 4
REMARK VINA RESULT: -6.122406729      1.320      1.450
REMARK  4 active torsions:
REMARK  status: ('A' for Active; 'I' for Inactive)
REMARK    1  A    between atoms: N1_2  and  C2_4 
REMARK    2  A    between atoms: C2_4  and  N2_6 
REMARK    3  A    between atoms: N2_6  and  N3_8 
REMARK    4  A    between atoms: C3_10  and  C4_11 
ROOT
HETATM    1  N3  UNL     1      23.863   9.188   4.680  1.00  0.00    -0.311 N 
ATOM      2  H3  UNL     1      23.351   9.997   5.033  1.00  0.00     0.185 HD
HETATM    3  C3  UNL     1      24.302   8.329   5.531  1.00  0.00     0.116 C 
ENDROOT
BRANCH   3   4
HETATM    4  C4  UNL     1      24.104   8.460   6.967  1.00  0.00     0.195 C 
HETATM    5  O1  UNL     1      23.456   7.327   7.525  1.00  0.00    -0.376 OA
HETATM    6  C5  UNL     1      23.012   7.690   8.789  1.00  0.00     0.169 C 
HETATM    7  C6  UNL     1      24.086   8.045   9.757  1.00  0.00     0.031 C 
HETATM    8  C7  UNL     1      25.121   9.000   9.210  1.00  0.00     0.045 C 
HETATM    9  C8  UNL     1      25.308   8.648   7.786  1.00  0.00     0.022 C 
HETATM   10  C9  UNL     1      26.498   8.512   7.303  1.00  0.00     0.272 C 
HETATM   11  F1  UNL     1      27.588   8.696   8.100  1.00  0.00    -0.173 F 
HETATM   12  F2  UNL     1      26.763   8.187   6.020  1.00  0.00    -0.173 F 
ENDBRANCH   3   4
BRANCH   1  13
HETATM   13  N2  UNL     1      24.044   9.076   3.308  1.00  0.00    -0.277 N 
ATOM     14  H2  UNL     1      24.769   9.641   2.864  1.00  0.00     0.189 HD
BRANCH  13  15
HETATM   15  C2  UNL     1      23.271   8.213   2.500  1.00  0.00     0.186 C 
HETATM   16  S1  UNL     1      23.900   7.625   1.125  1.00  0.00    -0.040 SA
BRANCH  15  17
HETATM   17  N1  UNL     1      21.953   7.859   2.881  1.00  0.00    -0.370 N 
HETATM   18  C1  UNL     1      20.806   8.308   2.126  1.00  0.00     0.148 C 
ATOM     19  H1  UNL     1      21.811   7.275   3.706  1.00  0.00     0.161 HD
ENDBRANCH  15  17
ENDBRANCH  13  15
ENDBRANCH   1  13
TORSDOF 4
ENDMDL
MODEL 5
REMARK VINA RESULT: -6.109308551      2.969      4.341
REMARK  4 active torsions:
REMARK  status: ('A' for Active; 'I' for Inactive)
REMARK    1  A    between atoms: N1_2  and  C2_4 
REMARK    2  A    between atoms: C2_4  and  N2_6 
REMARK    3  A    between atoms: N2_6  and  N3_8 
REMARK    4  A    between atoms: C3_10  and  C4_11 
ROOT
HETATM    1  N3  UNL     1      23.198   7.546   7.555  1.00  0.00    -0.311 N 
ATOM      2  H3  UNL     1      23.093   6.668   7.047  1.00  0.00     0.185 HD
HETATM    3  C3  UNL     1      22.744   7.611   8.756  1.00  0.00     0.116 C 
ENDROOT
BRANCH   3   4
HETATM    4  C4  UNL     1      22.091   6.493   9.421  1.00  0.00     0.195 C 
HETATM    5  O1  UNL     1      22.022   5.342   8.594  1.00  0.00    -0.376 OA
HETATM    6  C5  UNL     1      21.101   4.477   9.170  1.00  0.00     0.169 C 
HETATM    7  C6  UNL     1      21.472   3.970  10.519  1.00  0.00     0.031 C 
HETATM    8  C7  UNL     1      21.938   5.042  11.477  1.00  0.00     0.045 C 
HETATM    9  C8  UNL     1      22.698   6.023  10.672  1.00  0.00     0.022 C 
HETATM   10  C9  UNL     1      23.854   6.434  11.076  1.00  0.00     0.272 C 
HETATM   11  F1  UNL     1      24.379   5.971  12.245  1.00  0.00    -0.173 F 
HETATM   12  F2  UNL     1      24.618   7.321  10.405  1.00  0.00    -0.173 F 
ENDBRANCH   3   4
BRANCH   1  13
HETATM   13  N2  UNL     1      23.822   8.605   6.908  1.00  0.00    -0.277 N 
ATOM     14  H2  UNL     1      23.660   9.552   7.254  1.00  0.00     0.189 HD
BRANCH  13  15
HETATM   15  C2  UNL     1      24.671   8.430   5.794  1.00  0.00     0.186 C 
HETATM   16  S1  UNL     1      24.113   8.745   4.303  1.00  0.00    -0.040 SA
BRANCH  15  17
HETATM   17  N1  UNL     1      26.004   7.982   5.967  1.00  0.00    -0.370 N 
HETATM   18  C1  UNL     1      26.774   8.347   7.134  1.00  0.00     0.148 C 
ATOM     19  H1  UNL     1      26.429   7.389   5.255  1.00  0.00     0.161 HD
ENDBRANCH  15  17
ENDBRANCH  13  15
ENDBRANCH   1  13
TORSDOF 4
ENDMDL
