MODEL 1
REMARK VINA RESULT: -6.648822573      0.000      0.000
REMARK  4 active torsions:
REMARK  status: ('A' for Active; 'I' for Inactive)
REMARK    1  A    between atoms: C3_3  and  C4_4 
REMARK    2  A    between atoms: C4_4  and  C5_5 
REMARK    3  A    between atoms: N1_8  and  C8_9 
REMARK    4  A    between atoms: C9_12  and  N3_13 
ROOT
HETATM    1  C1  UNL     1      24.918   6.007  13.304  1.00  0.00     0.112 C 
HETATM    2  C2  UNL     1      24.040   6.102  12.124  1.00  0.00    -0.111 C 
HETATM    3  C3  UNL     1      23.296   6.177  11.164  1.00  0.00    -0.107 C 
ENDROOT
BRANCH   3   4
HETATM    4  C4  UNL     1      22.394   6.248  10.049  1.00  0.00     0.100 C 
BRANCH   4   5
HETATM    5  C5  UNL     1      22.699   7.377   9.156  1.00  0.00     0.017 C 
HETATM    6  C6  UNL     1      24.117   7.896   9.206  1.00  0.00     0.027 C 
HETATM    7  C7  UNL     1      24.035   8.917   8.060  1.00  0.00     0.141 C 
HETATM    8  N1  UNL     1      23.366   8.126   7.055  1.00  0.00    -0.217 N 
HETATM    9  C12 UNL     1      22.566   7.088   7.668  1.00  0.00     0.146 C 
BRANCH   8  10
HETATM   10  C8  UNL     1      23.485   8.328   5.660  1.00  0.00     0.696 A 
HETATM   11  N2  UNL     1      24.622   8.785   5.114  1.00  0.00    -0.022 N 
HETATM   12  C9  UNL     1      24.808   9.019   3.811  1.00  0.00     0.691 A 
ATOM     13  H2  UNL     1      25.405   8.970   5.742  1.00  0.00     0.203 HD
HETATM   14  N4  UNL     1      23.745   8.763   2.993  1.00  0.00    -0.180 N 
HETATM   15  C10 UNL     1      22.588   8.303   3.500  1.00  0.00     0.109 A 
ATOM     16  H4  UNL     1      23.829   8.921   1.989  1.00  0.00     0.185 HD
HETATM   17  C11 UNL     1      21.422   8.031   2.620  1.00  0.00     0.090 C 
HETATM   18  N5  UNL     1      22.437   8.080   4.820  1.00  0.00    -0.180 N 
ATOM     19  H5  UNL     1      21.552   7.731   5.187  1.00  0.00     0.185 HD
BRANCH  12  20
HETATM   20  N3  UNL     1      25.899   9.454   3.284  1.00  0.00    -0.234 N 
ATOM     21  H32 UNL     1      26.788   9.161   3.690  1.00  0.00     0.174 HD
ATOM     22  H31 UNL     1      25.954  10.083   2.482  1.00  0.00     0.174 HD
ENDBRANCH  12  20
ENDBRANCH   8  10
ENDBRANCH   4   5
ENDBRANCH   3   4
TORSDOF 4
ENDMDL
MODEL 2
REMARK VINA RESULT: -6.580105708      1.262      1.853
REMARK  4 active torsions:
REMARK  status: ('A' for Active; 'I' for Inactive)
REMARK    1  A    between atoms: C3_3  and  C4_4 
REMARK    2  A    between atoms: C4_4  and  C5_5 
REMARK    3  A    between atoms: N1_8  and  C8_9 
REMARK    4  A    between atoms: C9_12  and  N3_13 
ROOT
HETATM    1  C1  UNL     1      20.994   4.504   9.561  1.00  0.00     0.112 C 
HETATM    2  C2  UNL     1      22.007   5.545   9.808  1.00  0.00    -0.111 C 
HETATM    3  C3  UNL     1      22.840   6.402  10.036  1.00  0.00    -0.107 C 
ENDROOT
BRANCH   3   4
HETATM    4  C4  UNL     1      23.808   7.420  10.335  1.00  0.00     0.100 C 
BRANCH   4   5
HETATM    5  C5  UNL     1      24.036   8.325   9.198  1.00  0.00     0.017 C 
HETATM    6  C6  UNL     1      25.475   8.515   8.780  1.00  0.00     0.027 C 
HETATM    7  C7  UNL     1      25.245   9.371   7.524  1.00  0.00     0.141 C 
HETATM    8  N1  UNL     1      24.182   8.626   6.894  1.00  0.00    -0.217 N 
HETATM    9  C12 UNL     1      23.424   7.882   7.877  1.00  0.00     0.146 C 
BRANCH   8  10
HETATM   10  C8  UNL     1      23.922   8.612   5.504  1.00  0.00     0.696 A 
HETATM   11  N2  UNL     1      24.861   8.965   4.613  1.00  0.00    -0.022 N 
HETATM   12  C9  UNL     1      24.689   8.996   3.287  1.00  0.00     0.691 A 
ATOM     13  H2  UNL     1      25.776   9.231   4.975  1.00  0.00     0.203 HD
HETATM   14  N4  UNL     1      23.454   8.634   2.830  1.00  0.00    -0.180 N 
HETATM   15  C10 UNL     1      22.485   8.274   3.689  1.00  0.00     0.109 A 
ATOM     16  H4  UNL     1      23.265   8.638   1.827  1.00  0.00     0.185 HD
HETATM   17  C11 UNL     1      21.135   7.888   3.201  1.00  0.00     0.090 C 
HETATM   18  N5  UNL     1      22.696   8.255   5.019  1.00  0.00    -0.180 N 
ATOM     19  H5  UNL     1      21.949   7.978   5.657  1.00  0.00     0.185 HD
BRANCH  12  20
HETATM   20  N3  UNL     1      25.590   9.331   2.430  1.00  0.00    -0.234 N 
ATOM     21  H32 UNL     1      26.567   9.138   2.649  1.00  0.00     0.174 HD
ATOM     22  H31 UNL     1      25.408   9.785   1.535  1.00  0.00     0.174 HD
ENDBRANCH  12  20
ENDBRANCH   8  10
ENDBRANCH   4   5
ENDBRANCH   3   4
TORSDOF 4
ENDMDL
MODEL 3
REMARK VINA RESULT: -6.443331653      2.357      4.089
REMARK  4 active torsions:
REMARK  status: ('A' for Active; 'I' for Inactive)
REMARK    1  A    between atoms: C3_3  and  C4_4 
REMARK    2  A    between atoms: C4_4  and  C5_5 
REMARK    3  A    between atoms: N1_8  and  C8_9 
REMARK    4  A    between atoms: C9_12  and  N3_13 
ROOT
HETATM    1  C1  UNL     1      18.323   3.432   9.486  1.00  0.00     0.112 C 
HETATM    2  C2  UNL     1      19.654   3.686  10.066  1.00  0.00    -0.111 C 
HETATM    3  C3  UNL     1      20.744   3.916  10.556  1.00  0.00    -0.107 C 
ENDROOT
BRANCH   3   4
HETATM    4  C4  UNL     1      22.022   4.220  11.137  1.00  0.00     0.100 C 
BRANCH   4   5
HETATM    5  C5  UNL     1      22.381   5.638  10.982  1.00  0.00     0.017 C 
HETATM    6  C6  UNL     1      23.785   6.014  11.395  1.00  0.00     0.027 C 
HETATM    7  C7  UNL     1      23.779   7.483  10.941  1.00  0.00     0.141 C 
HETATM    8  N1  UNL     1      23.198   7.346   9.627  1.00  0.00    -0.217 N 
HETATM    9  C12 UNL     1      22.365   6.164   9.554  1.00  0.00     0.146 C 
BRANCH   8  10
HETATM   10  C8  UNL     1      23.420   8.236   8.552  1.00  0.00     0.696 A 
HETATM   11  N2  UNL     1      22.822   9.436   8.501  1.00  0.00    -0.022 N 
HETATM   12  C9  UNL     1      22.966  10.325   7.513  1.00  0.00     0.691 A 
ATOM     13  H2  UNL     1      22.210   9.690   9.276  1.00  0.00     0.203 HD
HETATM   14  N4  UNL     1      23.792   9.961   6.488  1.00  0.00    -0.180 N 
HETATM   15  C10 UNL     1      24.410   8.767   6.499  1.00  0.00     0.109 A 
ATOM     16  H4  UNL     1      23.941  10.600   5.706  1.00  0.00     0.185 HD
HETATM   17  C11 UNL     1      25.303   8.358   5.384  1.00  0.00     0.090 C 
HETATM   18  N5  UNL     1      24.241   7.897   7.513  1.00  0.00    -0.180 N 
ATOM     19  H5  UNL     1      24.718   6.996   7.506  1.00  0.00     0.185 HD
BRANCH  12  20
HETATM   20  N3  UNL     1      22.396  11.479   7.464  1.00  0.00    -0.234 N 
ATOM     21  H32 UNL     1      22.299  12.012   8.329  1.00  0.00     0.174 HD
ATOM     22  H31 UNL     1      22.022  11.914   6.621  1.00  0.00     0.174 HD
ENDBRANCH  12  20
ENDBRANCH   8  10
ENDBRANCH   4   5
ENDBRANCH   3   4
TORSDOF 4
ENDMDL
MODEL 4
REMARK VINA RESULT: -6.421216983      1.577      2.417
REMARK  4 active torsions:
REMARK  status: ('A' for Active; 'I' for Inactive)
REMARK    1  A    between atoms: C3_3  and  C4_4 
REMARK    2  A    between atoms: C4_4  and  C5_5 
REMARK    3  A    between atoms: N1_8  and  C8_9 
REMARK    4  A    between atoms: C9_12  and  N3_13 
ROOT
HETATM    1  C1  UNL     1      22.587   5.736  10.323  1.00  0.00     0.112 C 
HETATM    2  C2  UNL     1      23.409   6.906   9.963  1.00  0.00    -0.111 C 
HETATM    3  C3  UNL     1      24.091   7.875   9.690  1.00  0.00    -0.107 C 
ENDROOT
BRANCH   3   4
HETATM    4  C4  UNL     1      24.889   9.033   9.398  1.00  0.00     0.100 C 
BRANCH   4   5
HETATM    5  C5  UNL     1      25.114   9.206   7.954  1.00  0.00     0.017 C 
HETATM    6  C6  UNL     1      26.119   8.271   7.324  1.00  0.00     0.027 C 
HETATM    7  C7  UNL     1      25.933   8.681   5.854  1.00  0.00     0.141 C 
HETATM    8  N1  UNL     1      24.492   8.695   5.770  1.00  0.00    -0.217 N 
HETATM    9  C12 UNL     1      23.904   8.945   7.068  1.00  0.00     0.146 C 
BRANCH   8  10
HETATM   10  C8  UNL     1      23.753   8.482   4.583  1.00  0.00     0.696 A 
HETATM   11  N2  UNL     1      24.344   8.492   3.379  1.00  0.00    -0.022 N 
HETATM   12  C9  UNL     1      23.714   8.317   2.213  1.00  0.00     0.691 A 
ATOM     13  H2  UNL     1      25.351   8.646   3.351  1.00  0.00     0.203 HD
HETATM   14  N4  UNL     1      22.365   8.112   2.279  1.00  0.00    -0.180 N 
HETATM   15  C10 UNL     1      21.734   8.094   3.466  1.00  0.00     0.109 A 
ATOM     16  H4  UNL     1      21.831   7.971   1.421  1.00  0.00     0.185 HD
HETATM   17  C11 UNL     1      20.265   7.881   3.548  1.00  0.00     0.090 C 
HETATM   18  N5  UNL     1      22.403   8.275   4.621  1.00  0.00    -0.180 N 
ATOM     19  H5  UNL     1      21.908   8.258   5.513  1.00  0.00     0.185 HD
BRANCH  12  20
HETATM   20  N3  UNL     1      24.279   8.322   1.056  1.00  0.00    -0.234 N 
ATOM     21  H32 UNL     1      25.169   7.836   0.946  1.00  0.00     0.174 HD
ATOM     22  H31 UNL     1      23.910   8.784   0.224  1.00  0.00     0.174 HD
ENDBRANCH  12  20
ENDBRANCH   8  10
ENDBRANCH   4   5
ENDBRANCH   3   4
TORSDOF 4
ENDMDL
MODEL 5
REMARK VINA RESULT: -6.408877293      1.140      1.381
REMARK  4 active torsions:
REMARK  status: ('A' for Active; 'I' for Inactive)
REMARK    1  A    between atoms: C3_3  and  C4_4 
REMARK    2  A    between atoms: C4_4  and  C5_5 
REMARK    3  A    between atoms: N1_8  and  C8_9 
REMARK    4  A    between atoms: C9_12  and  N3_13 
ROOT
HETATM    1  C1  UNL     1      23.392   4.879  12.517  1.00  0.00     0.112 C 
HETATM    2  C2  UNL     1      22.697   4.946  11.218  1.00  0.00    -0.111 C 
HETATM    3  C3  UNL     1      22.121   4.977  10.147  1.00  0.00    -0.107 C 
ENDROOT
BRANCH   3   4
HETATM    4  C4  UNL     1      21.450   4.981   8.878  1.00  0.00     0.100 C 
BRANCH   4   5
HETATM    5  C5  UNL     1      21.611   6.259   8.166  1.00  0.00     0.017 C 
HETATM    6  C6  UNL     1      22.725   7.155   8.657  1.00  0.00     0.027 C 
HETATM    7  C7  UNL     1      22.634   8.252   7.584  1.00  0.00     0.141 C 
HETATM    8  N1  UNL     1      22.545   7.443   6.393  1.00  0.00    -0.217 N 
HETATM    9  C12 UNL     1      21.980   6.146   6.694  1.00  0.00     0.146 C 
BRANCH   8  10
HETATM   10  C8  UNL     1      22.963   7.856   5.106  1.00  0.00     0.696 A 
HETATM   11  N2  UNL     1      24.147   8.458   4.915  1.00  0.00    -0.022 N 
HETATM   12  C9  UNL     1      24.606   8.892   3.737  1.00  0.00     0.691 A 
ATOM     13  H2  UNL     1      24.742   8.595   5.732  1.00  0.00     0.203 HD
HETATM   14  N4  UNL     1      23.789   8.695   2.660  1.00  0.00    -0.180 N 
HETATM   15  C10 UNL     1      22.595   8.096   2.808  1.00  0.00     0.109 A 
ATOM     16  H4  UNL     1      24.088   9.005   1.735  1.00  0.00     0.185 HD
HETATM   17  C11 UNL     1      21.695   7.886   1.644  1.00  0.00     0.090 C 
HETATM   18  N5  UNL     1      22.166   7.672   4.012  1.00  0.00    -0.180 N 
ATOM     19  H5  UNL     1      21.257   7.218   4.107  1.00  0.00     0.185 HD
BRANCH  12  20
HETATM   20  N3  UNL     1      25.743   9.467   3.550  1.00  0.00    -0.234 N 
ATOM     21  H32 UNL     1      26.344   9.128   2.799  1.00  0.00     0.174 HD
ATOM     22  H31 UNL     1      26.105  10.244   4.103  1.00  0.00     0.174 HD
ENDBRANCH  12  20
ENDBRANCH   8  10
ENDBRANCH   4   5
ENDBRANCH   3   4
TORSDOF 4
ENDMDL
