MODEL 1
REMARK VINA RESULT: -5.662062075      0.000      0.000
REMARK  3 active torsions:
REMARK  status: ('A' for Active; 'I' for Inactive)
REMARK    1  A    between atoms: C3_5  and  N2_6 
REMARK    2  A    between atoms: N2_6  and  O1_7 
REMARK    3  A    between atoms: C4_11  and  C6_13 
ROOT
HETATM    1  C1  UNL     1      27.372   8.345   7.641  1.00  0.00     0.063 C 
HETATM    2  C2  UNL     1      26.047   8.500   6.994  1.00  0.00    -0.017 C 
HETATM    3  N1  UNL     1      25.936   8.267   5.735  1.00  0.00    -0.362 N 
ATOM      4  H1  UNL     1      26.770   7.981   5.223  1.00  0.00     0.162 HD
HETATM    5  C3  UNL     1      24.721   8.384   5.021  1.00  0.00     0.303 C 
HETATM    6  N3  UNL     1      23.867   9.353   5.627  1.00  0.00    -0.378 N 
ATOM      7  H3  UNL     1      23.434  10.104   5.091  1.00  0.00     0.157 HD
HETATM    8  C4  UNL     1      23.660   9.206   7.024  1.00  0.00     0.039 C 
HETATM    9  C5  UNL     1      22.618   8.095   7.193  1.00  0.00     0.039 C 
HETATM   10  C7  UNL     1      24.886   8.921   7.828  1.00  0.00     0.082 C 
ENDROOT
BRANCH   5  11
HETATM   11  N2  UNL     1      24.934   8.766   3.632  1.00  0.00    -0.056 NA
BRANCH  11  12
HETATM   12  O1  UNL     1      26.112   9.396   3.463  1.00  0.00    -0.293 OA
ATOM     13  H1  UNL     1      26.788   8.802   3.158  1.00  0.00     0.238 HD
ENDBRANCH  11  12
ENDBRANCH   5  11
BRANCH   8  14
HETATM   14  C6  UNL     1      23.035  10.511   7.533  1.00  0.00     0.115 C 
HETATM   15 BR1  UNL     1      21.823  10.214   8.978  1.00  0.00    -0.094 Br
ENDBRANCH   8  14
TORSDOF 3
ENDMDL
MODEL 2
REMARK VINA RESULT: -5.394170054      9.562     10.374
REMARK  3 active torsions:
REMARK  status: ('A' for Active; 'I' for Inactive)
REMARK    1  A    between atoms: C3_5  and  N2_6 
REMARK    2  A    between atoms: N2_6  and  O1_7 
REMARK    3  A    between atoms: C4_11  and  C6_13 
ROOT
HETATM    1  C1  UNL     1      21.183   6.538  15.386  1.00  0.00     0.063 C 
HETATM    2  C2  UNL     1      22.606   6.919  15.547  1.00  0.00    -0.017 C 
HETATM    3  N1  UNL     1      23.470   6.478  14.704  1.00  0.00    -0.362 N 
ATOM      4  H1  UNL     1      23.142   5.877  13.949  1.00  0.00     0.162 HD
HETATM    5  C3  UNL     1      24.850   6.781  14.765  1.00  0.00     0.303 C 
HETATM    6  N3  UNL     1      25.255   7.031  16.110  1.00  0.00    -0.378 N 
ATOM      7  H3  UNL     1      26.061   6.568  16.529  1.00  0.00     0.157 HD
HETATM    8  C4  UNL     1      24.465   7.967  16.828  1.00  0.00     0.039 C 
HETATM    9  C5  UNL     1      24.916   9.358  16.370  1.00  0.00     0.039 C 
HETATM   10  C7  UNL     1      22.988   7.805  16.683  1.00  0.00     0.082 C 
ENDROOT
BRANCH   5  11
HETATM   11  N2  UNL     1      25.673   5.704  14.232  1.00  0.00    -0.056 NA
BRANCH  11  12
HETATM   12  O1  UNL     1      25.291   4.502  14.705  1.00  0.00    -0.293 OA
ATOM     13  H1  UNL     1      25.510   4.401  15.624  1.00  0.00     0.238 HD
ENDBRANCH  11  12
ENDBRANCH   5  11
BRANCH   8  14
HETATM   14  C6  UNL     1      24.828   7.827  18.312  1.00  0.00     0.115 C 
HETATM   15 BR1  UNL     1      25.076   6.004  18.823  1.00  0.00    -0.094 Br
ENDBRANCH   8  14
TORSDOF 3
ENDMDL
MODEL 3
REMARK VINA RESULT: -5.285388815      3.466      4.119
REMARK  3 active torsions:
REMARK  status: ('A' for Active; 'I' for Inactive)
REMARK    1  A    between atoms: C3_5  and  N2_6 
REMARK    2  A    between atoms: N2_6  and  O1_7 
REMARK    3  A    between atoms: C4_11  and  C6_13 
ROOT
HETATM    1  C1  UNL     1      23.708   6.400  11.294  1.00  0.00     0.063 C 
HETATM    2  C2  UNL     1      23.496   6.960   9.938  1.00  0.00    -0.017 C 
HETATM    3  N1  UNL     1      22.627   6.414   9.165  1.00  0.00    -0.362 N 
ATOM      4  H1  UNL     1      22.110   5.608   9.516  1.00  0.00     0.162 HD
HETATM    5  C3  UNL     1      22.348   6.867   7.856  1.00  0.00     0.303 C 
HETATM    6  N3  UNL     1      23.493   7.495   7.280  1.00  0.00    -0.378 N 
ATOM      7  H3  UNL     1      23.843   7.242   6.357  1.00  0.00     0.157 HD
HETATM    8  C4  UNL     1      24.115   8.493   8.077  1.00  0.00     0.039 C 
HETATM    9  C5  UNL     1      23.268   9.760   7.921  1.00  0.00     0.039 C 
HETATM   10  C7  UNL     1      24.301   8.141   9.516  1.00  0.00     0.082 C 
ENDROOT
BRANCH   5  11
HETATM   11  N2  UNL     1      21.929   5.785   6.976  1.00  0.00    -0.056 NA
BRANCH  11  12
HETATM   12  O1  UNL     1      22.610   5.795   5.814  1.00  0.00    -0.293 OA
ATOM     13  H1  UNL     1      23.505   6.087   5.934  1.00  0.00     0.238 HD
ENDBRANCH  11  12
ENDBRANCH   5  11
BRANCH   8  14
HETATM   14  C6  UNL     1      25.491   8.775   7.462  1.00  0.00     0.115 C 
HETATM   15 BR1  UNL     1      25.550   8.349   5.601  1.00  0.00    -0.094 Br
ENDBRANCH   8  14
TORSDOF 3
ENDMDL
MODEL 4
REMARK VINA RESULT: -5.191543839      7.440      8.210
REMARK  3 active torsions:
REMARK  status: ('A' for Active; 'I' for Inactive)
REMARK    1  A    between atoms: C3_5  and  N2_6 
REMARK    2  A    between atoms: N2_6  and  O1_7 
REMARK    3  A    between atoms: C4_11  and  C6_13 
ROOT
HETATM    1  C1  UNL     1      22.265   7.411  15.749  1.00  0.00     0.063 C 
HETATM    2  C2  UNL     1      22.952   6.722  14.632  1.00  0.00    -0.017 C 
HETATM    3  N1  UNL     1      24.152   6.296  14.804  1.00  0.00    -0.362 N 
ATOM      4  H1  UNL     1      24.591   6.448  15.712  1.00  0.00     0.162 HD
HETATM    5  C3  UNL     1      24.897   5.627  13.806  1.00  0.00     0.303 C 
HETATM    6  N3  UNL     1      24.487   6.040  12.503  1.00  0.00    -0.378 N 
ATOM      7  H3  UNL     1      25.154   6.347  11.797  1.00  0.00     0.157 HD
HETATM    8  C4  UNL     1      23.089   5.996  12.254  1.00  0.00     0.039 C 
HETATM    9  C5  UNL     1      22.747   4.532  11.963  1.00  0.00     0.039 C 
HETATM   10  C7  UNL     1      22.227   6.546  13.342  1.00  0.00     0.082 C 
ENDROOT
BRANCH   5  11
HETATM   11  N2  UNL     1      26.328   5.868  13.933  1.00  0.00    -0.056 NA
BRANCH  11  12
HETATM   12  O1  UNL     1      26.587   6.931  14.719  1.00  0.00    -0.293 OA
ATOM     13  H1  UNL     1      27.372   7.389  14.443  1.00  0.00     0.238 HD
ENDBRANCH  11  12
ENDBRANCH   5  11
BRANCH   8  14
HETATM   14  C6  UNL     1      22.830   6.799  10.973  1.00  0.00     0.115 C 
HETATM   15 BR1  UNL     1      22.034   5.732   9.604  1.00  0.00    -0.094 Br
ENDBRANCH   8  14
TORSDOF 3
ENDMDL
MODEL 5
REMARK VINA RESULT: -5.178746728      8.515      9.050
REMARK  3 active torsions:
REMARK  status: ('A' for Active; 'I' for Inactive)
REMARK    1  A    between atoms: C3_5  and  N2_6 
REMARK    2  A    between atoms: N2_6  and  O1_7 
REMARK    3  A    between atoms: C4_11  and  C6_13 
ROOT
HETATM    1  C1  UNL     1      24.622   6.278  17.881  1.00  0.00     0.063 C 
HETATM    2  C2  UNL     1      24.100   6.441  16.504  1.00  0.00    -0.017 C 
HETATM    3  N1  UNL     1      24.776   5.966  15.519  1.00  0.00    -0.362 N 
ATOM      4  H1  UNL     1      25.654   5.489  15.723  1.00  0.00     0.162 HD
HETATM    5  C3  UNL     1      24.370   6.067  14.169  1.00  0.00     0.303 C 
HETATM    6  N3  UNL     1      23.568   7.230  13.965  1.00  0.00    -0.378 N 
ATOM      7  H3  UNL     1      23.761   7.897  13.218  1.00  0.00     0.157 HD
HETATM    8  C4  UNL     1      22.486   7.399  14.869  1.00  0.00     0.039 C 
HETATM    9  C5  UNL     1      21.368   6.471  14.384  1.00  0.00     0.039 C 
HETATM   10  C7  UNL     1      22.806   7.153  16.306  1.00  0.00     0.082 C 
ENDROOT
BRANCH   5  11
HETATM   11  N2  UNL     1      25.503   6.127  13.256  1.00  0.00    -0.056 NA
BRANCH  11  12
HETATM   12  O1  UNL     1      26.652   5.775  13.864  1.00  0.00    -0.293 OA
ATOM     13  H1  UNL     1      26.989   4.952  13.528  1.00  0.00     0.238 HD
ENDBRANCH  11  12
ENDBRANCH   5  11
BRANCH   8  14
HETATM   14  C6  UNL     1      21.989   8.842  14.720  1.00  0.00     0.115 C 
HETATM   15 BR1  UNL     1      23.149   9.895  13.628  1.00  0.00    -0.094 Br
ENDBRANCH   8  14
TORSDOF 3
ENDMDL
