MODEL 1
REMARK VINA RESULT: -6.081264304      0.000      0.000
REMARK  3 active torsions:
REMARK  status: ('A' for Active; 'I' for Inactive)
REMARK    1  A    between atoms: C2_2  and  N1_3 
REMARK    2  A    between atoms: N2_8  and  C6_9 
REMARK    3  A    between atoms: C9_14  and  N4_15 
ROOT
HETATM    1  C6  UNL     1      23.608   8.354   5.412  1.00  0.00     0.122 A 
HETATM    2  C7  UNL     1      22.476   8.003   4.712  1.00  0.00     0.066 A 
HETATM    3  C8  UNL     1      22.489   8.143   3.333  1.00  0.00     0.110 A 
HETATM    4  N3  UNL     1      23.588   8.611   2.711  1.00  0.00    -0.202 N 
ATOM      5  H3  UNL     1      23.577   8.706   1.696  1.00  0.00     0.183 HD
HETATM    6  C9  UNL     1      24.701   8.958   3.386  1.00  0.00     0.677 A 
HETATM    7  N5  UNL     1      24.693   8.824   4.713  1.00  0.00    -0.177 N 
ATOM      8  H5  UNL     1      25.532   9.082   5.232  1.00  0.00     0.185 HD
ENDROOT
BRANCH   1   9
HETATM    9  N2  UNL     1      23.660   8.246   6.816  1.00  0.00    -0.331 N 
HETATM   10  C5  UNL     1      24.546   9.136   7.484  1.00  0.00     0.277 C 
HETATM   11  C4  UNL     1      24.949   8.655   8.859  1.00  0.00     0.104 C 
HETATM   12  F1  UNL     1      24.081  10.412   7.574  1.00  0.00    -0.226 F 
HETATM   13  C3  UNL     1      23.870   8.702   9.878  1.00  0.00     0.067 C 
HETATM   14  N1  UNL     1      22.767   7.864   9.691  1.00  0.00    -0.372 N 
HETATM   15  C11 UNL     1      22.032   7.928   8.502  1.00  0.00     0.083 C 
HETATM   16  C10 UNL     1      22.793   7.233   7.391  1.00  0.00     0.172 C 
BRANCH  14  17
HETATM   17  C2  UNL     1      22.276   7.122  10.774  1.00  0.00     0.122 C 
HETATM   18  C1  UNL     1      23.286   6.012  11.091  1.00  0.00     0.027 C 
ENDBRANCH  14  17
ENDBRANCH   1   9
BRANCH   6  19
HETATM   19  N4  UNL     1      25.723   9.401   2.733  1.00  0.00    -0.234 N 
ATOM     20  H42 UNL     1      25.640  10.039   1.940  1.00  0.00     0.174 HD
ATOM     21  H41 UNL     1      26.659   9.108   3.013  1.00  0.00     0.174 HD
ENDBRANCH   6  19
TORSDOF 3
ENDMDL
MODEL 2
REMARK VINA RESULT: -5.894911095      2.654      4.335
REMARK  3 active torsions:
REMARK  status: ('A' for Active; 'I' for Inactive)
REMARK    1  A    between atoms: C2_2  and  N1_3 
REMARK    2  A    between atoms: N2_8  and  C6_9 
REMARK    3  A    between atoms: C9_14  and  N4_15 
ROOT
HETATM    1  C6  UNL     1      23.567   7.615   8.722  1.00  0.00     0.122 A 
HETATM    2  C7  UNL     1      24.704   8.129   9.303  1.00  0.00     0.066 A 
HETATM    3  C8  UNL     1      25.392   9.123   8.626  1.00  0.00     0.110 A 
HETATM    4  N3  UNL     1      24.946   9.563   7.434  1.00  0.00    -0.202 N 
ATOM      5  H3  UNL     1      25.467  10.297   6.952  1.00  0.00     0.183 HD
HETATM    6  C9  UNL     1      23.835   9.068   6.857  1.00  0.00     0.677 A 
HETATM    7  N5  UNL     1      23.169   8.111   7.505  1.00  0.00    -0.177 N 
ATOM      8  H5  UNL     1      22.326   7.731   7.077  1.00  0.00     0.185 HD
ENDROOT
BRANCH   1   9
HETATM    9  N2  UNL     1      22.825   6.595   9.350  1.00  0.00    -0.331 N 
HETATM   10  C5  UNL     1      23.043   6.425  10.746  1.00  0.00     0.277 C 
HETATM   11  C4  UNL     1      22.652   5.054  11.248  1.00  0.00     0.104 C 
HETATM   12  F1  UNL     1      22.444   7.373  11.518  1.00  0.00    -0.226 F 
HETATM   13  C3  UNL     1      21.190   4.794  11.278  1.00  0.00     0.067 C 
HETATM   14  N1  UNL     1      20.515   4.757  10.055  1.00  0.00    -0.372 N 
HETATM   15  C11 UNL     1      20.587   5.849   9.181  1.00  0.00     0.083 C 
HETATM   16  C10 UNL     1      21.930   5.854   8.479  1.00  0.00     0.172 C 
BRANCH  14  17
HETATM   17  C2  UNL     1      19.599   3.725   9.806  1.00  0.00     0.122 C 
HETATM   18  C1  UNL     1      18.438   4.302   8.987  1.00  0.00     0.027 C 
ENDBRANCH  14  17
ENDBRANCH   1   9
BRANCH   6  19
HETATM   19  N4  UNL     1      23.458   9.531   5.711  1.00  0.00    -0.234 N 
ATOM     20  H42 UNL     1      22.717  10.225   5.612  1.00  0.00     0.174 HD
ATOM     21  H41 UNL     1      23.914   9.195   4.863  1.00  0.00     0.174 HD
ENDBRANCH   6  19
TORSDOF 3
ENDMDL
MODEL 3
REMARK VINA RESULT: -5.772464103      6.453      9.203
REMARK  3 active torsions:
REMARK  status: ('A' for Active; 'I' for Inactive)
REMARK    1  A    between atoms: C2_2  and  N1_3 
REMARK    2  A    between atoms: N2_8  and  C6_9 
REMARK    3  A    between atoms: C9_14  and  N4_15 
ROOT
HETATM    1  C6  UNL     1      24.006   7.256  14.904  1.00  0.00     0.122 A 
HETATM    2  C7  UNL     1      24.395   8.567  15.058  1.00  0.00     0.066 A 
HETATM    3  C8  UNL     1      24.978   8.939  16.259  1.00  0.00     0.110 A 
HETATM    4  N3  UNL     1      25.154   8.030  17.237  1.00  0.00    -0.202 N 
ATOM      5  H3  UNL     1      25.586   8.324  18.113  1.00  0.00     0.183 HD
HETATM    6  C9  UNL     1      24.777   6.745  17.096  1.00  0.00     0.677 A 
HETATM    7  N5  UNL     1      24.215   6.382  15.942  1.00  0.00    -0.177 N 
ATOM      8  H5  UNL     1      23.929   5.410  15.826  1.00  0.00     0.185 HD
ENDROOT
BRANCH   1   9
HETATM    9  N2  UNL     1      23.397   6.812  13.713  1.00  0.00    -0.331 N 
HETATM   10  C5  UNL     1      24.241   6.135  12.789  1.00  0.00     0.277 C 
HETATM   11  C4  UNL     1      23.706   6.147  11.375  1.00  0.00     0.104 C 
HETATM   12  F1  UNL     1      24.536   4.856  13.145  1.00  0.00    -0.226 F 
HETATM   13  C3  UNL     1      22.507   5.299  11.154  1.00  0.00     0.067 C 
HETATM   14  N1  UNL     1      21.329   5.659  11.814  1.00  0.00    -0.372 N 
HETATM   15  C11 UNL     1      21.321   5.798  13.207  1.00  0.00     0.083 C 
HETATM   16  C10 UNL     1      21.980   7.106  13.594  1.00  0.00     0.172 C 
BRANCH  14  17
HETATM   17  C2  UNL     1      20.120   5.668  11.106  1.00  0.00     0.122 C 
HETATM   18  C1  UNL     1      20.061   4.402  10.242  1.00  0.00     0.027 C 
ENDBRANCH  14  17
ENDBRANCH   1   9
BRANCH   6  19
HETATM   19  N4  UNL     1      24.971   5.919  18.071  1.00  0.00    -0.234 N 
ATOM     20  H42 UNL     1      25.609   5.125  18.005  1.00  0.00     0.174 HD
ATOM     21  H41 UNL     1      24.471   6.058  18.949  1.00  0.00     0.174 HD
ENDBRANCH   6  19
TORSDOF 3
ENDMDL
MODEL 4
REMARK VINA RESULT: -5.658834272      5.437      8.287
REMARK  3 active torsions:
REMARK  status: ('A' for Active; 'I' for Inactive)
REMARK    1  A    between atoms: C2_2  and  N1_3 
REMARK    2  A    between atoms: N2_8  and  C6_9 
REMARK    3  A    between atoms: C9_14  and  N4_15 
ROOT
HETATM    1  C6  UNL     1      23.605   7.130  13.771  1.00  0.00     0.122 A 
HETATM    2  C7  UNL     1      24.023   8.432  13.928  1.00  0.00     0.066 A 
HETATM    3  C8  UNL     1      24.650   8.780  15.115  1.00  0.00     0.110 A 
HETATM    4  N3  UNL     1      24.839   7.856  16.076  1.00  0.00    -0.202 N 
ATOM      5  H3  UNL     1      25.303   8.132  16.941  1.00  0.00     0.183 HD
HETATM    6  C9  UNL     1      24.435   6.579  15.932  1.00  0.00     0.677 A 
HETATM    7  N5  UNL     1      23.831   6.240  14.793  1.00  0.00    -0.177 N 
ATOM      8  H5  UNL     1      23.524   5.275  14.674  1.00  0.00     0.185 HD
ENDROOT
BRANCH   1   9
HETATM    9  N2  UNL     1      22.952   6.711  12.595  1.00  0.00    -0.331 N 
HETATM   10  C5  UNL     1      23.383   7.321  11.384  1.00  0.00     0.277 C 
HETATM   11  C4  UNL     1      22.354   7.243  10.279  1.00  0.00     0.104 C 
HETATM   12  F1  UNL     1      24.573   6.849  10.922  1.00  0.00    -0.226 F 
HETATM   13  C3  UNL     1      22.145   5.886   9.715  1.00  0.00     0.067 C 
HETATM   14  N1  UNL     1      21.604   4.911  10.558  1.00  0.00    -0.372 N 
HETATM   15  C11 UNL     1      22.226   4.615  11.776  1.00  0.00     0.083 C 
HETATM   16  C10 UNL     1      21.922   5.705  12.784  1.00  0.00     0.172 C 
BRANCH  14  17
HETATM   17  C2  UNL     1      20.572   4.089  10.084  1.00  0.00     0.122 C 
HETATM   18  C1  UNL     1      20.176   4.576   8.685  1.00  0.00     0.027 C 
ENDBRANCH  14  17
ENDBRANCH   1   9
BRANCH   6  19
HETATM   19  N4  UNL     1      24.644   5.739  16.891  1.00  0.00    -0.234 N 
ATOM     20  H42 UNL     1      24.000   5.619  17.673  1.00  0.00     0.174 HD
ATOM     21  H41 UNL     1      25.487   5.164  16.875  1.00  0.00     0.174 HD
ENDBRANCH   6  19
TORSDOF 3
ENDMDL
MODEL 5
REMARK VINA RESULT: -5.648697574      1.451      1.620
REMARK  3 active torsions:
REMARK  status: ('A' for Active; 'I' for Inactive)
REMARK    1  A    between atoms: C2_2  and  N1_3 
REMARK    2  A    between atoms: N2_8  and  C6_9 
REMARK    3  A    between atoms: C9_14  and  N4_15 
ROOT
HETATM    1  C6  UNL     1      22.751   7.753   6.173  1.00  0.00     0.122 A 
HETATM    2  C7  UNL     1      21.694   7.516   5.325  1.00  0.00     0.066 A 
HETATM    3  C8  UNL     1      21.809   7.923   4.005  1.00  0.00     0.110 A 
HETATM    4  N3  UNL     1      22.933   8.532   3.581  1.00  0.00    -0.202 N 
ATOM      5  H3  UNL     1      22.998   8.823   2.605  1.00  0.00     0.183 HD
HETATM    6  C9  UNL     1      23.974   8.768   4.402  1.00  0.00     0.677 A 
HETATM    7  N5  UNL     1      23.867   8.378   5.673  1.00  0.00    -0.177 N 
ATOM      8  H5  UNL     1      24.651   8.551   6.301  1.00  0.00     0.185 HD
ENDROOT
BRANCH   1   9
HETATM    9  N2  UNL     1      22.697   7.374   7.529  1.00  0.00    -0.331 N 
HETATM   10  C5  UNL     1      23.437   8.181   8.439  1.00  0.00     0.277 C 
HETATM   11  C4  UNL     1      23.768   7.470   9.731  1.00  0.00     0.104 C 
HETATM   12  F1  UNL     1      22.848   9.374   8.722  1.00  0.00    -0.226 F 
HETATM   13  C3  UNL     1      22.609   7.232  10.628  1.00  0.00     0.067 C 
HETATM   14  N1  UNL     1      21.609   6.366  10.177  1.00  0.00    -0.372 N 
HETATM   15  C11 UNL     1      20.972   6.607   8.954  1.00  0.00     0.083 C 
HETATM   16  C10 UNL     1      21.885   6.204   7.814  1.00  0.00     0.172 C 
BRANCH  14  17
HETATM   17  C2  UNL     1      21.103   5.389  11.046  1.00  0.00     0.122 C 
HETATM   18  C1  UNL     1      22.232   4.402  11.367  1.00  0.00     0.027 C 
ENDBRANCH  14  17
ENDBRANCH   1   9
BRANCH   6  19
HETATM   19  N4  UNL     1      25.025   9.357   3.936  1.00  0.00    -0.234 N 
ATOM     20  H42 UNL     1      25.310  10.292   4.226  1.00  0.00     0.174 HD
ATOM     21  H41 UNL     1      25.602   8.874   3.247  1.00  0.00     0.174 HD
ENDBRANCH   6  19
TORSDOF 3
ENDMDL
