MODEL 1
REMARK VINA RESULT: -5.956392997      0.000      0.000
REMARK  6 active torsions:
REMARK  status: ('A' for Active; 'I' for Inactive)
REMARK    1  A    between atoms: O1_1  and  C1_3 
REMARK    2  A    between atoms: N1_8  and  C6_9 
REMARK    3  A    between atoms: C6_9  and  C7_10 
REMARK    4  A    between atoms: C7_10  and  C8_11 
REMARK    5  A    between atoms: C8_11  and  N2_12 
REMARK    6  A    between atoms: N2_12  and  C9_15 
ROOT
HETATM    1  C7  UNL     1      79.092   7.757  29.772  1.00  0.00     0.072 C 
ENDROOT
BRANCH   1   2
HETATM    2  C6  UNL     1      78.247   6.711  29.131  1.00  0.00     0.067 C 
BRANCH   2   3
HETATM    3  N1  UNL     1      78.558   6.328  27.822  1.00  0.00    -0.347 N 
HETATM    4  C1  UNL     1      79.146   5.068  27.596  1.00  0.00     0.223 C 
HETATM    5  C2  UNL     1      78.744   4.488  26.242  1.00  0.00     0.054 C 
HETATM    6  C3  UNL     1      79.148   5.485  25.193  1.00  0.00     0.009 C 
HETATM    7  C4  UNL     1      79.579   6.814  25.717  1.00  0.00     0.045 C 
HETATM    8  C5  UNL     1      78.659   7.293  26.802  1.00  0.00     0.066 C 
BRANCH   4   9
HETATM    9  O1  UNL     1      79.055   4.140  28.608  1.00  0.00    -0.376 OA
ATOM     10  H1  UNL     1      78.337   4.326  29.202  1.00  0.00     0.212 HD
ENDBRANCH   4   9
ENDBRANCH   2   3
ENDBRANCH   1   2
BRANCH   1  11
HETATM   11  C8  UNL     1      80.260   7.093  30.484  1.00  0.00     0.237 C 
BRANCH  11  12
HETATM   12  N2  UNL     1      79.760   5.887  31.105  1.00  0.00    -0.071 N 
ATOM     13  H22 UNL     1      78.777   5.973  31.364  1.00  0.00     0.277 HD
ATOM     14  H21 UNL     1      79.674   5.123  30.434  1.00  0.00     0.277 HD
BRANCH  12  15
HETATM   15  C9  UNL     1      80.584   5.522  32.233  1.00  0.00     0.185 C 
HETATM   16  C10 UNL     1      80.139   4.296  32.958  1.00  0.00     0.033 C 
HETATM   17  C11 UNL     1      81.026   3.981  34.108  1.00  0.00     0.002 C 
HETATM   18  C12 UNL     1      82.470   4.254  33.958  1.00  0.00     0.000 C 
HETATM   19  C13 UNL     1      82.835   5.413  33.082  1.00  0.00     0.002 C 
HETATM   20  C14 UNL     1      82.015   5.292  31.789  1.00  0.00     0.033 C 
ENDBRANCH  12  15
ENDBRANCH  11  12
ENDBRANCH   1  11
TORSDOF 6
ENDMDL
MODEL 2
REMARK VINA RESULT: -5.863342547      0.756      1.367
REMARK  6 active torsions:
REMARK  status: ('A' for Active; 'I' for Inactive)
REMARK    1  A    between atoms: O1_1  and  C1_3 
REMARK    2  A    between atoms: N1_8  and  C6_9 
REMARK    3  A    between atoms: C6_9  and  C7_10 
REMARK    4  A    between atoms: C7_10  and  C8_11 
REMARK    5  A    between atoms: C8_11  and  N2_12 
REMARK    6  A    between atoms: N2_12  and  C9_15 
ROOT
HETATM    1  C7  UNL     1      79.496   7.386  30.177  1.00  0.00     0.072 C 
ENDROOT
BRANCH   1   2
HETATM    2  C6  UNL     1      78.625   6.390  29.490  1.00  0.00     0.067 C 
BRANCH   2   3
HETATM    3  N1  UNL     1      78.676   6.326  28.094  1.00  0.00    -0.347 N 
HETATM    4  C1  UNL     1      79.087   5.129  27.476  1.00  0.00     0.223 C 
HETATM    5  C2  UNL     1      78.411   4.928  26.121  1.00  0.00     0.054 C 
HETATM    6  C3  UNL     1      78.738   6.129  25.279  1.00  0.00     0.009 C 
HETATM    7  C4  UNL     1      79.383   7.258  26.010  1.00  0.00     0.045 C 
HETATM    8  C5  UNL     1      78.708   7.507  27.327  1.00  0.00     0.066 C 
BRANCH   4   9
HETATM    9  O1  UNL     1      79.067   3.986  28.241  1.00  0.00    -0.376 OA
ATOM     10  H1  UNL     1      78.216   3.563  28.234  1.00  0.00     0.212 HD
ENDBRANCH   4   9
ENDBRANCH   2   3
ENDBRANCH   1   2
BRANCH   1  11
HETATM   11  C8  UNL     1      80.889   6.799  30.350  1.00  0.00     0.237 C 
BRANCH  11  12
HETATM   12  N2  UNL     1      80.733   5.391  30.632  1.00  0.00    -0.071 N 
ATOM     13  H22 UNL     1      79.766   5.085  30.520  1.00  0.00     0.277 HD
ATOM     14  H21 UNL     1      81.160   4.810  29.910  1.00  0.00     0.277 HD
BRANCH  12  15
HETATM   15  C9  UNL     1      81.247   5.081  31.946  1.00  0.00     0.185 C 
HETATM   16  C10 UNL     1      81.919   6.220  32.636  1.00  0.00     0.033 C 
HETATM   17  C11 UNL     1      82.426   5.832  33.978  1.00  0.00     0.002 C 
HETATM   18  C12 UNL     1      81.624   4.874  34.766  1.00  0.00     0.000 C 
HETATM   19  C13 UNL     1      80.852   3.857  33.982  1.00  0.00     0.002 C 
HETATM   20  C14 UNL     1      80.128   4.599  32.849  1.00  0.00     0.033 C 
ENDBRANCH  12  15
ENDBRANCH  11  12
ENDBRANCH   1  11
TORSDOF 6
ENDMDL
MODEL 3
REMARK VINA RESULT: -5.841741168      2.596      7.200
REMARK  6 active torsions:
REMARK  status: ('A' for Active; 'I' for Inactive)
REMARK    1  A    between atoms: O1_1  and  C1_3 
REMARK    2  A    between atoms: N1_8  and  C6_9 
REMARK    3  A    between atoms: C6_9  and  C7_10 
REMARK    4  A    between atoms: C7_10  and  C8_11 
REMARK    5  A    between atoms: C8_11  and  N2_12 
REMARK    6  A    between atoms: N2_12  and  C9_15 
ROOT
HETATM    1  C7  UNL     1      79.564   4.548  32.406  1.00  0.00     0.072 C 
ENDROOT
BRANCH   1   2
HETATM    2  C6  UNL     1      79.736   5.504  33.537  1.00  0.00     0.067 C 
BRANCH   2   3
HETATM    3  N1  UNL     1      80.796   5.287  34.424  1.00  0.00    -0.347 N 
HETATM    4  C1  UNL     1      81.080   6.257  35.404  1.00  0.00     0.223 C 
HETATM    5  C2  UNL     1      81.655   5.631  36.673  1.00  0.00     0.054 C 
HETATM    6  C3  UNL     1      82.886   4.867  36.274  1.00  0.00     0.009 C 
HETATM    7  C4  UNL     1      83.084   4.710  34.803  1.00  0.00     0.045 C 
HETATM    8  C5  UNL     1      81.798   4.345  34.120  1.00  0.00     0.066 C 
BRANCH   4   9
HETATM    9  O1  UNL     1      80.099   7.182  35.679  1.00  0.00    -0.376 OA
ATOM     10  H1  UNL     1      80.458   8.013  35.965  1.00  0.00     0.212 HD
ENDBRANCH   4   9
ENDBRANCH   2   3
ENDBRANCH   1   2
BRANCH   1  11
HETATM   11  C8  UNL     1      78.389   4.991  31.548  1.00  0.00     0.237 C 
BRANCH  11  12
HETATM   12  N2  UNL     1      78.706   4.660  30.177  1.00  0.00    -0.071 N 
ATOM     13  H22 UNL     1      79.442   3.957  30.117  1.00  0.00     0.277 HD
ATOM     14  H21 UNL     1      77.955   4.133  29.731  1.00  0.00     0.277 HD
BRANCH  12  15
HETATM   15  C9  UNL     1      79.039   5.854  29.436  1.00  0.00     0.185 C 
HETATM   16  C10 UNL     1      79.170   5.655  27.962  1.00  0.00     0.033 C 
HETATM   17  C11 UNL     1      79.517   6.919  27.262  1.00  0.00     0.002 C 
HETATM   18  C12 UNL     1      78.935   8.174  27.779  1.00  0.00     0.000 C 
HETATM   19  C13 UNL     1      78.691   8.230  29.256  1.00  0.00     0.002 C 
HETATM   20  C14 UNL     1      77.989   6.924  29.658  1.00  0.00     0.033 C 
ENDBRANCH  12  15
ENDBRANCH  11  12
ENDBRANCH   1  11
TORSDOF 6
ENDMDL
MODEL 4
REMARK VINA RESULT: -5.815299646      1.606      2.536
REMARK  6 active torsions:
REMARK  status: ('A' for Active; 'I' for Inactive)
REMARK    1  A    between atoms: O1_1  and  C1_3 
REMARK    2  A    between atoms: N1_8  and  C6_9 
REMARK    3  A    between atoms: C6_9  and  C7_10 
REMARK    4  A    between atoms: C7_10  and  C8_11 
REMARK    5  A    between atoms: C8_11  and  N2_12 
REMARK    6  A    between atoms: N2_12  and  C9_15 
ROOT
HETATM    1  C7  UNL     1      79.854   5.726  31.477  1.00  0.00     0.072 C 
ENDROOT
BRANCH   1   2
HETATM    2  C6  UNL     1      78.626   5.618  30.641  1.00  0.00     0.067 C 
BRANCH   2   3
HETATM    3  N1  UNL     1      78.603   6.296  29.417  1.00  0.00    -0.347 N 
HETATM    4  C1  UNL     1      79.064   5.641  28.259  1.00  0.00     0.223 C 
HETATM    5  C2  UNL     1      78.329   6.115  27.007  1.00  0.00     0.054 C 
HETATM    6  C3  UNL     1      78.520   7.603  26.916  1.00  0.00     0.009 C 
HETATM    7  C4  UNL     1      79.122   8.238  28.125  1.00  0.00     0.045 C 
HETATM    8  C5  UNL     1      78.505   7.701  29.383  1.00  0.00     0.066 C 
BRANCH   4   9
HETATM    9  O1  UNL     1      79.171   4.270  28.312  1.00  0.00    -0.376 OA
ATOM     10  H1  UNL     1      80.005   3.962  27.979  1.00  0.00     0.212 HD
ENDBRANCH   4   9
ENDBRANCH   2   3
ENDBRANCH   1   2
BRANCH   1  11
HETATM   11  C8  UNL     1      79.521   5.348  32.911  1.00  0.00     0.237 C 
BRANCH  11  12
HETATM   12  N2  UNL     1      80.249   4.139  33.221  1.00  0.00    -0.071 N 
ATOM     13  H22 UNL     1      79.623   3.349  33.380  1.00  0.00     0.277 HD
ATOM     14  H21 UNL     1      80.747   3.777  32.408  1.00  0.00     0.277 HD
BRANCH  12  15
HETATM   15  C9  UNL     1      81.135   4.358  34.340  1.00  0.00     0.185 C 
HETATM   16  C10 UNL     1      82.588   4.264  34.012  1.00  0.00     0.033 C 
HETATM   17  C11 UNL     1      83.441   4.495  35.207  1.00  0.00     0.002 C 
HETATM   18  C12 UNL     1      82.981   5.487  36.199  1.00  0.00     0.000 C 
HETATM   19  C13 UNL     1      81.498   5.629  36.353  1.00  0.00     0.002 C 
HETATM   20  C14 UNL     1      80.894   5.727  34.944  1.00  0.00     0.033 C 
ENDBRANCH  12  15
ENDBRANCH  11  12
ENDBRANCH   1  11
TORSDOF 6
ENDMDL
MODEL 5
REMARK VINA RESULT: -5.751507846      1.497      1.824
REMARK  6 active torsions:
REMARK  status: ('A' for Active; 'I' for Inactive)
REMARK    1  A    between atoms: O1_1  and  C1_3 
REMARK    2  A    between atoms: N1_8  and  C6_9 
REMARK    3  A    between atoms: C6_9  and  C7_10 
REMARK    4  A    between atoms: C7_10  and  C8_11 
REMARK    5  A    between atoms: C8_11  and  N2_12 
REMARK    6  A    between atoms: N2_12  and  C9_15 
ROOT
HETATM    1  C7  UNL     1      78.708   5.899  30.804  1.00  0.00     0.072 C 
ENDROOT
BRANCH   1   2
HETATM    2  C6  UNL     1      79.804   5.746  29.806  1.00  0.00     0.067 C 
BRANCH   2   3
HETATM    3  N1  UNL     1      79.548   6.132  28.486  1.00  0.00    -0.347 N 
HETATM    4  C1  UNL     1      79.294   5.143  27.517  1.00  0.00     0.223 C 
HETATM    5  C2  UNL     1      78.344   5.641  26.430  1.00  0.00     0.054 C 
HETATM    6  C3  UNL     1      78.967   6.866  25.823  1.00  0.00     0.009 C 
HETATM    7  C4  UNL     1      80.153   7.401  26.553  1.00  0.00     0.045 C 
HETATM    8  C5  UNL     1      79.915   7.415  28.035  1.00  0.00     0.066 C 
BRANCH   4   9
HETATM    9  O1  UNL     1      78.953   3.889  27.971  1.00  0.00    -0.376 OA
ATOM     10  H1  UNL     1      78.763   3.884  28.902  1.00  0.00     0.212 HD
ENDBRANCH   4   9
ENDBRANCH   2   3
ENDBRANCH   1   2
BRANCH   1  11
HETATM   11  C8  UNL     1      78.997   5.015  32.007  1.00  0.00     0.237 C 
BRANCH  11  12
HETATM   12  N2  UNL     1      80.404   4.686  31.975  1.00  0.00    -0.071 N 
ATOM     13  H22 UNL     1      80.557   3.694  31.795  1.00  0.00     0.277 HD
ATOM     14  H21 UNL     1      80.863   5.064  31.145  1.00  0.00     0.277 HD
BRANCH  12  15
HETATM   15  C9  UNL     1      81.051   5.118  33.191  1.00  0.00     0.185 C 
HETATM   16  C10 UNL     1      80.146   5.785  34.174  1.00  0.00     0.033 C 
HETATM   17  C11 UNL     1      80.875   6.207  35.398  1.00  0.00     0.002 C 
HETATM   18  C12 UNL     1      81.964   5.337  35.885  1.00  0.00     0.000 C 
HETATM   19  C13 UNL     1      82.723   4.580  34.838  1.00  0.00     0.002 C 
HETATM   20  C14 UNL     1      81.694   3.940  33.894  1.00  0.00     0.033 C 
ENDBRANCH  12  15
ENDBRANCH  11  12
ENDBRANCH   1  11
TORSDOF 6
ENDMDL
