MODEL 1
REMARK VINA RESULT: -6.418886666      0.000      0.000
REMARK  7 active torsions:
REMARK  status: ('A' for Active; 'I' for Inactive)
REMARK    1  A    between atoms: C4_4  and  C5_5 
REMARK    2  A    between atoms: C5_5  and  C6_6 
REMARK    3  A    between atoms: C6_6  and  C7_7 
REMARK    4  A    between atoms: C7_7  and  N1_8 
REMARK    5  A    between atoms: C7_7  and  N2_12 
REMARK    6  A    between atoms: C7_7  and  C8_16 
REMARK    7  A    between atoms: C8_16  and  C10_18 
ROOT
HETATM    1  C7  UNL     1      78.330   6.874  29.292  1.00  0.00     0.288 C 
ENDROOT
BRANCH   1   2
HETATM    2  C6  UNL     1      79.030   5.742  29.912  1.00  0.00     0.070 C 
BRANCH   2   3
HETATM    3  C5  UNL     1      78.434   5.057  31.081  1.00  0.00     0.009 C 
BRANCH   3   4
HETATM    4  C4  UNL     1      79.260   5.278  32.346  1.00  0.00    -0.014 C 
HETATM    5  C3  UNL     1      80.656   5.753  32.123  1.00  0.00     0.009 C 
HETATM    6  C2  UNL     1      81.088   4.753  33.206  1.00  0.00    -0.018 C 
HETATM    7  C1  UNL     1      80.866   5.324  34.586  1.00  0.00     0.010 C 
HETATM    8  C14 UNL     1      79.846   3.945  32.805  1.00  0.00     0.009 C 
ENDBRANCH   3   4
ENDBRANCH   2   3
ENDBRANCH   1   2
BRANCH   1   9
HETATM    9  N1  UNL     1      78.539   8.141  29.973  1.00  0.00    -0.044 N 
ATOM     10  H13 UNL     1      77.948   8.205  30.802  1.00  0.00     0.277 HD
ATOM     11  H12 UNL     1      79.459   8.164  30.415  1.00  0.00     0.277 HD
ATOM     12  H11 UNL     1      78.409   8.958  29.376  1.00  0.00     0.277 HD
ENDBRANCH   1   9
BRANCH   1  13
HETATM   13  N2  UNL     1      76.869   6.612  29.643  1.00  0.00    -0.044 N 
ATOM     14  H23 UNL     1      76.516   5.704  29.340  1.00  0.00     0.277 HD
ATOM     15  H22 UNL     1      76.691   6.467  30.636  1.00  0.00     0.277 HD
ATOM     16  H21 UNL     1      76.387   7.414  29.236  1.00  0.00     0.277 HD
ENDBRANCH   1  13
BRANCH   1  17
HETATM   17  C8  UNL     1      78.321   7.049  27.823  1.00  0.00     0.078 C 
HETATM   18  C9  UNL     1      79.109   8.345  27.550  1.00  0.00     0.017 C 
BRANCH  17  19
HETATM   19  C10 UNL     1      78.716   5.917  26.965  1.00  0.00     0.164 A 
HETATM   20  O1  UNL     1      79.524   6.315  25.857  1.00  0.00    -0.369 OA
HETATM   21  C11 UNL     1      78.329   5.554  25.645  1.00  0.00     0.081 A 
HETATM   22  C12 UNL     1      77.314   6.146  24.742  1.00  0.00     0.048 C 
HETATM   23  C13 UNL     1      78.759   4.139  25.182  1.00  0.00     0.048 C 
ENDBRANCH  17  19
ENDBRANCH   1  17
TORSDOF 7
ENDMDL
MODEL 2
REMARK VINA RESULT: -6.344910554      1.294      1.927
REMARK  7 active torsions:
REMARK  status: ('A' for Active; 'I' for Inactive)
REMARK    1  A    between atoms: C4_4  and  C5_5 
REMARK    2  A    between atoms: C5_5  and  C6_6 
REMARK    3  A    between atoms: C6_6  and  C7_7 
REMARK    4  A    between atoms: C7_7  and  N1_8 
REMARK    5  A    between atoms: C7_7  and  N2_12 
REMARK    6  A    between atoms: C7_7  and  C8_16 
REMARK    7  A    between atoms: C8_16  and  C10_18 
ROOT
HETATM    1  C7  UNL     1      78.791   6.153  29.414  1.00  0.00     0.288 C 
ENDROOT
BRANCH   1   2
HETATM    2  C6  UNL     1      79.528   6.479  30.642  1.00  0.00     0.070 C 
BRANCH   2   3
HETATM    3  C5  UNL     1      79.188   5.795  31.910  1.00  0.00     0.009 C 
BRANCH   3   4
HETATM    4  C4  UNL     1      80.427   5.211  32.586  1.00  0.00    -0.014 C 
HETATM    5  C3  UNL     1      80.298   3.797  33.044  1.00  0.00     0.009 C 
HETATM    6  C2  UNL     1      81.015   4.229  34.332  1.00  0.00    -0.018 C 
HETATM    7  C1  UNL     1      82.510   4.272  34.127  1.00  0.00     0.010 C 
HETATM    8  C14 UNL     1      80.443   5.626  34.054  1.00  0.00     0.009 C 
ENDBRANCH   3   4
ENDBRANCH   2   3
ENDBRANCH   1   2
BRANCH   1   9
HETATM    9  N1  UNL     1      77.372   6.462  29.479  1.00  0.00    -0.044 N 
ATOM     10  H13 UNL     1      76.832   5.779  28.947  1.00  0.00     0.277 HD
ATOM     11  H12 UNL     1      77.007   6.280  30.414  1.00  0.00     0.277 HD
ATOM     12  H11 UNL     1      77.142   7.410  29.183  1.00  0.00     0.277 HD
ENDBRANCH   1   9
BRANCH   1  13
HETATM   13  N2  UNL     1      78.741   4.629  29.435  1.00  0.00    -0.044 N 
ATOM     14  H23 UNL     1      78.187   4.232  30.194  1.00  0.00     0.277 HD
ATOM     15  H22 UNL     1      78.198   4.211  28.680  1.00  0.00     0.277 HD
ATOM     16  H21 UNL     1      79.727   4.366  29.445  1.00  0.00     0.277 HD
ENDBRANCH   1  13
BRANCH   1  17
HETATM   17  C8  UNL     1      79.351   6.476  28.084  1.00  0.00     0.078 C 
HETATM   18  C9  UNL     1      80.538   5.512  27.884  1.00  0.00     0.017 C 
BRANCH  17  19
HETATM   19  C10 UNL     1      78.444   6.555  26.925  1.00  0.00     0.164 A 
HETATM   20  O1  UNL     1      77.523   5.465  26.864  1.00  0.00    -0.369 OA
HETATM   21  C11 UNL     1      78.357   5.773  25.740  1.00  0.00     0.081 A 
HETATM   22  C12 UNL     1      79.228   4.685  25.239  1.00  0.00     0.048 C 
HETATM   23  C13 UNL     1      77.439   6.338  24.627  1.00  0.00     0.048 C 
ENDBRANCH  17  19
ENDBRANCH   1  17
TORSDOF 7
ENDMDL
MODEL 3
REMARK VINA RESULT: -6.301510328      1.203      1.552
REMARK  7 active torsions:
REMARK  status: ('A' for Active; 'I' for Inactive)
REMARK    1  A    between atoms: C4_4  and  C5_5 
REMARK    2  A    between atoms: C5_5  and  C6_6 
REMARK    3  A    between atoms: C6_6  and  C7_7 
REMARK    4  A    between atoms: C7_7  and  N1_8 
REMARK    5  A    between atoms: C7_7  and  N2_12 
REMARK    6  A    between atoms: C7_7  and  C8_16 
REMARK    7  A    between atoms: C8_16  and  C10_18 
ROOT
HETATM    1  C7  UNL     1      78.556   6.449  29.541  1.00  0.00     0.288 C 
ENDROOT
BRANCH   1   2
HETATM    2  C6  UNL     1      79.359   6.619  30.758  1.00  0.00     0.070 C 
BRANCH   2   3
HETATM    3  C5  UNL     1      79.059   5.808  31.959  1.00  0.00     0.009 C 
BRANCH   3   4
HETATM    4  C4  UNL     1      80.330   5.243  32.590  1.00  0.00    -0.014 C 
HETATM    5  C3  UNL     1      80.269   3.802  32.968  1.00  0.00     0.009 C 
HETATM    6  C2  UNL     1      80.980   4.192  34.273  1.00  0.00    -0.018 C 
HETATM    7  C1  UNL     1      82.469   4.313  34.059  1.00  0.00     0.010 C 
HETATM    8  C14 UNL     1      80.344   5.575  34.080  1.00  0.00     0.009 C 
ENDBRANCH   3   4
ENDBRANCH   2   3
ENDBRANCH   1   2
BRANCH   1   9
HETATM    9  N1  UNL     1      77.125   6.380  29.784  1.00  0.00    -0.044 N 
ATOM     10  H13 UNL     1      76.879   5.496  30.230  1.00  0.00     0.277 HD
ATOM     11  H12 UNL     1      76.855   7.027  30.525  1.00  0.00     0.277 HD
ATOM     12  H11 UNL     1      76.556   6.532  28.951  1.00  0.00     0.277 HD
ENDBRANCH   1   9
BRANCH   1  13
HETATM   13  N2  UNL     1      78.837   5.006  29.140  1.00  0.00    -0.044 N 
ATOM     14  H23 UNL     1      79.343   4.461  29.838  1.00  0.00     0.277 HD
ATOM     15  H22 UNL     1      78.014   4.404  29.114  1.00  0.00     0.277 HD
ATOM     16  H21 UNL     1      79.319   5.104  28.246  1.00  0.00     0.277 HD
ENDBRANCH   1  13
BRANCH   1  17
HETATM   17  C8  UNL     1      78.857   7.227  28.318  1.00  0.00     0.078 C 
HETATM   18  C9  UNL     1      79.525   8.528  28.803  1.00  0.00     0.017 C 
BRANCH  17  19
HETATM   19  C10 UNL     1      79.567   6.568  27.207  1.00  0.00     0.164 A 
HETATM   20  O1  UNL     1      79.821   7.447  26.111  1.00  0.00    -0.369 OA
HETATM   21  C11 UNL     1      79.142   6.204  25.900  1.00  0.00     0.081 A 
HETATM   22  C12 UNL     1      77.803   6.275  25.269  1.00  0.00     0.048 C 
HETATM   23  C13 UNL     1      80.104   5.280  25.112  1.00  0.00     0.048 C 
ENDBRANCH  17  19
ENDBRANCH   1  17
TORSDOF 7
ENDMDL
MODEL 4
REMARK VINA RESULT: -6.285592113      0.919      1.297
REMARK  7 active torsions:
REMARK  status: ('A' for Active; 'I' for Inactive)
REMARK    1  A    between atoms: C4_4  and  C5_5 
REMARK    2  A    between atoms: C5_5  and  C6_6 
REMARK    3  A    between atoms: C6_6  and  C7_7 
REMARK    4  A    between atoms: C7_7  and  N1_8 
REMARK    5  A    between atoms: C7_7  and  N2_12 
REMARK    6  A    between atoms: C7_7  and  C8_16 
REMARK    7  A    between atoms: C8_16  and  C10_18 
ROOT
HETATM    1  C7  UNL     1      78.495   6.366  29.160  1.00  0.00     0.288 C 
ENDROOT
BRANCH   1   2
HETATM    2  C6  UNL     1      79.587   6.853  30.012  1.00  0.00     0.070 C 
BRANCH   2   3
HETATM    3  C5  UNL     1      80.632   5.916  30.480  1.00  0.00     0.009 C 
BRANCH   3   4
HETATM    4  C4  UNL     1      80.772   5.941  32.001  1.00  0.00    -0.014 C 
HETATM    5  C3  UNL     1      81.484   4.773  32.595  1.00  0.00     0.009 C 
HETATM    6  C2  UNL     1      80.402   4.766  33.686  1.00  0.00    -0.018 C 
HETATM    7  C1  UNL     1      80.706   5.791  34.752  1.00  0.00     0.010 C 
HETATM    8  C14 UNL     1      79.489   5.410  32.634  1.00  0.00     0.009 C 
ENDBRANCH   3   4
ENDBRANCH   2   3
ENDBRANCH   1   2
BRANCH   1   9
HETATM    9  N1  UNL     1      77.195   6.365  29.810  1.00  0.00    -0.044 N 
ATOM     10  H13 UNL     1      77.156   5.647  30.533  1.00  0.00     0.277 HD
ATOM     11  H12 UNL     1      77.083   7.198  30.388  1.00  0.00     0.277 HD
ATOM     12  H11 UNL     1      76.410   6.268  29.166  1.00  0.00     0.277 HD
ENDBRANCH   1   9
BRANCH   1  13
HETATM   13  N2  UNL     1      78.762   4.867  29.078  1.00  0.00    -0.044 N 
ATOM     14  H23 UNL     1      79.373   4.504  29.810  1.00  0.00     0.277 HD
ATOM     15  H22 UNL     1      77.961   4.280  29.311  1.00  0.00     0.277 HD
ATOM     16  H21 UNL     1      79.116   4.746  28.129  1.00  0.00     0.277 HD
ENDBRANCH   1  13
BRANCH   1  17
HETATM   17  C8  UNL     1      78.388   6.789  27.746  1.00  0.00     0.078 C 
HETATM   18  C9  UNL     1      79.004   8.200  27.683  1.00  0.00     0.017 C 
BRANCH  17  19
HETATM   19  C10 UNL     1      78.867   5.880  26.688  1.00  0.00     0.164 A 
HETATM   20  O1  UNL     1      79.482   6.569  25.600  1.00  0.00    -0.369 OA
HETATM   21  C11 UNL     1      78.408   5.652  25.362  1.00  0.00     0.081 A 
HETATM   22  C12 UNL     1      77.224   6.183  24.648  1.00  0.00     0.048 C 
HETATM   23  C13 UNL     1      79.008   4.416  24.645  1.00  0.00     0.048 C 
ENDBRANCH  17  19
ENDBRANCH   1  17
TORSDOF 7
ENDMDL
MODEL 5
REMARK VINA RESULT: -6.258710335      1.379      1.780
REMARK  7 active torsions:
REMARK  status: ('A' for Active; 'I' for Inactive)
REMARK    1  A    between atoms: C4_4  and  C5_5 
REMARK    2  A    between atoms: C5_5  and  C6_6 
REMARK    3  A    between atoms: C6_6  and  C7_7 
REMARK    4  A    between atoms: C7_7  and  N1_8 
REMARK    5  A    between atoms: C7_7  and  N2_12 
REMARK    6  A    between atoms: C7_7  and  C8_16 
REMARK    7  A    between atoms: C8_16  and  C10_18 
ROOT
HETATM    1  C7  UNL     1      79.001   5.805  29.828  1.00  0.00     0.288 C 
ENDROOT
BRANCH   1   2
HETATM    2  C6  UNL     1      79.455   6.151  31.181  1.00  0.00     0.070 C 
BRANCH   2   3
HETATM    3  C5  UNL     1      79.022   5.334  32.336  1.00  0.00     0.009 C 
BRANCH   3   4
HETATM    4  C4  UNL     1      80.093   5.281  33.423  1.00  0.00    -0.014 C 
HETATM    5  C3  UNL     1      81.450   5.736  33.005  1.00  0.00     0.009 C 
HETATM    6  C2  UNL     1      82.009   4.534  33.782  1.00  0.00    -0.018 C 
HETATM    7  C1  UNL     1      82.104   4.842  35.256  1.00  0.00     0.010 C 
HETATM    8  C14 UNL     1      80.656   3.864  33.509  1.00  0.00     0.009 C 
ENDBRANCH   3   4
ENDBRANCH   2   3
ENDBRANCH   1   2
BRANCH   1   9
HETATM    9  N1  UNL     1      77.722   6.395  29.467  1.00  0.00    -0.044 N 
ATOM     10  H13 UNL     1      77.166   6.582  30.301  1.00  0.00     0.277 HD
ATOM     11  H12 UNL     1      77.850   7.349  29.127  1.00  0.00     0.277 HD
ATOM     12  H11 UNL     1      77.187   5.845  28.795  1.00  0.00     0.277 HD
ENDBRANCH   1   9
BRANCH   1  13
HETATM   13  N2  UNL     1      78.599   4.340  29.961  1.00  0.00    -0.044 N 
ATOM     14  H23 UNL     1      77.888   4.157  30.669  1.00  0.00     0.277 HD
ATOM     15  H22 UNL     1      78.062   3.974  29.176  1.00  0.00     0.277 HD
ATOM     16  H21 UNL     1      79.490   3.870  30.122  1.00  0.00     0.277 HD
ENDBRANCH   1  13
BRANCH   1  17
HETATM   17  C8  UNL     1      79.940   5.817  28.685  1.00  0.00     0.078 C 
HETATM   18  C9  UNL     1      81.341   5.612  29.292  1.00  0.00     0.017 C 
BRANCH  17  19
HETATM   19  C10 UNL     1      79.662   4.957  27.520  1.00  0.00     0.164 A 
HETATM   20  O1  UNL     1      80.444   5.300  26.376  1.00  0.00    -0.369 OA
HETATM   21  C11 UNL     1      79.017   5.227  26.281  1.00  0.00     0.081 A 
HETATM   22  C12 UNL     1      78.318   6.443  25.805  1.00  0.00     0.048 C 
HETATM   23  C13 UNL     1      78.675   3.988  25.416  1.00  0.00     0.048 C 
ENDBRANCH  17  19
ENDBRANCH   1  17
TORSDOF 7
ENDMDL
