MODEL 1
REMARK VINA RESULT: -7.471952486      0.000      0.000
REMARK  5 active torsions:
REMARK  status: ('A' for Active; 'I' for Inactive)
REMARK    1  A    between atoms: O1_2  and  C2_3 
REMARK    2  A    between atoms: C2_3  and  N1_5 
REMARK    3  A    between atoms: N1_5  and  C4_7 
REMARK    4  A    between atoms: C5_12  and  C6_13 
REMARK    5  A    between atoms: C6_13  and  C7_14 
ROOT
HETATM    1  C4  UNL     1      79.526   5.433  27.987  1.00  0.00     0.696 A 
HETATM    2  N2  UNL     1      80.653   5.647  28.689  1.00  0.00    -0.131 N 
ATOM      3  H2  UNL     1      81.598   5.729  28.314  1.00  0.00     0.205 HD
HETATM    4  N3  UNL     1      80.299   5.730  29.944  1.00  0.00    -0.274 N 
ATOM      5  H3  UNL     1      80.943   5.891  30.718  1.00  0.00     0.189 HD
HETATM    6  C5  UNL     1      78.972   5.573  30.076  1.00  0.00     0.116 A 
HETATM    7  N4  UNL     1      78.485   5.386  28.836  1.00  0.00    -0.178 N 
ATOM      8  H4  UNL     1      77.507   5.236  28.587  1.00  0.00     0.185 HD
ENDROOT
BRANCH   6   9
HETATM    9  C6  UNL     1      78.214   5.605  31.350  1.00  0.00     0.116 C 
BRANCH   9  10
HETATM   10  C7  UNL     1      79.107   5.594  32.531  1.00  0.00    -0.051 A 
HETATM   11  C8  UNL     1      79.230   6.730  33.300  1.00  0.00     0.007 A 
HETATM   12  C9  UNL     1      80.061   6.762  34.419  1.00  0.00     0.001 A 
HETATM   13  C10 UNL     1      80.791   5.654  34.797  1.00  0.00     0.000 A 
HETATM   14  C11 UNL     1      80.664   4.520  34.024  1.00  0.00     0.001 A 
HETATM   15  C12 UNL     1      79.836   4.482  32.903  1.00  0.00     0.007 A 
ENDBRANCH   9  10
ENDBRANCH   6   9
BRANCH   1  16
HETATM   16  N1  UNL     1      79.429   5.290  26.688  1.00  0.00    -0.199 N 
ATOM     17  H1  UNL     1      80.169   5.656  26.089  1.00  0.00     0.180 HD
BRANCH  16  18
HETATM   18  C2  UNL     1      78.297   4.627  26.088  1.00  0.00     0.233 C 
HETATM   19  C3  UNL     1      78.642   4.178  24.682  1.00  0.00     0.063 C 
BRANCH  18  20
HETATM   20  O1  UNL     1      77.142   5.366  26.140  1.00  0.00    -0.371 OA
HETATM   21  C1  UNL     1      76.623   5.695  24.907  1.00  0.00     0.204 C 
ENDBRANCH  18  20
ENDBRANCH  16  18
ENDBRANCH   1  16
TORSDOF 5
ENDMDL
MODEL 2
REMARK VINA RESULT: -7.433908171      0.413      1.214
REMARK  5 active torsions:
REMARK  status: ('A' for Active; 'I' for Inactive)
REMARK    1  A    between atoms: O1_2  and  C2_3 
REMARK    2  A    between atoms: C2_3  and  N1_5 
REMARK    3  A    between atoms: N1_5  and  C4_7 
REMARK    4  A    between atoms: C5_12  and  C6_13 
REMARK    5  A    between atoms: C6_13  and  C7_14 
ROOT
HETATM    1  C4  UNL     1      79.453   5.675  28.048  1.00  0.00     0.696 A 
HETATM    2  N2  UNL     1      80.212   6.624  28.626  1.00  0.00    -0.131 N 
ATOM      3  H2  UNL     1      80.951   7.169  28.182  1.00  0.00     0.205 HD
HETATM    4  N3  UNL     1      79.816   6.710  29.869  1.00  0.00    -0.274 N 
ATOM      5  H3  UNL     1      80.209   7.350  30.559  1.00  0.00     0.189 HD
HETATM    6  C5  UNL     1      78.821   5.842  30.113  1.00  0.00     0.116 A 
HETATM    7  N4  UNL     1      78.593   5.189  28.960  1.00  0.00    -0.178 N 
ATOM      8  H4  UNL     1      77.897   4.458  28.805  1.00  0.00     0.185 HD
ENDROOT
BRANCH   6   9
HETATM    9  C6  UNL     1      78.125   5.658  31.409  1.00  0.00     0.116 C 
BRANCH   9  10
HETATM   10  C7  UNL     1      79.070   5.620  32.550  1.00  0.00    -0.051 A 
HETATM   11  C8  UNL     1      79.806   4.479  32.784  1.00  0.00     0.007 A 
HETATM   12  C9  UNL     1      80.705   4.402  33.846  1.00  0.00     0.001 A 
HETATM   13  C10 UNL     1      80.889   5.468  34.703  1.00  0.00     0.000 A 
HETATM   14  C11 UNL     1      80.150   6.607  34.464  1.00  0.00     0.001 A 
HETATM   15  C12 UNL     1      79.249   6.690  33.404  1.00  0.00     0.007 A 
ENDBRANCH   9  10
ENDBRANCH   6   9
BRANCH   1  16
HETATM   16  N1  UNL     1      79.520   5.272  26.804  1.00  0.00    -0.199 N 
ATOM     17  H1  UNL     1      80.382   5.414  26.279  1.00  0.00     0.180 HD
BRANCH  16  18
HETATM   18  C2  UNL     1      78.399   4.632  26.160  1.00  0.00     0.233 C 
HETATM   19  C3  UNL     1      78.767   4.232  24.746  1.00  0.00     0.063 C 
BRANCH  18  20
HETATM   20  O1  UNL     1      77.243   5.370  26.219  1.00  0.00    -0.371 OA
HETATM   21  C1  UNL     1      76.579   5.479  25.017  1.00  0.00     0.204 C 
ENDBRANCH  18  20
ENDBRANCH  16  18
ENDBRANCH   1  16
TORSDOF 5
ENDMDL
MODEL 3
REMARK VINA RESULT: -7.140260586      1.407      1.749
REMARK  5 active torsions:
REMARK  status: ('A' for Active; 'I' for Inactive)
REMARK    1  A    between atoms: O1_2  and  C2_3 
REMARK    2  A    between atoms: C2_3  and  N1_5 
REMARK    3  A    between atoms: N1_5  and  C4_7 
REMARK    4  A    between atoms: C5_12  and  C6_13 
REMARK    5  A    between atoms: C6_13  and  C7_14 
ROOT
HETATM    1  C4  UNL     1      79.559   5.549  27.884  1.00  0.00     0.696 A 
HETATM    2  N2  UNL     1      80.484   6.279  28.532  1.00  0.00    -0.131 N 
ATOM      3  H2  UNL     1      81.337   6.674  28.135  1.00  0.00     0.205 HD
HETATM    4  N3  UNL     1      80.078   6.382  29.769  1.00  0.00    -0.274 N 
ATOM      5  H3  UNL     1      80.577   6.884  30.504  1.00  0.00     0.189 HD
HETATM    6  C5  UNL     1      78.912   5.737  29.942  1.00  0.00     0.116 A 
HETATM    7  N4  UNL     1      78.586   5.211  28.748  1.00  0.00    -0.178 N 
ATOM      8  H4  UNL     1      77.755   4.657  28.537  1.00  0.00     0.185 HD
ENDROOT
BRANCH   6   9
HETATM    9  C6  UNL     1      78.152   5.638  31.211  1.00  0.00     0.116 C 
BRANCH   9  10
HETATM   10  C7  UNL     1      79.044   5.591  32.394  1.00  0.00    -0.051 A 
HETATM   11  C8  UNL     1      79.160   6.701  33.201  1.00  0.00     0.007 A 
HETATM   12  C9  UNL     1      79.989   6.700  34.321  1.00  0.00     0.001 A 
HETATM   13  C10 UNL     1      80.723   5.582  34.663  1.00  0.00     0.000 A 
HETATM   14  C11 UNL     1      80.603   4.474  33.853  1.00  0.00     0.001 A 
HETATM   15  C12 UNL     1      79.777   4.470  32.730  1.00  0.00     0.007 A 
ENDBRANCH   9  10
ENDBRANCH   6   9
BRANCH   1  16
HETATM   16  N1  UNL     1      79.577   5.209  26.619  1.00  0.00    -0.199 N 
ATOM     17  H1  UNL     1      79.409   4.236  26.362  1.00  0.00     0.180 HD
BRANCH  16  18
HETATM   18  C2  UNL     1      79.829   6.180  25.583  1.00  0.00     0.233 C 
HETATM   19  C3  UNL     1      78.616   7.069  25.395  1.00  0.00     0.063 C 
BRANCH  18  20
HETATM   20  O1  UNL     1      80.264   5.621  24.408  1.00  0.00    -0.371 OA
HETATM   21  C1  UNL     1      81.448   4.925  24.516  1.00  0.00     0.204 C 
ENDBRANCH  18  20
ENDBRANCH  16  18
ENDBRANCH   1  16
TORSDOF 5
ENDMDL
MODEL 4
REMARK VINA RESULT: -7.099502543      1.355      2.053
REMARK  5 active torsions:
REMARK  status: ('A' for Active; 'I' for Inactive)
REMARK    1  A    between atoms: O1_2  and  C2_3 
REMARK    2  A    between atoms: C2_3  and  N1_5 
REMARK    3  A    between atoms: N1_5  and  C4_7 
REMARK    4  A    between atoms: C5_12  and  C6_13 
REMARK    5  A    between atoms: C6_13  and  C7_14 
ROOT
HETATM    1  C4  UNL     1      79.496   5.496  27.927  1.00  0.00     0.696 A 
HETATM    2  N2  UNL     1      80.417   6.266  28.533  1.00  0.00    -0.131 N 
ATOM      3  H2  UNL     1      81.258   6.659  28.109  1.00  0.00     0.205 HD
HETATM    4  N3  UNL     1      80.024   6.411  29.771  1.00  0.00    -0.274 N 
ATOM      5  H3  UNL     1      80.525   6.949  30.478  1.00  0.00     0.189 HD
HETATM    6  C5  UNL     1      78.873   5.754  29.985  1.00  0.00     0.116 A 
HETATM    7  N4  UNL     1      78.540   5.176  28.817  1.00  0.00    -0.178 N 
ATOM      8  H4  UNL     1      77.716   4.601  28.639  1.00  0.00     0.185 HD
ENDROOT
BRANCH   6   9
HETATM    9  C6  UNL     1      78.131   5.693  31.267  1.00  0.00     0.116 C 
BRANCH   9  10
HETATM   10  C7  UNL     1      79.040   5.636  32.436  1.00  0.00    -0.051 A 
HETATM   11  C8  UNL     1      79.731   4.475  32.703  1.00  0.00     0.007 A 
HETATM   12  C9  UNL     1      80.596   4.380  33.792  1.00  0.00     0.001 A 
HETATM   13  C10 UNL     1      80.789   5.449  34.644  1.00  0.00     0.000 A 
HETATM   14  C11 UNL     1      80.095   6.608  34.372  1.00  0.00     0.001 A 
HETATM   15  C12 UNL     1      79.229   6.709  33.284  1.00  0.00     0.007 A 
ENDBRANCH   9  10
ENDBRANCH   6   9
BRANCH   1  16
HETATM   16  N1  UNL     1      79.503   5.106  26.677  1.00  0.00    -0.199 N 
ATOM     17  H1  UNL     1      79.336   4.124  26.459  1.00  0.00     0.180 HD
BRANCH  16  18
HETATM   18  C2  UNL     1      79.742   6.037  25.600  1.00  0.00     0.233 C 
HETATM   19  C3  UNL     1      78.534   6.931  25.407  1.00  0.00     0.063 C 
BRANCH  18  20
HETATM   20  O1  UNL     1      80.145   5.431  24.437  1.00  0.00    -0.371 OA
HETATM   21  C1  UNL     1      81.401   4.868  24.498  1.00  0.00     0.204 C 
ENDBRANCH  18  20
ENDBRANCH  16  18
ENDBRANCH   1  16
TORSDOF 5
ENDMDL
MODEL 5
REMARK VINA RESULT: -7.088157609      1.170      1.591
REMARK  5 active torsions:
REMARK  status: ('A' for Active; 'I' for Inactive)
REMARK    1  A    between atoms: O1_2  and  C2_3 
REMARK    2  A    between atoms: C2_3  and  N1_5 
REMARK    3  A    between atoms: N1_5  and  C4_7 
REMARK    4  A    between atoms: C5_12  and  C6_13 
REMARK    5  A    between atoms: C6_13  and  C7_14 
ROOT
HETATM    1  C4  UNL     1      79.615   5.797  28.533  1.00  0.00     0.696 A 
HETATM    2  N2  UNL     1      78.700   4.826  28.708  1.00  0.00    -0.131 N 
ATOM      3  H2  UNL     1      78.455   4.092  28.043  1.00  0.00     0.205 HD
HETATM    4  N3  UNL     1      78.187   5.008  29.896  1.00  0.00    -0.274 N 
ATOM      5  H3  UNL     1      77.462   4.421  30.311  1.00  0.00     0.189 HD
HETATM    6  C5  UNL     1      78.744   6.072  30.497  1.00  0.00     0.116 A 
HETATM    7  N4  UNL     1      79.646   6.569  29.633  1.00  0.00    -0.178 N 
ATOM      8  H4  UNL     1      80.244   7.382  29.783  1.00  0.00     0.185 HD
ENDROOT
BRANCH   6   9
HETATM    9  C6  UNL     1      78.412   6.581  31.849  1.00  0.00     0.116 C 
BRANCH   9  10
HETATM   10  C7  UNL     1      79.326   6.047  32.886  1.00  0.00    -0.051 A 
HETATM   11  C8  UNL     1      79.674   6.840  33.958  1.00  0.00     0.007 A 
HETATM   12  C9  UNL     1      80.533   6.377  34.954  1.00  0.00     0.001 A 
HETATM   13  C10 UNL     1      81.064   5.105  34.901  1.00  0.00     0.000 A 
HETATM   14  C11 UNL     1      80.713   4.316  33.827  1.00  0.00     0.001 A 
HETATM   15  C12 UNL     1      79.856   4.774  32.827  1.00  0.00     0.007 A 
ENDBRANCH   9  10
ENDBRANCH   6   9
BRANCH   1  16
HETATM   16  N1  UNL     1      80.365   5.982  27.476  1.00  0.00    -0.199 N 
ATOM     17  H1  UNL     1      81.324   6.308  27.595  1.00  0.00     0.180 HD
BRANCH  16  18
HETATM   18  C2  UNL     1      79.864   5.735  26.146  1.00  0.00     0.233 C 
HETATM   19  C3  UNL     1      78.923   6.847  25.727  1.00  0.00     0.063 C 
BRANCH  18  20
HETATM   20  O1  UNL     1      79.311   4.488  25.996  1.00  0.00    -0.371 OA
HETATM   21  C1  UNL     1      78.698   4.282  24.779  1.00  0.00     0.204 C 
ENDBRANCH  18  20
ENDBRANCH  16  18
ENDBRANCH   1  16
TORSDOF 5
ENDMDL
