MODEL 1
REMARK VINA RESULT: -7.358888111      0.000      0.000
REMARK  4 active torsions:
REMARK  status: ('A' for Active; 'I' for Inactive)
REMARK    1  A    between atoms: C5_7  and  N2_8 
REMARK    2  A    between atoms: N2_8  and  C6_10 
REMARK    3  A    between atoms: C6_10  and  C7_11 
REMARK    4  A    between atoms: C7_11  and  C8_12 
ROOT
HETATM    1  C1  UNL     1      78.507   7.344  29.554  1.00  0.00     0.002 A 
HETATM    2  C2  UNL     1      78.348   8.483  28.804  1.00  0.00     0.002 A 
HETATM    3  C3  UNL     1      78.151   8.418  27.420  1.00  0.00     0.032 A 
HETATM    4  C4  UNL     1      78.119   7.179  26.815  1.00  0.00     0.077 A 
HETATM    5  N1  UNL     1      77.934   7.038  25.483  1.00  0.00    -0.188 N 
ATOM      6  H1  UNL     1      77.815   7.879  24.918  1.00  0.00     0.184 HD
HETATM    7  C5  UNL     1      77.898   5.842  24.868  1.00  0.00     0.693 A 
HETATM    8  N4  UNL     1      78.057   4.735  25.632  1.00  0.00    -0.132 N 
ATOM      9  H4  UNL     1      78.035   3.812  25.196  1.00  0.00     0.205 HD
HETATM   10  N5  UNL     1      78.241   4.838  26.938  1.00  0.00    -0.284 N 
ATOM     11  H5  UNL     1      78.359   3.988  27.490  1.00  0.00     0.187 HD
HETATM   12  C12 UNL     1      78.277   6.028  27.560  1.00  0.00     0.075 A 
HETATM   13  C13 UNL     1      78.470   6.137  28.928  1.00  0.00     0.033 A 
ENDROOT
BRANCH   7  14
HETATM   14  N2  UNL     1      77.717   5.773  23.592  1.00  0.00    -0.224 N 
ATOM     15  H2  UNL     1      78.283   5.136  23.032  1.00  0.00     0.177 HD
BRANCH  14  16
HETATM   16  C6  UNL     1      76.723   6.590  22.962  1.00  0.00     0.142 C 
BRANCH  16  17
HETATM   17  C7  UNL     1      75.319   6.232  23.392  1.00  0.00     0.060 C 
BRANCH  17  18
HETATM   18  C8  UNL     1      74.422   6.543  22.250  1.00  0.00    -0.040 A 
HETATM   19  C9  UNL     1      73.624   7.656  22.059  1.00  0.00     0.025 A 
HETATM   20  C10 UNL     1      72.949   7.553  20.865  1.00  0.00     0.088 A 
HETATM   21  N3  UNL     1      73.322   6.384  20.315  1.00  0.00    -0.375 N 
HETATM   22  C11 UNL     1      74.199   5.763  21.119  1.00  0.00     0.094 A 
ATOM     23  H3  UNL     1      72.989   6.024  19.421  1.00  0.00     0.164 HD
ENDBRANCH  17  18
ENDBRANCH  16  17
ENDBRANCH  14  16
ENDBRANCH   7  14
TORSDOF 4
ENDMDL
MODEL 2
REMARK VINA RESULT: -7.337092540      3.734      9.041
REMARK  4 active torsions:
REMARK  status: ('A' for Active; 'I' for Inactive)
REMARK    1  A    between atoms: C5_7  and  N2_8 
REMARK    2  A    between atoms: N2_8  and  C6_10 
REMARK    3  A    between atoms: C6_10  and  C7_11 
REMARK    4  A    between atoms: C7_11  and  C8_12 
ROOT
HETATM    1  C1  UNL     1      77.499   5.851  24.484  1.00  0.00     0.002 A 
HETATM    2  C2  UNL     1      78.520   4.936  24.561  1.00  0.00     0.002 A 
HETATM    3  C3  UNL     1      79.165   4.670  25.775  1.00  0.00     0.032 A 
HETATM    4  C4  UNL     1      78.754   5.349  26.902  1.00  0.00     0.077 A 
HETATM    5  N1  UNL     1      79.330   5.146  28.109  1.00  0.00    -0.188 N 
ATOM      6  H1  UNL     1      80.089   4.469  28.177  1.00  0.00     0.184 HD
HETATM    7  C5  UNL     1      78.949   5.794  29.226  1.00  0.00     0.693 A 
HETATM    8  N4  UNL     1      77.938   6.690  29.120  1.00  0.00    -0.132 N 
ATOM      9  H4  UNL     1      77.625   7.199  29.947  1.00  0.00     0.205 HD
HETATM   10  N5  UNL     1      77.354   6.913  27.954  1.00  0.00    -0.284 N 
ATOM     11  H5  UNL     1      76.596   7.595  27.903  1.00  0.00     0.187 HD
HETATM   12  C12 UNL     1      77.728   6.270  26.836  1.00  0.00     0.075 A 
HETATM   13  C13 UNL     1      77.116   6.503  25.614  1.00  0.00     0.033 A 
ENDROOT
BRANCH   7  14
HETATM   14  N2  UNL     1      79.538   5.555  30.348  1.00  0.00    -0.224 N 
ATOM     15  H2  UNL     1      80.554   5.471  30.382  1.00  0.00     0.177 HD
BRANCH  14  16
HETATM   16  C6  UNL     1      78.768   5.408  31.547  1.00  0.00     0.142 C 
BRANCH  16  17
HETATM   17  C7  UNL     1      79.550   4.752  32.662  1.00  0.00     0.060 C 
BRANCH  17  18
HETATM   18  C8  UNL     1      79.807   5.797  33.685  1.00  0.00    -0.040 A 
HETATM   19  C9  UNL     1      80.633   5.734  34.792  1.00  0.00     0.025 A 
HETATM   20  C10 UNL     1      80.587   6.923  35.484  1.00  0.00     0.088 A 
HETATM   21  N3  UNL     1      79.737   7.721  34.814  1.00  0.00    -0.375 N 
HETATM   22  C11 UNL     1      79.258   7.075  33.739  1.00  0.00     0.094 A 
ATOM     23  H3  UNL     1      79.492   8.674  35.082  1.00  0.00     0.164 HD
ENDBRANCH  17  18
ENDBRANCH  16  17
ENDBRANCH  14  16
ENDBRANCH   7  14
TORSDOF 4
ENDMDL
MODEL 3
REMARK VINA RESULT: -7.177470059      4.409      9.451
REMARK  4 active torsions:
REMARK  status: ('A' for Active; 'I' for Inactive)
REMARK    1  A    between atoms: C5_7  and  N2_8 
REMARK    2  A    between atoms: N2_8  and  C6_10 
REMARK    3  A    between atoms: C6_10  and  C7_11 
REMARK    4  A    between atoms: C7_11  and  C8_12 
ROOT
HETATM    1  C1  UNL     1      78.555   7.174  25.496  1.00  0.00     0.002 A 
HETATM    2  C2  UNL     1      79.663   6.374  25.634  1.00  0.00     0.002 A 
HETATM    3  C3  UNL     1      79.979   5.779  26.860  1.00  0.00     0.032 A 
HETATM    4  C4  UNL     1      79.153   6.012  27.939  1.00  0.00     0.077 A 
HETATM    5  N1  UNL     1      79.394   5.471  29.155  1.00  0.00    -0.188 N 
ATOM      6  H1  UNL     1      80.215   4.877  29.267  1.00  0.00     0.184 HD
HETATM    7  C5  UNL     1      78.605   5.681  30.224  1.00  0.00     0.693 A 
HETATM    8  N4  UNL     1      77.519   6.475  30.060  1.00  0.00    -0.132 N 
ATOM      9  H4  UNL     1      76.899   6.654  30.850  1.00  0.00     0.205 HD
HETATM   10  N5  UNL     1      77.253   7.019  28.883  1.00  0.00    -0.284 N 
ATOM     11  H5  UNL     1      76.429   7.613  28.788  1.00  0.00     0.187 HD
HETATM   12  C12 UNL     1      78.036   6.814  27.812  1.00  0.00     0.075 A 
HETATM   13  C13 UNL     1      77.759   7.384  26.579  1.00  0.00     0.033 A 
ENDROOT
BRANCH   7  14
HETATM   14  N2  UNL     1      78.889   5.137  31.359  1.00  0.00    -0.224 N 
ATOM     15  H2  UNL     1      78.221   4.508  31.803  1.00  0.00     0.177 HD
BRANCH  14  16
HETATM   16  C6  UNL     1      80.142   5.415  31.995  1.00  0.00     0.142 C 
BRANCH  16  17
HETATM   17  C7  UNL     1      80.258   4.767  33.356  1.00  0.00     0.060 C 
BRANCH  17  18
HETATM   18  C8  UNL     1      80.266   5.862  34.359  1.00  0.00    -0.040 A 
HETATM   19  C9  UNL     1      79.724   7.130  34.256  1.00  0.00     0.025 A 
HETATM   20  C10 UNL     1      79.952   7.837  35.414  1.00  0.00     0.088 A 
HETATM   21  N3  UNL     1      80.632   7.016  36.234  1.00  0.00    -0.375 N 
HETATM   22  C11 UNL     1      80.833   5.834  35.630  1.00  0.00     0.094 A 
ATOM     23  H3  UNL     1      80.949   7.256  37.173  1.00  0.00     0.164 HD
ENDBRANCH  17  18
ENDBRANCH  16  17
ENDBRANCH  14  16
ENDBRANCH   7  14
TORSDOF 4
ENDMDL
MODEL 4
REMARK VINA RESULT: -7.163153469      3.451      5.762
REMARK  4 active torsions:
REMARK  status: ('A' for Active; 'I' for Inactive)
REMARK    1  A    between atoms: C5_7  and  N2_8 
REMARK    2  A    between atoms: N2_8  and  C6_10 
REMARK    3  A    between atoms: C6_10  and  C7_11 
REMARK    4  A    between atoms: C7_11  and  C8_12 
ROOT
HETATM    1  C1  UNL     1      80.668   5.084  34.497  1.00  0.00     0.002 A 
HETATM    2  C2  UNL     1      80.678   6.455  34.405  1.00  0.00     0.002 A 
HETATM    3  C3  UNL     1      80.047   7.115  33.345  1.00  0.00     0.032 A 
HETATM    4  C4  UNL     1      79.408   6.360  32.385  1.00  0.00     0.077 A 
HETATM    5  N1  UNL     1      78.777   6.927  31.332  1.00  0.00    -0.188 N 
ATOM      6  H1  UNL     1      78.779   7.944  31.255  1.00  0.00     0.184 HD
HETATM    7  C5  UNL     1      78.145   6.215  30.380  1.00  0.00     0.693 A 
HETATM    8  N4  UNL     1      78.151   4.865  30.496  1.00  0.00    -0.132 N 
ATOM      9  H4  UNL     1      77.681   4.296  29.792  1.00  0.00     0.205 HD
HETATM   10  N5  UNL     1      78.760   4.278  31.514  1.00  0.00    -0.284 N 
ATOM     11  H5  UNL     1      78.749   3.260  31.576  1.00  0.00     0.187 HD
HETATM   12  C12 UNL     1      79.391   4.982  32.467  1.00  0.00     0.075 A 
HETATM   13  C13 UNL     1      80.029   4.368  33.534  1.00  0.00     0.033 A 
ENDROOT
BRANCH   7  14
HETATM   14  N2  UNL     1      77.561   6.816  29.400  1.00  0.00    -0.224 N 
ATOM     15  H2  UNL     1      76.576   7.072  29.474  1.00  0.00     0.177 HD
BRANCH  14  16
HETATM   16  C6  UNL     1      78.292   7.124  28.207  1.00  0.00     0.142 C 
BRANCH  16  17
HETATM   17  C7  UNL     1      77.402   7.222  26.990  1.00  0.00     0.060 C 
BRANCH  17  18
HETATM   18  C8  UNL     1      77.678   6.028  26.152  1.00  0.00    -0.040 A 
HETATM   19  C9  UNL     1      78.877   5.366  25.964  1.00  0.00     0.025 A 
HETATM   20  C10 UNL     1      78.701   4.303  25.108  1.00  0.00     0.088 A 
HETATM   21  N3  UNL     1      77.401   4.303  24.764  1.00  0.00    -0.375 N 
HETATM   22  C11 UNL     1      76.769   5.319  25.371  1.00  0.00     0.094 A 
ATOM     23  H3  UNL     1      76.961   3.631  24.135  1.00  0.00     0.164 HD
ENDBRANCH  17  18
ENDBRANCH  16  17
ENDBRANCH  14  16
ENDBRANCH   7  14
TORSDOF 4
ENDMDL
MODEL 5
REMARK VINA RESULT: -7.140798680      4.455      9.515
REMARK  4 active torsions:
REMARK  status: ('A' for Active; 'I' for Inactive)
REMARK    1  A    between atoms: C5_7  and  N2_8 
REMARK    2  A    between atoms: N2_8  and  C6_10 
REMARK    3  A    between atoms: C6_10  and  C7_11 
REMARK    4  A    between atoms: C7_11  and  C8_12 
ROOT
HETATM    1  C1  UNL     1      78.652   7.296  25.603  1.00  0.00     0.002 A 
HETATM    2  C2  UNL     1      79.684   6.414  25.813  1.00  0.00     0.002 A 
HETATM    3  C3  UNL     1      79.841   5.762  27.041  1.00  0.00     0.032 A 
HETATM    4  C4  UNL     1      78.936   6.023  28.047  1.00  0.00     0.077 A 
HETATM    5  N1  UNL     1      79.024   5.431  29.260  1.00  0.00    -0.188 N 
ATOM      6  H1  UNL     1      79.787   4.775  29.426  1.00  0.00     0.184 HD
HETATM    7  C5  UNL     1      78.154   5.667  30.260  1.00  0.00     0.693 A 
HETATM    8  N4  UNL     1      77.146   6.541  30.024  1.00  0.00    -0.132 N 
ATOM      9  H4  UNL     1      76.469   6.742  30.761  1.00  0.00     0.205 HD
HETATM   10  N5  UNL     1      77.031   7.137  28.849  1.00  0.00    -0.284 N 
ATOM     11  H5  UNL     1      76.263   7.792  28.700  1.00  0.00     0.187 HD
HETATM   12  C12 UNL     1      77.895   6.907  27.847  1.00  0.00     0.075 A 
HETATM   13  C13 UNL     1      77.774   7.531  26.615  1.00  0.00     0.033 A 
ENDROOT
BRANCH   7  14
HETATM   14  N2  UNL     1      78.292   5.071  31.395  1.00  0.00    -0.224 N 
ATOM     15  H2  UNL     1      77.620   4.359  31.682  1.00  0.00     0.177 HD
BRANCH  14  16
HETATM   16  C6  UNL     1      79.389   5.406  32.254  1.00  0.00     0.142 C 
BRANCH  16  17
HETATM   17  C7  UNL     1      79.204   6.743  32.936  1.00  0.00     0.060 C 
BRANCH  17  18
HETATM   18  C8  UNL     1      79.868   6.650  34.260  1.00  0.00    -0.040 A 
HETATM   19  C9  UNL     1      80.608   5.606  34.783  1.00  0.00     0.025 A 
HETATM   20  C10 UNL     1      81.050   5.925  36.046  1.00  0.00     0.088 A 
HETATM   21  N3  UNL     1      80.588   7.160  36.311  1.00  0.00    -0.375 N 
HETATM   22  C11 UNL     1      79.881   7.615  35.264  1.00  0.00     0.094 A 
ATOM     23  H3  UNL     1      80.750   7.674  37.176  1.00  0.00     0.164 HD
ENDBRANCH  17  18
ENDBRANCH  16  17
ENDBRANCH  14  16
ENDBRANCH   7  14
TORSDOF 4
ENDMDL
