MODEL 1
REMARK VINA RESULT: -7.497354570      0.000      0.000
REMARK  4 active torsions:
REMARK  status: ('A' for Active; 'I' for Inactive)
REMARK    1  A    between atoms: C5_7  and  N2_8 
REMARK    2  A    between atoms: N2_8  and  C6_10 
REMARK    3  A    between atoms: C6_10  and  C7_11 
REMARK    4  A    between atoms: C7_11  and  C8_12 
ROOT
HETATM    1  N2  UNL     1      80.788   8.416  37.544  1.00  0.00    -0.376 N 
ATOM      2  H2  UNL     1      80.965   8.198  38.525  1.00  0.00     0.161 HD
ENDROOT
BRANCH   1   3
HETATM    3  C5  UNL     1      80.764   7.473  36.678  1.00  0.00     0.101 A 
HETATM    4  N1  UNL     1      80.031   7.619  35.562  1.00  0.00    -0.342 N 
HETATM    5  C4  UNL     1      79.954   6.681  34.607  1.00  0.00     0.043 A 
ATOM      6  H1  UNL     1      79.509   8.486  35.435  1.00  0.00     0.167 HD
HETATM    7  C3  UNL     1      79.200   6.836  33.463  1.00  0.00     0.030 A 
HETATM    8  C12 UNL     1      80.664   5.521  34.794  1.00  0.00    -0.009 A 
HETATM    9  C2  UNL     1      79.162   5.815  32.501  1.00  0.00     0.002 A 
HETATM   10  C1  UNL     1      79.871   4.649  32.684  1.00  0.00     0.001 A 
HETATM   11  C13 UNL     1      80.607   4.530  33.829  1.00  0.00     0.013 A 
HETATM   12  C11 UNL     1      81.443   5.300  35.925  1.00  0.00     0.017 A 
HETATM   13  C10 UNL     1      81.490   6.296  36.878  1.00  0.00     0.049 A 
ENDBRANCH   1   3
BRANCH   1  14
HETATM   14  C6  UNL     1      80.566   9.774  37.151  1.00  0.00     0.128 C 
BRANCH  14  15
HETATM   15  C7  UNL     1      79.563  10.411  38.089  1.00  0.00     0.097 C 
BRANCH  15  16
HETATM   16  C8  UNL     1      78.214   9.930  37.749  1.00  0.00     0.098 A 
HETATM   17  N3  UNL     1      77.565  10.172  36.606  1.00  0.00    -0.340 N 
HETATM   18  C9  UNL     1      76.351   9.558  36.675  1.00  0.00     0.198 A 
ATOM     19  H3  UNL     1      77.916  10.720  35.819  1.00  0.00     0.168 HD
HETATM   20  N4  UNL     1      76.282   8.949  37.866  1.00  0.00    -0.295 N 
HETATM   21  N5  UNL     1      77.411   9.179  38.509  1.00  0.00    -0.288 N 
ATOM     22  H4  UNL     1      75.495   8.404  38.215  1.00  0.00     0.187 HD
ATOM     23  H5  UNL     1      77.636   8.836  39.442  1.00  0.00     0.188 HD
ENDBRANCH  15  16
ENDBRANCH  14  15
ENDBRANCH   1  14
TORSDOF 4
ENDMDL
MODEL 2
REMARK VINA RESULT: -7.390480071     10.050     12.728
REMARK  4 active torsions:
REMARK  status: ('A' for Active; 'I' for Inactive)
REMARK    1  A    between atoms: C5_7  and  N2_8 
REMARK    2  A    between atoms: N2_8  and  C6_10 
REMARK    3  A    between atoms: C6_10  and  C7_11 
REMARK    4  A    between atoms: C7_11  and  C8_12 
ROOT
HETATM    1  N2  UNL     1      76.437   5.650  24.011  1.00  0.00    -0.376 N 
ATOM      2  H2  UNL     1      76.010   4.753  23.776  1.00  0.00     0.161 HD
ENDROOT
BRANCH   1   3
HETATM    3  C5  UNL     1      77.147   5.755  25.071  1.00  0.00     0.101 A 
HETATM    4  N1  UNL     1      77.294   6.958  25.651  1.00  0.00    -0.342 N 
HETATM    5  C4  UNL     1      78.020   7.154  26.761  1.00  0.00     0.043 A 
ATOM      6  H1  UNL     1      76.831   7.761  25.226  1.00  0.00     0.167 HD
HETATM    7  C3  UNL     1      78.168   8.390  27.352  1.00  0.00     0.030 A 
HETATM    8  C12 UNL     1      78.637   6.061  27.320  1.00  0.00    -0.009 A 
HETATM    9  C2  UNL     1      78.942   8.527  28.515  1.00  0.00     0.002 A 
HETATM   10  C1  UNL     1      79.563   7.436  29.079  1.00  0.00     0.001 A 
HETATM   11  C13 UNL     1      79.395   6.226  28.467  1.00  0.00     0.013 A 
HETATM   12  C11 UNL     1      78.529   4.787  26.775  1.00  0.00     0.017 A 
HETATM   13  C10 UNL     1      77.771   4.638  25.633  1.00  0.00     0.049 A 
ENDBRANCH   1   3
BRANCH   1  14
HETATM   14  C6  UNL     1      76.235   6.777  23.153  1.00  0.00     0.128 C 
BRANCH  14  15
HETATM   15  C7  UNL     1      74.766   6.881  22.799  1.00  0.00     0.097 C 
BRANCH  15  16
HETATM   16  C8  UNL     1      74.400   5.751  21.930  1.00  0.00     0.098 A 
HETATM   17  N3  UNL     1      74.967   5.454  20.756  1.00  0.00    -0.340 N 
HETATM   18  C9  UNL     1      74.353   4.343  20.264  1.00  0.00     0.198 A 
ATOM     19  H3  UNL     1      75.726   5.968  20.308  1.00  0.00     0.168 HD
HETATM   20  N4  UNL     1      73.418   3.980  21.151  1.00  0.00    -0.295 N 
HETATM   21  N5  UNL     1      73.452   4.836  22.154  1.00  0.00    -0.288 N 
ATOM     22  H4  UNL     1      72.788   3.182  21.066  1.00  0.00     0.187 HD
ATOM     23  H5  UNL     1      72.848   4.804  22.975  1.00  0.00     0.188 HD
ENDBRANCH  15  16
ENDBRANCH  14  15
ENDBRANCH   1  14
TORSDOF 4
ENDMDL
MODEL 3
REMARK VINA RESULT: -7.097260685      9.267     11.836
REMARK  4 active torsions:
REMARK  status: ('A' for Active; 'I' for Inactive)
REMARK    1  A    between atoms: C5_7  and  N2_8 
REMARK    2  A    between atoms: N2_8  and  C6_10 
REMARK    3  A    between atoms: C6_10  and  C7_11 
REMARK    4  A    between atoms: C7_11  and  C8_12 
ROOT
HETATM    1  N2  UNL     1      77.487   4.715  24.737  1.00  0.00    -0.376 N 
ATOM      2  H2  UNL     1      77.603   3.903  24.131  1.00  0.00     0.161 HD
ENDROOT
BRANCH   1   3
HETATM    3  C5  UNL     1      78.447   5.076  25.504  1.00  0.00     0.101 A 
HETATM    4  N1  UNL     1      78.217   5.238  26.818  1.00  0.00    -0.342 N 
HETATM    5  C4  UNL     1      79.166   5.613  27.688  1.00  0.00     0.043 A 
ATOM      6  H1  UNL     1      77.275   5.067  27.170  1.00  0.00     0.167 HD
HETATM    7  C3  UNL     1      78.925   5.778  29.035  1.00  0.00     0.030 A 
HETATM    8  C12 UNL     1      80.428   5.840  27.197  1.00  0.00    -0.009 A 
HETATM    9  C2  UNL     1      79.963   6.173  29.893  1.00  0.00     0.002 A 
HETATM   10  C1  UNL     1      81.229   6.401  29.406  1.00  0.00     0.001 A 
HETATM   11  C13 UNL     1      81.433   6.228  28.066  1.00  0.00     0.013 A 
HETATM   12  C11 UNL     1      80.738   5.692  25.849  1.00  0.00     0.017 A 
HETATM   13  C10 UNL     1      79.728   5.304  24.995  1.00  0.00     0.049 A 
ENDBRANCH   1   3
BRANCH   1  14
HETATM   14  C6  UNL     1      76.254   5.440  24.721  1.00  0.00     0.128 C 
BRANCH  14  15
HETATM   15  C7  UNL     1      76.361   6.591  23.744  1.00  0.00     0.097 C 
BRANCH  15  16
HETATM   16  C8  UNL     1      75.159   6.615  22.895  1.00  0.00     0.098 A 
HETATM   17  N3  UNL     1      74.429   7.697  22.607  1.00  0.00    -0.340 N 
HETATM   18  C9  UNL     1      73.406   7.309  21.796  1.00  0.00     0.198 A 
ATOM     19  H3  UNL     1      74.605   8.647  22.937  1.00  0.00     0.168 HD
HETATM   20  N4  UNL     1      73.533   5.990  21.602  1.00  0.00    -0.295 N 
HETATM   21  N5  UNL     1      74.594   5.578  22.269  1.00  0.00    -0.288 N 
ATOM     22  H4  UNL     1      72.917   5.405  21.038  1.00  0.00     0.187 HD
ATOM     23  H5  UNL     1      74.931   4.616  22.302  1.00  0.00     0.188 HD
ENDBRANCH  15  16
ENDBRANCH  14  15
ENDBRANCH   1  14
TORSDOF 4
ENDMDL
MODEL 4
REMARK VINA RESULT: -7.087469758      4.979      7.449
REMARK  4 active torsions:
REMARK  status: ('A' for Active; 'I' for Inactive)
REMARK    1  A    between atoms: C5_7  and  N2_8 
REMARK    2  A    between atoms: N2_8  and  C6_10 
REMARK    3  A    between atoms: C6_10  and  C7_11 
REMARK    4  A    between atoms: C7_11  and  C8_12 
ROOT
HETATM    1  N2  UNL     1      79.378   5.427  30.382  1.00  0.00    -0.376 N 
ATOM      2  H2  UNL     1      80.262   4.917  30.374  1.00  0.00     0.161 HD
ENDROOT
BRANCH   1   3
HETATM    3  C5  UNL     1      78.881   5.851  29.281  1.00  0.00     0.101 A 
HETATM    4  N1  UNL     1      78.907   5.059  28.196  1.00  0.00    -0.342 N 
HETATM    5  C4  UNL     1      78.409   5.426  27.007  1.00  0.00     0.043 A 
ATOM      6  H1  UNL     1      79.326   4.133  28.281  1.00  0.00     0.167 HD
HETATM    7  C3  UNL     1      78.438   4.609  25.897  1.00  0.00     0.030 A 
HETATM    8  C12 UNL     1      77.848   6.676  26.909  1.00  0.00    -0.009 A 
HETATM    9  C2  UNL     1      77.898   5.055  24.680  1.00  0.00     0.002 A 
HETATM   10  C1  UNL     1      77.336   6.307  24.576  1.00  0.00     0.001 A 
HETATM   11  C13 UNL     1      77.323   7.089  25.696  1.00  0.00     0.013 A 
HETATM   12  C11 UNL     1      77.786   7.549  27.989  1.00  0.00     0.017 A 
HETATM   13  C10 UNL     1      78.313   7.124  29.191  1.00  0.00     0.049 A 
ENDBRANCH   1   3
BRANCH   1  14
HETATM   14  C6  UNL     1      78.706   5.661  31.623  1.00  0.00     0.128 C 
BRANCH  14  15
HETATM   15  C7  UNL     1      79.513   5.055  32.752  1.00  0.00     0.097 C 
BRANCH  15  16
HETATM   16  C8  UNL     1      79.740   6.078  33.784  1.00  0.00     0.098 A 
HETATM   17  N3  UNL     1      80.531   5.945  34.855  1.00  0.00    -0.340 N 
HETATM   18  C9  UNL     1      80.475   7.106  35.563  1.00  0.00     0.198 A 
ATOM     19  H3  UNL     1      81.078   5.119  35.098  1.00  0.00     0.168 HD
HETATM   20  N4  UNL     1      79.648   7.931  34.909  1.00  0.00    -0.295 N 
HETATM   21  N5  UNL     1      79.208   7.303  33.836  1.00  0.00    -0.288 N 
ATOM     22  H4  UNL     1      79.401   8.880  35.191  1.00  0.00     0.187 HD
ATOM     23  H5  UNL     1      78.562   7.693  33.150  1.00  0.00     0.188 HD
ENDBRANCH  15  16
ENDBRANCH  14  15
ENDBRANCH   1  14
TORSDOF 4
ENDMDL
MODEL 5
REMARK VINA RESULT: -7.064294328      1.459      1.950
REMARK  4 active torsions:
REMARK  status: ('A' for Active; 'I' for Inactive)
REMARK    1  A    between atoms: C5_7  and  N2_8 
REMARK    2  A    between atoms: N2_8  and  C6_10 
REMARK    3  A    between atoms: C6_10  and  C7_11 
REMARK    4  A    between atoms: C7_11  and  C8_12 
ROOT
HETATM    1  N2  UNL     1      80.524   9.433  36.649  1.00  0.00    -0.376 N 
ATOM      2  H2  UNL     1      81.364   9.783  37.110  1.00  0.00     0.161 HD
ENDROOT
BRANCH   1   3
HETATM    3  C5  UNL     1      80.547   8.289  36.073  1.00  0.00     0.101 A 
HETATM    4  N1  UNL     1      79.894   8.122  34.911  1.00  0.00    -0.342 N 
HETATM    5  C4  UNL     1      79.869   6.959  34.244  1.00  0.00     0.043 A 
ATOM      6  H1  UNL     1      79.393   8.919  34.517  1.00  0.00     0.167 HD
HETATM    7  C3  UNL     1      79.197   6.793  33.052  1.00  0.00     0.030 A 
HETATM    8  C12 UNL     1      80.547   5.897  34.789  1.00  0.00    -0.009 A 
HETATM    9  C2  UNL     1      79.210   5.548  32.404  1.00  0.00     0.002 A 
HETATM   10  C1  UNL     1      79.888   4.480  32.946  1.00  0.00     0.001 A 
HETATM   11  C13 UNL     1      80.543   4.680  34.128  1.00  0.00     0.013 A 
HETATM   12  C11 UNL     1      81.245   5.997  35.988  1.00  0.00     0.017 A 
HETATM   13  C10 UNL     1      81.241   7.214  36.635  1.00  0.00     0.049 A 
ENDBRANCH   1   3
BRANCH   1  14
HETATM   14  C6  UNL     1      79.332  10.224  36.654  1.00  0.00     0.128 C 
BRANCH  14  15
HETATM   15  C7  UNL     1      78.274   9.533  37.488  1.00  0.00     0.097 C 
BRANCH  15  16
HETATM   16  C8  UNL     1      78.423   9.946  38.892  1.00  0.00     0.098 A 
HETATM   17  N3  UNL     1      77.534  10.654  39.595  1.00  0.00    -0.340 N 
HETATM   18  C9  UNL     1      78.036  10.831  40.849  1.00  0.00     0.198 A 
ATOM     19  H3  UNL     1      76.637  11.002  39.254  1.00  0.00     0.168 HD
HETATM   20  N4  UNL     1      79.228  10.223  40.888  1.00  0.00    -0.295 N 
HETATM   21  N5  UNL     1      79.455   9.691  39.702  1.00  0.00    -0.288 N 
ATOM     22  H4  UNL     1      79.852  10.179  41.693  1.00  0.00     0.187 HD
ATOM     23  H5  UNL     1      80.290   9.166  39.443  1.00  0.00     0.188 HD
ENDBRANCH  15  16
ENDBRANCH  14  15
ENDBRANCH   1  14
TORSDOF 4
ENDMDL
