MODEL 1
REMARK VINA RESULT: -7.151846186      0.000      0.000
REMARK  4 active torsions:
REMARK  status: ('A' for Active; 'I' for Inactive)
REMARK    1  A    between atoms: C2_2  and  C3_3 
REMARK    2  A    between atoms: C3_3  and  N1_4 
REMARK    3  A    between atoms: N1_4  and  C4_6 
REMARK    4  A    between atoms: C5_9  and  C6_10 
ROOT
HETATM    1  C4  UNL     1      77.422   6.103  24.111  1.00  0.00     0.681 A 
HETATM    2  N2  UNL     1      77.465   6.505  25.386  1.00  0.00    -0.189 N 
ATOM      3  H2  UNL     1      76.996   7.374  25.643  1.00  0.00     0.184 HD
HETATM    4  C5  UNL     1      78.108   5.804  26.346  1.00  0.00     0.081 A 
HETATM    5  C11 UNL     1      78.731   4.638  25.974  1.00  0.00     0.107 A 
HETATM    6  C12 UNL     1      78.700   4.195  24.648  1.00  0.00     0.261 A 
HETATM    7  O1  UNL     1      79.267   3.131  24.299  1.00  0.00    -0.268 OA
HETATM    8  N4  UNL     1      78.037   4.964  23.775  1.00  0.00    -0.156 N 
ATOM      9  H4  UNL     1      77.998   4.665  22.801  1.00  0.00     0.187 HD
ENDROOT
BRANCH   4  10
HETATM   10  C6  UNL     1      78.149   6.251  27.730  1.00  0.00     0.059 A 
HETATM   11  C7  UNL     1      77.676   7.468  28.160  1.00  0.00     0.032 A 
HETATM   12  C8  UNL     1      77.724   7.881  29.487  1.00  0.00     0.004 A 
HETATM   13  C9  UNL     1      78.267   7.040  30.423  1.00  0.00     0.017 A 
HETATM   14  C10 UNL     1      78.741   5.820  29.988  1.00  0.00     0.088 A 
HETATM   15  N3  UNL     1      78.680   5.449  28.697  1.00  0.00    -0.364 N 
ATOM     16  H3  UNL     1      79.046   4.535  28.431  1.00  0.00     0.165 HD
ENDBRANCH   4  10
BRANCH   1  17
HETATM   17  N1  UNL     1      76.815   6.766  23.205  1.00  0.00    -0.223 N 
ATOM     18  H1  UNL     1      77.326   6.961  22.344  1.00  0.00     0.178 HD
BRANCH  17  19
HETATM   19  C3  UNL     1      75.465   7.260  23.303  1.00  0.00     0.164 C 
BRANCH  19  20
HETATM   20  C2  UNL     1      74.499   6.436  22.543  1.00  0.00    -0.017 C 
HETATM   21  C1  UNL     1      73.511   6.936  21.826  1.00  0.00     0.008 C 
ENDBRANCH  19  20
ENDBRANCH  17  19
ENDBRANCH   1  17
TORSDOF 4
ENDMDL
MODEL 2
REMARK VINA RESULT: -6.950241527      1.955      2.148
REMARK  4 active torsions:
REMARK  status: ('A' for Active; 'I' for Inactive)
REMARK    1  A    between atoms: C2_2  and  C3_3 
REMARK    2  A    between atoms: C3_3  and  N1_4 
REMARK    3  A    between atoms: N1_4  and  C4_6 
REMARK    4  A    between atoms: C5_9  and  C6_10 
ROOT
HETATM    1  C4  UNL     1      77.022   5.606  24.561  1.00  0.00     0.681 A 
HETATM    2  N2  UNL     1      77.592   6.584  25.273  1.00  0.00    -0.189 N 
ATOM      3  H2  UNL     1      77.069   7.445  25.433  1.00  0.00     0.184 HD
HETATM    4  C5  UNL     1      78.836   6.472  25.791  1.00  0.00     0.081 A 
HETATM    5  C11 UNL     1      79.518   5.303  25.563  1.00  0.00     0.107 A 
HETATM    6  C12 UNL     1      78.944   4.265  24.821  1.00  0.00     0.261 A 
HETATM    7  O1  UNL     1      79.561   3.193  24.608  1.00  0.00    -0.268 OA
HETATM    8  N4  UNL     1      77.707   4.477  24.353  1.00  0.00    -0.156 N 
ATOM      9  H4  UNL     1      77.264   3.738  23.808  1.00  0.00     0.187 HD
ENDROOT
BRANCH   4  10
HETATM   10  C6  UNL     1      79.447   7.542  26.564  1.00  0.00     0.059 A 
HETATM   11  C7  UNL     1      78.764   8.336  27.453  1.00  0.00     0.032 A 
HETATM   12  C8  UNL     1      79.363   9.356  28.186  1.00  0.00     0.004 A 
HETATM   13  C9  UNL     1      80.703   9.590  28.020  1.00  0.00     0.017 A 
HETATM   14  C10 UNL     1      81.386   8.791  27.127  1.00  0.00     0.088 A 
HETATM   15  N3  UNL     1      80.778   7.813  26.434  1.00  0.00    -0.364 N 
ATOM     16  H3  UNL     1      81.332   7.252  25.786  1.00  0.00     0.165 HD
ENDBRANCH   4  10
BRANCH   1  17
HETATM   17  N1  UNL     1      75.847   5.712  24.073  1.00  0.00    -0.223 N 
ATOM     18  H1  UNL     1      75.183   4.966  24.280  1.00  0.00     0.178 HD
BRANCH  17  19
HETATM   19  C3  UNL     1      75.386   6.803  23.252  1.00  0.00     0.164 C 
BRANCH  19  20
HETATM   20  C2  UNL     1      74.219   6.436  22.418  1.00  0.00    -0.017 C 
HETATM   21  C1  UNL     1      73.454   7.313  21.798  1.00  0.00     0.008 C 
ENDBRANCH  19  20
ENDBRANCH  17  19
ENDBRANCH   1  17
TORSDOF 4
ENDMDL
MODEL 3
REMARK VINA RESULT: -6.903887745      1.934      2.492
REMARK  4 active torsions:
REMARK  status: ('A' for Active; 'I' for Inactive)
REMARK    1  A    between atoms: C2_2  and  C3_3 
REMARK    2  A    between atoms: C3_3  and  N1_4 
REMARK    3  A    between atoms: N1_4  and  C4_6 
REMARK    4  A    between atoms: C5_9  and  C6_10 
ROOT
HETATM    1  C4  UNL     1      78.461   4.908  25.701  1.00  0.00     0.681 A 
HETATM    2  N2  UNL     1      78.359   5.109  27.019  1.00  0.00    -0.189 N 
ATOM      3  H2  UNL     1      77.475   4.897  27.481  1.00  0.00     0.184 HD
HETATM    4  C5  UNL     1      79.384   5.583  27.761  1.00  0.00     0.081 A 
HETATM    5  C11 UNL     1      80.564   5.860  27.115  1.00  0.00     0.107 A 
HETATM    6  C12 UNL     1      80.696   5.658  25.737  1.00  0.00     0.261 A 
HETATM    7  O1  UNL     1      81.771   5.909  25.138  1.00  0.00    -0.268 OA
HETATM    8  N4  UNL     1      79.620   5.186  25.095  1.00  0.00    -0.156 N 
ATOM      9  H4  UNL     1      79.688   5.029  24.090  1.00  0.00     0.187 HD
ENDROOT
BRANCH   4  10
HETATM   10  C6  UNL     1      79.263   5.798  29.195  1.00  0.00     0.059 A 
HETATM   11  C7  UNL     1      80.124   6.575  29.932  1.00  0.00     0.032 A 
HETATM   12  C8  UNL     1      79.994   6.770  31.303  1.00  0.00     0.004 A 
HETATM   13  C9  UNL     1      78.959   6.163  31.963  1.00  0.00     0.017 A 
HETATM   14  C10 UNL     1      78.097   5.383  31.221  1.00  0.00     0.088 A 
HETATM   15  N3  UNL     1      78.249   5.214  29.896  1.00  0.00    -0.364 N 
ATOM     16  H3  UNL     1      77.581   4.627  29.396  1.00  0.00     0.165 HD
ENDBRANCH   4  10
BRANCH   1  17
HETATM   17  N1  UNL     1      77.492   4.460  25.001  1.00  0.00    -0.223 N 
ATOM     18  H1  UNL     1      77.614   3.550  24.556  1.00  0.00     0.178 HD
BRANCH  17  19
HETATM   19  C3  UNL     1      76.239   5.140  24.789  1.00  0.00     0.164 C 
BRANCH  19  20
HETATM   20  C2  UNL     1      76.401   6.424  24.072  1.00  0.00    -0.017 C 
HETATM   21  C1  UNL     1      75.460   6.975  23.331  1.00  0.00     0.008 C 
ENDBRANCH  19  20
ENDBRANCH  17  19
ENDBRANCH   1  17
TORSDOF 4
ENDMDL
MODEL 4
REMARK VINA RESULT: -6.747015864      1.975      2.826
REMARK  4 active torsions:
REMARK  status: ('A' for Active; 'I' for Inactive)
REMARK    1  A    between atoms: C2_2  and  C3_3 
REMARK    2  A    between atoms: C3_3  and  N1_4 
REMARK    3  A    between atoms: N1_4  and  C4_6 
REMARK    4  A    between atoms: C5_9  and  C6_10 
ROOT
HETATM    1  C4  UNL     1      77.973   5.774  26.570  1.00  0.00     0.681 A 
HETATM    2  N2  UNL     1      78.159   5.734  27.893  1.00  0.00    -0.189 N 
ATOM      3  H2  UNL     1      77.346   5.632  28.501  1.00  0.00     0.184 HD
HETATM    4  C5  UNL     1      79.385   5.824  28.456  1.00  0.00     0.081 A 
HETATM    5  C11 UNL     1      80.463   5.960  27.617  1.00  0.00     0.107 A 
HETATM    6  C12 UNL     1      80.295   6.004  26.229  1.00  0.00     0.261 A 
HETATM    7  O1  UNL     1      81.275   6.129  25.454  1.00  0.00    -0.268 OA
HETATM    8  N4  UNL     1      79.040   5.908  25.774  1.00  0.00    -0.156 N 
ATOM      9  H4  UNL     1      78.888   5.937  24.766  1.00  0.00     0.187 HD
ENDROOT
BRANCH   4  10
HETATM   10  C6  UNL     1      79.576   5.779  29.898  1.00  0.00     0.059 A 
HETATM   11  C7  UNL     1      78.557   5.896  30.813  1.00  0.00     0.032 A 
HETATM   12  C8  UNL     1      78.757   5.852  32.189  1.00  0.00     0.004 A 
HETATM   13  C9  UNL     1      80.029   5.683  32.668  1.00  0.00     0.017 A 
HETATM   14  C10 UNL     1      81.049   5.567  31.747  1.00  0.00     0.088 A 
HETATM   15  N3  UNL     1      80.824   5.613  30.422  1.00  0.00    -0.364 N 
ATOM     16  H3  UNL     1      81.616   5.522  29.786  1.00  0.00     0.165 HD
ENDBRANCH   4  10
BRANCH   1  17
HETATM   17  N1  UNL     1      76.815   5.690  26.039  1.00  0.00    -0.223 N 
ATOM     18  H1  UNL     1      76.008   5.801  26.653  1.00  0.00     0.178 HD
BRANCH  17  19
HETATM   19  C3  UNL     1      76.560   5.450  24.642  1.00  0.00     0.164 C 
BRANCH  19  20
HETATM   20  C2  UNL     1      76.086   6.659  23.932  1.00  0.00    -0.017 C 
HETATM   21  C1  UNL     1      75.080   6.663  23.080  1.00  0.00     0.008 C 
ENDBRANCH  19  20
ENDBRANCH  17  19
ENDBRANCH   1  17
TORSDOF 4
ENDMDL
MODEL 5
REMARK VINA RESULT: -6.544779489      2.744      4.418
REMARK  4 active torsions:
REMARK  status: ('A' for Active; 'I' for Inactive)
REMARK    1  A    between atoms: C2_2  and  C3_3 
REMARK    2  A    between atoms: C3_3  and  N1_4 
REMARK    3  A    between atoms: N1_4  and  C4_6 
REMARK    4  A    between atoms: C5_9  and  C6_10 
ROOT
HETATM    1  C4  UNL     1      78.543   5.608  27.834  1.00  0.00     0.681 A 
HETATM    2  N2  UNL     1      78.836   5.344  29.112  1.00  0.00    -0.189 N 
ATOM      3  H2  UNL     1      78.833   4.374  29.426  1.00  0.00     0.184 HD
HETATM    4  C5  UNL     1      79.135   6.316  30.002  1.00  0.00     0.081 A 
HETATM    5  C11 UNL     1      79.132   7.614  29.554  1.00  0.00     0.107 A 
HETATM    6  C12 UNL     1      78.829   7.916  28.222  1.00  0.00     0.261 A 
HETATM    7  O1  UNL     1      78.824   9.100  27.804  1.00  0.00    -0.268 OA
HETATM    8  N4  UNL     1      78.547   6.880  27.422  1.00  0.00    -0.156 N 
ATOM      9  H4  UNL     1      78.322   7.071  26.446  1.00  0.00     0.187 HD
ENDROOT
BRANCH   4  10
HETATM   10  C6  UNL     1      79.452   6.018  31.391  1.00  0.00     0.059 A 
HETATM   11  C7  UNL     1      79.271   6.901  32.428  1.00  0.00     0.032 A 
HETATM   12  C8  UNL     1      79.580   6.600  33.751  1.00  0.00     0.004 A 
HETATM   13  C9  UNL     1      80.091   5.364  34.047  1.00  0.00     0.017 A 
HETATM   14  C10 UNL     1      80.273   4.481  33.003  1.00  0.00     0.088 A 
HETATM   15  N3  UNL     1      79.964   4.801  31.734  1.00  0.00    -0.364 N 
ATOM     16  H3  UNL     1      80.118   4.108  31.002  1.00  0.00     0.165 HD
ENDBRANCH   4  10
BRANCH   1  17
HETATM   17  N1  UNL     1      78.260   4.689  26.994  1.00  0.00    -0.223 N 
ATOM     18  H1  UNL     1      78.107   3.749  27.359  1.00  0.00     0.178 HD
BRANCH  17  19
HETATM   19  C3  UNL     1      78.141   4.876  25.570  1.00  0.00     0.164 C 
BRANCH  19  20
HETATM   20  C2  UNL     1      76.741   5.078  25.136  1.00  0.00    -0.017 C 
HETATM   21  C1  UNL     1      76.344   6.083  24.380  1.00  0.00     0.008 C 
ENDBRANCH  19  20
ENDBRANCH  17  19
ENDBRANCH   1  17
TORSDOF 4
ENDMDL
