MODEL 1
REMARK VINA RESULT: -7.456225065      0.000      0.000
REMARK  3 active torsions:
REMARK  status: ('A' for Active; 'I' for Inactive)
REMARK    1  A    between atoms: C5_5  and  C6_6 
REMARK    2  A    between atoms: C6_6  and  C7_7 
REMARK    3  A    between atoms: C7_7  and  N1_8 
ROOT
HETATM    1  C6  UNL     1      77.790   5.910  24.603  1.00  0.00     0.079 C 
ENDROOT
BRANCH   1   2
HETATM    2  C5  UNL     1      78.133   5.751  26.041  1.00  0.00     0.040 A 
HETATM    3  C4  UNL     1      78.467   6.781  26.927  1.00  0.00     0.016 A 
HETATM    4  C3  UNL     1      78.561   8.135  26.711  1.00  0.00     0.016 A 
HETATM    5  C12 UNL     1      78.719   6.239  28.171  1.00  0.00     0.060 A 
HETATM    6  C2  UNL     1      78.912   8.951  27.754  1.00  0.00     0.001 A 
HETATM    7  C1  UNL     1      79.160   8.395  28.991  1.00  0.00     0.002 A 
HETATM    8  C13 UNL     1      79.071   7.043  29.232  1.00  0.00     0.032 A 
HETATM    9  N5  UNL     1      78.540   4.914  28.035  1.00  0.00    -0.300 N 
HETATM   10  N4  UNL     1      78.196   4.632  26.782  1.00  0.00    -0.303 N 
ATOM     11  H5  UNL     1      78.651   4.228  28.782  1.00  0.00     0.187 HD
ATOM     12  H4  UNL     1      78.006   3.694  26.431  1.00  0.00     0.186 HD
ENDBRANCH   1   2
BRANCH   1  13
HETATM   13  C7  UNL     1      76.350   5.511  24.373  1.00  0.00     0.127 C 
BRANCH  13  14
HETATM   14  N1  UNL     1      75.540   6.589  23.906  1.00  0.00    -0.376 N 
HETATM   15  C8  UNL     1      74.840   6.465  22.832  1.00  0.00     0.102 A 
HETATM   16  C9  UNL     1      74.083   7.565  22.455  1.00  0.00     0.065 A 
HETATM   17  N3  UNL     1      74.798   5.366  22.075  1.00  0.00    -0.339 N 
HETATM   18  C10 UNL     1      73.310   7.502  21.316  1.00  0.00     0.092 A 
HETATM   19  N2  UNL     1      73.280   6.374  20.557  1.00  0.00    -0.362 N 
HETATM   20  C11 UNL     1      74.032   5.340  20.970  1.00  0.00     0.181 A 
ATOM     21  H2  UNL     1      72.712   6.315  19.712  1.00  0.00     0.165 HD
ATOM     22  H3  UNL     1      75.346   4.547  22.334  1.00  0.00     0.168 HD
ATOM     23  H1  UNL     1      75.515   7.465  24.427  1.00  0.00     0.161 HD
ENDBRANCH  13  14
ENDBRANCH   1  13
TORSDOF 3
ENDMDL
MODEL 2
REMARK VINA RESULT: -7.442232395      4.006      6.728
REMARK  3 active torsions:
REMARK  status: ('A' for Active; 'I' for Inactive)
REMARK    1  A    between atoms: C5_5  and  C6_6 
REMARK    2  A    between atoms: C6_6  and  C7_7 
REMARK    3  A    between atoms: C7_7  and  N1_8 
ROOT
HETATM    1  C6  UNL     1      78.251   5.783  31.261  1.00  0.00     0.079 C 
ENDROOT
BRANCH   1   2
HETATM    2  C5  UNL     1      79.135   5.249  32.330  1.00  0.00     0.040 A 
HETATM    3  C4  UNL     1      79.587   5.952  33.453  1.00  0.00     0.016 A 
HETATM    4  C3  UNL     1      79.346   7.249  33.838  1.00  0.00     0.016 A 
HETATM    5  C12 UNL     1      80.385   5.120  34.212  1.00  0.00     0.060 A 
HETATM    6  C2  UNL     1      79.911   7.713  34.996  1.00  0.00     0.001 A 
HETATM    7  C1  UNL     1      80.706   6.871  35.744  1.00  0.00     0.002 A 
HETATM    8  C13 UNL     1      80.961   5.569  35.379  1.00  0.00     0.032 A 
HETATM    9  N5  UNL     1      80.411   3.945  33.561  1.00  0.00    -0.300 N 
HETATM   10  N4  UNL     1      79.676   4.026  32.456  1.00  0.00    -0.303 N 
ATOM     11  H5  UNL     1      80.919   3.115  33.869  1.00  0.00     0.187 HD
ATOM     12  H4  UNL     1      79.540   3.262  31.794  1.00  0.00     0.186 HD
ENDBRANCH   1   2
BRANCH   1  13
HETATM   13  C7  UNL     1      79.074   6.124  30.040  1.00  0.00     0.127 C 
BRANCH  13  14
HETATM   14  N1  UNL     1      78.750   5.321  28.906  1.00  0.00    -0.376 N 
HETATM   15  C8  UNL     1      78.846   5.800  27.714  1.00  0.00     0.102 A 
HETATM   16  C9  UNL     1      78.511   4.946  26.674  1.00  0.00     0.065 A 
HETATM   17  N3  UNL     1      79.240   7.042  27.424  1.00  0.00    -0.339 N 
HETATM   18  C10 UNL     1      78.590   5.391  25.373  1.00  0.00     0.092 A 
HETATM   19  N2  UNL     1      78.994   6.661  25.097  1.00  0.00    -0.362 N 
HETATM   20  C11 UNL     1      79.306   7.444  26.142  1.00  0.00     0.181 A 
ATOM     21  H2  UNL     1      79.057   7.003  24.138  1.00  0.00     0.165 HD
ATOM     22  H3  UNL     1      79.491   7.686  28.174  1.00  0.00     0.168 HD
ATOM     23  H1  UNL     1      78.441   4.359  29.041  1.00  0.00     0.161 HD
ENDBRANCH  13  14
ENDBRANCH   1  13
TORSDOF 3
ENDMDL
MODEL 3
REMARK VINA RESULT: -7.147206391      4.135      6.786
REMARK  3 active torsions:
REMARK  status: ('A' for Active; 'I' for Inactive)
REMARK    1  A    between atoms: C5_5  and  C6_6 
REMARK    2  A    between atoms: C6_6  and  C7_7 
REMARK    3  A    between atoms: C7_7  and  N1_8 
ROOT
HETATM    1  C6  UNL     1      78.491   5.957  31.449  1.00  0.00     0.079 C 
ENDROOT
BRANCH   1   2
HETATM    2  C5  UNL     1      79.334   5.384  32.531  1.00  0.00     0.040 A 
HETATM    3  C4  UNL     1      79.751   6.048  33.690  1.00  0.00     0.016 A 
HETATM    4  C3  UNL     1      79.504   7.334  34.107  1.00  0.00     0.016 A 
HETATM    5  C12 UNL     1      80.516   5.188  34.450  1.00  0.00     0.060 A 
HETATM    6  C2  UNL     1      80.031   7.758  35.298  1.00  0.00     0.001 A 
HETATM    7  C1  UNL     1      80.794   6.888  36.047  1.00  0.00     0.002 A 
HETATM    8  C13 UNL     1      81.054   5.595  35.651  1.00  0.00     0.032 A 
HETATM    9  N5  UNL     1      80.558   4.033  33.765  1.00  0.00    -0.300 N 
HETATM   10  N4  UNL     1      79.862   4.153  32.638  1.00  0.00    -0.303 N 
ATOM     11  H5  UNL     1      81.050   3.190  34.064  1.00  0.00     0.187 HD
ATOM     12  H4  UNL     1      79.745   3.412  31.948  1.00  0.00     0.186 HD
ENDBRANCH   1   2
BRANCH   1  13
HETATM   13  C7  UNL     1      79.371   6.449  30.322  1.00  0.00     0.127 C 
BRANCH  13  14
HETATM   14  N1  UNL     1      78.634   7.066  29.268  1.00  0.00    -0.376 N 
HETATM   15  C8  UNL     1      78.401   6.431  28.171  1.00  0.00     0.102 A 
HETATM   16  C9  UNL     1      77.678   7.112  27.203  1.00  0.00     0.065 A 
HETATM   17  N3  UNL     1      78.805   5.185  27.914  1.00  0.00    -0.339 N 
HETATM   18  C10 UNL     1      77.392   6.494  26.005  1.00  0.00     0.092 A 
HETATM   19  N2  UNL     1      77.813   5.223  25.762  1.00  0.00    -0.362 N 
HETATM   20  C11 UNL     1      78.509   4.612  26.734  1.00  0.00     0.181 A 
ATOM     21  H2  UNL     1      77.608   4.754  24.879  1.00  0.00     0.165 HD
ATOM     22  H3  UNL     1      79.339   4.668  28.613  1.00  0.00     0.168 HD
ATOM     23  H1  UNL     1      78.288   8.018  29.384  1.00  0.00     0.161 HD
ENDBRANCH  13  14
ENDBRANCH   1  13
TORSDOF 3
ENDMDL
MODEL 4
REMARK VINA RESULT: -7.106124658      4.017      5.733
REMARK  3 active torsions:
REMARK  status: ('A' for Active; 'I' for Inactive)
REMARK    1  A    between atoms: C5_5  and  C6_6 
REMARK    2  A    between atoms: C6_6  and  C7_7 
REMARK    3  A    between atoms: C7_7  and  N1_8 
ROOT
HETATM    1  C6  UNL     1      78.151   6.788  29.778  1.00  0.00     0.079 C 
ENDROOT
BRANCH   1   2
HETATM    2  C5  UNL     1      79.430   6.237  30.298  1.00  0.00     0.040 A 
HETATM    3  C4  UNL     1      79.791   6.125  31.646  1.00  0.00     0.016 A 
HETATM    4  C3  UNL     1      79.096   6.478  32.778  1.00  0.00     0.016 A 
HETATM    5  C12 UNL     1      81.050   5.566  31.728  1.00  0.00     0.060 A 
HETATM    6  C2  UNL     1      79.673   6.267  34.002  1.00  0.00     0.001 A 
HETATM    7  C1  UNL     1      80.930   5.708  34.069  1.00  0.00     0.002 A 
HETATM    8  C13 UNL     1      81.645   5.345  32.950  1.00  0.00     0.032 A 
HETATM    9  N5  UNL     1      81.436   5.346  30.459  1.00  0.00    -0.300 N 
HETATM   10  N4  UNL     1      80.481   5.742  29.623  1.00  0.00    -0.303 N 
ATOM     11  H5  UNL     1      82.328   4.937  30.180  1.00  0.00     0.187 HD
ATOM     12  H4  UNL     1      80.538   5.678  28.607  1.00  0.00     0.186 HD
ENDBRANCH   1   2
BRANCH   1  13
HETATM   13  C7  UNL     1      78.299   7.127  28.313  1.00  0.00     0.127 C 
BRANCH  13  14
HETATM   14  N1  UNL     1      77.819   6.098  27.450  1.00  0.00    -0.376 N 
HETATM   15  C8  UNL     1      78.573   5.614  26.524  1.00  0.00     0.102 A 
HETATM   16  C9  UNL     1      78.022   4.616  25.734  1.00  0.00     0.065 A 
HETATM   17  N3  UNL     1      79.826   6.005  26.283  1.00  0.00    -0.339 N 
HETATM   18  C10 UNL     1      78.771   4.053  24.724  1.00  0.00     0.092 A 
HETATM   19  N2  UNL     1      80.047   4.466  24.493  1.00  0.00    -0.362 N 
HETATM   20  C11 UNL     1      80.529   5.434  25.289  1.00  0.00     0.181 A 
ATOM     21  H2  UNL     1      80.613   4.057  23.749  1.00  0.00     0.165 HD
ATOM     22  H3  UNL     1      80.250   6.738  26.852  1.00  0.00     0.168 HD
ATOM     23  H1  UNL     1      76.871   5.741  27.567  1.00  0.00     0.161 HD
ENDBRANCH  13  14
ENDBRANCH   1  13
TORSDOF 3
ENDMDL
MODEL 5
REMARK VINA RESULT: -7.105926955      3.127      4.796
REMARK  3 active torsions:
REMARK  status: ('A' for Active; 'I' for Inactive)
REMARK    1  A    between atoms: C5_5  and  C6_6 
REMARK    2  A    between atoms: C6_6  and  C7_7 
REMARK    3  A    between atoms: C7_7  and  N1_8 
ROOT
HETATM    1  C6  UNL     1      79.173   8.579  28.526  1.00  0.00     0.079 C 
ENDROOT
BRANCH   1   2
HETATM    2  C5  UNL     1      78.646   7.507  29.411  1.00  0.00     0.040 A 
HETATM    3  C4  UNL     1      79.352   6.860  30.431  1.00  0.00     0.016 A 
HETATM    4  C3  UNL     1      80.647   7.037  30.858  1.00  0.00     0.016 A 
HETATM    5  C12 UNL     1      78.527   5.928  31.026  1.00  0.00     0.060 A 
HETATM    6  C2  UNL     1      81.115   6.270  31.892  1.00  0.00     0.001 A 
HETATM    7  C1  UNL     1      80.279   5.343  32.477  1.00  0.00     0.002 A 
HETATM    8  C13 UNL     1      78.980   5.148  32.068  1.00  0.00     0.032 A 
HETATM    9  N5  UNL     1      77.352   6.013  30.379  1.00  0.00    -0.300 N 
HETATM   10  N4  UNL     1      77.428   6.941  29.431  1.00  0.00    -0.303 N 
ATOM     11  H5  UNL     1      76.527   5.449  30.584  1.00  0.00     0.187 HD
ATOM     12  H4  UNL     1      76.664   7.191  28.803  1.00  0.00     0.186 HD
ENDBRANCH   1   2
BRANCH   1  13
HETATM   13  C7  UNL     1      78.659   8.380  27.119  1.00  0.00     0.127 C 
BRANCH  13  14
HETATM   14  N1  UNL     1      79.341   7.343  26.417  1.00  0.00    -0.376 N 
HETATM   15  C8  UNL     1      78.685   6.371  25.883  1.00  0.00     0.102 A 
HETATM   16  C9  UNL     1      79.433   5.409  25.220  1.00  0.00     0.065 A 
HETATM   17  N3  UNL     1      77.358   6.236  25.926  1.00  0.00    -0.339 N 
HETATM   18  C10 UNL     1      78.797   4.341  24.626  1.00  0.00     0.092 A 
HETATM   19  N2  UNL     1      77.443   4.220  24.681  1.00  0.00    -0.362 N 
HETATM   20  C11 UNL     1      76.770   5.181  25.335  1.00  0.00     0.181 A 
ATOM     21  H2  UNL     1      76.960   3.434  24.245  1.00  0.00     0.165 HD
ATOM     22  H3  UNL     1      76.790   6.932  26.408  1.00  0.00     0.168 HD
ATOM     23  H1  UNL     1      80.357   7.371  26.337  1.00  0.00     0.161 HD
ENDBRANCH  13  14
ENDBRANCH   1  13
TORSDOF 3
ENDMDL
