MODEL 1
REMARK VINA RESULT: -5.515703974      0.000      0.000
REMARK  2 active torsions:
REMARK  status: ('A' for Active; 'I' for Inactive)
REMARK    1  A    between atoms: N1_2  and  C2_4 
REMARK    2  A    between atoms: C3_7  and  C4_8 
ROOT
HETATM    1  C2  UNL     1      24.929   5.878  14.392  1.00  0.00     0.144 A 
HETATM    2  N2  UNL     1      24.791   5.422  15.630  1.00  0.00    -0.336 N 
ATOM      3  H2  UNL     1      24.496   4.459  15.800  1.00  0.00     0.168 HD
HETATM    4  C3  UNL     1      25.039   6.225  16.624  1.00  0.00     0.052 A 
HETATM    5  C9  UNL     1      25.432   7.509  16.327  1.00  0.00     0.083 A 
HETATM    6  S1  UNL     1      25.423   7.484  14.607  1.00  0.00    -0.064 SA
ENDROOT
BRANCH   4   7
HETATM    7  C4  UNL     1      24.915   5.820  18.059  1.00  0.00     0.006 A 
HETATM    8  C5  UNL     1      23.696   5.713  18.685  1.00  0.00     0.016 A 
HETATM    9  C6  UNL     1      23.597   5.340  20.001  1.00  0.00     0.018 A 
HETATM   10  C7  UNL     1      24.744   5.069  20.699  1.00  0.00     0.087 A 
HETATM   11  N3  UNL     1      25.944   5.166  20.113  1.00  0.00    -0.374 N 
HETATM   12  C8  UNL     1      26.018   5.532  18.824  1.00  0.00     0.101 A 
ATOM     13  H3  UNL     1      26.793   4.962  20.640  1.00  0.00     0.164 HD
ENDBRANCH   4   7
BRANCH   1  14
HETATM   14  N1  UNL     1      24.729   5.233  13.295  1.00  0.00    -0.375 N 
HETATM   15  C1  UNL     1      24.262   5.874  12.090  1.00  0.00     0.148 C 
ATOM     16  H1  UNL     1      24.909   4.229  13.278  1.00  0.00     0.161 HD
ENDBRANCH   1  14
TORSDOF 2
ENDMDL
MODEL 2
REMARK VINA RESULT: -5.515568817      4.195      5.750
REMARK  2 active torsions:
REMARK  status: ('A' for Active; 'I' for Inactive)
REMARK    1  A    between atoms: N1_2  and  C2_4 
REMARK    2  A    between atoms: C3_7  and  C4_8 
ROOT
HETATM    1  C2  UNL     1      20.780   6.477  20.784  1.00  0.00     0.144 A 
HETATM    2  N2  UNL     1      22.089   6.291  20.887  1.00  0.00    -0.336 N 
ATOM      3  H2  UNL     1      22.496   5.915  21.744  1.00  0.00     0.168 HD
HETATM    4  C3  UNL     1      22.846   6.599  19.872  1.00  0.00     0.052 A 
HETATM    5  C9  UNL     1      22.235   7.101  18.747  1.00  0.00     0.083 A 
HETATM    6  S1  UNL     1      20.582   7.100  19.221  1.00  0.00    -0.064 SA
ENDROOT
BRANCH   4   7
HETATM    7  C4  UNL     1      24.332   6.434  19.876  1.00  0.00     0.006 A 
HETATM    8  C5  UNL     1      25.180   7.436  19.466  1.00  0.00     0.016 A 
HETATM    9  C6  UNL     1      26.541   7.271  19.475  1.00  0.00     0.018 A 
HETATM   10  C7  UNL     1      27.060   6.078  19.905  1.00  0.00     0.087 A 
HETATM   11  N3  UNL     1      26.256   5.087  20.310  1.00  0.00    -0.374 N 
HETATM   12  C8  UNL     1      24.927   5.268  20.293  1.00  0.00     0.101 A 
ATOM     13  H3  UNL     1      26.651   4.202  20.629  1.00  0.00     0.164 HD
ENDBRANCH   4   7
BRANCH   1  14
HETATM   14  N1  UNL     1      19.883   6.232  21.677  1.00  0.00    -0.375 N 
HETATM   15  C1  UNL     1      18.968   7.238  22.156  1.00  0.00     0.148 C 
ATOM     16  H1  UNL     1      19.820   5.288  22.060  1.00  0.00     0.161 HD
ENDBRANCH   1  14
TORSDOF 2
ENDMDL
MODEL 3
REMARK VINA RESULT: -5.501018789      2.339      5.676
REMARK  2 active torsions:
REMARK  status: ('A' for Active; 'I' for Inactive)
REMARK    1  A    between atoms: N1_2  and  C2_4 
REMARK    2  A    between atoms: C3_7  and  C4_8 
ROOT
HETATM    1  C2  UNL     1      26.610   6.046  19.911  1.00  0.00     0.144 A 
HETATM    2  N2  UNL     1      26.541   6.469  18.655  1.00  0.00    -0.336 N 
ATOM      3  H2  UNL     1      27.331   6.949  18.224  1.00  0.00     0.168 HD
HETATM    4  C3  UNL     1      25.445   6.259  17.984  1.00  0.00     0.052 A 
HETATM    5  C9  UNL     1      24.417   5.606  18.624  1.00  0.00     0.083 A 
HETATM    6  S1  UNL     1      25.099   5.328  20.178  1.00  0.00    -0.064 SA
ENDROOT
BRANCH   4   7
HETATM    7  C4  UNL     1      25.254   6.692  16.565  1.00  0.00     0.006 A 
HETATM    8  C5  UNL     1      26.017   7.685  15.996  1.00  0.00     0.016 A 
HETATM    9  C6  UNL     1      25.832   8.072  14.693  1.00  0.00     0.018 A 
HETATM   10  C7  UNL     1      24.864   7.449  13.949  1.00  0.00     0.087 A 
HETATM   11  N3  UNL     1      24.110   6.479  14.480  1.00  0.00    -0.374 N 
HETATM   12  C8  UNL     1      24.306   6.116  15.756  1.00  0.00     0.101 A 
ATOM     13  H3  UNL     1      23.392   6.021  13.918  1.00  0.00     0.164 HD
ENDBRANCH   4   7
BRANCH   1  14
HETATM   14  N1  UNL     1      27.604   6.164  20.721  1.00  0.00    -0.375 N 
HETATM   15  C1  UNL     1      28.118   7.444  21.141  1.00  0.00     0.148 C 
ATOM     16  H1  UNL     1      28.046   5.317  21.080  1.00  0.00     0.161 HD
ENDBRANCH   1  14
TORSDOF 2
ENDMDL
MODEL 4
REMARK VINA RESULT: -5.383863092      3.983      5.653
REMARK  2 active torsions:
REMARK  status: ('A' for Active; 'I' for Inactive)
REMARK    1  A    between atoms: N1_2  and  C2_4 
REMARK    2  A    between atoms: C3_7  and  C4_8 
ROOT
HETATM    1  C2  UNL     1      24.545   5.489  20.172  1.00  0.00     0.144 A 
HETATM    2  N2  UNL     1      25.540   5.984  20.897  1.00  0.00    -0.336 N 
ATOM      3  H2  UNL     1      25.458   6.058  21.911  1.00  0.00     0.168 HD
HETATM    4  C3  UNL     1      26.624   6.375  20.288  1.00  0.00     0.052 A 
HETATM    5  C9  UNL     1      26.670   6.248  18.920  1.00  0.00     0.083 A 
HETATM    6  S1  UNL     1      25.128   5.564  18.583  1.00  0.00    -0.064 SA
ENDROOT
BRANCH   4   7
HETATM    7  C4  UNL     1      27.805   6.949  21.002  1.00  0.00     0.006 A 
HETATM    8  C5  UNL     1      28.643   6.173  21.769  1.00  0.00     0.016 A 
HETATM    9  C6  UNL     1      29.724   6.712  22.418  1.00  0.00     0.018 A 
HETATM   10  C7  UNL     1      29.968   8.055  22.294  1.00  0.00     0.087 A 
HETATM   11  N3  UNL     1      29.168   8.832  21.552  1.00  0.00    -0.374 N 
HETATM   12  C8  UNL     1      28.116   8.284  20.926  1.00  0.00     0.101 A 
ATOM     13  H3  UNL     1      29.357   9.830  21.465  1.00  0.00     0.164 HD
ENDBRANCH   4   7
BRANCH   1  14
HETATM   14  N1  UNL     1      23.409   5.057  20.597  1.00  0.00    -0.375 N 
HETATM   15  C1  UNL     1      22.182   5.797  20.429  1.00  0.00     0.148 C 
ATOM     16  H1  UNL     1      23.375   4.155  21.073  1.00  0.00     0.161 HD
ENDBRANCH   1  14
TORSDOF 2
ENDMDL
MODEL 5
REMARK VINA RESULT: -5.371345326      1.450      1.845
REMARK  2 active torsions:
REMARK  status: ('A' for Active; 'I' for Inactive)
REMARK    1  A    between atoms: N1_2  and  C2_4 
REMARK    2  A    between atoms: C3_7  and  C4_8 
ROOT
HETATM    1  C2  UNL     1      24.023   5.651  14.790  1.00  0.00     0.144 A 
HETATM    2  N2  UNL     1      24.826   5.598  15.844  1.00  0.00    -0.336 N 
ATOM      3  H2  UNL     1      25.658   5.007  15.835  1.00  0.00     0.168 HD
HETATM    4  C3  UNL     1      24.532   6.315  16.891  1.00  0.00     0.052 A 
HETATM    5  C9  UNL     1      23.397   7.090  16.838  1.00  0.00     0.083 A 
HETATM    6  S1  UNL     1      22.811   6.737  15.260  1.00  0.00    -0.064 SA
ENDROOT
BRANCH   4   7
HETATM    7  C4  UNL     1      25.363   6.333  18.134  1.00  0.00     0.006 A 
HETATM    8  C5  UNL     1      25.952   7.484  18.603  1.00  0.00     0.016 A 
HETATM    9  C6  UNL     1      26.712   7.486  19.745  1.00  0.00     0.018 A 
HETATM   10  C7  UNL     1      26.880   6.310  20.429  1.00  0.00     0.087 A 
HETATM   11  N3  UNL     1      26.316   5.177  19.994  1.00  0.00    -0.374 N 
HETATM   12  C8  UNL     1      25.577   5.196  18.875  1.00  0.00     0.101 A 
ATOM     13  H3  UNL     1      26.447   4.306  20.510  1.00  0.00     0.164 HD
ENDBRANCH   4   7
BRANCH   1  14
HETATM   14  N1  UNL     1      24.153   5.017  13.676  1.00  0.00    -0.375 N 
HETATM   15  C1  UNL     1      24.452   5.683  12.432  1.00  0.00     0.148 C 
ATOM     16  H1  UNL     1      24.041   4.003  13.674  1.00  0.00     0.161 HD
ENDBRANCH   1  14
TORSDOF 2
ENDMDL
