MODEL 1
REMARK VINA RESULT: -6.533500199      0.000      0.000
REMARK  2 active torsions:
REMARK  status: ('A' for Active; 'I' for Inactive)
REMARK    1  A    between atoms: C2_3  and  C3_4 
REMARK    2  A    between atoms: N2_12  and  O1_13 
ROOT
HETATM    1  N1  UNL     1      28.557   8.062  21.123  1.00  0.00    -0.197 NA
HETATM    2  C1  UNL     1      27.487   7.659  21.006  1.00  0.00     0.063 C 
HETATM    3  C2  UNL     1      26.148   7.144  20.883  1.00  0.00     0.165 C 
ENDROOT
BRANCH   3   4
HETATM    4  C3  UNL     1      25.709   7.081  19.465  1.00  0.00    -0.001 A 
HETATM    5  C4  UNL     1      25.559   8.194  18.666  1.00  0.00     0.025 A 
HETATM    6  C5  UNL     1      25.144   8.031  17.357  1.00  0.00    -0.006 A 
HETATM    7  C6  UNL     1      24.990   9.135  16.545  1.00  0.00     0.014 A 
HETATM    8  C10 UNL     1      24.870   6.795  16.809  1.00  0.00     0.074 A 
HETATM    9  C7  UNL     1      24.576   8.987  15.237  1.00  0.00     0.001 A 
HETATM   10  C8  UNL     1      24.300   7.756  14.681  1.00  0.00     0.002 A 
HETATM   11  C9  UNL     1      24.453   6.649  15.490  1.00  0.00     0.033 A 
HETATM   12  N2  UNL     1      25.025   5.723  17.615  1.00  0.00    -0.210 N 
HETATM   13  C11 UNL     1      25.428   5.855  18.892  1.00  0.00     0.151 A 
HETATM   14  N3  UNL     1      25.572   4.695  19.688  1.00  0.00    -0.080 NA
BRANCH  12  15
HETATM   15  O1  UNL     1      24.745   4.492  17.049  1.00  0.00    -0.281 OA
ATOM     16  H1  UNL     1      25.466   3.876  17.014  1.00  0.00     0.245 HD
ENDBRANCH  12  15
ENDBRANCH   3   4
TORSDOF 2
ENDMDL
MODEL 2
REMARK VINA RESULT: -6.415698508      1.736      1.789
REMARK  2 active torsions:
REMARK  status: ('A' for Active; 'I' for Inactive)
REMARK    1  A    between atoms: C2_3  and  C3_4 
REMARK    2  A    between atoms: N2_12  and  O1_13 
ROOT
HETATM    1  N1  UNL     1      26.669   7.200  22.758  1.00  0.00    -0.197 NA
HETATM    2  C1  UNL     1      26.914   7.370  21.647  1.00  0.00     0.063 C 
HETATM    3  C2  UNL     1      27.238   7.599  20.263  1.00  0.00     0.165 C 
ENDROOT
BRANCH   3   4
HETATM    4  C3  UNL     1      26.091   7.297  19.369  1.00  0.00    -0.001 A 
HETATM    5  C4  UNL     1      25.071   8.190  19.115  1.00  0.00     0.025 A 
HETATM    6  C5  UNL     1      24.046   7.813  18.267  1.00  0.00    -0.006 A 
HETATM    7  C6  UNL     1      23.019   8.696  18.001  1.00  0.00     0.014 A 
HETATM    8  C10 UNL     1      23.995   6.576  17.659  1.00  0.00     0.074 A 
HETATM    9  C7  UNL     1      21.989   8.333  17.157  1.00  0.00     0.001 A 
HETATM   10  C8  UNL     1      21.929   7.099  16.546  1.00  0.00     0.002 A 
HETATM   11  C9  UNL     1      22.955   6.214  16.809  1.00  0.00     0.033 A 
HETATM   12  N2  UNL     1      25.006   5.723  17.928  1.00  0.00    -0.210 N 
HETATM   13  C11 UNL     1      26.015   6.065  18.749  1.00  0.00     0.151 A 
HETATM   14  N3  UNL     1      27.047   5.128  18.992  1.00  0.00    -0.080 NA
BRANCH  12  15
HETATM   15  O1  UNL     1      24.937   4.487  17.311  1.00  0.00    -0.281 OA
ATOM     16  H1  UNL     1      24.069   4.112  17.222  1.00  0.00     0.245 HD
ENDBRANCH  12  15
ENDBRANCH   3   4
TORSDOF 2
ENDMDL
MODEL 3
REMARK VINA RESULT: -6.371698942      1.866      2.013
REMARK  2 active torsions:
REMARK  status: ('A' for Active; 'I' for Inactive)
REMARK    1  A    between atoms: C2_3  and  C3_4 
REMARK    2  A    between atoms: N2_12  and  O1_13 
ROOT
HETATM    1  N1  UNL     1      28.725   8.193  21.401  1.00  0.00    -0.197 NA
HETATM    2  C1  UNL     1      28.113   7.367  20.885  1.00  0.00     0.063 C 
HETATM    3  C2  UNL     1      27.367   6.320  20.238  1.00  0.00     0.165 C 
ENDROOT
BRANCH   3   4
HETATM    4  C3  UNL     1      26.139   6.839  19.583  1.00  0.00    -0.001 A 
HETATM    5  C4  UNL     1      26.157   7.761  18.558  1.00  0.00     0.025 A 
HETATM    6  C5  UNL     1      24.957   8.182  18.014  1.00  0.00    -0.006 A 
HETATM    7  C6  UNL     1      24.958   9.104  16.987  1.00  0.00     0.014 A 
HETATM    8  C10 UNL     1      23.734   7.719  18.453  1.00  0.00     0.074 A 
HETATM    9  C7  UNL     1      23.769   9.533  16.435  1.00  0.00     0.001 A 
HETATM   10  C8  UNL     1      22.542   9.077  16.867  1.00  0.00     0.002 A 
HETATM   11  C9  UNL     1      22.537   8.155  17.893  1.00  0.00     0.033 A 
HETATM   12  N2  UNL     1      23.748   6.818  19.458  1.00  0.00    -0.210 N 
HETATM   13  C11 UNL     1      24.901   6.392  20.004  1.00  0.00     0.151 A 
HETATM   14  N3  UNL     1      24.852   5.446  21.055  1.00  0.00    -0.080 NA
BRANCH  12  15
HETATM   15  O1  UNL     1      22.512   6.366  19.885  1.00  0.00    -0.281 OA
ATOM     16  H1  UNL     1      22.153   6.797  20.651  1.00  0.00     0.245 HD
ENDBRANCH  12  15
ENDBRANCH   3   4
TORSDOF 2
ENDMDL
MODEL 4
REMARK VINA RESULT: -6.331157040      2.985      4.467
REMARK  2 active torsions:
REMARK  status: ('A' for Active; 'I' for Inactive)
REMARK    1  A    between atoms: C2_3  and  C3_4 
REMARK    2  A    between atoms: N2_12  and  O1_13 
ROOT
HETATM    1  N1  UNL     1      23.728   8.180  18.852  1.00  0.00    -0.197 NA
HETATM    2  C1  UNL     1      24.172   8.457  17.828  1.00  0.00     0.063 C 
HETATM    3  C2  UNL     1      24.728   8.828  16.553  1.00  0.00     0.165 C 
ENDROOT
BRANCH   3   4
HETATM    4  C3  UNL     1      24.495   7.782  15.523  1.00  0.00    -0.001 A 
HETATM    5  C4  UNL     1      23.246   7.467  15.030  1.00  0.00     0.025 A 
HETATM    6  C5  UNL     1      23.133   6.477  14.072  1.00  0.00    -0.006 A 
HETATM    7  C6  UNL     1      21.891   6.151  13.568  1.00  0.00     0.014 A 
HETATM    8  C10 UNL     1      24.221   5.784  13.581  1.00  0.00     0.074 A 
HETATM    9  C7  UNL     1      21.764   5.164  12.611  1.00  0.00     0.001 A 
HETATM   10  C8  UNL     1      22.844   4.466  12.116  1.00  0.00     0.002 A 
HETATM   11  C9  UNL     1      24.088   4.791  12.617  1.00  0.00     0.033 A 
HETATM   12  N2  UNL     1      25.430   6.114  14.083  1.00  0.00    -0.210 N 
HETATM   13  C11 UNL     1      25.567   7.074  15.016  1.00  0.00     0.151 A 
HETATM   14  N3  UNL     1      26.860   7.375  15.503  1.00  0.00    -0.080 NA
BRANCH  12  15
HETATM   15  O1  UNL     1      26.508   5.408  13.580  1.00  0.00    -0.281 OA
ATOM     16  H1  UNL     1      27.297   5.912  13.418  1.00  0.00     0.245 HD
ENDBRANCH  12  15
ENDBRANCH   3   4
TORSDOF 2
ENDMDL
MODEL 5
REMARK VINA RESULT: -6.223346138      2.079      2.281
REMARK  2 active torsions:
REMARK  status: ('A' for Active; 'I' for Inactive)
REMARK    1  A    between atoms: C2_3  and  C3_4 
REMARK    2  A    between atoms: N2_12  and  O1_13 
ROOT
HETATM    1  N1  UNL     1      28.157   6.249  20.711  1.00  0.00    -0.197 NA
HETATM    2  C1  UNL     1      27.122   5.916  20.337  1.00  0.00     0.063 C 
HETATM    3  C2  UNL     1      25.831   5.476  19.877  1.00  0.00     0.165 C 
ENDROOT
BRANCH   3   4
HETATM    4  C3  UNL     1      25.264   6.398  18.859  1.00  0.00    -0.001 A 
HETATM    5  C4  UNL     1      25.858   6.640  17.638  1.00  0.00     0.025 A 
HETATM    6  C5  UNL     1      25.250   7.516  16.758  1.00  0.00    -0.006 A 
HETATM    7  C6  UNL     1      25.832   7.768  15.533  1.00  0.00     0.014 A 
HETATM    8  C10 UNL     1      24.068   8.165  17.047  1.00  0.00     0.074 A 
HETATM    9  C7  UNL     1      25.237   8.641  14.645  1.00  0.00     0.001 A 
HETATM   10  C8  UNL     1      24.056   9.294  14.925  1.00  0.00     0.002 A 
HETATM   11  C9  UNL     1      23.471   9.044  16.149  1.00  0.00     0.033 A 
HETATM   12  N2  UNL     1      23.510   7.909  18.249  1.00  0.00    -0.210 N 
HETATM   13  C11 UNL     1      24.081   7.060  19.123  1.00  0.00     0.151 A 
HETATM   14  N3  UNL     1      23.449   6.832  20.368  1.00  0.00    -0.080 NA
BRANCH  12  15
HETATM   15  O1  UNL     1      22.325   8.570  18.521  1.00  0.00    -0.281 OA
ATOM     16  H1  UNL     1      21.749   8.150  19.149  1.00  0.00     0.245 HD
ENDBRANCH  12  15
ENDBRANCH   3   4
TORSDOF 2
ENDMDL
