MODEL 1
REMARK VINA RESULT: -6.080499813      0.000      0.000
REMARK  3 active torsions:
REMARK  status: ('A' for Active; 'I' for Inactive)
REMARK    1  A    between atoms: O1_1  and  C1_3 
REMARK    2  A    between atoms: C3_6  and  N1_7 
REMARK    3  A    between atoms: N1_7  and  C4_9 
ROOT
HETATM    1  C1  UNL     1      24.227   5.640  16.884  1.00  0.00     0.148 A 
HETATM    2  C2  UNL     1      23.463   6.769  16.781  1.00  0.00     0.109 A 
HETATM    3  S1  UNL     1      23.591   7.130  15.118  1.00  0.00    -0.061 SA
HETATM    4  C3  UNL     1      24.598   5.834  14.660  1.00  0.00     0.151 A 
HETATM    5  N2  UNL     1      24.793   5.180  15.808  1.00  0.00    -0.317 N 
ATOM      6  H2  UNL     1      25.371   4.340  15.839  1.00  0.00     0.170 HD
ENDROOT
BRANCH   4   7
HETATM    7  N1  UNL     1      25.084   5.522  13.478  1.00  0.00    -0.337 N 
ATOM      8  H1  UNL     1      26.090   5.424  13.343  1.00  0.00     0.168 HD
BRANCH   7   9
HETATM    9  C4  UNL     1      24.190   5.324  12.391  1.00  0.00     0.034 A 
HETATM   10  C5  UNL     1      24.093   6.176  11.332  1.00  0.00     0.029 A 
HETATM   11  C6  UNL     1      23.204   5.927  10.307  1.00  0.00     0.002 A 
HETATM   12  C7  UNL     1      22.377   4.807  10.313  1.00  0.00     0.000 A 
HETATM   13  C8  UNL     1      22.476   3.938  11.393  1.00  0.00     0.002 A 
HETATM   14  C9  UNL     1      23.373   4.213  12.401  1.00  0.00     0.029 A 
ENDBRANCH   7   9
ENDBRANCH   4   7
BRANCH   1  15
HETATM   15  O1  UNL     1      24.374   5.015  18.154  1.00  0.00    -0.346 OA
ATOM     16  H1  UNL     1      25.226   5.016  18.576  1.00  0.00     0.219 HD
ENDBRANCH   1  15
TORSDOF 3
ENDMDL
MODEL 2
REMARK VINA RESULT: -6.076725933      0.122      1.317
REMARK  3 active torsions:
REMARK  status: ('A' for Active; 'I' for Inactive)
REMARK    1  A    between atoms: O1_1  and  C1_3 
REMARK    2  A    between atoms: C3_6  and  N1_7 
REMARK    3  A    between atoms: N1_7  and  C4_9 
ROOT
HETATM    1  C1  UNL     1      24.284   5.684  16.859  1.00  0.00     0.148 A 
HETATM    2  C2  UNL     1      23.643   6.889  16.783  1.00  0.00     0.109 A 
HETATM    3  S1  UNL     1      23.806   7.271  15.128  1.00  0.00    -0.061 SA
HETATM    4  C3  UNL     1      24.671   5.886  14.638  1.00  0.00     0.151 A 
HETATM    5  N2  UNL     1      24.797   5.190  15.771  1.00  0.00    -0.317 N 
ATOM      6  H2  UNL     1      25.283   4.293  15.782  1.00  0.00     0.170 HD
ENDROOT
BRANCH   4   7
HETATM    7  N1  UNL     1      25.119   5.551  13.448  1.00  0.00    -0.337 N 
ATOM      8  H1  UNL     1      26.121   5.467  13.278  1.00  0.00     0.168 HD
BRANCH   7   9
HETATM    9  C4  UNL     1      24.190   5.306  12.400  1.00  0.00     0.034 A 
HETATM   10  C5  UNL     1      23.358   4.227  12.370  1.00  0.00     0.029 A 
HETATM   11  C6  UNL     1      22.478   4.046  11.324  1.00  0.00     0.002 A 
HETATM   12  C7  UNL     1      22.405   4.948  10.265  1.00  0.00     0.000 A 
HETATM   13  C8  UNL     1      23.255   6.047  10.295  1.00  0.00     0.002 A 
HETATM   14  C9  UNL     1      24.122   6.201  11.354  1.00  0.00     0.029 A 
ENDBRANCH   7   9
ENDBRANCH   4   7
BRANCH   1  15
HETATM   15  O1  UNL     1      24.366   5.019  18.114  1.00  0.00    -0.346 OA
ATOM     16  H1  UNL     1      23.849   4.234  18.259  1.00  0.00     0.219 HD
ENDBRANCH   1  15
TORSDOF 3
ENDMDL
MODEL 3
REMARK VINA RESULT: -5.810500603      3.193      4.324
REMARK  3 active torsions:
REMARK  status: ('A' for Active; 'I' for Inactive)
REMARK    1  A    between atoms: O1_1  and  C1_3 
REMARK    2  A    between atoms: C3_6  and  N1_7 
REMARK    3  A    between atoms: N1_7  and  C4_9 
ROOT
HETATM    1  C1  UNL     1      26.320   5.494  19.683  1.00  0.00     0.148 A 
HETATM    2  C2  UNL     1      25.225   5.599  20.494  1.00  0.00     0.109 A 
HETATM    3  S1  UNL     1      23.946   5.571  19.365  1.00  0.00    -0.061 SA
HETATM    4  C3  UNL     1      24.873   5.427  17.942  1.00  0.00     0.151 A 
HETATM    5  N2  UNL     1      26.129   5.408  18.399  1.00  0.00    -0.317 N 
ATOM      6  H2  UNL     1      26.917   5.327  17.757  1.00  0.00     0.170 HD
ENDROOT
BRANCH   4   7
HETATM    7  N1  UNL     1      24.486   5.351  16.688  1.00  0.00    -0.337 N 
ATOM      8  H1  UNL     1      24.109   4.479  16.316  1.00  0.00     0.168 HD
BRANCH   7   9
HETATM    9  C4  UNL     1      24.597   6.498  15.856  1.00  0.00     0.034 A 
HETATM   10  C5  UNL     1      24.682   7.770  16.338  1.00  0.00     0.029 A 
HETATM   11  C6  UNL     1      24.788   8.843  15.477  1.00  0.00     0.002 A 
HETATM   12  C7  UNL     1      24.814   8.671  14.095  1.00  0.00     0.000 A 
HETATM   13  C8  UNL     1      24.726   7.374  13.604  1.00  0.00     0.002 A 
HETATM   14  C9  UNL     1      24.622   6.323  14.489  1.00  0.00     0.029 A 
ENDBRANCH   7   9
ENDBRANCH   4   7
BRANCH   1  15
HETATM   15  O1  UNL     1      27.618   5.482  20.265  1.00  0.00    -0.346 OA
ATOM     16  H1  UNL     1      28.159   4.705  20.179  1.00  0.00     0.219 HD
ENDBRANCH   1  15
TORSDOF 3
ENDMDL
MODEL 4
REMARK VINA RESULT: -5.781360503      3.872      4.377
REMARK  3 active torsions:
REMARK  status: ('A' for Active; 'I' for Inactive)
REMARK    1  A    between atoms: O1_1  and  C1_3 
REMARK    2  A    between atoms: C3_6  and  N1_7 
REMARK    3  A    between atoms: N1_7  and  C4_9 
ROOT
HETATM    1  C1  UNL     1      26.280   5.468  19.622  1.00  0.00     0.148 A 
HETATM    2  C2  UNL     1      25.165   5.553  20.408  1.00  0.00     0.109 A 
HETATM    3  S1  UNL     1      23.916   5.578  19.246  1.00  0.00    -0.061 SA
HETATM    4  C3  UNL     1      24.879   5.479  17.844  1.00  0.00     0.151 A 
HETATM    5  N2  UNL     1      26.122   5.431  18.331  1.00  0.00    -0.317 N 
ATOM      6  H2  UNL     1      26.926   5.367  17.707  1.00  0.00     0.170 HD
ENDROOT
BRANCH   4   7
HETATM    7  N1  UNL     1      24.524   5.453  16.577  1.00  0.00    -0.337 N 
ATOM      8  H1  UNL     1      24.227   4.579  16.143  1.00  0.00     0.168 HD
BRANCH   7   9
HETATM    9  C4  UNL     1      24.559   6.657  15.822  1.00  0.00     0.034 A 
HETATM   10  C5  UNL     1      25.643   7.062  15.104  1.00  0.00     0.029 A 
HETATM   11  C6  UNL     1      25.613   8.243  14.391  1.00  0.00     0.002 A 
HETATM   12  C7  UNL     1      24.486   9.061  14.377  1.00  0.00     0.000 A 
HETATM   13  C8  UNL     1      23.381   8.647  15.111  1.00  0.00     0.002 A 
HETATM   14  C9  UNL     1      23.440   7.463  15.812  1.00  0.00     0.029 A 
ENDBRANCH   7   9
ENDBRANCH   4   7
BRANCH   1  15
HETATM   15  O1  UNL     1      27.563   5.422  20.237  1.00  0.00    -0.346 OA
ATOM     16  H1  UNL     1      28.222   4.830  19.893  1.00  0.00     0.219 HD
ENDBRANCH   1  15
TORSDOF 3
ENDMDL
MODEL 5
REMARK VINA RESULT: -5.750462834      1.817      2.355
REMARK  3 active torsions:
REMARK  status: ('A' for Active; 'I' for Inactive)
REMARK    1  A    between atoms: O1_1  and  C1_3 
REMARK    2  A    between atoms: C3_6  and  N1_7 
REMARK    3  A    between atoms: N1_7  and  C4_9 
ROOT
HETATM    1  C1  UNL     1      25.977   6.673  14.787  1.00  0.00     0.148 A 
HETATM    2  C2  UNL     1      24.955   7.440  15.273  1.00  0.00     0.109 A 
HETATM    3  S1  UNL     1      23.588   6.671  14.599  1.00  0.00    -0.061 SA
HETATM    4  C3  UNL     1      24.393   5.433  13.749  1.00  0.00     0.151 A 
HETATM    5  N2  UNL     1      25.680   5.665  14.020  1.00  0.00    -0.317 N 
ATOM      6  H2  UNL     1      26.411   5.067  13.636  1.00  0.00     0.170 HD
ENDROOT
BRANCH   4   7
HETATM    7  N1  UNL     1      23.903   4.469  13.000  1.00  0.00    -0.337 N 
ATOM      8  H1  UNL     1      23.918   3.503  13.327  1.00  0.00     0.168 HD
BRANCH   7   9
HETATM    9  C4  UNL     1      23.351   4.789  11.730  1.00  0.00     0.034 A 
HETATM   10  C5  UNL     1      22.353   4.072  11.142  1.00  0.00     0.029 A 
HETATM   11  C6  UNL     1      21.860   4.435   9.906  1.00  0.00     0.002 A 
HETATM   12  C7  UNL     1      22.358   5.536   9.215  1.00  0.00     0.000 A 
HETATM   13  C8  UNL     1      23.377   6.267   9.814  1.00  0.00     0.002 A 
HETATM   14  C9  UNL     1      23.848   5.880  11.049  1.00  0.00     0.029 A 
ENDBRANCH   7   9
ENDBRANCH   4   7
BRANCH   1  15
HETATM   15  O1  UNL     1      27.317   7.002  15.134  1.00  0.00    -0.346 OA
ATOM     16  H1  UNL     1      27.999   6.924  14.476  1.00  0.00     0.219 HD
ENDBRANCH   1  15
TORSDOF 3
ENDMDL
