MODEL 1
REMARK VINA RESULT: -5.573697863      0.000      0.000
REMARK  4 active torsions:
REMARK  status: ('A' for Active; 'I' for Inactive)
REMARK    1  A    between atoms: C2_2  and  C3_3 
REMARK    2  A    between atoms: C5_9  and  C6_10 
REMARK    3  A    between atoms: C6_10  and  C7_11 
REMARK    4  A    between atoms: C7_11  and  C8_12 
ROOT
HETATM    1  C6  UNL     1      26.696   6.691  19.605  1.00  0.00    -0.058 C 
ENDROOT
BRANCH   1   2
HETATM    2  C5  UNL     1      25.738   6.310  18.609  1.00  0.00     0.059 A 
HETATM    3  C3  UNL     1      25.314   7.075  17.517  1.00  0.00     0.045 A 
HETATM    4  N1  UNL     1      24.417   6.355  16.820  1.00  0.00    -0.304 N 
HETATM    5  N2  UNL     1      24.245   5.176  17.407  1.00  0.00    -0.310 N 
ATOM      6  H1  UNL     1      23.942   6.666  15.972  1.00  0.00     0.186 HD
HETATM    7  C4  UNL     1      25.040   5.128  18.498  1.00  0.00     0.129 A 
ATOM      8  H2  UNL     1      23.620   4.435  17.089  1.00  0.00     0.186 HD
BRANCH   3   9
HETATM    9  C2  UNL     1      25.831   8.448  17.263  1.00  0.00     0.056 C 
HETATM   10  C1  UNL     1      24.759   9.271  16.600  1.00  0.00     0.011 C 
ENDBRANCH   3   9
ENDBRANCH   1   2
BRANCH   1  11
HETATM   11  C7  UNL     1      27.519   6.995  20.430  1.00  0.00    -0.059 C 
BRANCH  11  12
HETATM   12  C8  UNL     1      28.531   7.349  21.399  1.00  0.00     0.048 A 
HETATM   13  C9  UNL     1      28.923   6.442  22.375  1.00  0.00     0.111 A 
HETATM   14  N3  UNL     1      29.861   6.781  23.260  1.00  0.00    -0.361 N 
HETATM   15  C10 UNL     1      30.447   7.990  23.238  1.00  0.00     0.180 A 
ATOM     16  H3  UNL     1      30.140   6.106  23.972  1.00  0.00     0.166 HD
HETATM   17  N4  UNL     1      30.057   8.858  22.287  1.00  0.00    -0.361 N 
HETATM   18  C11 UNL     1      29.114   8.581  21.360  1.00  0.00     0.111 A 
ATOM     19  H4  UNL     1      30.498   9.777  22.265  1.00  0.00     0.166 HD
ENDBRANCH  11  12
ENDBRANCH   1  11
TORSDOF 4
ENDMDL
MODEL 2
REMARK VINA RESULT: -5.544083209      0.152      1.217
REMARK  4 active torsions:
REMARK  status: ('A' for Active; 'I' for Inactive)
REMARK    1  A    between atoms: C2_2  and  C3_3 
REMARK    2  A    between atoms: C5_9  and  C6_10 
REMARK    3  A    between atoms: C6_10  and  C7_11 
REMARK    4  A    between atoms: C7_11  and  C8_12 
ROOT
HETATM    1  C6  UNL     1      26.788   6.685  19.721  1.00  0.00    -0.058 C 
ENDROOT
BRANCH   1   2
HETATM    2  C5  UNL     1      25.831   6.288  18.731  1.00  0.00     0.059 A 
HETATM    3  C3  UNL     1      25.394   7.041  17.636  1.00  0.00     0.045 A 
HETATM    4  N1  UNL     1      24.502   6.307  16.947  1.00  0.00    -0.304 N 
HETATM    5  N2  UNL     1      24.345   5.130  17.542  1.00  0.00    -0.310 N 
ATOM      6  H1  UNL     1      24.021   6.607  16.099  1.00  0.00     0.186 HD
HETATM    7  C4  UNL     1      25.145   5.097  18.630  1.00  0.00     0.129 A 
ATOM      8  H2  UNL     1      23.728   4.380  17.231  1.00  0.00     0.186 HD
BRANCH   3   9
HETATM    9  C2  UNL     1      25.894   8.418  17.371  1.00  0.00     0.056 C 
HETATM   10  C1  UNL     1      24.839   9.202  16.639  1.00  0.00     0.011 C 
ENDBRANCH   3   9
ENDBRANCH   1   2
BRANCH   1  11
HETATM   11  C7  UNL     1      27.611   7.006  20.539  1.00  0.00    -0.059 C 
BRANCH  11  12
HETATM   12  C8  UNL     1      28.622   7.370  21.505  1.00  0.00     0.048 A 
HETATM   13  C9  UNL     1      29.254   8.606  21.437  1.00  0.00     0.111 A 
HETATM   14  N3  UNL     1      30.182   8.929  22.337  1.00  0.00    -0.361 N 
HETATM   15  C10 UNL     1      30.533   8.085  23.322  1.00  0.00     0.180 A 
ATOM     16  H3  UNL     1      30.639   9.839  22.276  1.00  0.00     0.166 HD
HETATM   17  N4  UNL     1      29.913   6.893  23.376  1.00  0.00    -0.361 N 
HETATM   18  C11 UNL     1      28.965   6.500  22.498  1.00  0.00     0.111 A 
ATOM     19  H4  UNL     1      30.175   6.248  24.122  1.00  0.00     0.166 HD
ENDBRANCH  11  12
ENDBRANCH   1  11
TORSDOF 4
ENDMDL
MODEL 3
REMARK VINA RESULT: -5.494935913      1.066      2.178
REMARK  4 active torsions:
REMARK  status: ('A' for Active; 'I' for Inactive)
REMARK    1  A    between atoms: C2_2  and  C3_3 
REMARK    2  A    between atoms: C5_9  and  C6_10 
REMARK    3  A    between atoms: C6_10  and  C7_11 
REMARK    4  A    between atoms: C7_11  and  C8_12 
ROOT
HETATM    1  C6  UNL     1      26.991   6.704  19.893  1.00  0.00    -0.058 C 
ENDROOT
BRANCH   1   2
HETATM    2  C5  UNL     1      26.083   6.342  18.846  1.00  0.00     0.059 A 
HETATM    3  C3  UNL     1      24.914   5.585  18.973  1.00  0.00     0.045 A 
HETATM    4  N1  UNL     1      24.345   5.479  17.759  1.00  0.00    -0.304 N 
HETATM    5  N2  UNL     1      25.086   6.125  16.866  1.00  0.00    -0.310 N 
ATOM      6  H1  UNL     1      23.479   4.979  17.555  1.00  0.00     0.186 HD
HETATM    7  C4  UNL     1      26.148   6.658  17.506  1.00  0.00     0.129 A 
ATOM      8  H2  UNL     1      24.886   6.205  15.869  1.00  0.00     0.186 HD
BRANCH   3   9
HETATM    9  C2  UNL     1      24.467   5.030  20.280  1.00  0.00     0.056 C 
HETATM   10  C1  UNL     1      22.997   5.298  20.462  1.00  0.00     0.011 C 
ENDBRANCH   3   9
ENDBRANCH   1   2
BRANCH   1  11
HETATM   11  C7  UNL     1      27.772   7.016  20.755  1.00  0.00    -0.059 C 
BRANCH  11  12
HETATM   12  C8  UNL     1      28.730   7.405  21.765  1.00  0.00     0.048 A 
HETATM   13  C9  UNL     1      28.876   6.657  22.927  1.00  0.00     0.111 A 
HETATM   14  N3  UNL     1      29.765   7.026  23.848  1.00  0.00    -0.361 N 
HETATM   15  C10 UNL     1      30.537   8.114  23.687  1.00  0.00     0.180 A 
ATOM     16  H3  UNL     1      29.862   6.469  24.697  1.00  0.00     0.166 HD
HETATM   17  N4  UNL     1      30.385   8.829  22.558  1.00  0.00    -0.361 N 
HETATM   18  C11 UNL     1      29.504   8.513  21.584  1.00  0.00     0.111 A 
ATOM     19  H4  UNL     1      30.968   9.656  22.430  1.00  0.00     0.166 HD
ENDBRANCH  11  12
ENDBRANCH   1  11
TORSDOF 4
ENDMDL
MODEL 4
REMARK VINA RESULT: -5.490945582      1.637      6.976
REMARK  4 active torsions:
REMARK  status: ('A' for Active; 'I' for Inactive)
REMARK    1  A    between atoms: C2_2  and  C3_3 
REMARK    2  A    between atoms: C5_9  and  C6_10 
REMARK    3  A    between atoms: C6_10  and  C7_11 
REMARK    4  A    between atoms: C7_11  and  C8_12 
ROOT
HETATM    1  C6  UNL     1      28.503   7.196  21.521  1.00  0.00    -0.058 C 
ENDROOT
BRANCH   1   2
HETATM    2  C5  UNL     1      29.493   7.709  22.421  1.00  0.00     0.059 A 
HETATM    3  C3  UNL     1      29.715   7.307  23.742  1.00  0.00     0.045 A 
HETATM    4  N1  UNL     1      30.738   8.027  24.236  1.00  0.00    -0.304 N 
HETATM    5  N2  UNL     1      31.179   8.865  23.305  1.00  0.00    -0.310 N 
ATOM      6  H1  UNL     1      31.117   7.942  25.180  1.00  0.00     0.186 HD
HETATM    7  C4  UNL     1      30.435   8.688  22.192  1.00  0.00     0.129 A 
ATOM      8  H2  UNL     1      31.948   9.527  23.411  1.00  0.00     0.186 HD
BRANCH   3   9
HETATM    9  C2  UNL     1      28.895   6.252  24.398  1.00  0.00     0.056 C 
HETATM   10  C1  UNL     1      29.684   4.972  24.462  1.00  0.00     0.011 C 
ENDBRANCH   3   9
ENDBRANCH   1   2
BRANCH   1  11
HETATM   11  C7  UNL     1      27.655   6.785  20.771  1.00  0.00    -0.059 C 
BRANCH  11  12
HETATM   12  C8  UNL     1      26.618   6.320  19.878  1.00  0.00     0.048 A 
HETATM   13  C9  UNL     1      26.639   6.663  18.532  1.00  0.00     0.111 A 
HETATM   14  N3  UNL     1      25.677   6.225  17.719  1.00  0.00    -0.361 N 
HETATM   15  C10 UNL     1      24.674   5.450  18.167  1.00  0.00     0.180 A 
ATOM     16  H3  UNL     1      25.703   6.483  16.733  1.00  0.00     0.166 HD
HETATM   17  N4  UNL     1      24.667   5.127  19.472  1.00  0.00    -0.361 N 
HETATM   18  C11 UNL     1      25.608   5.536  20.351  1.00  0.00     0.111 A 
ATOM     19  H4  UNL     1      23.909   4.539  19.818  1.00  0.00     0.166 HD
ENDBRANCH  11  12
ENDBRANCH   1  11
TORSDOF 4
ENDMDL
MODEL 5
REMARK VINA RESULT: -5.482583746      1.084      2.491
REMARK  4 active torsions:
REMARK  status: ('A' for Active; 'I' for Inactive)
REMARK    1  A    between atoms: C2_2  and  C3_3 
REMARK    2  A    between atoms: C5_9  and  C6_10 
REMARK    3  A    between atoms: C6_10  and  C7_11 
REMARK    4  A    between atoms: C7_11  and  C8_12 
ROOT
HETATM    1  C6  UNL     1      27.017   6.708  19.925  1.00  0.00    -0.058 C 
ENDROOT
BRANCH   1   2
HETATM    2  C5  UNL     1      26.112   6.347  18.875  1.00  0.00     0.059 A 
HETATM    3  C3  UNL     1      24.945   5.586  18.997  1.00  0.00     0.045 A 
HETATM    4  N1  UNL     1      24.378   5.483  17.782  1.00  0.00    -0.304 N 
HETATM    5  N2  UNL     1      25.118   6.134  16.892  1.00  0.00    -0.310 N 
ATOM      6  H1  UNL     1      23.513   4.982  17.576  1.00  0.00     0.186 HD
HETATM    7  C4  UNL     1      26.179   6.668  17.536  1.00  0.00     0.129 A 
ATOM      8  H2  UNL     1      24.920   6.217  15.896  1.00  0.00     0.186 HD
BRANCH   3   9
HETATM    9  C2  UNL     1      24.497   5.027  20.303  1.00  0.00     0.056 C 
HETATM   10  C1  UNL     1      23.018   5.254  20.464  1.00  0.00     0.011 C 
ENDBRANCH   3   9
ENDBRANCH   1   2
BRANCH   1  11
HETATM   11  C7  UNL     1      27.797   7.018  20.789  1.00  0.00    -0.059 C 
BRANCH  11  12
HETATM   12  C8  UNL     1      28.754   7.402  21.802  1.00  0.00     0.048 A 
HETATM   13  C9  UNL     1      29.560   8.520  21.625  1.00  0.00     0.111 A 
HETATM   14  N3  UNL     1      30.436   8.863  22.569  1.00  0.00    -0.361 N 
HETATM   15  C10 UNL     1      30.568   8.152  23.702  1.00  0.00     0.180 A 
ATOM     16  H3  UNL     1      31.022   9.686  22.427  1.00  0.00     0.166 HD
HETATM   17  N4  UNL     1      29.781   7.073  23.858  1.00  0.00    -0.361 N 
HETATM   18  C11 UNL     1      28.873   6.667  22.944  1.00  0.00     0.111 A 
ATOM     19  H4  UNL     1      29.876   6.529  24.717  1.00  0.00     0.166 HD
ENDBRANCH  11  12
ENDBRANCH   1  11
TORSDOF 4
ENDMDL
