MODEL 1
REMARK VINA RESULT: -6.566698061      0.000      0.000
REMARK  2 active torsions:
REMARK  status: ('A' for Active; 'I' for Inactive)
REMARK    1  A    between atoms: N2_3  and  C2_5 
REMARK    2  A    between atoms: C5_8  and  C6_9 
ROOT
HETATM    1  N1  UNL     1      30.384   8.276  22.417  1.00  0.00    -0.172 NA
HETATM    2  C1  UNL     1      29.549   7.484  22.233  1.00  0.00     0.183 C 
HETATM    3  N2  UNL     1      28.533   6.537  22.000  1.00  0.00    -0.279 N 
ATOM      4  H2  UNL     1      28.415   5.765  22.656  1.00  0.00     0.179 HD
ENDROOT
BRANCH   3   5
HETATM    5  C2  UNL     1      27.749   6.616  20.985  1.00  0.00     0.113 A 
HETATM    6  C3  UNL     1      27.193   7.786  20.532  1.00  0.00     0.050 A 
HETATM    7  C4  UNL     1      26.357   7.844  19.443  1.00  0.00     0.017 A 
HETATM    8  C5  UNL     1      26.062   6.682  18.778  1.00  0.00    -0.009 A 
HETATM    9  C11 UNL     1      26.629   5.502  19.242  1.00  0.00     0.102 A 
HETATM   10  N4  UNL     1      27.442   5.486  20.312  1.00  0.00    -0.351 N 
ATOM     11  H4  UNL     1      27.838   4.598  20.623  1.00  0.00     0.166 HD
BRANCH   8  12
HETATM   12  C6  UNL     1      25.181   6.684  17.619  1.00  0.00    -0.009 A 
HETATM   13  C7  UNL     1      25.186   7.775  16.785  1.00  0.00     0.015 A 
HETATM   14  C8  UNL     1      24.346   7.768  15.685  1.00  0.00     0.018 A 
HETATM   15  C9  UNL     1      23.535   6.685  15.451  1.00  0.00     0.087 A 
HETATM   16  N3  UNL     1      23.530   5.621  16.265  1.00  0.00    -0.374 N 
HETATM   17  C10 UNL     1      24.353   5.616  17.351  1.00  0.00     0.100 A 
ATOM     18  H3  UNL     1      22.919   4.828  16.075  1.00  0.00     0.164 HD
ENDBRANCH   8  12
ENDBRANCH   3   5
TORSDOF 2
ENDMDL
MODEL 2
REMARK VINA RESULT: -6.549161149      0.990      1.194
REMARK  2 active torsions:
REMARK  status: ('A' for Active; 'I' for Inactive)
REMARK    1  A    between atoms: N2_3  and  C2_5 
REMARK    2  A    between atoms: C5_8  and  C6_9 
ROOT
HETATM    1  N1  UNL     1      29.943   4.720  23.248  1.00  0.00    -0.172 NA
HETATM    2  C1  UNL     1      29.516   5.713  22.810  1.00  0.00     0.183 C 
HETATM    3  N2  UNL     1      28.996   6.905  22.269  1.00  0.00    -0.279 N 
ATOM      4  H2  UNL     1      29.301   7.798  22.655  1.00  0.00     0.179 HD
ENDROOT
BRANCH   3   5
HETATM    5  C2  UNL     1      28.149   6.900  21.303  1.00  0.00     0.113 A 
HETATM    6  C3  UNL     1      27.511   8.021  20.834  1.00  0.00     0.050 A 
HETATM    7  C4  UNL     1      26.608   7.988  19.799  1.00  0.00     0.017 A 
HETATM    8  C5  UNL     1      26.329   6.784  19.207  1.00  0.00    -0.009 A 
HETATM    9  C11 UNL     1      26.978   5.653  19.688  1.00  0.00     0.102 A 
HETATM   10  N4  UNL     1      27.855   5.726  20.703  1.00  0.00    -0.351 N 
ATOM     11  H4  UNL     1      28.311   4.873  21.029  1.00  0.00     0.166 HD
BRANCH   8  12
HETATM   12  C6  UNL     1      25.379   6.690  18.108  1.00  0.00    -0.009 A 
HETATM   13  C7  UNL     1      25.141   7.805  17.341  1.00  0.00     0.015 A 
HETATM   14  C8  UNL     1      24.238   7.707  16.298  1.00  0.00     0.018 A 
HETATM   15  C9  UNL     1      23.605   6.514  16.051  1.00  0.00     0.087 A 
HETATM   16  N3  UNL     1      23.837   5.427  16.798  1.00  0.00    -0.374 N 
HETATM   17  C10 UNL     1      24.725   5.510  17.828  1.00  0.00     0.100 A 
ATOM     18  H3  UNL     1      23.356   4.550  16.600  1.00  0.00     0.164 HD
ENDBRANCH   8  12
ENDBRANCH   3   5
TORSDOF 2
ENDMDL
MODEL 3
REMARK VINA RESULT: -6.355427133      1.306      1.680
REMARK  2 active torsions:
REMARK  status: ('A' for Active; 'I' for Inactive)
REMARK    1  A    between atoms: N2_3  and  C2_5 
REMARK    2  A    between atoms: C5_8  and  C6_9 
ROOT
HETATM    1  N1  UNL     1      29.233   8.404  21.672  1.00  0.00    -0.172 NA
HETATM    2  C1  UNL     1      28.600   7.456  21.428  1.00  0.00     0.183 C 
HETATM    3  N2  UNL     1      27.824   6.320  21.126  1.00  0.00    -0.279 N 
ATOM      4  H2  UNL     1      27.968   5.465  21.664  1.00  0.00     0.179 HD
ENDROOT
BRANCH   3   5
HETATM    5  C2  UNL     1      26.940   6.328  20.194  1.00  0.00     0.113 A 
HETATM    6  C3  UNL     1      26.624   7.432  19.444  1.00  0.00     0.050 A 
HETATM    7  C4  UNL     1      25.674   7.414  18.451  1.00  0.00     0.017 A 
HETATM    8  C5  UNL     1      25.011   6.242  18.197  1.00  0.00    -0.009 A 
HETATM    9  C11 UNL     1      25.337   5.128  18.960  1.00  0.00     0.102 A 
HETATM   10  N4  UNL     1      26.272   5.185  19.923  1.00  0.00    -0.351 N 
ATOM     11  H4  UNL     1      26.483   4.345  20.463  1.00  0.00     0.166 HD
BRANCH   8  12
HETATM   12  C6  UNL     1      23.994   6.165  17.158  1.00  0.00    -0.009 A 
HETATM   13  C7  UNL     1      22.674   6.315  17.509  1.00  0.00     0.015 A 
HETATM   14  C8  UNL     1      21.715   6.242  16.515  1.00  0.00     0.018 A 
HETATM   15  C9  UNL     1      22.094   6.024  15.213  1.00  0.00     0.087 A 
HETATM   16  N3  UNL     1      23.380   5.878  14.871  1.00  0.00    -0.374 N 
HETATM   17  C10 UNL     1      24.335   5.949  15.840  1.00  0.00     0.100 A 
ATOM     18  H3  UNL     1      23.641   5.715  13.898  1.00  0.00     0.164 HD
ENDBRANCH   8  12
ENDBRANCH   3   5
TORSDOF 2
ENDMDL
MODEL 4
REMARK VINA RESULT: -6.248667623      3.974      5.234
REMARK  2 active torsions:
REMARK  status: ('A' for Active; 'I' for Inactive)
REMARK    1  A    between atoms: N2_3  and  C2_5 
REMARK    2  A    between atoms: C5_8  and  C6_9 
ROOT
HETATM    1  N1  UNL     1      20.164   7.761  23.288  1.00  0.00    -0.172 NA
HETATM    2  C1  UNL     1      20.375   6.960  22.467  1.00  0.00     0.183 C 
HETATM    3  N2  UNL     1      20.636   6.005  21.465  1.00  0.00    -0.279 N 
ATOM      4  H2  UNL     1      20.171   5.098  21.513  1.00  0.00     0.179 HD
ENDROOT
BRANCH   3   5
HETATM    5  C2  UNL     1      21.443   6.241  20.494  1.00  0.00     0.113 A 
HETATM    6  C3  UNL     1      21.079   6.861  19.325  1.00  0.00     0.050 A 
HETATM    7  C4  UNL     1      21.962   7.102  18.301  1.00  0.00     0.017 A 
HETATM    8  C5  UNL     1      23.266   6.705  18.449  1.00  0.00    -0.009 A 
HETATM    9  C11 UNL     1      23.627   6.078  19.635  1.00  0.00     0.102 A 
HETATM   10  N4  UNL     1      22.733   5.860  20.615  1.00  0.00    -0.351 N 
ATOM     11  H4  UNL     1      23.037   5.395  21.471  1.00  0.00     0.166 HD
BRANCH   8  12
HETATM   12  C6  UNL     1      24.244   6.934  17.396  1.00  0.00    -0.009 A 
HETATM   13  C7  UNL     1      24.971   8.099  17.408  1.00  0.00     0.015 A 
HETATM   14  C8  UNL     1      25.900   8.307  16.403  1.00  0.00     0.018 A 
HETATM   15  C9  UNL     1      26.075   7.358  15.426  1.00  0.00     0.087 A 
HETATM   16  N3  UNL     1      25.365   6.222  15.414  1.00  0.00    -0.374 N 
HETATM   17  C10 UNL     1      24.448   6.005  16.398  1.00  0.00     0.100 A 
ATOM     18  H3  UNL     1      25.508   5.530  14.679  1.00  0.00     0.164 HD
ENDBRANCH   8  12
ENDBRANCH   3   5
TORSDOF 2
ENDMDL
MODEL 5
REMARK VINA RESULT: -6.203016128      1.787      6.548
REMARK  2 active torsions:
REMARK  status: ('A' for Active; 'I' for Inactive)
REMARK    1  A    between atoms: N2_3  and  C2_5 
REMARK    2  A    between atoms: C5_8  and  C6_9 
ROOT
HETATM    1  N1  UNL     1      24.422   7.367  11.464  1.00  0.00    -0.172 NA
HETATM    2  C1  UNL     1      23.947   6.963  12.449  1.00  0.00     0.183 C 
HETATM    3  N2  UNL     1      23.387   6.474  13.645  1.00  0.00    -0.279 N 
ATOM      4  H2  UNL     1      22.454   6.062  13.623  1.00  0.00     0.179 HD
ENDROOT
BRANCH   3   5
HETATM    5  C2  UNL     1      24.016   6.532  14.764  1.00  0.00     0.113 A 
HETATM    6  C3  UNL     1      25.049   7.398  15.021  1.00  0.00     0.050 A 
HETATM    7  C4  UNL     1      25.706   7.440  16.228  1.00  0.00     0.017 A 
HETATM    8  C5  UNL     1      25.315   6.579  17.220  1.00  0.00    -0.009 A 
HETATM    9  C11 UNL     1      24.269   5.705  16.952  1.00  0.00     0.102 A 
HETATM   10  N4  UNL     1      23.651   5.694  15.758  1.00  0.00    -0.351 N 
ATOM     11  H4  UNL     1      22.887   5.036  15.600  1.00  0.00     0.166 HD
BRANCH   8  12
HETATM   12  C6  UNL     1      25.976   6.578  18.516  1.00  0.00    -0.009 A 
HETATM   13  C7  UNL     1      26.238   7.781  19.128  1.00  0.00     0.015 A 
HETATM   14  C8  UNL     1      26.865   7.771  20.361  1.00  0.00     0.018 A 
HETATM   15  C9  UNL     1      27.211   6.576  20.942  1.00  0.00     0.087 A 
HETATM   16  N3  UNL     1      26.957   5.404  20.346  1.00  0.00    -0.374 N 
HETATM   17  C10 UNL     1      26.338   5.400  19.133  1.00  0.00     0.100 A 
ATOM     18  H3  UNL     1      27.223   4.527  20.794  1.00  0.00     0.164 HD
ENDBRANCH   8  12
ENDBRANCH   3   5
TORSDOF 2
ENDMDL
