MODEL 1
REMARK VINA RESULT: -8.165711000      0.000      0.000
REMARK  2 active torsions:
REMARK  status: ('A' for Active; 'I' for Inactive)
REMARK    1  A    between atoms: C2_2  and  C3_3 
REMARK    2  A    between atoms: C13_14  and  N1_15 
ROOT
HETATM    1  C3  UNL     1      -5.821  37.452 -10.835  1.00  0.00    -0.083 C 
HETATM    2  C4  UNL     1      -5.929  38.741 -10.544  1.00  0.00    -0.013 C 
HETATM    3  C5  UNL     1      -5.739  39.389  -9.216  1.00  0.00     0.087 C 
HETATM    4  C6  UNL     1      -4.962  38.540  -8.258  1.00  0.00     0.022 C 
HETATM    5  C7  UNL     1      -5.882  37.504  -7.654  1.00  0.00     0.021 C 
HETATM    6  C8  UNL     1      -6.346  36.465  -8.619  1.00  0.00     0.012 C 
HETATM    7  C9  UNL     1      -5.478  36.373  -9.858  1.00  0.00     0.034 C 
HETATM    8  C10 UNL     1      -6.972  38.225  -6.933  1.00  0.00     0.061 C 
HETATM    9  C11 UNL     1      -6.419  38.536  -5.529  1.00  0.00     0.046 C 
HETATM   10  C12 UNL     1      -8.179  37.329  -6.657  1.00  0.00     0.046 C 
HETATM   11  O1  UNL     1      -7.395  39.391  -7.441  1.00  0.00    -0.332 OA
HETATM   12  C13 UNL     1      -7.058  39.809  -8.660  1.00  0.00     0.321 C 
HETATM   13  C14 UNL     1      -7.063  41.298  -8.640  1.00  0.00     0.129 C 
HETATM   14  N2  UNL     1      -7.050  42.455  -8.609  1.00  0.00    -0.192 NA
ENDROOT
BRANCH  12  15
HETATM   15  N1  UNL     1      -8.152  39.476  -9.592  1.00  0.00    -0.032 N 
ATOM     16  H13 UNL     1      -8.513  40.307 -10.061  1.00  0.00     0.279 HD
ATOM     17  H12 UNL     1      -7.810  38.972 -10.410  1.00  0.00     0.279 HD
ATOM     18  H11 UNL     1      -8.892  38.961  -9.115  1.00  0.00     0.279 HD
ENDBRANCH  12  15
BRANCH   1  19
HETATM   19  C2  UNL     1      -6.056  37.028 -12.244  1.00  0.00     0.029 C 
HETATM   20  C1  UNL     1      -6.993  37.946 -12.966  1.00  0.00     0.010 C 
ENDBRANCH   1  19
TORSDOF 2
ENDMDL
MODEL 2
REMARK VINA RESULT: -6.175537946      1.561      4.320
REMARK  2 active torsions:
REMARK  status: ('A' for Active; 'I' for Inactive)
REMARK    1  A    between atoms: C2_2  and  C3_3 
REMARK    2  A    between atoms: C13_14  and  N1_15 
ROOT
HETATM    1  C3  UNL     1      -8.048  37.891  -6.001  1.00  0.00    -0.083 C 
HETATM    2  C4  UNL     1      -8.012  39.130  -6.473  1.00  0.00    -0.013 C 
HETATM    3  C5  UNL     1      -8.118  39.560  -7.895  1.00  0.00     0.087 C 
HETATM    4  C6  UNL     1      -8.727  38.515  -8.778  1.00  0.00     0.022 C 
HETATM    5  C7  UNL     1      -7.674  37.492  -9.135  1.00  0.00     0.021 C 
HETATM    6  C8  UNL     1      -7.228  36.649  -7.988  1.00  0.00     0.012 C 
HETATM    7  C9  UNL     1      -8.207  36.656  -6.829  1.00  0.00     0.034 C 
HETATM    8  C10 UNL     1      -6.575  38.199  -9.859  1.00  0.00     0.061 C 
HETATM    9  C11 UNL     1      -7.008  38.254 -11.337  1.00  0.00     0.046 C 
HETATM   10  C12 UNL     1      -5.281  37.388  -9.889  1.00  0.00     0.046 C 
HETATM   11  O1  UNL     1      -6.298  39.459  -9.498  1.00  0.00    -0.332 OA
HETATM   12  C13 UNL     1      -6.787  40.015  -8.391  1.00  0.00     0.321 C 
HETATM   13  C14 UNL     1      -6.897  41.480  -8.636  1.00  0.00     0.129 C 
HETATM   14  N2  UNL     1      -6.996  42.615  -8.842  1.00  0.00    -0.192 NA
ENDROOT
BRANCH  12  15
HETATM   15  N1  UNL     1      -5.769  39.921  -7.327  1.00  0.00    -0.032 N 
ATOM     16  H13 UNL     1      -5.940  40.597  -6.583  1.00  0.00     0.279 HD
ATOM     17  H12 UNL     1      -5.870  39.064  -6.784  1.00  0.00     0.279 HD
ATOM     18  H11 UNL     1      -4.830  40.014  -7.713  1.00  0.00     0.279 HD
ENDBRANCH  12  15
BRANCH   1  19
HETATM   19  C2  UNL     1      -7.924  37.696  -4.529  1.00  0.00     0.029 C 
HETATM   20  C1  UNL     1      -6.593  38.141  -4.007  1.00  0.00     0.010 C 
ENDBRANCH   1  19
TORSDOF 2
ENDMDL
MODEL 3
REMARK VINA RESULT: -6.022748671      2.194      3.153
REMARK  2 active torsions:
REMARK  status: ('A' for Active; 'I' for Inactive)
REMARK    1  A    between atoms: C2_2  and  C3_3 
REMARK    2  A    between atoms: C13_14  and  N1_15 
ROOT
HETATM    1  C3  UNL     1      -6.096  37.475 -10.656  1.00  0.00    -0.083 C 
HETATM    2  C4  UNL     1      -5.547  37.055  -9.524  1.00  0.00    -0.013 C 
HETATM    3  C5  UNL     1      -6.143  37.093  -8.160  1.00  0.00     0.087 C 
HETATM    4  C6  UNL     1      -7.633  37.239  -8.176  1.00  0.00     0.022 C 
HETATM    5  C7  UNL     1      -7.986  38.691  -8.404  1.00  0.00     0.021 C 
HETATM    6  C8  UNL     1      -7.651  39.194  -9.768  1.00  0.00     0.012 C 
HETATM    7  C9  UNL     1      -7.457  38.083 -10.780  1.00  0.00     0.034 C 
HETATM    8  C10 UNL     1      -7.405  39.484  -7.280  1.00  0.00     0.061 C 
HETATM    9  C11 UNL     1      -8.438  39.423  -6.138  1.00  0.00     0.046 C 
HETATM   10  C12 UNL     1      -7.314  40.974  -7.606  1.00  0.00     0.046 C 
HETATM   11  O1  UNL     1      -6.241  39.073  -6.760  1.00  0.00    -0.332 OA
HETATM   12  C13 UNL     1      -5.479  38.149  -7.343  1.00  0.00     0.321 C 
HETATM   13  C14 UNL     1      -4.722  37.450  -6.267  1.00  0.00     0.129 C 
HETATM   14  N2  UNL     1      -4.153  36.900  -5.423  1.00  0.00    -0.192 NA
ENDROOT
BRANCH  12  15
HETATM   15  N1  UNL     1      -4.423  38.829  -8.118  1.00  0.00    -0.032 N 
ATOM     16  H13 UNL     1      -3.620  38.220  -8.273  1.00  0.00     0.279 HD
ATOM     17  H12 UNL     1      -4.701  38.970  -9.089  1.00  0.00     0.279 HD
ATOM     18  H11 UNL     1      -4.152  39.705  -7.673  1.00  0.00     0.279 HD
ENDBRANCH  12  15
BRANCH   1  19
HETATM   19  C2  UNL     1      -5.309  37.335 -11.913  1.00  0.00     0.029 C 
HETATM   20  C1  UNL     1      -6.180  37.093 -13.107  1.00  0.00     0.010 C 
ENDBRANCH   1  19
TORSDOF 2
ENDMDL
MODEL 4
REMARK VINA RESULT: -5.900938933      2.344      3.302
REMARK  2 active torsions:
REMARK  status: ('A' for Active; 'I' for Inactive)
REMARK    1  A    between atoms: C2_2  and  C3_3 
REMARK    2  A    between atoms: C13_14  and  N1_15 
ROOT
HETATM    1  C3  UNL     1      -5.752  38.158 -10.165  1.00  0.00    -0.083 C 
HETATM    2  C4  UNL     1      -5.083  37.730  -9.102  1.00  0.00    -0.013 C 
HETATM    3  C5  UNL     1      -5.638  37.057  -7.894  1.00  0.00     0.087 C 
HETATM    4  C6  UNL     1      -6.994  36.466  -8.125  1.00  0.00     0.022 C 
HETATM    5  C7  UNL     1      -8.034  37.558  -8.030  1.00  0.00     0.021 C 
HETATM    6  C8  UNL     1      -7.979  38.551  -9.142  1.00  0.00     0.012 C 
HETATM    7  C9  UNL     1      -7.230  38.041 -10.358  1.00  0.00     0.034 C 
HETATM    8  C10 UNL     1      -7.956  38.145  -6.659  1.00  0.00     0.061 C 
HETATM    9  C11 UNL     1      -8.832  37.248  -5.763  1.00  0.00     0.046 C 
HETATM   10  C12 UNL     1      -8.630  39.513  -6.572  1.00  0.00     0.046 C 
HETATM   11  O1  UNL     1      -6.753  38.208  -6.072  1.00  0.00    -0.332 OA
HETATM   12  C13 UNL     1      -5.617  37.993  -6.734  1.00  0.00     0.321 C 
HETATM   13  C14 UNL     1      -4.627  37.453  -5.761  1.00  0.00     0.129 C 
HETATM   14  N2  UNL     1      -3.871  37.016  -5.002  1.00  0.00    -0.192 NA
ENDROOT
BRANCH  12  15
HETATM   15  N1  UNL     1      -5.043  39.296  -7.119  1.00  0.00    -0.032 N 
ATOM     16  H13 UNL     1      -4.856  39.880  -6.304  1.00  0.00     0.279 HD
ATOM     17  H12 UNL     1      -4.087  39.200  -7.462  1.00  0.00     0.279 HD
ATOM     18  H11 UNL     1      -5.639  39.772  -7.795  1.00  0.00     0.279 HD
ENDBRANCH  12  15
BRANCH   1  19
HETATM   19  C2  UNL     1      -4.983  38.807 -11.264  1.00  0.00     0.029 C 
HETATM   20  C1  UNL     1      -3.838  39.625 -10.752  1.00  0.00     0.010 C 
ENDBRANCH   1  19
TORSDOF 2
ENDMDL
MODEL 5
REMARK VINA RESULT: -5.155489081      2.614      5.563
REMARK  2 active torsions:
REMARK  status: ('A' for Active; 'I' for Inactive)
REMARK    1  A    between atoms: C2_2  and  C3_3 
REMARK    2  A    between atoms: C13_14  and  N1_15 
ROOT
HETATM    1  C3  UNL     1      -6.463  38.604  -3.890  1.00  0.00    -0.083 C 
HETATM    2  C4  UNL     1      -7.079  37.793  -4.741  1.00  0.00    -0.013 C 
HETATM    3  C5  UNL     1      -6.811  37.639  -6.198  1.00  0.00     0.087 C 
HETATM    4  C6  UNL     1      -5.463  38.150  -6.603  1.00  0.00     0.022 C 
HETATM    5  C7  UNL     1      -5.523  39.653  -6.743  1.00  0.00     0.021 C 
HETATM    6  C8  UNL     1      -5.711  40.379  -5.453  1.00  0.00     0.012 C 
HETATM    7  C9  UNL     1      -5.353  39.541  -4.241  1.00  0.00     0.034 C 
HETATM    8  C10 UNL     1      -6.531  39.974  -7.797  1.00  0.00     0.061 C 
HETATM    9  C11 UNL     1      -5.781  39.889  -9.141  1.00  0.00     0.046 C 
HETATM   10  C12 UNL     1      -6.998  41.427  -7.734  1.00  0.00     0.046 C 
HETATM   11  O1  UNL     1      -7.598  39.171  -7.908  1.00  0.00    -0.332 OA
HETATM   12  C13 UNL     1      -7.913  38.261  -6.988  1.00  0.00     0.321 C 
HETATM   13  C14 UNL     1      -8.626  37.152  -7.681  1.00  0.00     0.129 C 
HETATM   14  N2  UNL     1      -9.162  36.286  -8.231  1.00  0.00    -0.192 NA
ENDROOT
BRANCH  12  15
HETATM   15  N1  UNL     1      -8.944  38.827  -6.098  1.00  0.00    -0.032 N 
ATOM     16  H13 UNL     1      -9.419  38.101  -5.562  1.00  0.00     0.279 HD
ATOM     17  H12 UNL     1      -8.529  39.345  -5.323  1.00  0.00     0.279 HD
ATOM     18  H11 UNL     1      -9.603  39.401  -6.623  1.00  0.00     0.279 HD
ENDBRANCH  12  15
BRANCH   1  19
HETATM   19  C2  UNL     1      -6.901  38.590  -2.466  1.00  0.00     0.029 C 
HETATM   20  C1  UNL     1      -6.358  39.751  -1.692  1.00  0.00     0.010 C 
ENDBRANCH   1  19
TORSDOF 2
ENDMDL
