MODEL 1
REMARK VINA RESULT: -8.201537516      0.000      0.000
REMARK  1 active torsions:
REMARK  status: ('A' for Active; 'I' for Inactive)
REMARK    1  A    between atoms: C4_7  and  C5_8 
ROOT
HETATM    1  C5  UNL     1      -6.076  37.698 -11.721  1.00  0.00    -0.048 C 
HETATM    2  C6  UNL     1      -7.047  37.967 -10.880  1.00  0.00    -0.007 C 
HETATM    3  C7  UNL     1      -6.734  38.371  -9.457  1.00  0.00     0.003 A 
HETATM    4  C8  UNL     1      -5.704  39.467  -9.536  1.00  0.00     0.015 C 
HETATM    5  C9  UNL     1      -4.519  39.105 -10.359  1.00  0.00     0.006 C 
HETATM    6  C10 UNL     1      -4.710  37.798 -11.116  1.00  0.00     0.039 C 
HETATM    7  C11 UNL     1      -7.954  38.980  -8.800  1.00  0.00     0.042 A 
HETATM    8  C12 UNL     1      -8.216  38.185  -7.572  1.00  0.00     0.233 A 
HETATM    9  N2  UNL     1      -7.223  37.164  -7.464  1.00  0.00    -0.074 N 
ATOM     10  H21 UNL     1      -7.634  36.239  -7.338  1.00  0.00     0.277 HD
ATOM     11  H22 UNL     1      -6.709  37.217  -6.585  1.00  0.00     0.277 HD
HETATM   12  C13 UNL     1      -6.363  37.219  -8.593  1.00  0.00     0.245 A 
ENDROOT
BRANCH   1  13
HETATM   13  C4  UNL     1      -6.262  37.288 -13.139  1.00  0.00     0.000 A 
HETATM   14  C2  UNL     1      -5.757  36.217 -13.802  1.00  0.00     0.023 A 
HETATM   15  C1  UNL     1      -4.744  35.210 -13.255  1.00  0.00     0.069 C 
HETATM   16  N1  UNL     1      -6.144  36.032 -15.073  1.00  0.00    -0.330 N 
HETATM   17  S1  UNL     1      -7.179  37.277 -15.408  1.00  0.00    -0.026 SA
ATOM     18  H1  UNL     1      -5.859  35.281 -15.702  1.00  0.00     0.174 HD
HETATM   19  C3  UNL     1      -7.132  38.064 -13.900  1.00  0.00     0.082 A 
ENDBRANCH   1  13
TORSDOF 1
ENDMDL
MODEL 2
REMARK VINA RESULT: -8.136036736      0.809      1.574
REMARK  1 active torsions:
REMARK  status: ('A' for Active; 'I' for Inactive)
REMARK    1  A    between atoms: C4_7  and  C5_8 
ROOT
HETATM    1  C5  UNL     1      -5.830  37.411 -11.685  1.00  0.00    -0.048 C 
HETATM    2  C6  UNL     1      -6.856  37.696 -10.918  1.00  0.00    -0.007 C 
HETATM    3  C7  UNL     1      -6.639  38.317  -9.555  1.00  0.00     0.003 A 
HETATM    4  C8  UNL     1      -5.712  39.486  -9.757  1.00  0.00     0.015 C 
HETATM    5  C9  UNL     1      -4.465  39.132 -10.488  1.00  0.00     0.006 C 
HETATM    6  C10 UNL     1      -4.505  37.722 -11.062  1.00  0.00     0.039 C 
HETATM    7  C11 UNL     1      -7.936  38.889  -9.025  1.00  0.00     0.042 A 
HETATM    8  C12 UNL     1      -8.175  38.247  -7.706  1.00  0.00     0.233 A 
HETATM    9  N2  UNL     1      -7.098  37.349  -7.430  1.00  0.00    -0.074 N 
ATOM     10  H21 UNL     1      -7.428  36.415  -7.188  1.00  0.00     0.277 HD
ATOM     11  H22 UNL     1      -6.627  37.570  -6.553  1.00  0.00     0.277 HD
HETATM   12  C13 UNL     1      -6.200  37.334  -8.531  1.00  0.00     0.245 A 
ENDROOT
BRANCH   1  13
HETATM   13  C4  UNL     1      -5.919  36.796 -13.038  1.00  0.00     0.000 A 
HETATM   14  C2  UNL     1      -6.637  37.192 -14.120  1.00  0.00     0.023 A 
HETATM   15  C1  UNL     1      -7.650  38.335 -14.165  1.00  0.00     0.069 C 
HETATM   16  N1  UNL     1      -6.481  36.496 -15.257  1.00  0.00    -0.330 N 
HETATM   17  S1  UNL     1      -5.386  35.309 -14.906  1.00  0.00    -0.026 SA
ATOM     18  H1  UNL     1      -6.942  36.666 -16.151  1.00  0.00     0.174 HD
HETATM   19  C3  UNL     1      -5.105  35.692 -13.272  1.00  0.00     0.082 A 
ENDBRANCH   1  13
TORSDOF 1
ENDMDL
MODEL 3
REMARK VINA RESULT: -7.912228532      2.769      5.706
REMARK  1 active torsions:
REMARK  status: ('A' for Active; 'I' for Inactive)
REMARK    1  A    between atoms: C4_7  and  C5_8 
ROOT
HETATM    1  C5  UNL     1      -6.491  38.041  -9.026  1.00  0.00    -0.048 C 
HETATM    2  C6  UNL     1      -6.289  37.135  -9.953  1.00  0.00    -0.007 C 
HETATM    3  C7  UNL     1      -5.677  37.526 -11.281  1.00  0.00     0.003 A 
HETATM    4  C8  UNL     1      -4.446  38.333 -10.967  1.00  0.00     0.015 C 
HETATM    5  C9  UNL     1      -4.703  39.467 -10.039  1.00  0.00     0.006 C 
HETATM    6  C10 UNL     1      -6.102  39.426  -9.440  1.00  0.00     0.039 C 
HETATM    7  C11 UNL     1      -5.203  36.297 -12.025  1.00  0.00     0.042 A 
HETATM    8  C12 UNL     1      -5.883  36.313 -13.347  1.00  0.00     0.233 A 
HETATM    9  N2  UNL     1      -6.711  37.475 -13.424  1.00  0.00    -0.074 N 
ATOM     10  H21 UNL     1      -7.669  37.248 -13.689  1.00  0.00     0.277 HD
ATOM     11  H22 UNL     1      -6.474  38.064 -14.222  1.00  0.00     0.277 HD
HETATM   12  C13 UNL     1      -6.647  38.184 -12.196  1.00  0.00     0.245 A 
ENDROOT
BRANCH   1  13
HETATM   13  C4  UNL     1      -7.087  37.776  -7.688  1.00  0.00     0.000 A 
HETATM   14  C2  UNL     1      -6.514  37.845  -6.459  1.00  0.00     0.023 A 
HETATM   15  C1  UNL     1      -5.037  38.104  -6.162  1.00  0.00     0.069 C 
HETATM   16  N1  UNL     1      -7.301  37.627  -5.393  1.00  0.00    -0.330 N 
HETATM   17  S1  UNL     1      -8.807  37.326  -6.006  1.00  0.00    -0.026 SA
ATOM     18  H1  UNL     1      -7.026  37.644  -4.411  1.00  0.00     0.174 HD
HETATM   19  C3  UNL     1      -8.446  37.479  -7.662  1.00  0.00     0.082 A 
ENDBRANCH   1  13
TORSDOF 1
ENDMDL
MODEL 4
REMARK VINA RESULT: -7.867214764      2.070      3.038
REMARK  1 active torsions:
REMARK  status: ('A' for Active; 'I' for Inactive)
REMARK    1  A    between atoms: C4_7  and  C5_8 
ROOT
HETATM    1  C5  UNL     1      -5.643  36.659 -12.901  1.00  0.00    -0.048 C 
HETATM    2  C6  UNL     1      -5.463  36.592 -11.603  1.00  0.00    -0.007 C 
HETATM    3  C7  UNL     1      -5.899  37.736 -10.713  1.00  0.00     0.003 A 
HETATM    4  C8  UNL     1      -7.318  38.064 -11.096  1.00  0.00     0.015 C 
HETATM    5  C9  UNL     1      -7.497  38.302 -12.553  1.00  0.00     0.006 C 
HETATM    6  C10 UNL     1      -6.256  37.945 -13.361  1.00  0.00     0.039 C 
HETATM    7  C11 UNL     1      -5.939  37.293  -9.267  1.00  0.00     0.042 A 
HETATM    8  C12 UNL     1      -5.054  38.221  -8.514  1.00  0.00     0.233 A 
HETATM    9  N2  UNL     1      -4.513  39.180  -9.425  1.00  0.00    -0.074 N 
ATOM     10  H21 UNL     1      -3.496  39.237  -9.364  1.00  0.00     0.277 HD
ATOM     11  H22 UNL     1      -4.730  40.138  -9.151  1.00  0.00     0.277 HD
HETATM   12  C13 UNL     1      -4.957  38.885 -10.742  1.00  0.00     0.245 A 
ENDROOT
BRANCH   1  13
HETATM   13  C4  UNL     1      -5.253  35.601 -13.873  1.00  0.00     0.000 A 
HETATM   14  C2  UNL     1      -5.616  35.445 -15.171  1.00  0.00     0.023 A 
HETATM   15  C1  UNL     1      -6.642  36.285 -15.931  1.00  0.00     0.069 C 
HETATM   16  N1  UNL     1      -5.057  34.435 -15.857  1.00  0.00    -0.330 N 
HETATM   17  S1  UNL     1      -4.047  33.678 -14.789  1.00  0.00    -0.026 SA
ATOM     18  H1  UNL     1      -5.221  34.187 -16.832  1.00  0.00     0.174 HD
HETATM   19  C3  UNL     1      -4.329  34.660 -13.428  1.00  0.00     0.082 A 
ENDBRANCH   1  13
TORSDOF 1
ENDMDL
MODEL 5
REMARK VINA RESULT: -7.740436526      3.112      6.376
REMARK  1 active torsions:
REMARK  status: ('A' for Active; 'I' for Inactive)
REMARK    1  A    between atoms: C4_7  and  C5_8 
ROOT
HETATM    1  C5  UNL     1      -5.458  35.875 -13.961  1.00  0.00    -0.048 C 
HETATM    2  C6  UNL     1      -4.655  34.881 -13.662  1.00  0.00    -0.007 C 
HETATM    3  C7  UNL     1      -4.133  33.970 -14.751  1.00  0.00     0.003 A 
HETATM    4  C8  UNL     1      -3.589  34.861 -15.836  1.00  0.00     0.015 C 
HETATM    5  C9  UNL     1      -4.559  35.891 -16.296  1.00  0.00     0.006 C 
HETATM    6  C10 UNL     1      -5.800  35.958 -15.416  1.00  0.00     0.039 C 
HETATM    7  C11 UNL     1      -2.962  33.156 -14.242  1.00  0.00     0.042 A 
HETATM    8  C12 UNL     1      -3.315  31.728 -14.451  1.00  0.00     0.233 A 
HETATM    9  N2  UNL     1      -4.607  31.657 -15.058  1.00  0.00    -0.074 N 
ATOM     10  H21 UNL     1      -5.239  31.040 -14.548  1.00  0.00     0.277 HD
ATOM     11  H22 UNL     1      -4.590  31.151 -15.943  1.00  0.00     0.277 HD
HETATM   12  C13 UNL     1      -5.134  32.968 -15.201  1.00  0.00     0.245 A 
ENDROOT
BRANCH   1  13
HETATM   13  C4  UNL     1      -6.036  36.832 -12.978  1.00  0.00     0.000 A 
HETATM   14  C2  UNL     1      -7.043  37.728 -13.135  1.00  0.00     0.023 A 
HETATM   15  C1  UNL     1      -7.764  38.059 -14.441  1.00  0.00     0.069 C 
HETATM   16  N1  UNL     1      -7.426  38.427 -12.055  1.00  0.00    -0.330 N 
HETATM   17  S1  UNL     1      -6.456  37.909 -10.821  1.00  0.00    -0.026 SA
ATOM     18  H1  UNL     1      -8.163  39.131 -12.006  1.00  0.00     0.174 HD
HETATM   19  C3  UNL     1      -5.531  36.769 -11.682  1.00  0.00     0.082 A 
ENDBRANCH   1  13
TORSDOF 1
ENDMDL
