MODEL 1
REMARK VINA RESULT: -7.658825015      0.000      0.000
REMARK  2 active torsions:
REMARK  status: ('A' for Active; 'I' for Inactive)
REMARK    1  A    between atoms: C2_2  and  C5_5 
REMARK    2  A    between atoms: N2_8  and  C6_9 
ROOT
HETATM    1  C5  UNL     1      -5.364  35.861 -14.057  1.00  0.00     0.064 A 
HETATM    2  N1  UNL     1      -5.286  36.040 -12.728  1.00  0.00    -0.298 N 
ATOM      3  H1  UNL     1      -4.744  35.453 -12.094  1.00  0.00     0.187 HD
HETATM    4  N2  UNL     1      -6.011  37.089 -12.353  1.00  0.00    -0.270 N 
HETATM    5  C11 UNL     1      -6.567  37.594 -13.450  1.00  0.00     0.152 A 
HETATM    6  N3  UNL     1      -7.374  38.565 -13.942  1.00  0.00    -0.335 N 
ATOM      7  H3  UNL     1      -7.830  39.292 -13.389  1.00  0.00     0.168 HD
HETATM    8  C12 UNL     1      -7.477  38.419 -15.275  1.00  0.00     0.182 A 
HETATM    9  N4  UNL     1      -6.743  37.356 -15.665  1.00  0.00    -0.348 N 
ATOM     10  H4  UNL     1      -6.634  37.007 -16.617  1.00  0.00     0.167 HD
HETATM   11  C13 UNL     1      -6.184  36.848 -14.555  1.00  0.00     0.104 A 
ENDROOT
BRANCH   4  12
HETATM   12  C6  UNL     1      -6.147  37.554 -11.012  1.00  0.00     0.110 C 
HETATM   13  C7  UNL     1      -5.275  38.712 -10.654  1.00  0.00     0.027 C 
HETATM   14  C8  UNL     1      -5.179  38.664  -9.140  1.00  0.00     0.002 C 
HETATM   15  C9  UNL     1      -5.827  37.365  -8.713  1.00  0.00     0.002 C 
HETATM   16  C10 UNL     1      -5.707  36.524  -9.977  1.00  0.00     0.027 C 
ENDBRANCH   4  12
BRANCH   1  17
HETATM   17  C2  UNL     1      -4.724  34.824 -14.913  1.00  0.00    -0.005 C 
HETATM   18  C1  UNL     1      -5.745  33.922 -15.561  1.00  0.00     0.021 C 
HETATM   19  C3  UNL     1      -3.793  34.027 -14.034  1.00  0.00     0.021 C 
HETATM   20  C4  UNL     1      -3.928  35.485 -16.010  1.00  0.00     0.021 C 
ENDBRANCH   1  17
TORSDOF 2
ENDMDL
MODEL 2
REMARK VINA RESULT: -7.483578486      0.660      1.487
REMARK  2 active torsions:
REMARK  status: ('A' for Active; 'I' for Inactive)
REMARK    1  A    between atoms: C2_2  and  C5_5 
REMARK    2  A    between atoms: N2_8  and  C6_9 
ROOT
HETATM    1  C5  UNL     1      -5.429  35.928 -14.010  1.00  0.00     0.064 A 
HETATM    2  N1  UNL     1      -5.070  35.979 -12.716  1.00  0.00    -0.298 N 
ATOM      3  H1  UNL     1      -4.371  35.376 -12.284  1.00  0.00     0.187 HD
HETATM    4  N2  UNL     1      -5.752  36.925 -12.078  1.00  0.00    -0.270 N 
HETATM    5  C11 UNL     1      -6.561  37.493 -12.967  1.00  0.00     0.152 A 
HETATM    6  N3  UNL     1      -7.509  38.442 -13.161  1.00  0.00    -0.335 N 
ATOM      7  H3  UNL     1      -7.871  39.072 -12.445  1.00  0.00     0.168 HD
HETATM    8  C12 UNL     1      -7.895  38.422 -14.450  1.00  0.00     0.182 A 
HETATM    9  N4  UNL     1      -7.208  37.464 -15.106  1.00  0.00    -0.348 N 
ATOM     10  H4  UNL     1      -7.292  37.221 -16.093  1.00  0.00     0.167 HD
HETATM   11  C13 UNL     1      -6.391  36.893 -14.206  1.00  0.00     0.104 A 
ENDROOT
BRANCH   4  12
HETATM   12  C6  UNL     1      -5.614  37.242 -10.695  1.00  0.00     0.110 C 
HETATM   13  C7  UNL     1      -6.900  37.427  -9.959  1.00  0.00     0.027 C 
HETATM   14  C8  UNL     1      -6.527  38.258  -8.744  1.00  0.00     0.002 C 
HETATM   15  C9  UNL     1      -5.090  38.686  -8.944  1.00  0.00     0.002 C 
HETATM   16  C10 UNL     1      -4.942  38.590 -10.457  1.00  0.00     0.027 C 
ENDBRANCH   4  12
BRANCH   1  17
HETATM   17  C2  UNL     1      -4.938  35.035 -15.096  1.00  0.00    -0.005 C 
HETATM   18  C1  UNL     1      -4.085  35.779 -16.093  1.00  0.00     0.021 C 
HETATM   19  C3  UNL     1      -6.149  34.441 -15.771  1.00  0.00     0.021 C 
HETATM   20  C4  UNL     1      -4.103  33.925 -14.508  1.00  0.00     0.021 C 
ENDBRANCH   1  17
TORSDOF 2
ENDMDL
MODEL 3
REMARK VINA RESULT: -7.334480293      2.233      6.198
REMARK  2 active torsions:
REMARK  status: ('A' for Active; 'I' for Inactive)
REMARK    1  A    between atoms: C2_2  and  C5_5 
REMARK    2  A    between atoms: N2_8  and  C6_9 
ROOT
HETATM    1  C5  UNL     1      -6.885  38.174  -9.083  1.00  0.00     0.064 A 
HETATM    2  N1  UNL     1      -7.467  37.643 -10.171  1.00  0.00    -0.298 N 
ATOM      3  H1  UNL     1      -8.375  37.178 -10.175  1.00  0.00     0.187 HD
HETATM    4  N2  UNL     1      -6.696  37.806 -11.242  1.00  0.00    -0.270 N 
HETATM    5  C11 UNL     1      -5.603  38.450 -10.843  1.00  0.00     0.152 A 
HETATM    6  N3  UNL     1      -4.415  38.973 -11.235  1.00  0.00    -0.335 N 
ATOM      7  H3  UNL     1      -4.047  38.956 -12.186  1.00  0.00     0.168 HD
HETATM    8  C12 UNL     1      -3.801  39.517 -10.169  1.00  0.00     0.182 A 
HETATM    9  N4  UNL     1      -4.576  39.355  -9.077  1.00  0.00    -0.348 N 
ATOM     10  H4  UNL     1      -4.366  39.666  -8.129  1.00  0.00     0.167 HD
HETATM   11  C13 UNL     1      -5.679  38.705  -9.482  1.00  0.00     0.104 A 
ENDROOT
BRANCH   4  12
HETATM   12  C6  UNL     1      -7.015  37.359 -12.557  1.00  0.00     0.110 C 
HETATM   13  C7  UNL     1      -5.915  36.637 -13.263  1.00  0.00     0.027 C 
HETATM   14  C8  UNL     1      -6.264  36.757 -14.736  1.00  0.00     0.002 C 
HETATM   15  C9  UNL     1      -7.433  37.714 -14.821  1.00  0.00     0.002 C 
HETATM   16  C10 UNL     1      -7.287  38.504 -13.527  1.00  0.00     0.027 C 
ENDBRANCH   4  12
BRANCH   1  17
HETATM   17  C2  UNL     1      -7.373  38.227  -7.677  1.00  0.00    -0.005 C 
HETATM   18  C1  UNL     1      -6.306  37.809  -6.696  1.00  0.00     0.021 C 
HETATM   19  C3  UNL     1      -8.569  37.313  -7.582  1.00  0.00     0.021 C 
HETATM   20  C4  UNL     1      -7.794  39.634  -7.334  1.00  0.00     0.021 C 
ENDBRANCH   1  17
TORSDOF 2
ENDMDL
MODEL 4
REMARK VINA RESULT: -6.991839983      3.992      6.088
REMARK  2 active torsions:
REMARK  status: ('A' for Active; 'I' for Inactive)
REMARK    1  A    between atoms: C2_2  and  C5_5 
REMARK    2  A    between atoms: N2_8  and  C6_9 
ROOT
HETATM    1  C5  UNL     1      -6.264  38.253  -9.226  1.00  0.00     0.064 A 
HETATM    2  N1  UNL     1      -6.557  37.402  -8.228  1.00  0.00    -0.298 N 
ATOM      3  H1  UNL     1      -6.456  36.389  -8.281  1.00  0.00     0.187 HD
HETATM    4  N2  UNL     1      -6.995  38.064  -7.162  1.00  0.00    -0.270 N 
HETATM    5  C11 UNL     1      -6.987  39.357  -7.472  1.00  0.00     0.152 A 
HETATM    6  N3  UNL     1      -7.250  40.609  -7.026  1.00  0.00    -0.335 N 
ATOM      7  H3  UNL     1      -7.605  40.845  -6.098  1.00  0.00     0.168 HD
HETATM    8  C12 UNL     1      -6.968  41.493  -8.001  1.00  0.00     0.182 A 
HETATM    9  N4  UNL     1      -6.522  40.829  -9.088  1.00  0.00    -0.348 N 
ATOM     10  H4  UNL     1      -6.234  41.239  -9.976  1.00  0.00     0.167 HD
HETATM   11  C13 UNL     1      -6.531  39.524  -8.771  1.00  0.00     0.104 A 
ENDROOT
BRANCH   4  12
HETATM   12  C6  UNL     1      -7.393  37.464  -5.932  1.00  0.00     0.110 C 
HETATM   13  C7  UNL     1      -8.863  37.484  -5.665  1.00  0.00     0.027 C 
HETATM   14  C8  UNL     1      -8.980  37.323  -4.160  1.00  0.00     0.002 C 
HETATM   15  C9  UNL     1      -7.574  37.425  -3.610  1.00  0.00     0.002 C 
HETATM   16  C10 UNL     1      -6.862  38.203  -4.708  1.00  0.00     0.027 C 
ENDBRANCH   4  12
BRANCH   1  17
HETATM   17  C2  UNL     1      -5.747  37.969 -10.593  1.00  0.00    -0.005 C 
HETATM   18  C1  UNL     1      -5.381  36.515 -10.765  1.00  0.00     0.021 C 
HETATM   19  C3  UNL     1      -4.541  38.848 -10.810  1.00  0.00     0.021 C 
HETATM   20  C4  UNL     1      -6.799  38.307 -11.619  1.00  0.00     0.021 C 
ENDBRANCH   1  17
TORSDOF 2
ENDMDL
MODEL 5
REMARK VINA RESULT: -6.654620818      0.959      4.925
REMARK  2 active torsions:
REMARK  status: ('A' for Active; 'I' for Inactive)
REMARK    1  A    between atoms: C2_2  and  C5_5 
REMARK    2  A    between atoms: N2_8  and  C6_9 
ROOT
HETATM    1  C5  UNL     1      -5.978  37.183 -11.589  1.00  0.00     0.064 A 
HETATM    2  N1  UNL     1      -5.175  36.219 -12.071  1.00  0.00    -0.298 N 
ATOM      3  H1  UNL     1      -4.516  35.679 -11.510  1.00  0.00     0.187 HD
HETATM    4  N2  UNL     1      -5.359  36.066 -13.378  1.00  0.00    -0.270 N 
HETATM    5  C11 UNL     1      -6.291  36.940 -13.748  1.00  0.00     0.152 A 
HETATM    6  N3  UNL     1      -7.014  37.420 -14.789  1.00  0.00    -0.335 N 
ATOM      7  H3  UNL     1      -6.948  37.097 -15.755  1.00  0.00     0.168 HD
HETATM    8  C12 UNL     1      -7.833  38.391 -14.345  1.00  0.00     0.182 A 
HETATM    9  N4  UNL     1      -7.653  38.553 -13.018  1.00  0.00    -0.348 N 
ATOM     10  H4  UNL     1      -8.136  39.218 -12.414  1.00  0.00     0.167 HD
HETATM   11  C13 UNL     1      -6.712  37.670 -12.647  1.00  0.00     0.104 A 
ENDROOT
BRANCH   4  12
HETATM   12  C6  UNL     1      -4.666  35.128 -14.198  1.00  0.00     0.110 C 
HETATM   13  C7  UNL     1      -5.533  34.327 -15.113  1.00  0.00     0.027 C 
HETATM   14  C8  UNL     1      -4.707  33.096 -15.440  1.00  0.00     0.002 C 
HETATM   15  C9  UNL     1      -3.493  33.145 -14.538  1.00  0.00     0.002 C 
HETATM   16  C10 UNL     1      -3.985  34.024 -13.397  1.00  0.00     0.027 C 
ENDBRANCH   4  12
BRANCH   1  17
HETATM   17  C2  UNL     1      -6.116  37.695 -10.198  1.00  0.00    -0.005 C 
HETATM   18  C1  UNL     1      -7.524  38.149  -9.903  1.00  0.00     0.021 C 
HETATM   19  C3  UNL     1      -5.145  38.839 -10.041  1.00  0.00     0.021 C 
HETATM   20  C4  UNL     1      -5.765  36.606  -9.215  1.00  0.00     0.021 C 
ENDBRANCH   1  17
TORSDOF 2
ENDMDL
