MODEL 1
REMARK VINA RESULT: -5.201462572      0.000      0.000
REMARK  1 active torsions:
REMARK  status: ('A' for Active; 'I' for Inactive)
REMARK    1  A    between atoms: C14_15  and  C15_17 
ROOT
HETATM    1  C1  UNL     1      -7.715  36.034   0.030  1.00  0.00     0.015 C 
HETATM    2  C2  UNL     1      -7.443  36.139  -1.244  1.00  0.00    -0.076 C 
HETATM    3  C3  UNL     1      -6.172  35.557  -1.764  1.00  0.00     0.051 C 
HETATM    4  C4  UNL     1      -5.295  36.694  -2.268  1.00  0.00     0.024 C 
HETATM    5  C5  UNL     1      -4.062  36.090  -2.892  1.00  0.00     0.024 C 
HETATM    6  C6  UNL     1      -4.857  37.576  -1.184  1.00  0.00     0.136 C 
HETATM    7  O1  UNL     1      -4.521  37.259  -0.073  1.00  0.00    -0.297 OA
HETATM    8  C7  UNL     1      -4.890  38.974  -1.677  1.00  0.00     0.079 C 
HETATM    9  C8  UNL     1      -5.824  38.999  -2.863  1.00  0.00     0.013 C 
HETATM   10  C9  UNL     1      -6.056  37.577  -3.220  1.00  0.00     0.007 C 
HETATM   11  C10 UNL     1      -7.403  37.093  -3.416  1.00  0.00     0.011 C 
HETATM   12  C11 UNL     1      -8.362  37.809  -4.287  1.00  0.00    -0.009 C 
HETATM   13  C12 UNL     1      -7.857  37.753  -5.715  1.00  0.00     0.010 C 
HETATM   14  C13 UNL     1      -9.541  36.844  -4.221  1.00  0.00     0.057 C 
HETATM   15  C14 UNL     1      -9.301  35.972  -2.959  1.00  0.00     0.174 C 
HETATM   16  F1  UNL     1      -8.791  34.744  -3.321  1.00  0.00    -0.233 F 
HETATM   17  C17 UNL     1      -8.282  36.810  -2.216  1.00  0.00     0.026 C 
HETATM   18  C18 UNL     1      -9.035  37.989  -1.692  1.00  0.00     0.024 C 
ENDROOT
BRANCH  15  19
HETATM   19  C15 UNL     1     -10.603  35.826  -2.285  1.00  0.00     0.163 C 
HETATM   20  C16 UNL     1     -11.825  36.532  -2.734  1.00  0.00     0.094 C 
HETATM   21  O2  UNL     1     -10.753  35.097  -1.292  1.00  0.00    -0.295 OA
ENDBRANCH  15  19
TORSDOF 1
ENDMDL
MODEL 2
REMARK VINA RESULT: -5.041540701      1.782      4.872
REMARK  1 active torsions:
REMARK  status: ('A' for Active; 'I' for Inactive)
REMARK    1  A    between atoms: C14_15  and  C15_17 
ROOT
HETATM    1  C1  UNL     1      -7.237  36.957   0.075  1.00  0.00     0.015 C 
HETATM    2  C2  UNL     1      -7.588  37.527  -1.048  1.00  0.00    -0.076 C 
HETATM    3  C3  UNL     1      -8.842  38.332  -1.091  1.00  0.00     0.051 C 
HETATM    4  C4  UNL     1      -9.824  37.640  -2.028  1.00  0.00     0.024 C 
HETATM    5  C5  UNL     1     -11.045  38.517  -2.152  1.00  0.00     0.024 C 
HETATM    6  C6  UNL     1     -10.260  36.342  -1.509  1.00  0.00     0.136 C 
HETATM    7  O1  UNL     1     -10.510  36.056  -0.367  1.00  0.00    -0.297 OA
HETATM    8  C7  UNL     1     -10.352  35.393  -2.644  1.00  0.00     0.079 C 
HETATM    9  C8  UNL     1      -9.490  35.950  -3.752  1.00  0.00     0.013 C 
HETATM   10  C9  UNL     1      -9.180  37.346  -3.356  1.00  0.00     0.007 C 
HETATM   11  C10 UNL     1      -7.816  37.821  -3.391  1.00  0.00     0.011 C 
HETATM   12  C11 UNL     1      -6.960  37.622  -4.582  1.00  0.00    -0.009 C 
HETATM   13  C12 UNL     1      -7.540  38.416  -5.735  1.00  0.00     0.010 C 
HETATM   14  C13 UNL     1      -5.715  38.381  -4.134  1.00  0.00     0.057 C 
HETATM   15  C14 UNL     1      -5.823  38.491  -2.589  1.00  0.00     0.174 C 
HETATM   16  F1  UNL     1      -6.265  39.747  -2.233  1.00  0.00    -0.233 F 
HETATM   17  C17 UNL     1      -6.853  37.422  -2.293  1.00  0.00     0.026 C 
HETATM   18  C18 UNL     1      -6.156  36.119  -2.505  1.00  0.00     0.024 C 
ENDROOT
BRANCH  15  19
HETATM   19  C15 UNL     1      -4.477  38.231  -2.046  1.00  0.00     0.163 C 
HETATM   20  C16 UNL     1      -4.087  38.585  -0.662  1.00  0.00     0.094 C 
HETATM   21  O2  UNL     1      -3.585  37.697  -2.724  1.00  0.00    -0.295 OA
ENDBRANCH  15  19
TORSDOF 1
ENDMDL
MODEL 3
REMARK VINA RESULT: -4.893995327      2.528      4.212
REMARK  1 active torsions:
REMARK  status: ('A' for Active; 'I' for Inactive)
REMARK    1  A    between atoms: C14_15  and  C15_17 
ROOT
HETATM    1  C1  UNL     1      -8.911  33.935  -1.490  1.00  0.00     0.015 C 
HETATM    2  C2  UNL     1      -9.747  34.694  -2.148  1.00  0.00    -0.076 C 
HETATM    3  C3  UNL     1      -9.281  35.384  -3.384  1.00  0.00     0.051 C 
HETATM    4  C4  UNL     1      -9.311  36.886  -3.135  1.00  0.00     0.024 C 
HETATM    5  C5  UNL     1      -8.945  37.579  -4.423  1.00  0.00     0.024 C 
HETATM    6  C6  UNL     1      -8.340  37.297  -2.118  1.00  0.00     0.136 C 
HETATM    7  O1  UNL     1      -7.224  36.876  -1.960  1.00  0.00    -0.297 OA
HETATM    8  C7  UNL     1      -8.960  38.350  -1.279  1.00  0.00     0.079 C 
HETATM    9  C8  UNL     1     -10.455  38.218  -1.443  1.00  0.00     0.013 C 
HETATM   10  C9  UNL     1     -10.653  37.314  -2.604  1.00  0.00     0.007 C 
HETATM   11  C10 UNL     1     -11.554  36.191  -2.498  1.00  0.00     0.011 C 
HETATM   12  C11 UNL     1     -12.928  36.350  -1.971  1.00  0.00    -0.009 C 
HETATM   13  C12 UNL     1     -13.716  37.225  -2.925  1.00  0.00     0.010 C 
HETATM   14  C13 UNL     1     -13.449  34.931  -2.175  1.00  0.00     0.057 C 
HETATM   15  C14 UNL     1     -12.188  34.038  -2.325  1.00  0.00     0.174 C 
HETATM   16  F1  UNL     1     -11.966  33.752  -3.655  1.00  0.00    -0.233 F 
HETATM   17  C17 UNL     1     -11.119  34.945  -1.755  1.00  0.00     0.026 C 
HETATM   18  C18 UNL     1     -11.358  34.973  -0.281  1.00  0.00     0.024 C 
ENDROOT
BRANCH  15  19
HETATM   19  C15 UNL     1     -12.441  32.807  -1.555  1.00  0.00     0.163 C 
HETATM   20  C16 UNL     1     -13.684  32.584  -0.780  1.00  0.00     0.094 C 
HETATM   21  O2  UNL     1     -11.620  31.878  -1.510  1.00  0.00    -0.295 OA
ENDBRANCH  15  19
TORSDOF 1
ENDMDL
MODEL 4
REMARK VINA RESULT: -4.320822232      2.479      4.188
REMARK  1 active torsions:
REMARK  status: ('A' for Active; 'I' for Inactive)
REMARK    1  A    between atoms: C14_15  and  C15_17 
ROOT
HETATM    1  C1  UNL     1     -10.450  34.126  -1.783  1.00  0.00     0.015 C 
HETATM    2  C2  UNL     1     -10.722  35.355  -2.136  1.00  0.00    -0.076 C 
HETATM    3  C3  UNL     1     -10.080  35.916  -3.359  1.00  0.00     0.051 C 
HETATM    4  C4  UNL     1      -9.161  37.055  -2.938  1.00  0.00     0.024 C 
HETATM    5  C5  UNL     1      -8.603  37.688  -4.188  1.00  0.00     0.024 C 
HETATM    6  C6  UNL     1      -8.030  36.584  -2.136  1.00  0.00     0.136 C 
HETATM    7  O1  UNL     1      -7.391  35.576  -2.293  1.00  0.00    -0.297 OA
HETATM    8  C7  UNL     1      -7.777  37.571  -1.060  1.00  0.00     0.079 C 
HETATM    9  C8  UNL     1      -9.050  38.364  -0.884  1.00  0.00     0.013 C 
HETATM   10  C9  UNL     1      -9.891  38.038  -2.063  1.00  0.00     0.007 C 
HETATM   11  C10 UNL     1     -11.270  37.649  -1.879  1.00  0.00     0.011 C 
HETATM   12  C11 UNL     1     -12.189  38.440  -1.032  1.00  0.00    -0.009 C 
HETATM   13  C12 UNL     1     -12.388  39.801  -1.668  1.00  0.00     0.010 C 
HETATM   14  C13 UNL     1     -13.485  37.672  -1.270  1.00  0.00     0.057 C 
HETATM   15  C14 UNL     1     -13.058  36.282  -1.812  1.00  0.00     0.174 C 
HETATM   16  F1  UNL     1     -13.213  36.239  -3.181  1.00  0.00    -0.233 F 
HETATM   17  C17 UNL     1     -11.600  36.248  -1.407  1.00  0.00     0.026 C 
HETATM   18  C18 UNL     1     -11.597  36.064   0.075  1.00  0.00     0.024 C 
ENDROOT
BRANCH  15  19
HETATM   19  C15 UNL     1     -13.915  35.282  -1.151  1.00  0.00     0.163 C 
HETATM   20  C16 UNL     1     -14.063  33.895  -1.650  1.00  0.00     0.094 C 
HETATM   21  O2  UNL     1     -14.568  35.546  -0.130  1.00  0.00    -0.295 OA
ENDBRANCH  15  19
TORSDOF 1
ENDMDL
MODEL 5
REMARK VINA RESULT: -4.318960441      1.795      4.958
REMARK  1 active torsions:
REMARK  status: ('A' for Active; 'I' for Inactive)
REMARK    1  A    between atoms: C14_15  and  C15_17 
ROOT
HETATM    1  C1  UNL     1      -6.967  34.377  -1.854  1.00  0.00     0.015 C 
HETATM    2  C2  UNL     1      -6.927  35.683  -1.837  1.00  0.00    -0.076 C 
HETATM    3  C3  UNL     1      -8.155  36.440  -1.459  1.00  0.00     0.051 C 
HETATM    4  C4  UNL     1      -8.618  37.237  -2.672  1.00  0.00     0.024 C 
HETATM    5  C5  UNL     1      -9.792  38.084  -2.250  1.00  0.00     0.024 C 
HETATM    6  C6  UNL     1      -9.064  36.370  -3.764  1.00  0.00     0.136 C 
HETATM    7  O1  UNL     1      -9.695  35.349  -3.678  1.00  0.00    -0.297 OA
HETATM    8  C7  UNL     1      -8.606  36.960  -5.045  1.00  0.00     0.079 C 
HETATM    9  C8  UNL     1      -7.458  37.884  -4.716  1.00  0.00     0.013 C 
HETATM   10  C9  UNL     1      -7.487  38.051  -3.242  1.00  0.00     0.007 C 
HETATM   11  C10 UNL     1      -6.278  37.875  -2.472  1.00  0.00     0.011 C 
HETATM   12  C11 UNL     1      -5.016  38.548  -2.851  1.00  0.00    -0.009 C 
HETATM   13  C12 UNL     1      -5.201  40.045  -2.704  1.00  0.00     0.010 C 
HETATM   14  C13 UNL     1      -4.133  38.118  -1.685  1.00  0.00     0.057 C 
HETATM   15  C14 UNL     1      -4.832  36.880  -1.061  1.00  0.00     0.174 C 
HETATM   16  F1  UNL     1      -5.520  37.247   0.075  1.00  0.00    -0.233 F 
HETATM   17  C17 UNL     1      -5.766  36.479  -2.183  1.00  0.00     0.026 C 
HETATM   18  C18 UNL     1      -4.894  35.893  -3.245  1.00  0.00     0.024 C 
ENDROOT
BRANCH  15  19
HETATM   19  C15 UNL     1      -3.775  35.903  -0.748  1.00  0.00     0.163 C 
HETATM   20  C16 UNL     1      -2.343  36.146  -1.039  1.00  0.00     0.094 C 
HETATM   21  O2  UNL     1      -4.025  34.809  -0.217  1.00  0.00    -0.295 OA
ENDBRANCH  15  19
TORSDOF 1
ENDMDL
