MODEL 1
REMARK VINA RESULT: -5.941507535      0.000      0.000
REMARK  1 active torsions:
REMARK  status: ('A' for Active; 'I' for Inactive)
REMARK    1  A    between atoms: C11_11  and  C12_12 
ROOT
HETATM    1  C1  UNL     1      -9.433  36.850  -4.424  1.00  0.00     0.010 C 
HETATM    2  C2  UNL     1      -8.272  37.798  -4.762  1.00  0.00    -0.009 C 
HETATM    3  C3  UNL     1      -7.979  37.627  -6.212  1.00  0.00     0.017 C 
HETATM    4  C4  UNL     1      -6.665  38.200  -6.645  1.00  0.00    -0.029 C 
HETATM    5  C5  UNL     1      -6.718  39.684  -6.913  1.00  0.00     0.019 C 
HETATM    6  C6  UNL     1      -6.302  37.527  -7.972  1.00  0.00     0.019 C 
HETATM    7  C7  UNL     1      -5.570  37.923  -5.703  1.00  0.00    -0.013 C 
HETATM    8  C8  UNL     1      -5.805  37.600  -4.464  1.00  0.00    -0.045 C 
HETATM    9  C9  UNL     1      -7.152  37.469  -3.845  1.00  0.00     0.021 C 
HETATM   10  C10 UNL     1      -7.180  38.350  -2.639  1.00  0.00     0.025 C 
HETATM   11  C11 UNL     1      -6.563  37.728  -1.418  1.00  0.00     0.106 C 
HETATM   12  C13 UNL     1      -5.076  37.527  -1.539  1.00  0.00     0.235 C 
HETATM   13  C14 UNL     1      -4.320  38.785  -1.828  1.00  0.00     0.039 C 
HETATM   14  C15 UNL     1      -3.952  38.712  -3.300  1.00  0.00     0.042 C 
HETATM   15  C16 UNL     1      -4.524  37.376  -3.741  1.00  0.00     0.252 C 
HETATM   16  N1  UNL     1      -4.701  36.589  -2.544  1.00  0.00     0.098 N 
HETATM   17  C17 UNL     1      -3.546  35.798  -2.227  1.00  0.00     0.311 C 
ENDROOT
BRANCH  11  18
HETATM   18  C12 UNL     1      -7.208  36.484  -0.989  1.00  0.00     0.225 C 
HETATM   19  O1  UNL     1      -6.578  35.505  -0.638  1.00  0.00    -0.279 OA
HETATM   20 CL1  UNL     1      -8.956  36.371  -0.970  1.00  0.00    -0.043 Cl
ENDBRANCH  11  18
TORSDOF 1
ENDMDL
MODEL 2
REMARK VINA RESULT: -5.754883596      2.045      3.862
REMARK  1 active torsions:
REMARK  status: ('A' for Active; 'I' for Inactive)
REMARK    1  A    between atoms: C11_11  and  C12_12 
ROOT
HETATM    1  C1  UNL     1      -4.960  39.587  -3.338  1.00  0.00     0.010 C 
HETATM    2  C2  UNL     1      -5.690  38.547  -4.201  1.00  0.00    -0.009 C 
HETATM    3  C3  UNL     1      -5.958  39.187  -5.519  1.00  0.00     0.017 C 
HETATM    4  C4  UNL     1      -6.961  38.460  -6.361  1.00  0.00    -0.029 C 
HETATM    5  C5  UNL     1      -6.370  37.306  -7.133  1.00  0.00     0.019 C 
HETATM    6  C6  UNL     1      -7.480  39.461  -7.397  1.00  0.00     0.019 C 
HETATM    7  C7  UNL     1      -8.124  37.980  -5.599  1.00  0.00    -0.013 C 
HETATM    8  C8  UNL     1      -8.076  37.832  -4.307  1.00  0.00    -0.045 C 
HETATM    9  C9  UNL     1      -6.893  38.113  -3.447  1.00  0.00     0.021 C 
HETATM   10  C10 UNL     1      -6.607  36.878  -2.659  1.00  0.00     0.025 C 
HETATM   11  C11 UNL     1      -7.459  36.731  -1.430  1.00  0.00     0.106 C 
HETATM   12  C13 UNL     1      -8.914  36.492  -1.739  1.00  0.00     0.235 C 
HETATM   13  C14 UNL     1      -9.157  35.290  -2.595  1.00  0.00     0.039 C 
HETATM   14  C15 UNL     1      -9.460  35.831  -3.982  1.00  0.00     0.042 C 
HETATM   15  C16 UNL     1      -9.384  37.337  -3.798  1.00  0.00     0.252 C 
HETATM   16  N1  UNL     1      -9.553  37.588  -2.387  1.00  0.00     0.098 N 
HETATM   17  C17 UNL     1     -10.927  37.783  -2.022  1.00  0.00     0.311 C 
ENDROOT
BRANCH  11  18
HETATM   18  C12 UNL     1      -7.321  37.830  -0.470  1.00  0.00     0.225 C 
HETATM   19  O1  UNL     1      -8.276  38.350   0.075  1.00  0.00    -0.279 OA
HETATM   20 CL1  UNL     1      -5.729  38.442  -0.071  1.00  0.00    -0.043 Cl
ENDBRANCH  11  18
TORSDOF 1
ENDMDL
MODEL 3
REMARK VINA RESULT: -4.866134453      1.694      2.101
REMARK  1 active torsions:
REMARK  status: ('A' for Active; 'I' for Inactive)
REMARK    1  A    between atoms: C11_11  and  C12_12 
ROOT
HETATM    1  C1  UNL     1      -9.447  36.653  -7.123  1.00  0.00     0.010 C 
HETATM    2  C2  UNL     1      -8.563  37.866  -6.794  1.00  0.00    -0.009 C 
HETATM    3  C3  UNL     1      -7.710  38.119  -7.989  1.00  0.00     0.017 C 
HETATM    4  C4  UNL     1      -6.549  39.029  -7.732  1.00  0.00    -0.029 C 
HETATM    5  C5  UNL     1      -6.913  40.492  -7.783  1.00  0.00     0.019 C 
HETATM    6  C6  UNL     1      -5.539  38.789  -8.859  1.00  0.00     0.019 C 
HETATM    7  C7  UNL     1      -5.859  38.751  -6.464  1.00  0.00    -0.013 C 
HETATM    8  C8  UNL     1      -6.442  38.093  -5.503  1.00  0.00    -0.045 C 
HETATM    9  C9  UNL     1      -7.827  37.550  -5.543  1.00  0.00     0.021 C 
HETATM   10  C10 UNL     1      -8.554  38.083  -4.353  1.00  0.00     0.025 C 
HETATM   11  C11 UNL     1      -8.294  37.314  -3.088  1.00  0.00     0.106 C 
HETATM   12  C13 UNL     1      -6.879  37.448  -2.590  1.00  0.00     0.235 C 
HETATM   13  C14 UNL     1      -6.458  38.862  -2.346  1.00  0.00     0.039 C 
HETATM   14  C15 UNL     1      -5.558  39.229  -3.514  1.00  0.00     0.042 C 
HETATM   15  C16 UNL     1      -5.520  37.956  -4.343  1.00  0.00     0.252 C 
HETATM   16  N1  UNL     1      -5.905  36.880  -3.462  1.00  0.00     0.098 N 
HETATM   17  C17 UNL     1      -4.782  36.280  -2.799  1.00  0.00     0.311 C 
ENDROOT
BRANCH  11  18
HETATM   18  C12 UNL     1      -8.674  35.901  -3.158  1.00  0.00     0.225 C 
HETATM   19  O1  UNL     1      -9.482  35.476  -3.961  1.00  0.00    -0.279 OA
HETATM   20 CL1  UNL     1      -7.950  34.751  -2.051  1.00  0.00    -0.043 Cl
ENDBRANCH  11  18
TORSDOF 1
ENDMDL
MODEL 4
REMARK VINA RESULT: -4.803169897      2.317      3.831
REMARK  1 active torsions:
REMARK  status: ('A' for Active; 'I' for Inactive)
REMARK    1  A    between atoms: C11_11  and  C12_12 
ROOT
HETATM    1  C1  UNL     1      -8.568  37.419  -5.950  1.00  0.00     0.010 C 
HETATM    2  C2  UNL     1      -7.799  37.958  -4.735  1.00  0.00    -0.009 C 
HETATM    3  C3  UNL     1      -6.349  37.798  -5.032  1.00  0.00     0.017 C 
HETATM    4  C4  UNL     1      -5.458  37.940  -3.837  1.00  0.00    -0.029 C 
HETATM    5  C5  UNL     1      -5.146  39.375  -3.490  1.00  0.00     0.019 C 
HETATM    6  C6  UNL     1      -4.126  37.275  -4.194  1.00  0.00     0.019 C 
HETATM    7  C7  UNL     1      -5.976  37.260  -2.640  1.00  0.00    -0.013 C 
HETATM    8  C8  UNL     1      -7.235  36.950  -2.526  1.00  0.00    -0.045 C 
HETATM    9  C9  UNL     1      -8.289  37.224  -3.541  1.00  0.00     0.021 C 
HETATM   10  C10 UNL     1      -9.380  37.983  -2.863  1.00  0.00     0.025 C 
HETATM   11  C11 UNL     1     -10.344  37.115  -2.104  1.00  0.00     0.106 C 
HETATM   12  C13 UNL     1      -9.727  36.450  -0.902  1.00  0.00     0.235 C 
HETATM   13  C14 UNL     1      -9.127  37.411   0.075  1.00  0.00     0.039 C 
HETATM   14  C15 UNL     1      -7.625  37.320  -0.130  1.00  0.00     0.042 C 
HETATM   15  C16 UNL     1      -7.481  36.274  -1.223  1.00  0.00     0.252 C 
HETATM   16  N1  UNL     1      -8.705  35.510  -1.225  1.00  0.00     0.098 N 
HETATM   17  C17 UNL     1      -8.645  34.368  -0.358  1.00  0.00     0.311 C 
ENDROOT
BRANCH  11  18
HETATM   18  C12 UNL     1     -11.036  36.123  -2.931  1.00  0.00     0.225 C 
HETATM   19  O1  UNL     1     -10.445  35.348  -3.659  1.00  0.00    -0.279 OA
HETATM   20 CL1  UNL     1     -12.784  36.024  -2.891  1.00  0.00    -0.043 Cl
ENDBRANCH  11  18
TORSDOF 1
ENDMDL
MODEL 5
REMARK VINA RESULT: -4.602274903      2.373      4.732
REMARK  1 active torsions:
REMARK  status: ('A' for Active; 'I' for Inactive)
REMARK    1  A    between atoms: C11_11  and  C12_12 
ROOT
HETATM    1  C1  UNL     1      -5.038  37.600  -5.165  1.00  0.00     0.010 C 
HETATM    2  C2  UNL     1      -4.945  37.563  -3.632  1.00  0.00    -0.009 C 
HETATM    3  C3  UNL     1      -3.695  36.830  -3.290  1.00  0.00     0.017 C 
HETATM    4  C4  UNL     1      -3.613  36.390  -1.860  1.00  0.00    -0.029 C 
HETATM    5  C5  UNL     1      -3.137  37.475  -0.927  1.00  0.00     0.019 C 
HETATM    6  C6  UNL     1      -2.570  35.270  -1.800  1.00  0.00     0.019 C 
HETATM    7  C7  UNL     1      -4.875  35.837  -1.347  1.00  0.00    -0.013 C 
HETATM    8  C8  UNL     1      -6.014  36.096  -1.922  1.00  0.00    -0.045 C 
HETATM    9  C9  UNL     1      -6.200  36.949  -3.128  1.00  0.00     0.021 C 
HETATM   10  C10 UNL     1      -7.202  38.001  -2.784  1.00  0.00     0.025 C 
HETATM   11  C11 UNL     1      -8.628  37.541  -2.896  1.00  0.00     0.106 C 
HETATM   12  C13 UNL     1      -9.002  36.504  -1.870  1.00  0.00     0.235 C 
HETATM   13  C14 UNL     1      -8.787  36.950  -0.458  1.00  0.00     0.039 C 
HETATM   14  C15 UNL     1      -7.526  36.242   0.007  1.00  0.00     0.042 C 
HETATM   15  C16 UNL     1      -7.121  35.412  -1.200  1.00  0.00     0.252 C 
HETATM   16  N1  UNL     1      -8.303  35.271  -2.017  1.00  0.00     0.098 N 
HETATM   17  C17 UNL     1      -9.068  34.103  -1.683  1.00  0.00     0.311 C 
ENDROOT
BRANCH  11  18
HETATM   18  C12 UNL     1      -9.008  37.085  -4.236  1.00  0.00     0.225 C 
HETATM   19  O1  UNL     1      -9.695  36.100  -4.424  1.00  0.00    -0.279 OA
HETATM   20 CL1  UNL     1      -8.465  37.975  -5.644  1.00  0.00    -0.043 Cl
ENDBRANCH  11  18
TORSDOF 1
ENDMDL
