MODEL 1
REMARK VINA RESULT: -6.360033247      0.000      0.000
REMARK  1 active torsions:
REMARK  status: ('A' for Active; 'I' for Inactive)
REMARK    1  A    between atoms: C1_2  and  C2_3 
REMARK       I    between atoms: C1_2  and  N2_17 
ROOT
HETATM    1  C2  UNL     1      -4.581  37.497  -2.429  1.00  0.00     0.105 C 
HETATM    2  C3  UNL     1      -5.908  37.117  -1.884  1.00  0.00     0.001 C 
HETATM    3  C4  UNL     1      -6.384  38.145  -0.900  1.00  0.00     0.005 C 
HETATM    4  C5  UNL     1      -5.933  39.528  -1.125  1.00  0.00     0.002 C 
HETATM    5  C6  UNL     1      -5.378  39.872  -2.445  1.00  0.00     0.026 C 
HETATM    6  C7  UNL     1      -4.647  38.787  -3.177  1.00  0.00     0.094 C 
HETATM    7  N1  UNL     1      -5.288  38.543  -4.461  1.00  0.00    -0.391 N 
ATOM      8  H1  UNL     1      -4.704  38.685  -5.286  1.00  0.00     0.159 HD
HETATM    9  C8  UNL     1      -6.481  38.175  -4.683  1.00  0.00    -0.014 C 
HETATM   10  C9  UNL     1      -7.016  37.961  -6.035  1.00  0.00     0.052 C 
HETATM   11  C10 UNL     1      -8.490  37.785  -5.888  1.00  0.00     0.006 C 
HETATM   12  C11 UNL     1      -8.695  37.336  -4.457  1.00  0.00     0.011 C 
HETATM   13  C12 UNL     1      -7.523  37.894  -3.675  1.00  0.00     0.031 C 
HETATM   14  C13 UNL     1      -6.996  36.770  -2.816  1.00  0.00     0.016 C 
ENDROOT
BRANCH   1  15
HETATM   15  C1  UNL     1      -3.863  36.449  -3.143  1.00  0.00     0.226 C 
HETATM   16  O1  UNL     1      -3.356  36.760  -4.267  1.00  0.00    -0.273 OA
HETATM   17  N2  UNL     1      -3.691  35.143  -2.689  1.00  0.00    -0.352 N 
HETATM   18  C14 UNL     1      -4.194  34.560  -1.471  1.00  0.00     0.125 C 
HETATM   19  C18 UNL     1      -2.903  34.208  -3.518  1.00  0.00     0.125 C 
HETATM   20  C15 UNL     1      -4.419  33.069  -1.748  1.00  0.00     0.020 C 
HETATM   21  C16 UNL     1      -3.015  32.453  -1.747  1.00  0.00     0.003 C 
HETATM   22  C17 UNL     1      -2.103  33.286  -2.632  1.00  0.00     0.020 C 
ENDBRANCH   1  15
TORSDOF 1
ENDMDL
MODEL 2
REMARK VINA RESULT: -6.326329968      1.967      5.395
REMARK  1 active torsions:
REMARK  status: ('A' for Active; 'I' for Inactive)
REMARK    1  A    between atoms: C1_2  and  C2_3 
REMARK       I    between atoms: C1_2  and  N2_17 
ROOT
HETATM    1  C2  UNL     1      -6.767  38.502  -3.648  1.00  0.00     0.105 C 
HETATM    2  C3  UNL     1      -5.303  38.479  -3.880  1.00  0.00     0.001 C 
HETATM    3  C4  UNL     1      -4.625  39.538  -3.060  1.00  0.00     0.005 C 
HETATM    4  C5  UNL     1      -5.267  39.891  -1.784  1.00  0.00     0.002 C 
HETATM    5  C6  UNL     1      -6.278  38.971  -1.236  1.00  0.00     0.026 C 
HETATM    6  C7  UNL     1      -7.099  38.199  -2.225  1.00  0.00     0.094 C 
HETATM    7  N1  UNL     1      -6.921  36.771  -2.004  1.00  0.00    -0.391 N 
ATOM      8  H1  UNL     1      -7.765  36.245  -1.778  1.00  0.00     0.159 HD
HETATM    9  C8  UNL     1      -5.847  36.099  -2.058  1.00  0.00    -0.014 C 
HETATM   10  C9  UNL     1      -5.794  34.651  -1.812  1.00  0.00     0.052 C 
HETATM   11  C10 UNL     1      -4.350  34.286  -1.722  1.00  0.00     0.006 C 
HETATM   12  C11 UNL     1      -3.617  35.380  -2.467  1.00  0.00     0.011 C 
HETATM   13  C12 UNL     1      -4.497  36.610  -2.371  1.00  0.00     0.031 C 
HETATM   14  C13 UNL     1      -4.574  37.203  -3.757  1.00  0.00     0.016 C 
ENDROOT
BRANCH   1  15
HETATM   15  C1  UNL     1      -7.575  37.754  -4.604  1.00  0.00     0.226 C 
HETATM   16  O1  UNL     1      -8.526  37.055  -4.132  1.00  0.00    -0.273 OA
HETATM   17  N2  UNL     1      -7.384  37.751  -5.984  1.00  0.00    -0.352 N 
HETATM   18  C14 UNL     1      -6.365  38.439  -6.734  1.00  0.00     0.125 C 
HETATM   19  C18 UNL     1      -8.316  36.966  -6.820  1.00  0.00     0.125 C 
HETATM   20  C15 UNL     1      -6.086  37.597  -7.985  1.00  0.00     0.020 C 
HETATM   21  C16 UNL     1      -7.282  37.858  -8.909  1.00  0.00     0.003 C 
HETATM   22  C17 UNL     1      -8.569  37.687  -8.120  1.00  0.00     0.020 C 
ENDBRANCH   1  15
TORSDOF 1
ENDMDL
MODEL 3
REMARK VINA RESULT: -6.317443026      2.972      5.628
REMARK  1 active torsions:
REMARK  status: ('A' for Active; 'I' for Inactive)
REMARK    1  A    between atoms: C1_2  and  C2_3 
REMARK       I    between atoms: C1_2  and  N2_17 
ROOT
HETATM    1  C2  UNL     1      -7.147  37.796  -6.776  1.00  0.00     0.105 C 
HETATM    2  C3  UNL     1      -7.467  36.718  -7.744  1.00  0.00     0.001 C 
HETATM    3  C4  UNL     1      -8.903  36.809  -8.174  1.00  0.00     0.005 C 
HETATM    4  C5  UNL     1      -9.500  38.155  -8.186  1.00  0.00     0.002 C 
HETATM    5  C6  UNL     1      -8.597  39.317  -8.140  1.00  0.00     0.026 C 
HETATM    6  C7  UNL     1      -7.310  39.147  -7.389  1.00  0.00     0.094 C 
HETATM    7  N1  UNL     1      -6.186  39.388  -8.281  1.00  0.00    -0.391 N 
ATOM      8  H1  UNL     1      -5.560  40.148  -8.015  1.00  0.00     0.159 HD
HETATM    9  C8  UNL     1      -5.886  38.770  -9.348  1.00  0.00    -0.014 C 
HETATM   10  C9  UNL     1      -4.716  39.110 -10.170  1.00  0.00     0.052 C 
HETATM   11  C10 UNL     1      -4.849  38.340 -11.440  1.00  0.00     0.006 C 
HETATM   12  C11 UNL     1      -5.751  37.172 -11.104  1.00  0.00     0.011 C 
HETATM   13  C12 UNL     1      -6.615  37.634  -9.948  1.00  0.00     0.031 C 
HETATM   14  C13 UNL     1      -6.601  36.527  -8.922  1.00  0.00     0.016 C 
ENDROOT
BRANCH   1  15
HETATM   15  C1  UNL     1      -5.898  37.640  -6.042  1.00  0.00     0.226 C 
HETATM   16  O1  UNL     1      -4.863  37.346  -6.720  1.00  0.00    -0.273 OA
HETATM   17  N2  UNL     1      -5.754  37.789  -4.664  1.00  0.00    -0.352 N 
HETATM   18  C14 UNL     1      -6.780  38.090  -3.699  1.00  0.00     0.125 C 
HETATM   19  C18 UNL     1      -4.407  37.633  -4.077  1.00  0.00     0.125 C 
HETATM   20  C15 UNL     1      -6.357  37.435  -2.378  1.00  0.00     0.020 C 
HETATM   21  C16 UNL     1      -5.242  38.335  -1.832  1.00  0.00     0.003 C 
HETATM   22  C17 UNL     1      -4.231  38.602  -2.934  1.00  0.00     0.020 C 
ENDBRANCH   1  15
TORSDOF 1
ENDMDL
MODEL 4
REMARK VINA RESULT: -6.106790743      1.610      5.398
REMARK  1 active torsions:
REMARK  status: ('A' for Active; 'I' for Inactive)
REMARK    1  A    between atoms: C1_2  and  C2_3 
REMARK       I    between atoms: C1_2  and  N2_17 
ROOT
HETATM    1  C2  UNL     1      -6.110  38.393  -3.612  1.00  0.00     0.105 C 
HETATM    2  C3  UNL     1      -5.068  39.129  -2.855  1.00  0.00     0.001 C 
HETATM    3  C4  UNL     1      -5.681  39.866  -1.700  1.00  0.00     0.005 C 
HETATM    4  C5  UNL     1      -6.887  39.266  -1.105  1.00  0.00     0.002 C 
HETATM    5  C6  UNL     1      -7.189  37.859  -1.415  1.00  0.00     0.026 C 
HETATM    6  C7  UNL     1      -6.771  37.357  -2.765  1.00  0.00     0.094 C 
HETATM    7  N1  UNL     1      -5.856  36.235  -2.611  1.00  0.00    -0.391 N 
ATOM      8  H1  UNL     1      -6.158  35.353  -3.025  1.00  0.00     0.159 HD
HETATM    9  C8  UNL     1      -4.731  36.217  -2.026  1.00  0.00    -0.014 C 
HETATM   10  C9  UNL     1      -3.894  35.012  -1.935  1.00  0.00     0.052 C 
HETATM   11  C10 UNL     1      -2.797  35.328  -0.976  1.00  0.00     0.006 C 
HETATM   12  C11 UNL     1      -2.689  36.837  -0.978  1.00  0.00     0.011 C 
HETATM   13  C12 UNL     1      -4.063  37.351  -1.355  1.00  0.00     0.031 C 
HETATM   14  C13 UNL     1      -3.859  38.412  -2.409  1.00  0.00     0.016 C 
ENDROOT
BRANCH   1  15
HETATM   15  C1  UNL     1      -5.713  37.901  -4.926  1.00  0.00     0.226 C 
HETATM   16  O1  UNL     1      -4.599  37.292  -5.001  1.00  0.00    -0.273 OA
HETATM   17  N2  UNL     1      -6.457  38.045  -6.094  1.00  0.00    -0.352 N 
HETATM   18  C14 UNL     1      -7.723  38.715  -6.256  1.00  0.00     0.125 C 
HETATM   19  C18 UNL     1      -5.930  37.455  -7.342  1.00  0.00     0.125 C 
HETATM   20  C15 UNL     1      -7.761  39.258  -7.689  1.00  0.00     0.020 C 
HETATM   21  C16 UNL     1      -8.026  38.030  -8.568  1.00  0.00     0.003 C 
HETATM   22  C17 UNL     1      -7.067  36.919  -8.176  1.00  0.00     0.020 C 
ENDBRANCH   1  15
TORSDOF 1
ENDMDL
MODEL 5
REMARK VINA RESULT: -6.070430997      3.162      6.003
REMARK  1 active torsions:
REMARK  status: ('A' for Active; 'I' for Inactive)
REMARK    1  A    between atoms: C1_2  and  C2_3 
REMARK       I    between atoms: C1_2  and  N2_17 
ROOT
HETATM    1  C2  UNL     1      -9.252  37.246  -4.204  1.00  0.00     0.105 C 
HETATM    2  C3  UNL     1      -9.549  38.044  -2.989  1.00  0.00     0.001 C 
HETATM    3  C4  UNL     1     -10.956  37.793  -2.528  1.00  0.00     0.005 C 
HETATM    4  C5  UNL     1     -11.513  36.462  -2.817  1.00  0.00     0.002 C 
HETATM    5  C6  UNL     1     -10.581  35.383  -3.187  1.00  0.00     0.026 C 
HETATM    6  C7  UNL     1      -9.343  35.782  -3.932  1.00  0.00     0.094 C 
HETATM    7  N1  UNL     1      -8.165  35.378  -3.178  1.00  0.00    -0.391 N 
ATOM      8  H1  UNL     1      -7.533  34.731  -3.651  1.00  0.00     0.159 HD
HETATM    9  C8  UNL     1      -7.825  35.731  -2.008  1.00  0.00    -0.014 C 
HETATM   10  C9  UNL     1      -6.602  35.250  -1.349  1.00  0.00     0.052 C 
HETATM   11  C10 UNL     1      -6.687  35.684   0.075  1.00  0.00     0.006 C 
HETATM   12  C11 UNL     1      -7.639  36.861   0.075  1.00  0.00     0.011 C 
HETATM   13  C12 UNL     1      -8.551  36.658  -1.117  1.00  0.00     0.031 C 
HETATM   14  C13 UNL     1      -8.625  37.980  -1.841  1.00  0.00     0.016 C 
ENDROOT
BRANCH   1  15
HETATM   15  C1  UNL     1      -8.049  37.626  -4.935  1.00  0.00     0.226 C 
HETATM   16  O1  UNL     1      -7.054  38.014  -4.246  1.00  0.00    -0.273 OA
HETATM   17  N2  UNL     1      -7.911  37.596  -6.321  1.00  0.00    -0.352 N 
HETATM   18  C14 UNL     1      -8.902  37.222  -7.298  1.00  0.00     0.125 C 
HETATM   19  C18 UNL     1      -6.609  37.979  -6.906  1.00  0.00     0.125 C 
HETATM   20  C15 UNL     1      -8.598  38.020  -8.571  1.00  0.00     0.020 C 
HETATM   21  C16 UNL     1      -7.379  37.325  -9.189  1.00  0.00     0.003 C 
HETATM   22  C17 UNL     1      -6.321  37.126  -8.117  1.00  0.00     0.020 C 
ENDBRANCH   1  15
TORSDOF 1
ENDMDL
