MODEL 1
REMARK VINA RESULT: -6.482312380      0.000      0.000
REMARK  19 active torsions:
REMARK  status: ('A' for Active; 'I' for Inactive)
REMARK    1  A    between atoms: C2_2  and  C3_3 
REMARK    2  A    between atoms: C3_3  and  C4_4 
REMARK    3  A    between atoms: C4_4  and  N1_5 
REMARK    4  A    between atoms: C4_4  and  C21_26 
REMARK    5  A    between atoms: N1_5  and  C5_7 
REMARK    6  A    between atoms: C5_7  and  C6_8 
REMARK    7  A    between atoms: C5_7  and  C13_15 
REMARK    8  A    between atoms: C6_8  and  C7_9 
REMARK    9  A    between atoms: C13_15  and  C14_17 
REMARK       I    between atoms: C14_17  and  N2_19 
REMARK   10  A    between atoms: N2_19  and  C15_20 
REMARK   11  A    between atoms: N2_19  and  C18_23 
REMARK   12  A    between atoms: C21_26  and  N4_33 
REMARK   13  A    between atoms: N3_27  and  C22_29 
REMARK       I    between atoms: N5_36  and  C28_37 
REMARK       I    between atoms: C28_37  and  N6_39 
REMARK   14  A    between atoms: N6_39  and  C29_41 
REMARK   15  A    between atoms: C29_41  and  C30_42 
REMARK   16  A    between atoms: C30_42  and  C31_43 
REMARK   17  A    between atoms: C31_43  and  C32_44 
REMARK   18  A    between atoms: C32_44  and  C33_45 
REMARK   19  A    between atoms: C33_45  and  N7_46 
ROOT
HETATM    1  C21 UNL     1     -10.089  15.337  -0.747  1.00  0.00     0.098 C 
HETATM    2  N3  UNL     1     -10.229  15.413  -1.947  1.00  0.00    -0.370 N 
ATOM      3  H3  UNL     1      -9.886  14.536  -2.340  1.00  0.00     0.161 HD
ENDROOT
BRANCH   1   4
HETATM    4  C4  UNL     1      -9.494  14.078  -0.120  1.00  0.00     0.144 C 
BRANCH   4   5
HETATM    5  C3  UNL     1     -10.549  13.141   0.362  1.00  0.00     0.032 C 
BRANCH   5   6
HETATM    6  C2  UNL     1     -10.631  12.985   1.856  1.00  0.00    -0.002 C 
HETATM    7  C1  UNL     1     -10.514  11.496   2.137  1.00  0.00     0.005 C 
ENDBRANCH   5   6
ENDBRANCH   4   5
BRANCH   4   8
HETATM    8  N1  UNL     1      -8.432  13.568  -0.826  1.00  0.00    -0.399 N 
ATOM      9  H1  UNL     1      -8.636  13.105  -1.712  1.00  0.00     0.154 HD
BRANCH   8  10
HETATM   10  C5  UNL     1      -7.065  13.634  -0.417  1.00  0.00     0.158 C 
BRANCH  10  11
HETATM   11  C6  UNL     1      -6.432  12.556   0.316  1.00  0.00     0.037 C 
BRANCH  11  12
HETATM   12  C7  UNL     1      -6.889  12.316   1.736  1.00  0.00    -0.012 C 
HETATM   13  C8  UNL     1      -5.839  11.465   2.471  1.00  0.00     0.005 C 
HETATM   14  C9  UNL     1      -6.263  11.317   3.891  1.00  0.00     0.000 C 
HETATM   15  C10 UNL     1      -7.522  12.044   4.244  1.00  0.00     0.000 C 
HETATM   16  C11 UNL     1      -7.466  13.504   3.858  1.00  0.00     0.000 C 
HETATM   17  C12 UNL     1      -6.876  13.652   2.498  1.00  0.00     0.005 C 
ENDBRANCH  11  12
ENDBRANCH  10  11
BRANCH  10  18
HETATM   18  C13 UNL     1      -6.357  14.090  -1.688  1.00  0.00     0.238 C 
HETATM   19  O1  UNL     1      -5.227  14.631  -1.378  1.00  0.00    -0.285 OA
BRANCH  18  20
HETATM   20  C14 UNL     1      -6.730  14.022  -3.032  1.00  0.00     0.292 C 
HETATM   21  O2  UNL     1      -7.316  15.056  -3.546  1.00  0.00    -0.264 OA
HETATM   22  N2  UNL     1      -6.572  12.968  -3.971  1.00  0.00    -0.338 N 
BRANCH  22  23
HETATM   23  C15 UNL     1      -7.140  13.218  -5.325  1.00  0.00     0.080 C 
HETATM   24  C16 UNL     1      -7.943  12.042  -5.771  1.00  0.00     0.032 C 
HETATM   25  C17 UNL     1      -6.016  13.455  -6.307  1.00  0.00     0.032 C 
ENDBRANCH  22  23
BRANCH  22  26
HETATM   26  C18 UNL     1      -5.930  11.709  -3.809  1.00  0.00     0.080 C 
HETATM   27  C19 UNL     1      -6.618  10.748  -2.872  1.00  0.00     0.032 C 
HETATM   28  C20 UNL     1      -4.449  11.778  -3.516  1.00  0.00     0.032 C 
ENDBRANCH  22  26
ENDBRANCH  18  20
ENDBRANCH  10  18
ENDBRANCH   8  10
ENDBRANCH   4   8
ENDBRANCH   1   4
BRANCH   1  29
HETATM   29  N4  UNL     1     -10.428  16.328   0.202  1.00  0.00    -0.366 N 
HETATM   30  C26 UNL     1     -11.716  16.903   0.417  1.00  0.00     0.144 C 
HETATM   31  C27 UNL     1     -12.052  17.073   1.857  1.00  0.00     0.147 C 
HETATM   32  N5  UNL     1     -10.996  16.724   2.775  1.00  0.00    -0.331 N 
HETATM   33  C28 UNL     1     -11.287  16.027   3.968  1.00  0.00     0.322 C 
HETATM   34  C34 UNL     1      -9.666  17.115   2.434  1.00  0.00     0.147 C 
HETATM   35  O3  UNL     1     -12.504  15.750   4.170  1.00  0.00    -0.247 OA
HETATM   36  N6  UNL     1     -10.338  15.624   4.933  1.00  0.00    -0.319 N 
ATOM     37  H6  UNL     1      -9.360  15.838   4.735  1.00  0.00     0.169 HD
HETATM   38  C35 UNL     1      -9.312  16.808   1.007  1.00  0.00     0.144 C 
BRANCH  36  39
HETATM   39  C29 UNL     1     -10.608  14.957   6.140  1.00  0.00     0.088 C 
BRANCH  39  40
HETATM   40  C30 UNL     1      -9.824  13.803   6.600  1.00  0.00    -0.009 C 
BRANCH  40  41
HETATM   41  C31 UNL     1     -10.391  12.462   6.734  1.00  0.00     0.030 C 
BRANCH  41  42
HETATM   42  C32 UNL     1     -11.538  12.337   5.706  1.00  0.00     0.031 C 
BRANCH  42  43
HETATM   43  C33 UNL     1     -12.717  11.603   6.250  1.00  0.00     0.230 C 
BRANCH  43  44
HETATM   44  N7  UNL     1     -12.383  10.974   7.529  1.00  0.00    -0.079 N 
ATOM     45  H73 UNL     1     -11.936  10.066   7.399  1.00  0.00     0.274 HD
ATOM     46  H72 UNL     1     -11.617  11.456   7.999  1.00  0.00     0.274 HD
ATOM     47  H71 UNL     1     -13.211  10.908   8.121  1.00  0.00     0.274 HD
ENDBRANCH  43  44
ENDBRANCH  42  43
ENDBRANCH  41  42
ENDBRANCH  40  41
ENDBRANCH  39  40
ENDBRANCH  36  39
ENDBRANCH   1  29
BRANCH   2  48
HETATM   48  C22 UNL     1     -10.656  16.185  -3.007  1.00  0.00     0.020 C 
HETATM   49  C23 UNL     1     -12.114  16.656  -2.931  1.00  0.00     0.037 C 
HETATM   50  C24 UNL     1      -9.771  17.462  -3.033  1.00  0.00     0.037 C 
HETATM   51  C25 UNL     1     -10.493  15.609  -4.400  1.00  0.00     0.037 C 
ENDBRANCH   2  48
TORSDOF 19
ENDMDL
MODEL 2
REMARK VINA RESULT: -6.478082604      2.654      8.591
REMARK  19 active torsions:
REMARK  status: ('A' for Active; 'I' for Inactive)
REMARK    1  A    between atoms: C2_2  and  C3_3 
REMARK    2  A    between atoms: C3_3  and  C4_4 
REMARK    3  A    between atoms: C4_4  and  N1_5 
REMARK    4  A    between atoms: C4_4  and  C21_26 
REMARK    5  A    between atoms: N1_5  and  C5_7 
REMARK    6  A    between atoms: C5_7  and  C6_8 
REMARK    7  A    between atoms: C5_7  and  C13_15 
REMARK    8  A    between atoms: C6_8  and  C7_9 
REMARK    9  A    between atoms: C13_15  and  C14_17 
REMARK       I    between atoms: C14_17  and  N2_19 
REMARK   10  A    between atoms: N2_19  and  C15_20 
REMARK   11  A    between atoms: N2_19  and  C18_23 
REMARK   12  A    between atoms: C21_26  and  N4_33 
REMARK   13  A    between atoms: N3_27  and  C22_29 
REMARK       I    between atoms: N5_36  and  C28_37 
REMARK       I    between atoms: C28_37  and  N6_39 
REMARK   14  A    between atoms: N6_39  and  C29_41 
REMARK   15  A    between atoms: C29_41  and  C30_42 
REMARK   16  A    between atoms: C30_42  and  C31_43 
REMARK   17  A    between atoms: C31_43  and  C32_44 
REMARK   18  A    between atoms: C32_44  and  C33_45 
REMARK   19  A    between atoms: C33_45  and  N7_46 
ROOT
HETATM    1  C21 UNL     1     -11.992  16.594   0.793  1.00  0.00     0.098 C 
HETATM    2  N3  UNL     1     -12.550  17.158   1.707  1.00  0.00    -0.370 N 
ATOM      3  H3  UNL     1     -12.493  16.537   2.515  1.00  0.00     0.161 HD
ENDROOT
BRANCH   1   4
HETATM    4  C4  UNL     1     -11.375  15.212   1.003  1.00  0.00     0.144 C 
BRANCH   4   5
HETATM    5  C3  UNL     1      -9.885  15.259   0.997  1.00  0.00     0.032 C 
BRANCH   5   6
HETATM    6  C2  UNL     1      -9.280  16.434   1.715  1.00  0.00    -0.002 C 
HETATM    7  C1  UNL     1      -8.009  15.923   2.375  1.00  0.00     0.005 C 
ENDBRANCH   5   6
ENDBRANCH   4   5
BRANCH   4   8
HETATM    8  N1  UNL     1     -12.008  14.476   1.974  1.00  0.00    -0.399 N 
ATOM      9  H1  UNL     1     -12.963  14.172   1.786  1.00  0.00     0.154 HD
BRANCH   8  10
HETATM   10  C5  UNL     1     -11.432  14.101   3.227  1.00  0.00     0.158 C 
BRANCH  10  11
HETATM   11  C6  UNL     1     -11.843  14.718   4.473  1.00  0.00     0.037 C 
BRANCH  11  12
HETATM   12  C7  UNL     1     -11.216  16.044   4.834  1.00  0.00    -0.012 C 
HETATM   13  C8  UNL     1     -12.083  16.744   5.895  1.00  0.00     0.005 C 
HETATM   14  C9  UNL     1     -11.401  18.004   6.302  1.00  0.00     0.000 C 
HETATM   15  C10 UNL     1     -10.078  18.237   5.646  1.00  0.00     0.000 C 
HETATM   16  C11 UNL     1      -9.146  17.058   5.802  1.00  0.00     0.000 C 
HETATM   17  C12 UNL     1      -9.885  15.787   5.560  1.00  0.00     0.005 C 
ENDBRANCH  11  12
ENDBRANCH  10  11
BRANCH  10  18
HETATM   18  C13 UNL     1     -11.488  12.579   3.180  1.00  0.00     0.238 C 
HETATM   19  O1  UNL     1     -10.310  12.099   3.395  1.00  0.00    -0.285 OA
BRANCH  18  20
HETATM   20  C14 UNL     1     -12.546  11.697   2.945  1.00  0.00     0.292 C 
HETATM   21  O2  UNL     1     -12.926  11.528   1.718  1.00  0.00    -0.264 OA
HETATM   22  N2  UNL     1     -13.309  10.922   3.859  1.00  0.00    -0.338 N 
BRANCH  22  23
HETATM   23  C15 UNL     1     -14.411  10.119   3.261  1.00  0.00     0.080 C 
HETATM   24  C16 UNL     1     -15.719  10.512   3.864  1.00  0.00     0.032 C 
HETATM   25  C17 UNL     1     -14.164   8.650   3.523  1.00  0.00     0.032 C 
ENDBRANCH  22  23
BRANCH  22  26
HETATM   26  C18 UNL     1     -13.159  10.788   5.267  1.00  0.00     0.080 C 
HETATM   27  C19 UNL     1     -13.447  12.033   6.069  1.00  0.00     0.032 C 
HETATM   28  C20 UNL     1     -11.867  10.147   5.716  1.00  0.00     0.032 C 
ENDBRANCH  22  26
ENDBRANCH  18  20
ENDBRANCH  10  18
ENDBRANCH   8  10
ENDBRANCH   4   8
ENDBRANCH   1   4
BRANCH   1  29
HETATM   29  N4  UNL     1     -11.833  17.084  -0.523  1.00  0.00    -0.366 N 
HETATM   30  C26 UNL     1     -11.101  18.242  -0.923  1.00  0.00     0.144 C 
HETATM   31  C27 UNL     1     -10.295  18.032  -2.156  1.00  0.00     0.147 C 
HETATM   32  N5  UNL     1     -10.462  16.744  -2.783  1.00  0.00    -0.331 N 
HETATM   33  C28 UNL     1      -9.349  16.057  -3.315  1.00  0.00     0.322 C 
HETATM   34  C34 UNL     1     -11.784  16.207  -2.849  1.00  0.00     0.147 C 
HETATM   35  O3  UNL     1      -8.232  16.640  -3.212  1.00  0.00    -0.247 OA
HETATM   36  N6  UNL     1      -9.390  14.790  -3.939  1.00  0.00    -0.319 N 
ATOM     37  H6  UNL     1     -10.299  14.330  -3.986  1.00  0.00     0.169 HD
HETATM   38  C35 UNL     1     -12.527  16.314  -1.549  1.00  0.00     0.144 C 
BRANCH  36  39
HETATM   39  C29 UNL     1      -8.301  14.102  -4.500  1.00  0.00     0.088 C 
BRANCH  39  40
HETATM   40  C30 UNL     1      -8.365  13.461  -5.820  1.00  0.00    -0.009 C 
BRANCH  40  41
HETATM   41  C31 UNL     1      -7.204  13.345  -6.702  1.00  0.00     0.030 C 
BRANCH  41  42
HETATM   42  C32 UNL     1      -5.938  13.459  -5.822  1.00  0.00     0.031 C 
BRANCH  42  43
HETATM   43  C33 UNL     1      -5.170  12.182  -5.756  1.00  0.00     0.230 C 
BRANCH  43  44
HETATM   44  N7  UNL     1      -3.869  12.334  -6.410  1.00  0.00    -0.079 N 
ATOM     45  H73 UNL     1      -3.872  13.098  -7.087  1.00  0.00     0.274 HD
ATOM     46  H72 UNL     1      -3.164  12.700  -5.771  1.00  0.00     0.274 HD
ATOM     47  H71 UNL     1      -3.578  11.453  -6.834  1.00  0.00     0.274 HD
ENDBRANCH  43  44
ENDBRANCH  42  43
ENDBRANCH  41  42
ENDBRANCH  40  41
ENDBRANCH  39  40
ENDBRANCH  36  39
ENDBRANCH   1  29
BRANCH   2  48
HETATM   48  C22 UNL     1     -13.229  18.286   2.117  1.00  0.00     0.020 C 
HETATM   49  C23 UNL     1     -14.241  18.068   3.250  1.00  0.00     0.037 C 
HETATM   50  C24 UNL     1     -12.172  19.295   2.645  1.00  0.00     0.037 C 
HETATM   51  C25 UNL     1     -13.976  19.073   1.059  1.00  0.00     0.037 C 
ENDBRANCH   2  48
TORSDOF 19
ENDMDL
MODEL 3
REMARK VINA RESULT: -6.439236119      2.603      9.130
REMARK  19 active torsions:
REMARK  status: ('A' for Active; 'I' for Inactive)
REMARK    1  A    between atoms: C2_2  and  C3_3 
REMARK    2  A    between atoms: C3_3  and  C4_4 
REMARK    3  A    between atoms: C4_4  and  N1_5 
REMARK    4  A    between atoms: C4_4  and  C21_26 
REMARK    5  A    between atoms: N1_5  and  C5_7 
REMARK    6  A    between atoms: C5_7  and  C6_8 
REMARK    7  A    between atoms: C5_7  and  C13_15 
REMARK    8  A    between atoms: C6_8  and  C7_9 
REMARK    9  A    between atoms: C13_15  and  C14_17 
REMARK       I    between atoms: C14_17  and  N2_19 
REMARK   10  A    between atoms: N2_19  and  C15_20 
REMARK   11  A    between atoms: N2_19  and  C18_23 
REMARK   12  A    between atoms: C21_26  and  N4_33 
REMARK   13  A    between atoms: N3_27  and  C22_29 
REMARK       I    between atoms: N5_36  and  C28_37 
REMARK       I    between atoms: C28_37  and  N6_39 
REMARK   14  A    between atoms: N6_39  and  C29_41 
REMARK   15  A    between atoms: C29_41  and  C30_42 
REMARK   16  A    between atoms: C30_42  and  C31_43 
REMARK   17  A    between atoms: C31_43  and  C32_44 
REMARK   18  A    between atoms: C32_44  and  C33_45 
REMARK   19  A    between atoms: C33_45  and  N7_46 
ROOT
HETATM    1  C21 UNL     1      -6.520  11.556  -0.280  1.00  0.00     0.098 C 
HETATM    2  N3  UNL     1      -6.254  11.360   0.884  1.00  0.00    -0.370 N 
ATOM      3  H3  UNL     1      -7.039  11.713   1.430  1.00  0.00     0.161 HD
ENDROOT
BRANCH   1   4
HETATM    4  C4  UNL     1      -7.841  12.219  -0.666  1.00  0.00     0.144 C 
BRANCH   4   5
HETATM    5  C3  UNL     1      -8.857  11.223  -1.111  1.00  0.00     0.032 C 
BRANCH   5   6
HETATM    6  C2  UNL     1      -9.264  11.327  -2.556  1.00  0.00    -0.002 C 
HETATM    7  C1  UNL     1     -10.762  11.579  -2.562  1.00  0.00     0.005 C 
ENDBRANCH   5   6
ENDBRANCH   4   5
BRANCH   4   8
HETATM    8  N1  UNL     1      -8.227  13.210   0.203  1.00  0.00    -0.399 N 
ATOM      9  H1  UNL     1      -8.568  12.924   1.121  1.00  0.00     0.154 HD
BRANCH   8  10
HETATM   10  C5  UNL     1      -8.188  14.610  -0.078  1.00  0.00     0.158 C 
BRANCH  10  11
HETATM   11  C6  UNL     1      -9.315  15.305  -0.669  1.00  0.00     0.037 C 
BRANCH  11  12
HETATM   12  C7  UNL     1      -9.647  14.995  -2.109  1.00  0.00    -0.012 C 
HETATM   13  C8  UNL     1     -10.519  16.125  -2.684  1.00  0.00     0.005 C 
HETATM   14  C9  UNL     1     -10.758  15.846  -4.128  1.00  0.00     0.000 C 
HETATM   15  C10 UNL     1     -10.078  14.619  -4.646  1.00  0.00     0.000 C 
HETATM   16  C11 UNL     1      -8.597  14.616  -4.346  1.00  0.00     0.000 C 
HETATM   17  C12 UNL     1      -8.358  15.065  -2.946  1.00  0.00     0.005 C 
ENDBRANCH  11  12
ENDBRANCH  10  11
BRANCH  10  18
HETATM   18  C13 UNL     1      -7.641  15.197   1.218  1.00  0.00     0.238 C 
HETATM   19  O1  UNL     1      -7.153  16.369   0.986  1.00  0.00    -0.285 OA
BRANCH  18  20
HETATM   20  C14 UNL     1      -7.585  14.685   2.517  1.00  0.00     0.292 C 
HETATM   21  O2  UNL     1      -6.504  14.069   2.874  1.00  0.00    -0.264 OA
HETATM   22  N2  UNL     1      -8.554  14.725   3.555  1.00  0.00    -0.338 N 
BRANCH  22  23
HETATM   23  C15 UNL     1      -8.178  14.024   4.815  1.00  0.00     0.080 C 
HETATM   24  C16 UNL     1      -8.911  12.728   4.920  1.00  0.00     0.032 C 
HETATM   25  C17 UNL     1      -8.533  14.893   6.000  1.00  0.00     0.032 C 
ENDBRANCH  22  23
BRANCH  22  26
HETATM   26  C18 UNL     1      -9.828  15.356   3.572  1.00  0.00     0.080 C 
HETATM   27  C19 UNL     1     -10.881  14.709   2.708  1.00  0.00     0.032 C 
HETATM   28  C20 UNL     1      -9.806  16.852   3.362  1.00  0.00     0.032 C 
ENDBRANCH  22  26
ENDBRANCH  18  20
ENDBRANCH  10  18
ENDBRANCH   8  10
ENDBRANCH   4   8
ENDBRANCH   1   4
BRANCH   1  29
HETATM   29  N4  UNL     1      -5.713  11.228  -1.393  1.00  0.00    -0.366 N 
HETATM   30  C26 UNL     1      -5.315   9.922  -1.807  1.00  0.00     0.144 C 
HETATM   31  C27 UNL     1      -5.384   9.725  -3.281  1.00  0.00     0.147 C 
HETATM   32  N5  UNL     1      -5.743  10.899  -4.037  1.00  0.00    -0.331 N 
HETATM   33  C28 UNL     1      -6.626  10.801  -5.135  1.00  0.00     0.322 C 
HETATM   34  C34 UNL     1      -5.168  12.144  -3.639  1.00  0.00     0.147 C 
HETATM   35  O3  UNL     1      -7.057   9.643  -5.402  1.00  0.00    -0.247 OA
HETATM   36  N6  UNL     1      -7.056  11.879  -5.939  1.00  0.00    -0.319 N 
ATOM     37  H6  UNL     1      -6.713  12.807  -5.687  1.00  0.00     0.169 HD
HETATM   38  C35 UNL     1      -5.233  12.374  -2.157  1.00  0.00     0.144 C 
BRANCH  36  39
HETATM   39  C29 UNL     1      -7.910  11.801  -7.052  1.00  0.00     0.088 C 
BRANCH  39  40
HETATM   40  C30 UNL     1      -9.373  11.827  -6.932  1.00  0.00    -0.009 C 
BRANCH  40  41
HETATM   41  C31 UNL     1     -10.217  10.681  -7.268  1.00  0.00     0.030 C 
BRANCH  41  42
HETATM   42  C32 UNL     1     -10.991  10.284  -5.990  1.00  0.00     0.031 C 
BRANCH  42  43
HETATM   43  C33 UNL     1     -10.514   8.995  -5.409  1.00  0.00     0.230 C 
BRANCH  43  44
HETATM   44  N7  UNL     1      -9.633   8.304  -6.351  1.00  0.00    -0.079 N 
ATOM     45  H73 UNL     1     -10.151   7.669  -6.959  1.00  0.00     0.274 HD
ATOM     46  H72 UNL     1      -9.272   8.936  -7.065  1.00  0.00     0.274 HD
ATOM     47  H71 UNL     1      -8.883   7.826  -5.853  1.00  0.00     0.274 HD
ENDBRANCH  43  44
ENDBRANCH  42  43
ENDBRANCH  41  42
ENDBRANCH  40  41
ENDBRANCH  39  40
ENDBRANCH  36  39
ENDBRANCH   1  29
BRANCH   2  48
HETATM   48  C22 UNL     1      -5.334  10.861   1.783  1.00  0.00     0.020 C 
HETATM   49  C23 UNL     1      -4.033  11.664   1.906  1.00  0.00     0.037 C 
HETATM   50  C24 UNL     1      -6.006  10.875   3.185  1.00  0.00     0.037 C 
HETATM   51  C25 UNL     1      -4.901   9.419   1.610  1.00  0.00     0.037 C 
ENDBRANCH   2  48
TORSDOF 19
ENDMDL
MODEL 4
REMARK VINA RESULT: -6.404534133      2.756      5.982
REMARK  19 active torsions:
REMARK  status: ('A' for Active; 'I' for Inactive)
REMARK    1  A    between atoms: C2_2  and  C3_3 
REMARK    2  A    between atoms: C3_3  and  C4_4 
REMARK    3  A    between atoms: C4_4  and  N1_5 
REMARK    4  A    between atoms: C4_4  and  C21_26 
REMARK    5  A    between atoms: N1_5  and  C5_7 
REMARK    6  A    between atoms: C5_7  and  C6_8 
REMARK    7  A    between atoms: C5_7  and  C13_15 
REMARK    8  A    between atoms: C6_8  and  C7_9 
REMARK    9  A    between atoms: C13_15  and  C14_17 
REMARK       I    between atoms: C14_17  and  N2_19 
REMARK   10  A    between atoms: N2_19  and  C15_20 
REMARK   11  A    between atoms: N2_19  and  C18_23 
REMARK   12  A    between atoms: C21_26  and  N4_33 
REMARK   13  A    between atoms: N3_27  and  C22_29 
REMARK       I    between atoms: N5_36  and  C28_37 
REMARK       I    between atoms: C28_37  and  N6_39 
REMARK   14  A    between atoms: N6_39  and  C29_41 
REMARK   15  A    between atoms: C29_41  and  C30_42 
REMARK   16  A    between atoms: C30_42  and  C31_43 
REMARK   17  A    between atoms: C31_43  and  C32_44 
REMARK   18  A    between atoms: C32_44  and  C33_45 
REMARK   19  A    between atoms: C33_45  and  N7_46 
ROOT
HETATM    1  C21 UNL     1      -7.866  13.230  -1.682  1.00  0.00     0.098 C 
HETATM    2  N3  UNL     1      -8.448  12.399  -1.022  1.00  0.00    -0.370 N 
ATOM      3  H3  UNL     1      -8.282  11.497  -1.470  1.00  0.00     0.161 HD
ENDROOT
BRANCH   1   4
HETATM    4  C4  UNL     1      -7.077  12.812  -2.922  1.00  0.00     0.144 C 
BRANCH   4   5
HETATM    5  C3  UNL     1      -5.608  12.789  -2.669  1.00  0.00     0.032 C 
BRANCH   5   6
HETATM    6  C2  UNL     1      -5.071  11.485  -2.145  1.00  0.00    -0.002 C 
HETATM    7  C1  UNL     1      -3.634  11.388  -2.632  1.00  0.00     0.005 C 
ENDBRANCH   5   6
ENDBRANCH   4   5
BRANCH   4   8
HETATM    8  N1  UNL     1      -7.645  11.763  -3.601  1.00  0.00    -0.399 N 
ATOM      9  H1  UNL     1      -7.938  10.952  -3.055  1.00  0.00     0.154 HD
BRANCH   8  10
HETATM   10  C5  UNL     1      -7.859  11.716  -5.013  1.00  0.00     0.158 C 
BRANCH  10  11
HETATM   11  C6  UNL     1      -7.511  10.551  -5.802  1.00  0.00     0.037 C 
BRANCH  11  12
HETATM   12  C7  UNL     1      -6.071  10.409  -6.237  1.00  0.00    -0.012 C 
HETATM   13  C8  UNL     1      -5.362  11.767  -6.095  1.00  0.00     0.005 C 
HETATM   14  C9  UNL     1      -3.924  11.584  -6.439  1.00  0.00     0.000 C 
HETATM   15  C10 UNL     1      -3.537  10.179  -6.772  1.00  0.00     0.000 C 
HETATM   16  C11 UNL     1      -3.950   9.201  -5.697  1.00  0.00     0.000 C 
HETATM   17  C12 UNL     1      -5.334   9.504  -5.235  1.00  0.00     0.005 C 
ENDBRANCH  11  12
ENDBRANCH  10  11
BRANCH  10  18
HETATM   18  C13 UNL     1      -9.292  12.219  -5.152  1.00  0.00     0.238 C 
HETATM   19  O1  UNL     1      -9.375  13.001  -6.174  1.00  0.00    -0.285 OA
BRANCH  18  20
HETATM   20  C14 UNL     1     -10.436  11.982  -4.385  1.00  0.00     0.292 C 
HETATM   21  O2  UNL     1     -10.732  12.845  -3.466  1.00  0.00    -0.264 OA
HETATM   22  N2  UNL     1     -11.367  10.911  -4.443  1.00  0.00    -0.338 N 
BRANCH  22  23
HETATM   23  C15 UNL     1     -12.456  10.949  -3.428  1.00  0.00     0.080 C 
HETATM   24  C16 UNL     1     -12.167   9.982  -2.328  1.00  0.00     0.032 C 
HETATM   25  C17 UNL     1     -13.768  10.579  -4.083  1.00  0.00     0.032 C 
ENDBRANCH  22  23
BRANCH  22  26
HETATM   26  C18 UNL     1     -11.419   9.814  -5.345  1.00  0.00     0.080 C 
HETATM   27  C19 UNL     1     -10.424   8.711  -5.081  1.00  0.00     0.032 C 
HETATM   28  C20 UNL     1     -11.431  10.187  -6.809  1.00  0.00     0.032 C 
ENDBRANCH  22  26
ENDBRANCH  18  20
ENDBRANCH  10  18
ENDBRANCH   8  10
ENDBRANCH   4   8
ENDBRANCH   1   4
BRANCH   1  29
HETATM   29  N4  UNL     1      -7.823  14.620  -1.434  1.00  0.00    -0.366 N 
HETATM   30  C26 UNL     1      -8.611  15.628  -2.068  1.00  0.00     0.144 C 
HETATM   31  C27 UNL     1      -9.117  16.660  -1.122  1.00  0.00     0.147 C 
HETATM   32  N5  UNL     1      -8.653  16.524   0.236  1.00  0.00    -0.331 N 
HETATM   33  C28 UNL     1      -9.532  16.746   1.319  1.00  0.00     0.322 C 
HETATM   34  C34 UNL     1      -7.284  16.168   0.435  1.00  0.00     0.147 C 
HETATM   35  O3  UNL     1     -10.716  17.073   1.018  1.00  0.00    -0.247 OA
HETATM   36  N6  UNL     1      -9.194  16.632   2.685  1.00  0.00    -0.319 N 
ATOM     37  H6  UNL     1      -8.239  16.343   2.900  1.00  0.00     0.169 HD
HETATM   38  C35 UNL     1      -6.839  15.033  -0.441  1.00  0.00     0.144 C 
BRANCH  36  39
HETATM   39  C29 UNL     1     -10.043  16.877   3.778  1.00  0.00     0.088 C 
BRANCH  39  40
HETATM   40  C30 UNL     1      -9.762  16.372   5.128  1.00  0.00    -0.009 C 
BRANCH  40  41
HETATM   41  C31 UNL     1      -8.422  15.982   5.566  1.00  0.00     0.030 C 
BRANCH  41  42
HETATM   42  C32 UNL     1      -8.494  14.509   6.029  1.00  0.00     0.031 C 
BRANCH  42  43
HETATM   43  C33 UNL     1      -9.861  14.116   6.478  1.00  0.00     0.230 C 
BRANCH  43  44
HETATM   44  N7  UNL     1      -9.897  12.695   6.824  1.00  0.00    -0.079 N 
ATOM     45  H73 UNL     1      -8.968  12.334   7.042  1.00  0.00     0.274 HD
ATOM     46  H72 UNL     1     -10.338  12.536   7.730  1.00  0.00     0.274 HD
ATOM     47  H71 UNL     1     -10.348  12.158   6.083  1.00  0.00     0.274 HD
ENDBRANCH  43  44
ENDBRANCH  42  43
ENDBRANCH  41  42
ENDBRANCH  40  41
ENDBRANCH  39  40
ENDBRANCH  36  39
ENDBRANCH   1  29
BRANCH   2  48
HETATM   48  C22 UNL     1      -9.241  12.157   0.080  1.00  0.00     0.020 C 
HETATM   49  C23 UNL     1     -10.632  12.804   0.043  1.00  0.00     0.037 C 
HETATM   50  C24 UNL     1      -9.460  10.621   0.163  1.00  0.00     0.037 C 
HETATM   51  C25 UNL     1      -8.671  12.511   1.440  1.00  0.00     0.037 C 
ENDBRANCH   2  48
TORSDOF 19
ENDMDL
MODEL 5
REMARK VINA RESULT: -6.359411935      2.751      7.882
REMARK  19 active torsions:
REMARK  status: ('A' for Active; 'I' for Inactive)
REMARK    1  A    between atoms: C2_2  and  C3_3 
REMARK    2  A    between atoms: C3_3  and  C4_4 
REMARK    3  A    between atoms: C4_4  and  N1_5 
REMARK    4  A    between atoms: C4_4  and  C21_26 
REMARK    5  A    between atoms: N1_5  and  C5_7 
REMARK    6  A    between atoms: C5_7  and  C6_8 
REMARK    7  A    between atoms: C5_7  and  C13_15 
REMARK    8  A    between atoms: C6_8  and  C7_9 
REMARK    9  A    between atoms: C13_15  and  C14_17 
REMARK       I    between atoms: C14_17  and  N2_19 
REMARK   10  A    between atoms: N2_19  and  C15_20 
REMARK   11  A    between atoms: N2_19  and  C18_23 
REMARK   12  A    between atoms: C21_26  and  N4_33 
REMARK   13  A    between atoms: N3_27  and  C22_29 
REMARK       I    between atoms: N5_36  and  C28_37 
REMARK       I    between atoms: C28_37  and  N6_39 
REMARK   14  A    between atoms: N6_39  and  C29_41 
REMARK   15  A    between atoms: C29_41  and  C30_42 
REMARK   16  A    between atoms: C30_42  and  C31_43 
REMARK   17  A    between atoms: C31_43  and  C32_44 
REMARK   18  A    between atoms: C32_44  and  C33_45 
REMARK   19  A    between atoms: C33_45  and  N7_46 
ROOT
HETATM    1  C21 UNL     1      -8.583  13.298   0.039  1.00  0.00     0.098 C 
HETATM    2  N3  UNL     1      -9.183  12.286  -0.247  1.00  0.00    -0.370 N 
ATOM      3  H3  UNL     1      -9.743  12.035   0.568  1.00  0.00     0.161 HD
ENDROOT
BRANCH   1   4
HETATM    4  C4  UNL     1      -8.764  13.938   1.414  1.00  0.00     0.144 C 
BRANCH   4   5
HETATM    5  C3  UNL     1     -10.078  14.631   1.540  1.00  0.00     0.032 C 
BRANCH   5   6
HETATM    6  C2  UNL     1     -10.040  16.117   1.314  1.00  0.00    -0.002 C 
HETATM    7  C1  UNL     1      -8.642  16.573   1.697  1.00  0.00     0.005 C 
ENDBRANCH   5   6
ENDBRANCH   4   5
BRANCH   4   8
HETATM    8  N1  UNL     1      -8.340  13.137   2.446  1.00  0.00    -0.399 N 
ATOM      9  H1  UNL     1      -8.609  12.154   2.420  1.00  0.00     0.154 HD
BRANCH   8  10
HETATM   10  C5  UNL     1      -7.550  13.574   3.553  1.00  0.00     0.158 C 
BRANCH  10  11
HETATM   11  C6  UNL     1      -8.133  13.833   4.856  1.00  0.00     0.037 C 
BRANCH  11  12
HETATM   12  C7  UNL     1      -9.143  14.951   4.957  1.00  0.00    -0.012 C 
HETATM   13  C8  UNL     1     -10.320  14.495   5.837  1.00  0.00     0.005 C 
HETATM   14  C9  UNL     1     -11.257  15.641   5.998  1.00  0.00     0.000 C 
HETATM   15  C10 UNL     1     -10.814  16.907   5.337  1.00  0.00     0.000 C 
HETATM   16  C11 UNL     1      -9.415  17.308   5.747  1.00  0.00     0.000 C 
HETATM   17  C12 UNL     1      -8.522  16.115   5.749  1.00  0.00     0.005 C 
ENDBRANCH  11  12
ENDBRANCH  10  11
BRANCH  10  18
HETATM   18  C13 UNL     1      -6.370  12.609   3.525  1.00  0.00     0.238 C 
HETATM   19  O1  UNL     1      -6.426  11.832   4.554  1.00  0.00    -0.285 OA
BRANCH  18  20
HETATM   20  C14 UNL     1      -5.313  12.463   2.623  1.00  0.00     0.292 C 
HETATM   21  O2  UNL     1      -4.531  13.480   2.446  1.00  0.00    -0.264 OA
HETATM   22  N2  UNL     1      -4.936  11.345   1.833  1.00  0.00    -0.338 N 
BRANCH  22  23
HETATM   23  C15 UNL     1      -3.770  11.557   0.930  1.00  0.00     0.080 C 
HETATM   24  C16 UNL     1      -4.010  10.891  -0.384  1.00  0.00     0.032 C 
HETATM   25  C17 UNL     1      -2.528  10.972   1.564  1.00  0.00     0.032 C 
ENDBRANCH  22  23
BRANCH  22  26
HETATM   26  C18 UNL     1      -5.501  10.041   1.794  1.00  0.00     0.080 C 
HETATM   27  C19 UNL     1      -6.994   9.989   1.584  1.00  0.00     0.032 C 
HETATM   28  C20 UNL     1      -5.086   9.127   2.923  1.00  0.00     0.032 C 
ENDBRANCH  22  26
ENDBRANCH  18  20
ENDBRANCH  10  18
ENDBRANCH   8  10
ENDBRANCH   4   8
ENDBRANCH   1   4
BRANCH   1  29
HETATM   29  N4  UNL     1      -7.683  14.003  -0.792  1.00  0.00    -0.366 N 
HETATM   30  C26 UNL     1      -6.291  14.216  -0.560  1.00  0.00     0.144 C 
HETATM   31  C27 UNL     1      -5.459  14.051  -1.782  1.00  0.00     0.147 C 
HETATM   32  N5  UNL     1      -6.198  13.804  -2.996  1.00  0.00    -0.331 N 
HETATM   33  C28 UNL     1      -5.731  12.863  -3.939  1.00  0.00     0.322 C 
HETATM   34  C34 UNL     1      -7.400  14.548  -3.201  1.00  0.00     0.147 C 
HETATM   35  O3  UNL     1      -4.646  12.280  -3.655  1.00  0.00    -0.247 OA
HETATM   36  N6  UNL     1      -6.374  12.531  -5.152  1.00  0.00    -0.319 N 
ATOM     37  H6  UNL     1      -7.260  12.999  -5.346  1.00  0.00     0.169 HD
HETATM   38  C35 UNL     1      -8.283  14.584  -1.988  1.00  0.00     0.144 C 
BRANCH  36  39
HETATM   39  C29 UNL     1      -5.913  11.622  -6.118  1.00  0.00     0.088 C 
BRANCH  39  40
HETATM   40  C30 UNL     1      -5.955  10.167  -5.920  1.00  0.00    -0.009 C 
BRANCH  40  41
HETATM   41  C31 UNL     1      -4.773   9.380  -5.570  1.00  0.00     0.030 C 
BRANCH  41  42
HETATM   42  C32 UNL     1      -3.558  10.028  -6.273  1.00  0.00     0.031 C 
BRANCH  42  43
HETATM   43  C33 UNL     1      -2.364  10.120  -5.384  1.00  0.00     0.230 C 
BRANCH  43  44
HETATM   44  N7  UNL     1      -2.766  10.052  -3.979  1.00  0.00    -0.079 N 
ATOM     45  H73 UNL     1      -1.960  10.058  -3.353  1.00  0.00     0.274 HD
ATOM     46  H72 UNL     1      -3.206  10.918  -3.668  1.00  0.00     0.274 HD
ATOM     47  H71 UNL     1      -3.365   9.243  -3.818  1.00  0.00     0.274 HD
ENDBRANCH  43  44
ENDBRANCH  42  43
ENDBRANCH  41  42
ENDBRANCH  40  41
ENDBRANCH  39  40
ENDBRANCH  36  39
ENDBRANCH   1  29
BRANCH   2  48
HETATM   48  C22 UNL     1      -9.427  11.329  -1.210  1.00  0.00     0.020 C 
HETATM   49  C23 UNL     1      -8.185  10.787  -1.928  1.00  0.00     0.037 C 
HETATM   50  C24 UNL     1     -10.100  10.122  -0.499  1.00  0.00     0.037 C 
HETATM   51  C25 UNL     1     -10.405  11.684  -2.312  1.00  0.00     0.037 C 
ENDBRANCH   2  48
TORSDOF 19
ENDMDL
