MODEL 1
REMARK VINA RESULT: -6.868550135      0.000      0.000
REMARK  20 active torsions:
REMARK  status: ('A' for Active; 'I' for Inactive)
REMARK    1  A    between atoms: C2_2  and  C3_3 
REMARK    2  A    between atoms: C5_5  and  C6_6 
REMARK    3  A    between atoms: C6_6  and  C7_7 
REMARK    4  A    between atoms: C8_8  and  C9_9 
REMARK    5  A    between atoms: C9_9  and  O1_10 
REMARK    6  A    between atoms: C9_9  and  N1_12 
REMARK    7  A    between atoms: N1_12  and  C10_14 
REMARK    8  A    between atoms: C10_14  and  C11_15 
REMARK    9  A    between atoms: C10_14  and  C15_23 
REMARK   10  A    between atoms: C11_15  and  C12_16 
REMARK       I    between atoms: C15_23  and  N4_25 
REMARK   11  A    between atoms: N4_25  and  C17_27 
REMARK   12  A    between atoms: C22_32  and  O3_33 
REMARK   13  A    between atoms: C23_35  and  O4_36 
REMARK   14  A    between atoms: C25_39  and  C27_41 
REMARK   15  A    between atoms: C27_41  and  C28_42 
REMARK   16  A    between atoms: C28_42  and  C29_43 
REMARK   17  A    between atoms: C29_43  and  C30_44 
REMARK   18  A    between atoms: C30_44  and  C31_45 
REMARK   19  A    between atoms: C31_45  and  C32_46 
REMARK   20  A    between atoms: C32_46  and  C33_47 
REMARK       I    between atoms: C33_47  and  N5_49 
ROOT
HETATM    1  C7  UNL     1      -7.028  11.110  -2.781  1.00  0.00     0.014 A 
HETATM    2  C8  UNL     1      -6.189  10.339  -1.790  1.00  0.00     0.075 A 
HETATM    3  C19 UNL     1      -4.955  10.430  -2.660  1.00  0.00    -0.015 A 
HETATM    4  C20 UNL     1      -4.484   9.016  -3.037  1.00  0.00     0.014 C 
HETATM    5  C21 UNL     1      -3.847   8.346  -1.839  1.00  0.00     0.035 C 
HETATM    6  C22 UNL     1      -2.467   8.875  -1.677  1.00  0.00     0.147 C 
HETATM    7  C23 UNL     1      -2.437  10.278  -2.287  1.00  0.00     0.147 C 
HETATM    8  C24 UNL     1      -3.757  11.006  -2.006  1.00  0.00     0.045 C 
HETATM    9  C25 UNL     1      -5.800  11.131  -3.642  1.00  0.00    -0.013 A 
HETATM   10  C26 UNL     1      -6.107  10.058  -4.761  1.00  0.00     0.021 C 
ENDROOT
BRANCH   2  11
HETATM   11  C9  UNL     1      -6.191  10.713  -0.412  1.00  0.00     0.117 C 
BRANCH  11  12
HETATM   12  O1  UNL     1      -6.425   9.778   0.466  1.00  0.00    -0.349 OA
ATOM     13  H1  UNL     1      -5.677   9.322   0.833  1.00  0.00     0.219 HD
ENDBRANCH  11  12
BRANCH  11  14
HETATM   14  N1  UNL     1      -5.982  11.956   0.224  1.00  0.00    -0.360 N 
ATOM     15  H1  UNL     1      -6.095  12.808  -0.325  1.00  0.00     0.162 HD
BRANCH  14  16
HETATM   16  C10 UNL     1      -5.609  12.081   1.641  1.00  0.00     0.181 C 
BRANCH  16  17
HETATM   17  C11 UNL     1      -4.118  12.331   1.652  1.00  0.00     0.093 C 
BRANCH  17  18
HETATM   18  C12 UNL     1      -3.303  11.117   1.731  1.00  0.00     0.028 A 
HETATM   19  C13 UNL     1      -1.933  11.101   1.471  1.00  0.00     0.114 A 
HETATM   20  N2  UNL     1      -1.523   9.843   1.644  1.00  0.00    -0.360 N 
HETATM   21  C14 UNL     1      -2.590   9.095   2.001  1.00  0.00     0.180 A 
ATOM     22  H2  UNL     1      -0.568   9.504   1.528  1.00  0.00     0.166 HD
HETATM   23  N3  UNL     1      -3.695   9.861   2.059  1.00  0.00    -0.354 N 
ATOM     24  H3  UNL     1      -4.638   9.558   2.302  1.00  0.00     0.166 HD
ENDBRANCH  17  18
ENDBRANCH  16  17
BRANCH  16  25
HETATM   25  C15 UNL     1      -6.311  13.258   2.179  1.00  0.00     0.242 C 
HETATM   26  O2  UNL     1      -6.353  14.281   1.416  1.00  0.00    -0.271 OA
HETATM   27  N4  UNL     1      -6.924  13.326   3.438  1.00  0.00    -0.355 N 
HETATM   28  C16 UNL     1      -6.947  12.209   4.350  1.00  0.00     0.152 C 
BRANCH  27  29
HETATM   29  C17 UNL     1      -7.573  14.590   3.854  1.00  0.00     0.120 C 
HETATM   30  C18 UNL     1      -8.335  14.299   5.110  1.00  0.00     0.026 C 
ENDBRANCH  27  29
ENDBRANCH  16  25
ENDBRANCH  14  16
ENDBRANCH  11  14
ENDBRANCH   2  11
BRANCH   1  31
HETATM   31  C6  UNL     1      -7.705  12.326  -2.296  1.00  0.00     0.034 C 
BRANCH  31  32
HETATM   32  C5  UNL     1      -8.860  12.736  -3.119  1.00  0.00    -0.020 C 
HETATM   33  C3  UNL     1      -8.985  14.006  -3.516  1.00  0.00    -0.067 C 
HETATM   34  C4  UNL     1      -8.000  15.036  -3.166  1.00  0.00     0.048 C 
BRANCH  33  35
HETATM   35  C2  UNL     1     -10.140  14.352  -4.320  1.00  0.00    -0.004 C 
HETATM   36  C1  UNL     1     -10.200  15.447  -5.030  1.00  0.00     0.012 C 
ENDBRANCH  33  35
ENDBRANCH  31  32
ENDBRANCH   1  31
BRANCH   9  37
HETATM   37  C27 UNL     1      -5.404  12.290  -4.417  1.00  0.00    -0.017 C 
BRANCH  37  38
HETATM   38  C28 UNL     1      -5.681  12.592  -5.783  1.00  0.00    -0.007 C 
BRANCH  38  39
HETATM   39  C29 UNL     1      -6.566  13.458  -6.263  1.00  0.00    -0.027 C 
BRANCH  39  40
HETATM   40  C30 UNL     1      -7.838  13.151  -6.962  1.00  0.00     0.027 C 
BRANCH  40  41
HETATM   41  C31 UNL     1      -8.173  11.678  -6.903  1.00  0.00     0.013 C 
BRANCH  41  42
HETATM   42  C32 UNL     1      -9.546  11.357  -6.437  1.00  0.00     0.103 C 
BRANCH  42  43
HETATM   43  C33 UNL     1      -9.775  10.030  -5.887  1.00  0.00     0.219 C 
HETATM   44  O5  UNL     1      -9.060   9.063  -6.230  1.00  0.00    -0.273 OA
HETATM   45  N5  UNL     1     -10.808   9.806  -4.955  1.00  0.00    -0.361 N 
HETATM   46  C34 UNL     1     -11.023   8.489  -4.418  1.00  0.00     0.152 C 
HETATM   47  C35 UNL     1     -11.650  10.890  -4.533  1.00  0.00     0.152 C 
ENDBRANCH  42  43
ENDBRANCH  41  42
ENDBRANCH  40  41
ENDBRANCH  39  40
ENDBRANCH  38  39
ENDBRANCH  37  38
ENDBRANCH   9  37
BRANCH   7  48
HETATM   48  O4  UNL     1      -1.980  10.303  -3.550  1.00  0.00    -0.393 OA
ATOM     49  H4  UNL     1      -1.129  10.717  -3.637  1.00  0.00     0.210 HD
ENDBRANCH   7  48
BRANCH   6  50
HETATM   50  O3  UNL     1      -1.524   8.085  -2.362  1.00  0.00    -0.393 OA
ATOM     51  H3  UNL     1      -0.931   8.617  -2.881  1.00  0.00     0.210 HD
ENDBRANCH   6  50
TORSDOF 20
ENDMDL
MODEL 2
REMARK VINA RESULT: -6.727875942      4.998     10.930
REMARK  20 active torsions:
REMARK  status: ('A' for Active; 'I' for Inactive)
REMARK    1  A    between atoms: C2_2  and  C3_3 
REMARK    2  A    between atoms: C5_5  and  C6_6 
REMARK    3  A    between atoms: C6_6  and  C7_7 
REMARK    4  A    between atoms: C8_8  and  C9_9 
REMARK    5  A    between atoms: C9_9  and  O1_10 
REMARK    6  A    between atoms: C9_9  and  N1_12 
REMARK    7  A    between atoms: N1_12  and  C10_14 
REMARK    8  A    between atoms: C10_14  and  C11_15 
REMARK    9  A    between atoms: C10_14  and  C15_23 
REMARK   10  A    between atoms: C11_15  and  C12_16 
REMARK       I    between atoms: C15_23  and  N4_25 
REMARK   11  A    between atoms: N4_25  and  C17_27 
REMARK   12  A    between atoms: C22_32  and  O3_33 
REMARK   13  A    between atoms: C23_35  and  O4_36 
REMARK   14  A    between atoms: C25_39  and  C27_41 
REMARK   15  A    between atoms: C27_41  and  C28_42 
REMARK   16  A    between atoms: C28_42  and  C29_43 
REMARK   17  A    between atoms: C29_43  and  C30_44 
REMARK   18  A    between atoms: C30_44  and  C31_45 
REMARK   19  A    between atoms: C31_45  and  C32_46 
REMARK   20  A    between atoms: C32_46  and  C33_47 
REMARK       I    between atoms: C33_47  and  N5_49 
ROOT
HETATM    1  C7  UNL     1     -10.826  14.834   2.268  1.00  0.00     0.014 A 
HETATM    2  C8  UNL     1     -11.612  15.704   1.317  1.00  0.00     0.075 A 
HETATM    3  C19 UNL     1     -11.511  16.908   2.228  1.00  0.00    -0.015 A 
HETATM    4  C20 UNL     1     -12.921  17.361   2.640  1.00  0.00     0.014 C 
HETATM    5  C21 UNL     1     -13.608  18.039   1.474  1.00  0.00     0.035 C 
HETATM    6  C22 UNL     1     -13.084  19.425   1.354  1.00  0.00     0.147 C 
HETATM    7  C23 UNL     1     -11.673  19.436   1.945  1.00  0.00     0.147 C 
HETATM    8  C24 UNL     1     -10.947  18.129   1.609  1.00  0.00     0.045 C 
HETATM    9  C25 UNL     1     -10.795  16.031   3.170  1.00  0.00    -0.013 A 
HETATM   10  C26 UNL     1     -11.852  15.683   4.292  1.00  0.00     0.021 C 
ENDROOT
BRANCH   2  11
HETATM   11  C9  UNL     1     -11.257  15.752  -0.065  1.00  0.00     0.117 C 
BRANCH  11  12
HETATM   12  O1  UNL     1     -12.203  15.550  -0.938  1.00  0.00    -0.349 OA
ATOM     13  H1  UNL     1     -12.249  14.694  -1.347  1.00  0.00     0.219 HD
ENDBRANCH  11  12
BRANCH  11  14
HETATM   14  N1  UNL     1     -10.021  15.982  -0.711  1.00  0.00    -0.360 N 
ATOM     15  H1  UNL     1      -9.166  15.912  -0.160  1.00  0.00     0.162 HD
BRANCH  14  16
HETATM   16  C10 UNL     1      -9.911  16.316  -2.138  1.00  0.00     0.181 C 
BRANCH  16  17
HETATM   17  C11 UNL     1      -9.637  17.802  -2.191  1.00  0.00     0.093 C 
BRANCH  17  18
HETATM   18  C12 UNL     1     -10.839  18.639  -2.172  1.00  0.00     0.028 A 
HETATM   19  C13 UNL     1     -10.817  19.998  -1.862  1.00  0.00     0.114 A 
HETATM   20  N2  UNL     1     -12.075  20.434  -1.950  1.00  0.00    -0.360 N 
HETATM   21  C14 UNL     1     -12.860  19.393  -2.302  1.00  0.00     0.180 A 
ATOM     22  H2  UNL     1     -12.390  21.389  -1.780  1.00  0.00     0.166 HD
HETATM   23  N3  UNL     1     -12.118  18.279  -2.444  1.00  0.00    -0.354 N 
ATOM     24  H3  UNL     1     -12.451  17.351  -2.703  1.00  0.00     0.166 HD
ENDBRANCH  17  18
ENDBRANCH  16  17
BRANCH  16  25
HETATM   25  C15 UNL     1      -8.754  15.581  -2.674  1.00  0.00     0.242 C 
HETATM   26  O2  UNL     1      -7.721  15.538  -1.923  1.00  0.00    -0.271 OA
HETATM   27  N4  UNL     1      -8.711  14.940  -3.920  1.00  0.00    -0.355 N 
HETATM   28  C16 UNL     1      -9.840  14.916  -4.817  1.00  0.00     0.152 C 
BRANCH  27  29
HETATM   29  C17 UNL     1      -7.464  14.259  -4.336  1.00  0.00     0.120 C 
HETATM   30  C18 UNL     1      -7.755  13.565  -5.630  1.00  0.00     0.026 C 
ENDBRANCH  27  29
ENDBRANCH  16  25
ENDBRANCH  14  16
ENDBRANCH  11  14
ENDBRANCH   2  11
BRANCH   1  31
HETATM   31  C6  UNL     1      -9.615  14.177   1.743  1.00  0.00     0.034 C 
BRANCH  31  32
HETATM   32  C5  UNL     1      -9.181  13.005   2.530  1.00  0.00    -0.020 C 
HETATM   33  C3  UNL     1      -7.945  12.955   3.035  1.00  0.00    -0.067 C 
HETATM   34  C4  UNL     1      -6.977  14.041   2.841  1.00  0.00     0.048 C 
BRANCH  33  35
HETATM   35  C2  UNL     1      -7.573  11.781   3.797  1.00  0.00    -0.004 C 
HETATM   36  C1  UNL     1      -6.504  11.738   4.546  1.00  0.00     0.012 C 
ENDBRANCH  33  35
ENDBRANCH  31  32
ENDBRANCH   1  31
BRANCH   9  37
HETATM   37  C27 UNL     1      -9.627  16.402   3.944  1.00  0.00    -0.017 C 
BRANCH  37  38
HETATM   38  C28 UNL     1      -9.392  16.251   5.341  1.00  0.00    -0.007 C 
BRANCH  38  39
HETATM   39  C29 UNL     1      -8.486  15.484   5.938  1.00  0.00    -0.027 C 
BRANCH  39  40
HETATM   40  C30 UNL     1      -8.674  14.107   6.456  1.00  0.00     0.027 C 
BRANCH  40  41
HETATM   41  C31 UNL     1     -10.133  13.717   6.508  1.00  0.00     0.013 C 
BRANCH  41  42
HETATM   42  C32 UNL     1     -10.446  12.356   6.001  1.00  0.00     0.103 C 
BRANCH  42  43
HETATM   43  C33 UNL     1     -11.796  12.113   5.518  1.00  0.00     0.219 C 
HETATM   44  O5  UNL     1     -12.750  12.826   5.900  1.00  0.00    -0.273 OA
HETATM   45  N5  UNL     1     -12.058  11.068   4.609  1.00  0.00    -0.361 N 
HETATM   46  C34 UNL     1     -13.397  10.840   4.138  1.00  0.00     0.152 C 
HETATM   47  C35 UNL     1     -10.990  10.229   4.145  1.00  0.00     0.152 C 
ENDBRANCH  42  43
ENDBRANCH  41  42
ENDBRANCH  40  41
ENDBRANCH  39  40
ENDBRANCH  38  39
ENDBRANCH  37  38
ENDBRANCH   9  37
BRANCH   7  48
HETATM   48  O4  UNL     1     -11.631  19.850   3.223  1.00  0.00    -0.393 OA
ATOM     49  H4  UNL     1     -10.857  19.560   3.690  1.00  0.00     0.210 HD
ENDBRANCH   7  48
BRANCH   6  50
HETATM   50  O3  UNL     1     -13.866  20.342   2.081  1.00  0.00    -0.393 OA
ATOM     51  H3  UNL     1     -13.633  20.348   3.003  1.00  0.00     0.210 HD
ENDBRANCH   6  50
TORSDOF 20
ENDMDL
MODEL 3
REMARK VINA RESULT: -6.573246051      1.434      2.760
REMARK  20 active torsions:
REMARK  status: ('A' for Active; 'I' for Inactive)
REMARK    1  A    between atoms: C2_2  and  C3_3 
REMARK    2  A    between atoms: C5_5  and  C6_6 
REMARK    3  A    between atoms: C6_6  and  C7_7 
REMARK    4  A    between atoms: C8_8  and  C9_9 
REMARK    5  A    between atoms: C9_9  and  O1_10 
REMARK    6  A    between atoms: C9_9  and  N1_12 
REMARK    7  A    between atoms: N1_12  and  C10_14 
REMARK    8  A    between atoms: C10_14  and  C11_15 
REMARK    9  A    between atoms: C10_14  and  C15_23 
REMARK   10  A    between atoms: C11_15  and  C12_16 
REMARK       I    between atoms: C15_23  and  N4_25 
REMARK   11  A    between atoms: N4_25  and  C17_27 
REMARK   12  A    between atoms: C22_32  and  O3_33 
REMARK   13  A    between atoms: C23_35  and  O4_36 
REMARK   14  A    between atoms: C25_39  and  C27_41 
REMARK   15  A    between atoms: C27_41  and  C28_42 
REMARK   16  A    between atoms: C28_42  and  C29_43 
REMARK   17  A    between atoms: C29_43  and  C30_44 
REMARK   18  A    between atoms: C30_44  and  C31_45 
REMARK   19  A    between atoms: C31_45  and  C32_46 
REMARK   20  A    between atoms: C32_46  and  C33_47 
REMARK       I    between atoms: C33_47  and  N5_49 
ROOT
HETATM    1  C7  UNL     1      -7.008  11.264  -2.670  1.00  0.00     0.014 A 
HETATM    2  C8  UNL     1      -6.153  10.528  -1.666  1.00  0.00     0.075 A 
HETATM    3  C19 UNL     1      -4.949  10.538  -2.583  1.00  0.00    -0.015 A 
HETATM    4  C20 UNL     1      -4.527   9.093  -2.894  1.00  0.00     0.014 C 
HETATM    5  C21 UNL     1      -3.863   8.475  -1.683  1.00  0.00     0.035 C 
HETATM    6  C22 UNL     1      -2.466   8.975  -1.600  1.00  0.00     0.147 C 
HETATM    7  C23 UNL     1      -2.424  10.341  -2.289  1.00  0.00     0.147 C 
HETATM    8  C24 UNL     1      -3.714  11.117  -2.005  1.00  0.00     0.045 C 
HETATM    9  C25 UNL     1      -5.812  11.204  -3.573  1.00  0.00    -0.013 A 
HETATM   10  C26 UNL     1      -6.185  10.079  -4.617  1.00  0.00     0.021 C 
ENDROOT
BRANCH   2  11
HETATM   11  C9  UNL     1      -6.095  10.978  -0.313  1.00  0.00     0.117 C 
BRANCH  11  12
HETATM   12  O1  UNL     1      -6.411  10.125   0.621  1.00  0.00    -0.349 OA
ATOM     13  H1  UNL     1      -5.704   9.647   1.037  1.00  0.00     0.219 HD
ENDBRANCH  11  12
BRANCH  11  14
HETATM   14  N1  UNL     1      -5.750  12.229   0.248  1.00  0.00    -0.360 N 
ATOM     15  H1  UNL     1      -4.830  12.616   0.041  1.00  0.00     0.162 HD
BRANCH  14  16
HETATM   16  C10 UNL     1      -6.656  12.998   1.114  1.00  0.00     0.181 C 
BRANCH  16  17
HETATM   17  C11 UNL     1      -5.969  13.075   2.459  1.00  0.00     0.093 C 
BRANCH  17  18
HETATM   18  C12 UNL     1      -6.878  13.268   3.591  1.00  0.00     0.028 A 
HETATM   19  C13 UNL     1      -7.176  12.261   4.509  1.00  0.00     0.114 A 
HETATM   20  N2  UNL     1      -8.021  12.788   5.397  1.00  0.00    -0.360 N 
HETATM   21  C14 UNL     1      -8.247  14.075   5.055  1.00  0.00     0.180 A 
ATOM     22  H2  UNL     1      -8.427  12.303   6.197  1.00  0.00     0.166 HD
HETATM   23  N3  UNL     1      -7.553  14.390   3.946  1.00  0.00    -0.354 N 
ATOM     24  H3  UNL     1      -7.537  15.290   3.468  1.00  0.00     0.166 HD
ENDBRANCH  17  18
ENDBRANCH  16  17
BRANCH  16  25
HETATM   25  C15 UNL     1      -6.772  14.348   0.540  1.00  0.00     0.242 C 
HETATM   26  O2  UNL     1      -5.678  14.898   0.177  1.00  0.00    -0.271 OA
HETATM   27  N4  UNL     1      -7.973  15.050   0.367  1.00  0.00    -0.355 N 
HETATM   28  C16 UNL     1      -9.254  14.493   0.723  1.00  0.00     0.152 C 
BRANCH  27  29
HETATM   29  C17 UNL     1      -7.932  16.416  -0.203  1.00  0.00     0.120 C 
HETATM   30  C18 UNL     1      -9.285  16.691  -0.781  1.00  0.00     0.026 C 
ENDBRANCH  27  29
ENDBRANCH  16  25
ENDBRANCH  14  16
ENDBRANCH  11  14
ENDBRANCH   2  11
BRANCH   1  31
HETATM   31  C6  UNL     1      -7.637  12.523  -2.232  1.00  0.00     0.034 C 
BRANCH  31  32
HETATM   32  C5  UNL     1      -8.830  12.900  -3.016  1.00  0.00    -0.020 C 
HETATM   33  C3  UNL     1      -8.871  14.074  -3.653  1.00  0.00    -0.067 C 
HETATM   34  C4  UNL     1      -7.756  15.027  -3.611  1.00  0.00     0.048 C 
BRANCH  33  35
HETATM   35  C2  UNL     1     -10.068  14.393  -4.406  1.00  0.00    -0.004 C 
HETATM   36  C1  UNL     1     -10.703  15.525  -4.271  1.00  0.00     0.012 C 
ENDBRANCH  33  35
ENDBRANCH  31  32
ENDBRANCH   1  31
BRANCH   9  37
HETATM   37  C27 UNL     1      -5.416  12.307  -4.426  1.00  0.00    -0.017 C 
BRANCH  37  38
HETATM   38  C28 UNL     1      -5.577  12.451  -5.835  1.00  0.00    -0.007 C 
BRANCH  38  39
HETATM   39  C29 UNL     1      -6.332  13.331  -6.484  1.00  0.00    -0.027 C 
BRANCH  39  40
HETATM   40  C30 UNL     1      -7.738  13.159  -6.924  1.00  0.00     0.027 C 
BRANCH  40  41
HETATM   41  C31 UNL     1      -8.145  11.705  -6.956  1.00  0.00     0.013 C 
BRANCH  41  42
HETATM   42  C32 UNL     1      -9.497  11.411  -6.414  1.00  0.00     0.103 C 
BRANCH  42  43
HETATM   43  C33 UNL     1      -9.730  10.080  -5.875  1.00  0.00     0.219 C 
HETATM   44  O5  UNL     1      -9.033   9.110  -6.243  1.00  0.00    -0.273 OA
HETATM   45  N5  UNL     1     -10.747   9.857  -4.925  1.00  0.00    -0.361 N 
HETATM   46  C34 UNL     1     -10.966   8.537  -4.398  1.00  0.00     0.152 C 
HETATM   47  C35 UNL     1     -11.568  10.945  -4.475  1.00  0.00     0.152 C 
ENDBRANCH  42  43
ENDBRANCH  41  42
ENDBRANCH  40  41
ENDBRANCH  39  40
ENDBRANCH  38  39
ENDBRANCH  37  38
ENDBRANCH   9  37
BRANCH   7  48
HETATM   48  O4  UNL     1      -2.012  10.283  -3.567  1.00  0.00    -0.393 OA
ATOM     49  H4  UNL     1      -1.499   9.508  -3.765  1.00  0.00     0.210 HD
ENDBRANCH   7  48
BRANCH   6  50
HETATM   50  O3  UNL     1      -1.567   8.124  -2.271  1.00  0.00    -0.393 OA
ATOM     51  H3  UNL     1      -1.401   8.419  -3.159  1.00  0.00     0.210 HD
ENDBRANCH   6  50
TORSDOF 20
ENDMDL
MODEL 4
REMARK VINA RESULT: -6.458362323      3.164      5.733
REMARK  20 active torsions:
REMARK  status: ('A' for Active; 'I' for Inactive)
REMARK    1  A    between atoms: C2_2  and  C3_3 
REMARK    2  A    between atoms: C5_5  and  C6_6 
REMARK    3  A    between atoms: C6_6  and  C7_7 
REMARK    4  A    between atoms: C8_8  and  C9_9 
REMARK    5  A    between atoms: C9_9  and  O1_10 
REMARK    6  A    between atoms: C9_9  and  N1_12 
REMARK    7  A    between atoms: N1_12  and  C10_14 
REMARK    8  A    between atoms: C10_14  and  C11_15 
REMARK    9  A    between atoms: C10_14  and  C15_23 
REMARK   10  A    between atoms: C11_15  and  C12_16 
REMARK       I    between atoms: C15_23  and  N4_25 
REMARK   11  A    between atoms: N4_25  and  C17_27 
REMARK   12  A    between atoms: C22_32  and  O3_33 
REMARK   13  A    between atoms: C23_35  and  O4_36 
REMARK   14  A    between atoms: C25_39  and  C27_41 
REMARK   15  A    between atoms: C27_41  and  C28_42 
REMARK   16  A    between atoms: C28_42  and  C29_43 
REMARK   17  A    between atoms: C29_43  and  C30_44 
REMARK   18  A    between atoms: C30_44  and  C31_45 
REMARK   19  A    between atoms: C31_45  and  C32_46 
REMARK   20  A    between atoms: C32_46  and  C33_47 
REMARK       I    between atoms: C33_47  and  N5_49 
ROOT
HETATM    1  C7  UNL     1      -8.587  14.901  -0.266  1.00  0.00     0.014 A 
HETATM    2  C8  UNL     1      -8.000  14.495   1.064  1.00  0.00     0.075 A 
HETATM    3  C19 UNL     1      -6.990  13.575   0.415  1.00  0.00    -0.015 A 
HETATM    4  C20 UNL     1      -7.212  12.136   0.910  1.00  0.00     0.014 C 
HETATM    5  C21 UNL     1      -6.730  12.000   2.338  1.00  0.00     0.035 C 
HETATM    6  C22 UNL     1      -5.248  11.881   2.331  1.00  0.00     0.147 C 
HETATM    7  C23 UNL     1      -4.736  12.578   1.069  1.00  0.00     0.147 C 
HETATM    8  C24 UNL     1      -5.575  13.826   0.775  1.00  0.00     0.045 C 
HETATM    9  C25 UNL     1      -7.611  13.936  -0.871  1.00  0.00    -0.013 A 
HETATM   10  C26 UNL     1      -8.504  12.692  -1.260  1.00  0.00     0.021 C 
ENDROOT
BRANCH   2  11
HETATM   11  C9  UNL     1      -7.632  15.495   2.015  1.00  0.00     0.117 C 
BRANCH  11  12
HETATM   12  O1  UNL     1      -7.250  16.653   1.555  1.00  0.00    -0.349 OA
ATOM     13  H1  UNL     1      -6.421  16.997   1.865  1.00  0.00     0.219 HD
ENDBRANCH  11  12
BRANCH  11  14
HETATM   14  N1  UNL     1      -7.592  15.480   3.427  1.00  0.00    -0.360 N 
ATOM     15  H1  UNL     1      -6.721  15.736   3.891  1.00  0.00     0.162 HD
BRANCH  14  16
HETATM   16  C10 UNL     1      -8.747  15.112   4.259  1.00  0.00     0.181 C 
BRANCH  16  17
HETATM   17  C11 UNL     1      -8.268  13.991   5.154  1.00  0.00     0.093 C 
BRANCH  17  18
HETATM   18  C12 UNL     1      -9.329  13.098   5.623  1.00  0.00     0.028 A 
HETATM   19  C13 UNL     1     -10.047  12.255   4.775  1.00  0.00     0.114 A 
HETATM   20  N2  UNL     1     -10.916  11.590   5.538  1.00  0.00    -0.360 N 
HETATM   21  C14 UNL     1     -10.754  11.995   6.817  1.00  0.00     0.180 A 
ATOM     22  H2  UNL     1     -11.588  10.895   5.213  1.00  0.00     0.166 HD
HETATM   23  N3  UNL     1      -9.782  12.923   6.890  1.00  0.00    -0.354 N 
ATOM     24  H3  UNL     1      -9.451  13.399   7.729  1.00  0.00     0.166 HD
ENDBRANCH  17  18
ENDBRANCH  16  17
BRANCH  16  25
HETATM   25  C15 UNL     1      -9.091  16.286   5.079  1.00  0.00     0.242 C 
HETATM   26  O2  UNL     1      -8.378  16.467   6.124  1.00  0.00    -0.271 OA
HETATM   27  N4  UNL     1     -10.118  17.196   4.794  1.00  0.00    -0.355 N 
HETATM   28  C16 UNL     1     -10.951  17.082   3.623  1.00  0.00     0.152 C 
BRANCH  27  29
HETATM   29  C17 UNL     1     -10.363  18.319   5.727  1.00  0.00     0.120 C 
HETATM   30  C18 UNL     1     -11.612  17.994   6.486  1.00  0.00     0.026 C 
ENDBRANCH  27  29
ENDBRANCH  16  25
ENDBRANCH  14  16
ENDBRANCH  11  14
ENDBRANCH   2  11
BRANCH   1  31
HETATM   31  C6  UNL     1      -8.616  16.340  -0.585  1.00  0.00     0.034 C 
BRANCH  31  32
HETATM   32  C5  UNL     1      -9.954  16.844  -0.953  1.00  0.00    -0.020 C 
HETATM   33  C3  UNL     1     -10.247  17.102  -2.231  1.00  0.00    -0.067 C 
HETATM   34  C4  UNL     1      -9.276  16.897  -3.313  1.00  0.00     0.048 C 
BRANCH  33  35
HETATM   35  C2  UNL     1     -11.575  17.597  -2.534  1.00  0.00    -0.004 C 
HETATM   36  C1  UNL     1     -12.619  16.815  -2.598  1.00  0.00     0.012 C 
ENDBRANCH  33  35
ENDBRANCH  31  32
ENDBRANCH   1  31
BRANCH   9  37
HETATM   37  C27 UNL     1      -6.897  14.209  -2.103  1.00  0.00    -0.017 C 
BRANCH  37  38
HETATM   38  C28 UNL     1      -7.190  13.764  -3.425  1.00  0.00    -0.007 C 
BRANCH  38  39
HETATM   39  C29 UNL     1      -6.651  14.184  -4.564  1.00  0.00    -0.027 C 
BRANCH  39  40
HETATM   40  C30 UNL     1      -6.619  13.467  -5.863  1.00  0.00     0.027 C 
BRANCH  40  41
HETATM   41  C31 UNL     1      -5.210  13.117  -6.280  1.00  0.00     0.013 C 
BRANCH  41  42
HETATM   42  C32 UNL     1      -4.812  11.704  -6.052  1.00  0.00     0.103 C 
BRANCH  42  43
HETATM   43  C33 UNL     1      -3.691  11.457  -5.158  1.00  0.00     0.219 C 
HETATM   44  O5  UNL     1      -2.516  11.661  -5.534  1.00  0.00    -0.273 OA
HETATM   45  N5  UNL     1      -3.907  10.984  -3.848  1.00  0.00    -0.361 N 
HETATM   46  C34 UNL     1      -2.790  10.745  -2.974  1.00  0.00     0.152 C 
HETATM   47  C35 UNL     1      -5.241  10.739  -3.377  1.00  0.00     0.152 C 
ENDBRANCH  42  43
ENDBRANCH  41  42
ENDBRANCH  40  41
ENDBRANCH  39  40
ENDBRANCH  38  39
ENDBRANCH  37  38
ENDBRANCH   9  37
BRANCH   7  48
HETATM   48  O4  UNL     1      -4.512  11.735   0.046  1.00  0.00    -0.393 OA
ATOM     49  H4  UNL     1      -4.532  12.158  -0.805  1.00  0.00     0.210 HD
ENDBRANCH   7  48
BRANCH   6  50
HETATM   50  O3  UNL     1      -4.835  10.536   2.281  1.00  0.00    -0.393 OA
ATOM     51  H3  UNL     1      -4.301  10.304   3.032  1.00  0.00     0.210 HD
ENDBRANCH   6  50
TORSDOF 20
ENDMDL
MODEL 5
REMARK VINA RESULT: -6.373826170      2.804      7.770
REMARK  20 active torsions:
REMARK  status: ('A' for Active; 'I' for Inactive)
REMARK    1  A    between atoms: C2_2  and  C3_3 
REMARK    2  A    between atoms: C5_5  and  C6_6 
REMARK    3  A    between atoms: C6_6  and  C7_7 
REMARK    4  A    between atoms: C8_8  and  C9_9 
REMARK    5  A    between atoms: C9_9  and  O1_10 
REMARK    6  A    between atoms: C9_9  and  N1_12 
REMARK    7  A    between atoms: N1_12  and  C10_14 
REMARK    8  A    between atoms: C10_14  and  C11_15 
REMARK    9  A    between atoms: C10_14  and  C15_23 
REMARK   10  A    between atoms: C11_15  and  C12_16 
REMARK       I    between atoms: C15_23  and  N4_25 
REMARK   11  A    between atoms: N4_25  and  C17_27 
REMARK   12  A    between atoms: C22_32  and  O3_33 
REMARK   13  A    between atoms: C23_35  and  O4_36 
REMARK   14  A    between atoms: C25_39  and  C27_41 
REMARK   15  A    between atoms: C27_41  and  C28_42 
REMARK   16  A    between atoms: C28_42  and  C29_43 
REMARK   17  A    between atoms: C29_43  and  C30_44 
REMARK   18  A    between atoms: C30_44  and  C31_45 
REMARK   19  A    between atoms: C31_45  and  C32_46 
REMARK   20  A    between atoms: C32_46  and  C33_47 
REMARK       I    between atoms: C33_47  and  N5_49 
ROOT
HETATM    1  C7  UNL     1      -5.751  12.771  -2.108  1.00  0.00     0.014 A 
HETATM    2  C8  UNL     1      -5.465  12.944  -3.581  1.00  0.00     0.075 A 
HETATM    3  C19 UNL     1      -5.227  11.463  -3.778  1.00  0.00    -0.015 A 
HETATM    4  C20 UNL     1      -3.793  11.235  -4.282  1.00  0.00     0.014 C 
HETATM    5  C21 UNL     1      -3.679  11.660  -5.731  1.00  0.00     0.035 C 
HETATM    6  C22 UNL     1      -4.262  10.594  -6.586  1.00  0.00     0.147 C 
HETATM    7  C23 UNL     1      -5.299   9.845  -5.747  1.00  0.00     0.147 C 
HETATM    8  C24 UNL     1      -6.046  10.822  -4.833  1.00  0.00     0.045 C 
HETATM    9  C25 UNL     1      -5.452  11.318  -2.330  1.00  0.00    -0.013 A 
HETATM   10  C26 UNL     1      -4.012  11.131  -1.707  1.00  0.00     0.021 C 
ENDROOT
BRANCH   2  11
HETATM   11  C9  UNL     1      -6.364  13.696  -4.397  1.00  0.00     0.117 C 
BRANCH  11  12
HETATM   12  O1  UNL     1      -6.253  14.995  -4.376  1.00  0.00    -0.349 OA
ATOM     13  H1  UNL     1      -6.972  15.491  -4.003  1.00  0.00     0.219 HD
ENDBRANCH  11  12
BRANCH  11  14
HETATM   14  N1  UNL     1      -7.404  13.296  -5.264  1.00  0.00    -0.360 N 
ATOM     15  H1  UNL     1      -7.181  13.128  -6.245  1.00  0.00     0.162 HD
BRANCH  14  16
HETATM   16  C10 UNL     1      -8.794  13.112  -4.821  1.00  0.00     0.181 C 
BRANCH  16  17
HETATM   17  C11 UNL     1      -9.486  14.431  -5.079  1.00  0.00     0.093 C 
BRANCH  17  18
HETATM   18  C12 UNL     1      -9.675  15.257  -3.885  1.00  0.00     0.028 A 
HETATM   19  C13 UNL     1     -10.633  14.980  -2.910  1.00  0.00     0.114 A 
HETATM   20  N2  UNL     1     -10.517  15.926  -1.976  1.00  0.00    -0.360 N 
HETATM   21  C14 UNL     1      -9.525  16.766  -2.345  1.00  0.00     0.180 A 
ATOM     22  H2  UNL     1     -11.080  16.003  -1.129  1.00  0.00     0.166 HD
HETATM   23  N3  UNL     1      -8.994  16.371  -3.517  1.00  0.00    -0.354 N 
ATOM     24  H3  UNL     1      -8.233  16.819  -4.026  1.00  0.00     0.166 HD
ENDBRANCH  17  18
ENDBRANCH  16  17
BRANCH  16  25
HETATM   25  C15 UNL     1      -9.391  12.066  -5.668  1.00  0.00     0.242 C 
HETATM   26  O2  UNL     1      -9.346  12.273  -6.927  1.00  0.00    -0.271 OA
HETATM   27  N4  UNL     1      -9.988  10.889  -5.196  1.00  0.00    -0.355 N 
HETATM   28  C16 UNL     1     -10.057  10.564  -3.793  1.00  0.00     0.152 C 
BRANCH  27  29
HETATM   29  C17 UNL     1     -10.571   9.938  -6.170  1.00  0.00     0.120 C 
HETATM   30  C18 UNL     1      -9.692   8.727  -6.180  1.00  0.00     0.026 C 
ENDBRANCH  27  29
ENDBRANCH  16  25
ENDBRANCH  14  16
ENDBRANCH  11  14
ENDBRANCH   2  11
BRANCH   1  31
HETATM   31  C6  UNL     1      -7.043  13.270  -1.604  1.00  0.00     0.034 C 
BRANCH  31  32
HETATM   32  C5  UNL     1      -6.939  14.526  -0.834  1.00  0.00    -0.020 C 
HETATM   33  C3  UNL     1      -7.802  14.781   0.154  1.00  0.00    -0.067 C 
HETATM   34  C4  UNL     1      -8.871  13.845   0.521  1.00  0.00     0.048 C 
BRANCH  33  35
HETATM   35  C2  UNL     1      -7.654  16.030   0.875  1.00  0.00    -0.004 C 
HETATM   36  C1  UNL     1      -8.588  16.506   1.654  1.00  0.00     0.012 C 
ENDBRANCH  33  35
ENDBRANCH  31  32
ENDBRANCH   1  31
BRANCH   9  37
HETATM   37  C27 UNL     1      -6.208  10.255  -1.699  1.00  0.00    -0.017 C 
BRANCH  37  38
HETATM   38  C28 UNL     1      -6.137   9.780  -0.356  1.00  0.00    -0.007 C 
BRANCH  38  39
HETATM   39  C29 UNL     1      -6.590  10.373   0.743  1.00  0.00    -0.027 C 
BRANCH  39  40
HETATM   40  C30 UNL     1      -5.986  11.524   1.459  1.00  0.00     0.027 C 
BRANCH  40  41
HETATM   41  C31 UNL     1      -6.190  11.429   2.953  1.00  0.00     0.013 C 
BRANCH  41  42
HETATM   42  C32 UNL     1      -7.452  12.024   3.462  1.00  0.00     0.103 C 
BRANCH  42  43
HETATM   43  C33 UNL     1      -7.412  13.409   3.902  1.00  0.00     0.219 C 
HETATM   44  O5  UNL     1      -6.541  14.194   3.466  1.00  0.00    -0.273 OA
HETATM   45  N5  UNL     1      -8.355  13.897   4.830  1.00  0.00    -0.361 N 
HETATM   46  C34 UNL     1      -8.304  15.270   5.256  1.00  0.00     0.152 C 
HETATM   47  C35 UNL     1      -9.372  13.029   5.352  1.00  0.00     0.152 C 
ENDBRANCH  42  43
ENDBRANCH  41  42
ENDBRANCH  40  41
ENDBRANCH  39  40
ENDBRANCH  38  39
ENDBRANCH  37  38
ENDBRANCH   9  37
BRANCH   7  48
HETATM   48  O4  UNL     1      -4.823   8.721  -5.184  1.00  0.00    -0.393 OA
ATOM     49  H4  UNL     1      -5.016   7.937  -5.684  1.00  0.00     0.210 HD
ENDBRANCH   7  48
BRANCH   6  50
HETATM   50  O3  UNL     1      -3.285   9.665  -6.996  1.00  0.00    -0.393 OA
ATOM     51  H3  UNL     1      -3.046   9.787  -7.908  1.00  0.00     0.210 HD
ENDBRANCH   6  50
TORSDOF 20
ENDMDL
