MODEL 1
REMARK VINA RESULT: -6.972344608      0.000      0.000
REMARK  16 active torsions:
REMARK  status: ('A' for Active; 'I' for Inactive)
REMARK    1  A    between atoms: C2_2  and  C4_4 
REMARK    2  A    between atoms: C4_4  and  C5_5 
REMARK    3  A    between atoms: C5_5  and  C6_6 
REMARK    4  A    between atoms: C6_6  and  C7_7 
REMARK    5  A    between atoms: C7_7  and  C8_8 
REMARK    6  A    between atoms: C8_8  and  C9_9 
REMARK    7  A    between atoms: C10_12  and  C11_13 
REMARK    8  A    between atoms: C17_21  and  C18_22 
REMARK    9  A    between atoms: C18_22  and  C19_23 
REMARK   10  A    between atoms: C19_23  and  C20_24 
REMARK   11  A    between atoms: C20_24  and  C21_25 
REMARK   12  A    between atoms: C21_25  and  N3_26 
REMARK   13  A    between atoms: C24_34  and  C25_35 
REMARK   14  A    between atoms: C25_35  and  C26_36 
REMARK   15  A    between atoms: C30_43  and  C31_44 
REMARK   16  A    between atoms: C31_44  and  C32_45 
ROOT
HETATM    1  C9  UNL     1     -10.024  16.617  -1.381  1.00  0.00     0.169 C 
HETATM    2  N1  UNL     1     -10.880  17.529  -0.780  1.00  0.00    -0.403 N 
ATOM      3  H1  UNL     1     -11.131  18.349  -1.333  1.00  0.00     0.154 HD
HETATM    4  C10 UNL     1     -11.432  17.447   0.492  1.00  0.00     0.098 C 
HETATM    5  C14 UNL     1     -12.514  16.523   0.823  1.00  0.00     0.150 C 
HETATM    6  N2  UNL     1     -13.003  16.795   2.172  1.00  0.00    -0.353 N 
HETATM    7  C15 UNL     1     -14.328  17.331   2.340  1.00  0.00     0.152 C 
HETATM    8  C16 UNL     1     -12.199  16.549   3.325  1.00  0.00     0.242 C 
HETATM    9  O1  UNL     1     -12.289  17.385   4.293  1.00  0.00    -0.271 OA
HETATM   10  C17 UNL     1     -11.284  15.435   3.485  1.00  0.00     0.179 C 
HETATM   11  N4  UNL     1     -10.232  15.691   4.470  1.00  0.00    -0.341 N 
HETATM   12  C22 UNL     1     -10.606  16.035   5.812  1.00  0.00     0.153 C 
HETATM   13  C23 UNL     1      -8.845  15.622   4.174  1.00  0.00     0.243 C 
HETATM   14  O2  UNL     1      -8.053  16.188   4.971  1.00  0.00    -0.271 OA
HETATM   15  C24 UNL     1      -8.270  14.939   3.008  1.00  0.00     0.177 C 
HETATM   16  N5  UNL     1      -7.986  15.900   1.972  1.00  0.00    -0.346 N 
ATOM     17  H5  UNL     1      -8.163  16.886   2.167  1.00  0.00     0.163 HD
HETATM   18  C29 UNL     1      -7.474  15.551   0.694  1.00  0.00     0.241 C 
HETATM   19  O3  UNL     1      -6.613  16.310   0.198  1.00  0.00    -0.271 OA
HETATM   20  C30 UNL     1      -7.883  14.353  -0.091  1.00  0.00     0.177 C 
HETATM   21  N6  UNL     1      -9.241  14.302  -0.470  1.00  0.00    -0.346 N 
ATOM     22  H6  UNL     1      -9.698  13.427  -0.210  1.00  0.00     0.163 HD
HETATM   23  C35 UNL     1     -10.095  15.196  -1.126  1.00  0.00     0.240 C 
HETATM   24  O4  UNL     1     -11.176  14.674  -1.619  1.00  0.00    -0.271 OA
ENDROOT
BRANCH   1  25
HETATM   25  C8  UNL     1     -10.099  16.914  -2.902  1.00  0.00     0.034 C 
BRANCH  25  26
HETATM   26  C7  UNL     1      -9.031  16.236  -3.683  1.00  0.00     0.002 C 
BRANCH  26  27
HETATM   27  C6  UNL     1      -9.719  15.381  -4.738  1.00  0.00     0.000 C 
BRANCH  27  28
HETATM   28  C5  UNL     1      -9.154  14.002  -4.834  1.00  0.00     0.000 C 
BRANCH  28  29
HETATM   29  C4  UNL     1      -7.631  14.015  -4.724  1.00  0.00     0.004 C 
BRANCH  29  30
HETATM   30  C2  UNL     1      -7.034  13.577  -6.064  1.00  0.00    -0.023 C 
HETATM   31  C1  UNL     1      -5.598  13.190  -5.926  1.00  0.00     0.009 C 
HETATM   32  C3  UNL     1      -7.843  12.455  -6.669  1.00  0.00     0.009 C 
ENDBRANCH  29  30
ENDBRANCH  28  29
ENDBRANCH  27  28
ENDBRANCH  26  27
ENDBRANCH  25  26
ENDBRANCH   1  25
BRANCH   4  33
HETATM   33  C11 UNL     1     -11.907  18.871   0.860  1.00  0.00     0.001 C 
HETATM   34  C12 UNL     1     -10.844  19.521   1.763  1.00  0.00     0.011 C 
HETATM   35  C13 UNL     1     -11.960  19.752  -0.377  1.00  0.00     0.011 C 
ENDBRANCH   4  33
BRANCH  20  36
HETATM   36  C31 UNL     1      -6.860  14.037  -1.151  1.00  0.00     0.038 C 
BRANCH  36  37
HETATM   37  C32 UNL     1      -6.411  12.651  -1.300  1.00  0.00    -0.020 C 
HETATM   38  C33 UNL     1      -5.160  12.412  -2.087  1.00  0.00     0.009 C 
HETATM   39  C34 UNL     1      -7.472  11.693  -1.800  1.00  0.00     0.009 C 
ENDBRANCH  36  37
ENDBRANCH  20  36
BRANCH  10  40
HETATM   40  C18 UNL     1     -11.913  14.105   3.609  1.00  0.00     0.035 C 
BRANCH  40  41
HETATM   41  C19 UNL     1     -11.300  12.861   3.172  1.00  0.00     0.004 C 
BRANCH  41  42
HETATM   42  C20 UNL     1     -10.446  12.066   4.101  1.00  0.00     0.027 C 
BRANCH  42  43
HETATM   43  C21 UNL     1     -10.893  12.314   5.565  1.00  0.00     0.229 C 
BRANCH  43  44
HETATM   44  N3  UNL     1      -9.751  12.549   6.411  1.00  0.00    -0.079 N 
ATOM     45  H33 UNL     1      -9.010  11.868   6.245  1.00  0.00     0.274 HD
ATOM     46  H32 UNL     1      -9.246  13.393   6.140  1.00  0.00     0.274 HD
ATOM     47  H31 UNL     1     -10.030  12.572   7.392  1.00  0.00     0.274 HD
ENDBRANCH  43  44
ENDBRANCH  42  43
ENDBRANCH  41  42
ENDBRANCH  40  41
ENDBRANCH  10  40
BRANCH  15  48
HETATM   48  C25 UNL     1      -6.954  14.330   3.450  1.00  0.00     0.038 C 
BRANCH  48  49
HETATM   49  C26 UNL     1      -6.877  12.858   3.113  1.00  0.00    -0.020 C 
HETATM   50  C27 UNL     1      -6.756  12.104   4.427  1.00  0.00     0.009 C 
HETATM   51  C28 UNL     1      -5.675  12.519   2.279  1.00  0.00     0.009 C 
ENDBRANCH  48  49
ENDBRANCH  15  48
TORSDOF 16
ENDMDL
MODEL 2
REMARK VINA RESULT: -6.966633995      2.051      4.713
REMARK  16 active torsions:
REMARK  status: ('A' for Active; 'I' for Inactive)
REMARK    1  A    between atoms: C2_2  and  C4_4 
REMARK    2  A    between atoms: C4_4  and  C5_5 
REMARK    3  A    between atoms: C5_5  and  C6_6 
REMARK    4  A    between atoms: C6_6  and  C7_7 
REMARK    5  A    between atoms: C7_7  and  C8_8 
REMARK    6  A    between atoms: C8_8  and  C9_9 
REMARK    7  A    between atoms: C10_12  and  C11_13 
REMARK    8  A    between atoms: C17_21  and  C18_22 
REMARK    9  A    between atoms: C18_22  and  C19_23 
REMARK   10  A    between atoms: C19_23  and  C20_24 
REMARK   11  A    between atoms: C20_24  and  C21_25 
REMARK   12  A    between atoms: C21_25  and  N3_26 
REMARK   13  A    between atoms: C24_34  and  C25_35 
REMARK   14  A    between atoms: C25_35  and  C26_36 
REMARK   15  A    between atoms: C30_43  and  C31_44 
REMARK   16  A    between atoms: C31_44  and  C32_45 
ROOT
HETATM    1  C9  UNL     1      -8.848  14.290  -0.341  1.00  0.00     0.169 C 
HETATM    2  N1  UNL     1      -9.264  15.085  -1.400  1.00  0.00    -0.403 N 
ATOM      3  H1  UNL     1      -8.706  15.035  -2.252  1.00  0.00     0.154 HD
HETATM    4  C10 UNL     1     -10.358  15.940  -1.425  1.00  0.00     0.098 C 
HETATM    5  C14 UNL     1     -11.734  15.457  -1.513  1.00  0.00     0.150 C 
HETATM    6  N2  UNL     1     -12.644  16.583  -1.705  1.00  0.00    -0.353 N 
HETATM    7  C15 UNL     1     -13.333  16.718  -2.962  1.00  0.00     0.152 C 
HETATM    8  C16 UNL     1     -12.860  17.555  -0.684  1.00  0.00     0.242 C 
HETATM    9  O1  UNL     1     -13.007  18.774  -1.053  1.00  0.00    -0.271 OA
HETATM   10  C17 UNL     1     -12.920  17.275   0.739  1.00  0.00     0.179 C 
HETATM   11  N4  UNL     1     -12.621  18.443   1.568  1.00  0.00    -0.341 N 
HETATM   12  C22 UNL     1     -13.413  19.629   1.409  1.00  0.00     0.153 C 
HETATM   13  C23 UNL     1     -11.579  18.476   2.532  1.00  0.00     0.243 C 
HETATM   14  O2  UNL     1     -11.189  19.606   2.926  1.00  0.00    -0.271 OA
HETATM   15  C24 UNL     1     -10.925  17.291   3.100  1.00  0.00     0.177 C 
HETATM   16  N5  UNL     1      -9.678  17.049   2.418  1.00  0.00    -0.346 N 
ATOM     17  H5  UNL     1      -9.387  17.709   1.696  1.00  0.00     0.163 HD
HETATM   18  C29 UNL     1      -8.831  15.943   2.695  1.00  0.00     0.241 C 
HETATM   19  O3  UNL     1      -7.599  16.152   2.691  1.00  0.00    -0.271 OA
HETATM   20  C30 UNL     1      -9.302  14.560   2.989  1.00  0.00     0.177 C 
HETATM   21  N6  UNL     1     -10.025  13.924   1.958  1.00  0.00    -0.346 N 
ATOM     22  H6  UNL     1     -10.922  13.550   2.267  1.00  0.00     0.163 HD
HETATM   23  C35 UNL     1      -9.771  13.697   0.600  1.00  0.00     0.240 C 
HETATM   24  O4  UNL     1     -10.493  12.773   0.045  1.00  0.00    -0.271 OA
ENDROOT
BRANCH   1  25
HETATM   25  C8  UNL     1      -7.923  13.213  -0.967  1.00  0.00     0.034 C 
BRANCH  25  26
HETATM   26  C7  UNL     1      -7.886  13.267  -2.452  1.00  0.00     0.002 C 
BRANCH  26  27
HETATM   27  C6  UNL     1      -6.492  13.731  -2.852  1.00  0.00     0.000 C 
BRANCH  27  28
HETATM   28  C5  UNL     1      -6.433  14.285  -4.236  1.00  0.00     0.000 C 
BRANCH  28  29
HETATM   29  C4  UNL     1      -7.546  13.714  -5.113  1.00  0.00     0.004 C 
BRANCH  29  30
HETATM   30  C2  UNL     1      -6.941  13.249  -6.441  1.00  0.00    -0.023 C 
HETATM   31  C1  UNL     1      -5.449  13.305  -6.414  1.00  0.00     0.009 C 
HETATM   32  C3  UNL     1      -7.426  11.864  -6.795  1.00  0.00     0.009 C 
ENDBRANCH  29  30
ENDBRANCH  28  29
ENDBRANCH  27  28
ENDBRANCH  26  27
ENDBRANCH  25  26
ENDBRANCH   1  25
BRANCH   4  33
HETATM   33  C11 UNL     1     -10.131  16.913  -2.604  1.00  0.00     0.001 C 
HETATM   34  C12 UNL     1      -8.919  17.803  -2.274  1.00  0.00     0.011 C 
HETATM   35  C13 UNL     1      -9.726  16.151  -3.855  1.00  0.00     0.011 C 
ENDBRANCH   4  33
BRANCH  20  36
HETATM   36  C31 UNL     1      -8.218  13.762   3.665  1.00  0.00     0.038 C 
BRANCH  36  37
HETATM   37  C32 UNL     1      -8.381  13.412   5.077  1.00  0.00    -0.020 C 
HETATM   38  C33 UNL     1      -9.565  12.577   5.450  1.00  0.00     0.009 C 
HETATM   39  C34 UNL     1      -8.313  14.586   6.031  1.00  0.00     0.009 C 
ENDBRANCH  36  37
ENDBRANCH  20  36
BRANCH  10  40
HETATM   40  C18 UNL     1     -14.096  16.503   1.189  1.00  0.00     0.035 C 
BRANCH  40  41
HETATM   41  C19 UNL     1     -14.406  15.150   0.757  1.00  0.00     0.004 C 
BRANCH  41  42
HETATM   42  C20 UNL     1     -13.574  13.998   1.211  1.00  0.00     0.027 C 
BRANCH  42  43
HETATM   43  C21 UNL     1     -14.252  12.666   0.795  1.00  0.00     0.229 C 
BRANCH  43  44
HETATM   44  N3  UNL     1     -13.414  11.937  -0.122  1.00  0.00    -0.079 N 
ATOM     45  H33 UNL     1     -12.674  11.429   0.362  1.00  0.00     0.274 HD
ATOM     46  H32 UNL     1     -13.903  11.141  -0.531  1.00  0.00     0.274 HD
ATOM     47  H31 UNL     1     -13.040  12.560  -0.838  1.00  0.00     0.274 HD
ENDBRANCH  43  44
ENDBRANCH  42  43
ENDBRANCH  41  42
ENDBRANCH  40  41
ENDBRANCH  10  40
BRANCH  15  48
HETATM   48  C25 UNL     1     -10.608  17.605   4.549  1.00  0.00     0.038 C 
BRANCH  48  49
HETATM   49  C26 UNL     1     -11.743  17.212   5.467  1.00  0.00    -0.020 C 
HETATM   50  C27 UNL     1     -11.590  18.029   6.740  1.00  0.00     0.009 C 
HETATM   51  C28 UNL     1     -11.701  15.760   5.848  1.00  0.00     0.009 C 
ENDBRANCH  48  49
ENDBRANCH  15  48
TORSDOF 16
ENDMDL
MODEL 3
REMARK VINA RESULT: -6.950423790      2.455      8.336
REMARK  16 active torsions:
REMARK  status: ('A' for Active; 'I' for Inactive)
REMARK    1  A    between atoms: C2_2  and  C4_4 
REMARK    2  A    between atoms: C4_4  and  C5_5 
REMARK    3  A    between atoms: C5_5  and  C6_6 
REMARK    4  A    between atoms: C6_6  and  C7_7 
REMARK    5  A    between atoms: C7_7  and  C8_8 
REMARK    6  A    between atoms: C8_8  and  C9_9 
REMARK    7  A    between atoms: C10_12  and  C11_13 
REMARK    8  A    between atoms: C17_21  and  C18_22 
REMARK    9  A    between atoms: C18_22  and  C19_23 
REMARK   10  A    between atoms: C19_23  and  C20_24 
REMARK   11  A    between atoms: C20_24  and  C21_25 
REMARK   12  A    between atoms: C21_25  and  N3_26 
REMARK   13  A    between atoms: C24_34  and  C25_35 
REMARK   14  A    between atoms: C25_35  and  C26_36 
REMARK   15  A    between atoms: C30_43  and  C31_44 
REMARK   16  A    between atoms: C31_44  and  C32_45 
ROOT
HETATM    1  C9  UNL     1      -7.885  13.441   2.908  1.00  0.00     0.169 C 
HETATM    2  N1  UNL     1      -7.104  12.378   2.478  1.00  0.00    -0.403 N 
ATOM      3  H1  UNL     1      -6.425  12.013   3.146  1.00  0.00     0.154 HD
HETATM    4  C10 UNL     1      -7.147  11.756   1.236  1.00  0.00     0.098 C 
HETATM    5  C14 UNL     1      -8.229  10.857   0.843  1.00  0.00     0.150 C 
HETATM    6  N2  UNL     1      -7.907  10.220  -0.431  1.00  0.00    -0.353 N 
HETATM    7  C15 UNL     1      -7.639   8.806  -0.458  1.00  0.00     0.152 C 
HETATM    8  C16 UNL     1      -7.842  10.965  -1.646  1.00  0.00     0.242 C 
HETATM    9  O1  UNL     1      -6.935  10.637  -2.491  1.00  0.00    -0.271 OA
HETATM   10  C17 UNL     1      -8.717  12.069  -1.999  1.00  0.00     0.179 C 
HETATM   11  N4  UNL     1      -8.134  12.969  -2.995  1.00  0.00    -0.341 N 
HETATM   12  C22 UNL     1      -7.719  12.431  -4.258  1.00  0.00     0.153 C 
HETATM   13  C23 UNL     1      -7.951  14.361  -2.782  1.00  0.00     0.243 C 
HETATM   14  O2  UNL     1      -7.142  14.961  -3.538  1.00  0.00    -0.271 OA
HETATM   15  C24 UNL     1      -8.633  15.149  -1.748  1.00  0.00     0.177 C 
HETATM   16  N5  UNL     1      -7.763  15.316  -0.610  1.00  0.00    -0.346 N 
ATOM     17  H5  UNL     1      -6.819  14.932  -0.665  1.00  0.00     0.163 HD
HETATM   18  C29 UNL     1      -8.148  15.984   0.582  1.00  0.00     0.241 C 
HETATM   19  O3  UNL     1      -7.291  16.713   1.129  1.00  0.00    -0.271 OA
HETATM   20  C30 UNL     1      -9.489  15.882   1.223  1.00  0.00     0.177 C 
HETATM   21  N6  UNL     1      -9.864  14.595   1.662  1.00  0.00    -0.346 N 
ATOM     22  H6  UNL     1     -10.777  14.302   1.313  1.00  0.00     0.163 HD
HETATM   23  C35 UNL     1      -9.249  13.634   2.473  1.00  0.00     0.240 C 
HETATM   24  O4  UNL     1     -10.037  12.719   2.948  1.00  0.00    -0.271 OA
ENDROOT
BRANCH   1  25
HETATM   25  C8  UNL     1      -7.791  13.426   4.457  1.00  0.00     0.034 C 
BRANCH  25  26
HETATM   26  C7  UNL     1      -8.214  14.709   5.080  1.00  0.00     0.002 C 
BRANCH  26  27
HETATM   27  C6  UNL     1      -8.919  14.365   6.385  1.00  0.00     0.000 C 
BRANCH  27  28
HETATM   28  C5  UNL     1     -10.402  14.517   6.307  1.00  0.00     0.000 C 
BRANCH  28  29
HETATM   29  C4  UNL     1     -10.801  15.559   5.264  1.00  0.00     0.004 C 
BRANCH  29  30
HETATM   30  C2  UNL     1     -11.181  16.858   5.983  1.00  0.00    -0.023 C 
HETATM   31  C1  UNL     1     -10.117  17.896   5.839  1.00  0.00     0.009 C 
HETATM   32  C3  UNL     1     -12.512  17.372   5.491  1.00  0.00     0.009 C 
ENDBRANCH  29  30
ENDBRANCH  28  29
ENDBRANCH  27  28
ENDBRANCH  26  27
ENDBRANCH  25  26
ENDBRANCH   1  25
BRANCH   4  33
HETATM   33  C11 UNL     1      -5.819  10.981   1.084  1.00  0.00     0.001 C 
HETATM   34  C12 UNL     1      -4.675  12.000   0.937  1.00  0.00     0.011 C 
HETATM   35  C13 UNL     1      -5.499  10.215   2.357  1.00  0.00     0.011 C 
ENDBRANCH   4  33
BRANCH  20  36
HETATM   36  C31 UNL     1      -9.710  17.026   2.178  1.00  0.00     0.038 C 
BRANCH  36  37
HETATM   37  C32 UNL     1     -11.022  17.676   2.202  1.00  0.00    -0.020 C 
HETATM   38  C33 UNL     1     -12.007  17.281   1.147  1.00  0.00     0.009 C 
HETATM   39  C34 UNL     1     -10.979  19.188   2.263  1.00  0.00     0.009 C 
ENDBRANCH  36  37
ENDBRANCH  20  36
BRANCH  10  40
HETATM   40  C18 UNL     1     -10.124  11.708  -2.265  1.00  0.00     0.035 C 
BRANCH  40  41
HETATM   41  C19 UNL     1     -11.223  12.659  -2.307  1.00  0.00     0.004 C 
BRANCH  41  42
HETATM   42  C20 UNL     1     -11.849  13.153  -1.046  1.00  0.00     0.027 C 
BRANCH  42  43
HETATM   43  C21 UNL     1     -11.905  12.005  -0.004  1.00  0.00     0.229 C 
BRANCH  43  44
HETATM   44  N3  UNL     1     -12.597  12.433   1.185  1.00  0.00    -0.079 N 
ATOM     45  H33 UNL     1     -11.967  12.885   1.848  1.00  0.00     0.274 HD
ATOM     46  H32 UNL     1     -13.215  13.223   0.999  1.00  0.00     0.274 HD
ATOM     47  H31 UNL     1     -13.097  11.652   1.610  1.00  0.00     0.274 HD
ENDBRANCH  43  44
ENDBRANCH  42  43
ENDBRANCH  41  42
ENDBRANCH  40  41
ENDBRANCH  10  40
BRANCH  15  48
HETATM   48  C25 UNL     1      -8.900  16.521  -2.334  1.00  0.00     0.038 C 
BRANCH  48  49
HETATM   49  C26 UNL     1     -10.344  16.935  -2.152  1.00  0.00    -0.020 C 
HETATM   50  C27 UNL     1     -11.125  16.354  -3.318  1.00  0.00     0.009 C 
HETATM   51  C28 UNL     1     -10.523  18.426  -2.178  1.00  0.00     0.009 C 
ENDBRANCH  48  49
ENDBRANCH  15  48
TORSDOF 16
ENDMDL
MODEL 4
REMARK VINA RESULT: -6.919394914      2.087      5.366
REMARK  16 active torsions:
REMARK  status: ('A' for Active; 'I' for Inactive)
REMARK    1  A    between atoms: C2_2  and  C4_4 
REMARK    2  A    between atoms: C4_4  and  C5_5 
REMARK    3  A    between atoms: C5_5  and  C6_6 
REMARK    4  A    between atoms: C6_6  and  C7_7 
REMARK    5  A    between atoms: C7_7  and  C8_8 
REMARK    6  A    between atoms: C8_8  and  C9_9 
REMARK    7  A    between atoms: C10_12  and  C11_13 
REMARK    8  A    between atoms: C17_21  and  C18_22 
REMARK    9  A    between atoms: C18_22  and  C19_23 
REMARK   10  A    between atoms: C19_23  and  C20_24 
REMARK   11  A    between atoms: C20_24  and  C21_25 
REMARK   12  A    between atoms: C21_25  and  N3_26 
REMARK   13  A    between atoms: C24_34  and  C25_35 
REMARK   14  A    between atoms: C25_35  and  C26_36 
REMARK   15  A    between atoms: C30_43  and  C31_44 
REMARK   16  A    between atoms: C31_44  and  C32_45 
ROOT
HETATM    1  C9  UNL     1      -8.691  14.060  -0.079  1.00  0.00     0.169 C 
HETATM    2  N1  UNL     1      -9.047  14.798  -1.199  1.00  0.00    -0.403 N 
ATOM      3  H1  UNL     1      -8.455  14.688  -2.022  1.00  0.00     0.154 HD
HETATM    4  C10 UNL     1     -10.121  15.671  -1.320  1.00  0.00     0.098 C 
HETATM    5  C14 UNL     1     -11.502  15.209  -1.438  1.00  0.00     0.150 C 
HETATM    6  N2  UNL     1     -12.379  16.338  -1.733  1.00  0.00    -0.353 N 
HETATM    7  C15 UNL     1     -13.013  16.412  -3.024  1.00  0.00     0.152 C 
HETATM    8  C16 UNL     1     -12.617  17.372  -0.780  1.00  0.00     0.242 C 
HETATM    9  O1  UNL     1     -12.724  18.570  -1.225  1.00  0.00    -0.271 OA
HETATM   10  C17 UNL     1     -12.741  17.177   0.653  1.00  0.00     0.179 C 
HETATM   11  N4  UNL     1     -12.453  18.386   1.425  1.00  0.00    -0.341 N 
HETATM   12  C22 UNL     1     -13.213  19.575   1.165  1.00  0.00     0.153 C 
HETATM   13  C23 UNL     1     -11.451  18.456   2.429  1.00  0.00     0.243 C 
HETATM   14  O2  UNL     1     -11.054  19.600   2.774  1.00  0.00    -0.271 OA
HETATM   15  C24 UNL     1     -10.845  17.294   3.092  1.00  0.00     0.177 C 
HETATM   16  N5  UNL     1      -9.576  16.990   2.478  1.00  0.00    -0.346 N 
ATOM     17  H5  UNL     1      -9.243  17.601   1.732  1.00  0.00     0.163 HD
HETATM   18  C29 UNL     1      -8.766  15.886   2.854  1.00  0.00     0.241 C 
HETATM   19  O3  UNL     1      -7.530  16.073   2.890  1.00  0.00    -0.271 OA
HETATM   20  C30 UNL     1      -9.277  14.533   3.208  1.00  0.00     0.177 C 
HETATM   21  N6  UNL     1      -9.969  13.851   2.185  1.00  0.00    -0.346 N 
ATOM     22  H6  UNL     1     -10.886  13.512   2.477  1.00  0.00     0.163 HD
HETATM   23  C35 UNL     1      -9.665  13.540   0.854  1.00  0.00     0.240 C 
HETATM   24  O4  UNL     1     -10.382  12.599   0.324  1.00  0.00    -0.271 OA
ENDROOT
BRANCH   1  25
HETATM   25  C8  UNL     1      -7.764  12.931  -0.602  1.00  0.00     0.034 C 
BRANCH  25  26
HETATM   26  C7  UNL     1      -6.764  13.409  -1.593  1.00  0.00     0.002 C 
BRANCH  26  27
HETATM   27  C6  UNL     1      -6.471  12.248  -2.534  1.00  0.00     0.000 C 
BRANCH  27  28
HETATM   28  C5  UNL     1      -5.596  12.630  -3.681  1.00  0.00     0.000 C 
BRANCH  28  29
HETATM   29  C4  UNL     1      -6.177  13.810  -4.457  1.00  0.00     0.004 C 
BRANCH  29  30
HETATM   30  C2  UNL     1      -5.966  13.570  -5.955  1.00  0.00    -0.023 C 
HETATM   31  C1  UNL     1      -4.898  12.556  -6.203  1.00  0.00     0.009 C 
HETATM   32  C3  UNL     1      -7.260  13.169  -6.620  1.00  0.00     0.009 C 
ENDBRANCH  29  30
ENDBRANCH  28  29
ENDBRANCH  27  28
ENDBRANCH  26  27
ENDBRANCH  25  26
ENDBRANCH   1  25
BRANCH   4  33
HETATM   33  C11 UNL     1      -9.825  16.569  -2.542  1.00  0.00     0.001 C 
HETATM   34  C12 UNL     1      -9.042  17.804  -2.061  1.00  0.00     0.011 C 
HETATM   35  C13 UNL     1      -8.887  15.864  -3.508  1.00  0.00     0.011 C 
ENDBRANCH   4  33
BRANCH  20  36
HETATM   36  C31 UNL     1      -8.238  13.755   3.973  1.00  0.00     0.038 C 
BRANCH  36  37
HETATM   37  C32 UNL     1      -8.449  13.523   5.403  1.00  0.00    -0.020 C 
HETATM   38  C33 UNL     1      -9.660  12.740   5.805  1.00  0.00     0.009 C 
HETATM   39  C34 UNL     1      -8.387  14.769   6.262  1.00  0.00     0.009 C 
ENDBRANCH  36  37
ENDBRANCH  20  36
BRANCH  10  40
HETATM   40  C18 UNL     1     -13.951  16.455   1.097  1.00  0.00     0.035 C 
BRANCH  40  41
HETATM   41  C19 UNL     1     -15.100  16.180   0.251  1.00  0.00     0.004 C 
BRANCH  41  42
HETATM   42  C20 UNL     1     -16.131  17.230   0.003  1.00  0.00     0.027 C 
BRANCH  42  43
HETATM   43  C21 UNL     1     -16.277  17.472  -1.522  1.00  0.00     0.229 C 
BRANCH  43  44
HETATM   44  N3  UNL     1     -15.725  18.751  -1.887  1.00  0.00    -0.079 N 
ATOM     45  H33 UNL     1     -16.363  19.516  -1.666  1.00  0.00     0.274 HD
ATOM     46  H32 UNL     1     -14.951  19.018  -1.278  1.00  0.00     0.274 HD
ATOM     47  H31 UNL     1     -15.454  18.757  -2.870  1.00  0.00     0.274 HD
ENDBRANCH  43  44
ENDBRANCH  42  43
ENDBRANCH  41  42
ENDBRANCH  40  41
ENDBRANCH  10  40
BRANCH  15  48
HETATM   48  C25 UNL     1     -10.582  17.687   4.532  1.00  0.00     0.038 C 
BRANCH  48  49
HETATM   49  C26 UNL     1     -11.742  17.322   5.432  1.00  0.00    -0.020 C 
HETATM   50  C27 UNL     1     -11.523  18.040   6.754  1.00  0.00     0.009 C 
HETATM   51  C28 UNL     1     -11.810  15.850   5.717  1.00  0.00     0.009 C 
ENDBRANCH  48  49
ENDBRANCH  15  48
TORSDOF 16
ENDMDL
MODEL 5
REMARK VINA RESULT: -6.904067205      2.148      3.775
REMARK  16 active torsions:
REMARK  status: ('A' for Active; 'I' for Inactive)
REMARK    1  A    between atoms: C2_2  and  C4_4 
REMARK    2  A    between atoms: C4_4  and  C5_5 
REMARK    3  A    between atoms: C5_5  and  C6_6 
REMARK    4  A    between atoms: C6_6  and  C7_7 
REMARK    5  A    between atoms: C7_7  and  C8_8 
REMARK    6  A    between atoms: C8_8  and  C9_9 
REMARK    7  A    between atoms: C10_12  and  C11_13 
REMARK    8  A    between atoms: C17_21  and  C18_22 
REMARK    9  A    between atoms: C18_22  and  C19_23 
REMARK   10  A    between atoms: C19_23  and  C20_24 
REMARK   11  A    between atoms: C20_24  and  C21_25 
REMARK   12  A    between atoms: C21_25  and  N3_26 
REMARK   13  A    between atoms: C24_34  and  C25_35 
REMARK   14  A    between atoms: C25_35  and  C26_36 
REMARK   15  A    between atoms: C30_43  and  C31_44 
REMARK   16  A    between atoms: C31_44  and  C32_45 
ROOT
HETATM    1  C9  UNL     1      -9.325  12.246  -3.017  1.00  0.00     0.169 C 
HETATM    2  N1  UNL     1      -9.789  13.477  -3.459  1.00  0.00    -0.403 N 
ATOM      3  H1  UNL     1      -9.746  13.644  -4.465  1.00  0.00     0.154 HD
HETATM    4  C10 UNL     1     -10.305  14.506  -2.682  1.00  0.00     0.098 C 
HETATM    5  C14 UNL     1     -11.636  14.448  -2.083  1.00  0.00     0.150 C 
HETATM    6  N2  UNL     1     -11.967  15.739  -1.485  1.00  0.00    -0.353 N 
HETATM    7  C15 UNL     1     -13.012  16.535  -2.073  1.00  0.00     0.152 C 
HETATM    8  C16 UNL     1     -11.276  16.233  -0.339  1.00  0.00     0.242 C 
HETATM    9  O1  UNL     1     -11.042  17.493  -0.290  1.00  0.00    -0.271 OA
HETATM   10  C17 UNL     1     -10.811  15.423   0.772  1.00  0.00     0.179 C 
HETATM   11  N4  UNL     1      -9.714  16.044   1.517  1.00  0.00    -0.341 N 
HETATM   12  C22 UNL     1      -9.912  17.345   2.089  1.00  0.00     0.153 C 
HETATM   13  C23 UNL     1      -8.449  15.429   1.709  1.00  0.00     0.243 C 
HETATM   14  O2  UNL     1      -7.489  16.170   2.047  1.00  0.00    -0.271 OA
HETATM   15  C24 UNL     1      -8.179  13.995   1.542  1.00  0.00     0.177 C 
HETATM   16  N5  UNL     1      -7.597  13.757   0.244  1.00  0.00    -0.346 N 
ATOM     17  H5  UNL     1      -7.409  14.562  -0.354  1.00  0.00     0.163 HD
HETATM   18  C29 UNL     1      -7.271  12.465  -0.246  1.00  0.00     0.241 C 
HETATM   19  O3  UNL     1      -6.208  12.353  -0.896  1.00  0.00    -0.271 OA
HETATM   20  C30 UNL     1      -8.095  11.242  -0.042  1.00  0.00     0.177 C 
HETATM   21  N6  UNL     1      -9.392  11.275  -0.597  1.00  0.00    -0.346 N 
ATOM     22  H6  UNL     1     -10.123  11.037   0.074  1.00  0.00     0.163 HD
HETATM   23  C35 UNL     1      -9.889  11.565  -1.873  1.00  0.00     0.240 C 
HETATM   24  O4  UNL     1     -11.095  11.150  -2.109  1.00  0.00    -0.271 OA
ENDROOT
BRANCH   1  25
HETATM   25  C8  UNL     1      -9.325  11.327  -4.267  1.00  0.00     0.034 C 
BRANCH  25  26
HETATM   26  C7  UNL     1      -9.764  12.024  -5.505  1.00  0.00     0.002 C 
BRANCH  26  27
HETATM   27  C6  UNL     1      -9.015  11.390  -6.669  1.00  0.00     0.000 C 
BRANCH  27  28
HETATM   28  C5  UNL     1      -7.569  11.760  -6.705  1.00  0.00     0.000 C 
BRANCH  28  29
HETATM   29  C4  UNL     1      -7.381  13.276  -6.719  1.00  0.00     0.004 C 
BRANCH  29  30
HETATM   30  C2  UNL     1      -6.104  13.623  -5.948  1.00  0.00    -0.023 C 
HETATM   31  C1  UNL     1      -6.403  14.016  -4.539  1.00  0.00     0.009 C 
HETATM   32  C3  UNL     1      -5.122  12.477  -5.995  1.00  0.00     0.009 C 
ENDBRANCH  29  30
ENDBRANCH  28  29
ENDBRANCH  27  28
ENDBRANCH  26  27
ENDBRANCH  25  26
ENDBRANCH   1  25
BRANCH   4  33
HETATM   33  C11 UNL     1     -10.237  15.787  -3.544  1.00  0.00     0.001 C 
HETATM   34  C12 UNL     1      -8.910  16.506  -3.243  1.00  0.00     0.011 C 
HETATM   35  C13 UNL     1     -10.165  15.434  -5.020  1.00  0.00     0.011 C 
ENDBRANCH   4  33
BRANCH  20  36
HETATM   36  C31 UNL     1      -7.275  10.001  -0.282  1.00  0.00     0.038 C 
BRANCH  36  37
HETATM   37  C32 UNL     1      -7.054   9.080   0.834  1.00  0.00    -0.020 C 
HETATM   38  C33 UNL     1      -8.248   8.671   1.639  1.00  0.00     0.009 C 
HETATM   39  C34 UNL     1      -5.960   9.499   1.793  1.00  0.00     0.009 C 
ENDBRANCH  36  37
ENDBRANCH  20  36
BRANCH  10  40
HETATM   40  C18 UNL     1     -11.867  14.845   1.627  1.00  0.00     0.035 C 
BRANCH  40  41
HETATM   41  C19 UNL     1     -11.627  14.200   2.907  1.00  0.00     0.004 C 
BRANCH  41  42
HETATM   42  C20 UNL     1     -11.889  14.924   4.185  1.00  0.00     0.027 C 
BRANCH  42  43
HETATM   43  C21 UNL     1     -10.798  14.562   5.226  1.00  0.00     0.229 C 
BRANCH  43  44
HETATM   44  N3  UNL     1      -9.734  15.533   5.203  1.00  0.00    -0.079 N 
ATOM     45  H33 UNL     1      -9.667  16.044   6.084  1.00  0.00     0.274 HD
ATOM     46  H32 UNL     1      -8.815  15.088   5.215  1.00  0.00     0.274 HD
ATOM     47  H31 UNL     1      -9.840  16.162   4.408  1.00  0.00     0.274 HD
ENDBRANCH  43  44
ENDBRANCH  42  43
ENDBRANCH  41  42
ENDBRANCH  40  41
ENDBRANCH  10  40
BRANCH  15  48
HETATM   48  C25 UNL     1      -7.154  13.607   2.589  1.00  0.00     0.038 C 
BRANCH  48  49
HETATM   49  C26 UNL     1      -7.788  12.866   3.745  1.00  0.00    -0.020 C 
HETATM   50  C27 UNL     1      -6.694  12.038   4.398  1.00  0.00     0.009 C 
HETATM   51  C28 UNL     1      -8.871  11.924   3.301  1.00  0.00     0.009 C 
ENDBRANCH  48  49
ENDBRANCH  15  48
TORSDOF 16
ENDMDL
