MODEL 1
REMARK VINA RESULT: -7.170104405      0.000      0.000
REMARK  3 active torsions:
REMARK  status: ('A' for Active; 'I' for Inactive)
REMARK    1  A    between atoms: C2_2  and  C4_4 
REMARK    2  A    between atoms: C5_7  and  C6_8 
REMARK    3  A    between atoms: C9_11  and  C10_12 
ROOT
HETATM    1  C4  UNL     1       4.405  -6.114  10.689  1.00  0.00     0.256 C 
HETATM    2  N1  UNL     1       5.711  -6.252  10.184  1.00  0.00    -0.385 N 
ATOM      3  H1  UNL     1       5.889  -6.322   9.183  1.00  0.00     0.156 HD
HETATM    4  C5  UNL     1       6.791  -6.292  11.151  1.00  0.00     0.110 C 
HETATM    5  C9  UNL     1       7.740  -5.149  11.034  1.00  0.00     0.040 C 
HETATM    6  C12 UNL     1       7.707  -4.205  12.197  1.00  0.00    -0.081 C 
HETATM    7  C13 UNL     1       8.972  -3.974  12.959  1.00  0.00     0.043 C 
HETATM    8  C14 UNL     1       6.638  -3.549  12.613  1.00  0.00    -0.014 C 
HETATM    9  C15 UNL     1       5.275  -3.610  12.020  1.00  0.00     0.138 C 
HETATM   10  C16 UNL     1       4.438  -4.655  12.650  1.00  0.00     0.264 C 
HETATM   11  O1  UNL     1       3.738  -4.446  13.687  1.00  0.00    -0.265 OA
HETATM   12  O2  UNL     1       4.428  -5.895  12.080  1.00  0.00    -0.291 OA
ENDROOT
BRANCH   1  13
HETATM   13  C2  UNL     1       3.677  -7.388  10.444  1.00  0.00    -0.045 C 
HETATM   14  C1  UNL     1       3.350  -8.173  11.456  1.00  0.00     0.018 C 
HETATM   15  C3  UNL     1       3.305  -7.804   9.065  1.00  0.00     0.047 C 
ENDBRANCH   1  13
BRANCH   4  16
HETATM   16  C6  UNL     1       7.425  -7.640  10.885  1.00  0.00    -0.006 C 
HETATM   17  C7  UNL     1       7.136  -8.334   9.790  1.00  0.00    -0.033 C 
HETATM   18  C8  UNL     1       7.746  -9.652   9.513  1.00  0.00     0.036 C 
ENDBRANCH   4  16
BRANCH   5  19
HETATM   19  C10 UNL     1       9.136  -5.544  10.659  1.00  0.00     0.007 C 
HETATM   20  C11 UNL     1       9.539  -5.466   9.249  1.00  0.00     0.006 C 
ENDBRANCH   5  19
TORSDOF 3
ENDMDL
MODEL 2
REMARK VINA RESULT: -7.073332415      1.470      4.598
REMARK  3 active torsions:
REMARK  status: ('A' for Active; 'I' for Inactive)
REMARK    1  A    between atoms: C2_2  and  C4_4 
REMARK    2  A    between atoms: C5_7  and  C6_8 
REMARK    3  A    between atoms: C9_11  and  C10_12 
ROOT
HETATM    1  C4  UNL     1       7.195  -5.469  11.561  1.00  0.00     0.256 C 
HETATM    2  N1  UNL     1       7.718  -6.537  10.810  1.00  0.00    -0.385 N 
ATOM      3  H1  UNL     1       8.489  -7.106  11.160  1.00  0.00     0.156 HD
HETATM    4  C5  UNL     1       7.114  -6.792   9.517  1.00  0.00     0.110 C 
HETATM    5  C9  UNL     1       6.444  -8.121   9.422  1.00  0.00     0.040 C 
HETATM    6  C12 UNL     1       4.954  -8.046   9.292  1.00  0.00    -0.081 C 
HETATM    7  C13 UNL     1       4.315  -8.674   8.096  1.00  0.00     0.043 C 
HETATM    8  C14 UNL     1       4.143  -7.464  10.158  1.00  0.00    -0.014 C 
HETATM    9  C15 UNL     1       4.538  -6.779  11.418  1.00  0.00     0.138 C 
HETATM   10  C16 UNL     1       4.779  -5.333  11.215  1.00  0.00     0.264 C 
HETATM   11  O1  UNL     1       3.859  -4.463  11.290  1.00  0.00    -0.265 OA
HETATM   12  O2  UNL     1       6.053  -4.931  10.937  1.00  0.00    -0.291 OA
ENDROOT
BRANCH   1  13
HETATM   13  C2  UNL     1       8.225  -4.396  11.621  1.00  0.00    -0.045 C 
HETATM   14  C1  UNL     1       8.334  -3.524  10.634  1.00  0.00     0.018 C 
HETATM   15  C3  UNL     1       9.148  -4.286  12.781  1.00  0.00     0.047 C 
ENDBRANCH   1  13
BRANCH   4  16
HETATM   16  C6  UNL     1       8.280  -6.628   8.567  1.00  0.00    -0.006 C 
HETATM   17  C7  UNL     1       9.533  -6.618   9.009  1.00  0.00    -0.033 C 
HETATM   18  C8  UNL     1      10.685  -6.460   8.096  1.00  0.00     0.036 C 
ENDBRANCH   4  16
BRANCH   5  19
HETATM   19  C10 UNL     1       7.060  -9.049   8.420  1.00  0.00     0.007 C 
HETATM   20  C11 UNL     1       7.909 -10.146   8.900  1.00  0.00     0.006 C 
ENDBRANCH   5  19
TORSDOF 3
ENDMDL
MODEL 3
REMARK VINA RESULT: -6.851083393      1.390      1.751
REMARK  3 active torsions:
REMARK  status: ('A' for Active; 'I' for Inactive)
REMARK    1  A    between atoms: C2_2  and  C4_4 
REMARK    2  A    between atoms: C5_7  and  C6_8 
REMARK    3  A    between atoms: C9_11  and  C10_12 
ROOT
HETATM    1  C4  UNL     1       3.579  -6.740   9.464  1.00  0.00     0.256 C 
HETATM    2  N1  UNL     1       4.983  -6.672   9.454  1.00  0.00    -0.385 N 
ATOM      3  H1  UNL     1       5.517  -6.812   8.597  1.00  0.00     0.156 HD
HETATM    4  C5  UNL     1       5.639  -6.394  10.718  1.00  0.00     0.110 C 
HETATM    5  C9  UNL     1       6.388  -5.106  10.732  1.00  0.00     0.040 C 
HETATM    6  C12 UNL     1       5.801  -4.068  11.640  1.00  0.00    -0.081 C 
HETATM    7  C13 UNL     1       6.660  -3.512  12.729  1.00  0.00     0.043 C 
HETATM    8  C14 UNL     1       4.570  -3.595  11.559  1.00  0.00    -0.014 C 
HETATM    9  C15 UNL     1       3.535  -3.986  10.565  1.00  0.00     0.138 C 
HETATM   10  C16 UNL     1       2.691  -5.103  11.047  1.00  0.00     0.264 C 
HETATM   11  O1  UNL     1       1.644  -4.926  11.739  1.00  0.00    -0.265 OA
HETATM   12  O2  UNL     1       3.069  -6.373  10.724  1.00  0.00    -0.291 OA
ENDROOT
BRANCH   1  13
HETATM   13  C2  UNL     1       3.182  -8.152   9.209  1.00  0.00    -0.045 C 
HETATM   14  C1  UNL     1       2.279  -8.738   9.976  1.00  0.00     0.018 C 
HETATM   15  C3  UNL     1       3.791  -8.928   8.096  1.00  0.00     0.047 C 
ENDBRANCH   1  13
BRANCH   4  16
HETATM   16  C6  UNL     1       6.517  -7.611  10.911  1.00  0.00    -0.006 C 
HETATM   17  C7  UNL     1       6.915  -8.345   9.877  1.00  0.00    -0.033 C 
HETATM   18  C8  UNL     1       7.773  -9.537  10.047  1.00  0.00     0.036 C 
ENDBRANCH   4  16
BRANCH   5  19
HETATM   19  C10 UNL     1       7.867  -5.256  10.917  1.00  0.00     0.007 C 
HETATM   20  C11 UNL     1       8.756  -4.932   9.795  1.00  0.00     0.006 C 
ENDBRANCH   5  19
TORSDOF 3
ENDMDL
MODEL 4
REMARK VINA RESULT: -6.827314133      2.079      4.360
REMARK  3 active torsions:
REMARK  status: ('A' for Active; 'I' for Inactive)
REMARK    1  A    between atoms: C2_2  and  C4_4 
REMARK    2  A    between atoms: C5_7  and  C6_8 
REMARK    3  A    between atoms: C9_11  and  C10_12 
ROOT
HETATM    1  C4  UNL     1       8.075  -6.756  10.256  1.00  0.00     0.256 C 
HETATM    2  N1  UNL     1       6.744  -7.126  10.522  1.00  0.00    -0.385 N 
ATOM      3  H1  UNL     1       6.497  -8.085  10.763  1.00  0.00     0.156 HD
HETATM    4  C5  UNL     1       5.740  -6.083  10.439  1.00  0.00     0.110 C 
HETATM    5  C9  UNL     1       5.064  -5.799  11.736  1.00  0.00     0.040 C 
HETATM    6  C12 UNL     1       5.375  -4.447  12.304  1.00  0.00    -0.081 C 
HETATM    7  C13 UNL     1       4.239  -3.512  12.568  1.00  0.00     0.043 C 
HETATM    8  C14 UNL     1       6.585  -4.005  12.596  1.00  0.00    -0.014 C 
HETATM    9  C15 UNL     1       7.863  -4.747  12.428  1.00  0.00     0.138 C 
HETATM   10  C16 UNL     1       8.482  -4.501  11.105  1.00  0.00     0.264 C 
HETATM   11  O1  UNL     1       9.270  -3.532  10.882  1.00  0.00    -0.265 OA
HETATM   12  O2  UNL     1       8.182  -5.362  10.090  1.00  0.00    -0.291 OA
ENDROOT
BRANCH   1  13
HETATM   13  C2  UNL     1       8.486  -7.396   8.976  1.00  0.00    -0.045 C 
HETATM   14  C1  UNL     1       9.427  -6.845   8.229  1.00  0.00     0.018 C 
HETATM   15  C3  UNL     1       7.850  -8.659   8.514  1.00  0.00     0.047 C 
ENDBRANCH   1  13
BRANCH   4  16
HETATM   16  C6  UNL     1       4.808  -6.605   9.367  1.00  0.00    -0.006 C 
HETATM   17  C7  UNL     1       4.681  -7.907   9.138  1.00  0.00    -0.033 C 
HETATM   18  C8  UNL     1       3.774  -8.435   8.096  1.00  0.00     0.036 C 
ENDBRANCH   4  16
BRANCH   5  19
HETATM   19  C10 UNL     1       3.596  -6.098  11.744  1.00  0.00     0.007 C 
HETATM   20  C11 UNL     1       2.993  -6.647  12.964  1.00  0.00     0.006 C 
ENDBRANCH   5  19
TORSDOF 3
ENDMDL
MODEL 5
REMARK VINA RESULT: -6.696012559      2.108      4.434
REMARK  3 active torsions:
REMARK  status: ('A' for Active; 'I' for Inactive)
REMARK    1  A    between atoms: C2_2  and  C4_4 
REMARK    2  A    between atoms: C5_7  and  C6_8 
REMARK    3  A    between atoms: C9_11  and  C10_12 
ROOT
HETATM    1  C4  UNL     1       7.721  -6.916  10.394  1.00  0.00     0.256 C 
HETATM    2  N1  UNL     1       6.491  -7.284  10.968  1.00  0.00    -0.385 N 
ATOM      3  H1  UNL     1       6.431  -8.021  11.670  1.00  0.00     0.156 HD
HETATM    4  C5  UNL     1       5.313  -6.569  10.517  1.00  0.00     0.110 C 
HETATM    5  C9  UNL     1       4.649  -5.774  11.589  1.00  0.00     0.040 C 
HETATM    6  C12 UNL     1       4.733  -4.291  11.391  1.00  0.00    -0.081 C 
HETATM    7  C13 UNL     1       3.458  -3.514  11.310  1.00  0.00     0.043 C 
HETATM    8  C14 UNL     1       5.854  -3.601  11.282  1.00  0.00    -0.014 C 
HETATM    9  C15 UNL     1       7.237  -4.145  11.335  1.00  0.00     0.138 C 
HETATM   10  C16 UNL     1       7.748  -4.505   9.993  1.00  0.00     0.264 C 
HETATM   11  O1  UNL     1       8.339  -3.677   9.235  1.00  0.00    -0.265 OA
HETATM   12  O2  UNL     1       7.568  -5.788   9.565  1.00  0.00    -0.291 OA
ENDROOT
BRANCH   1  13
HETATM   13  C2  UNL     1       8.190  -8.043   9.542  1.00  0.00    -0.045 C 
HETATM   14  C1  UNL     1       8.944  -7.807   8.482  1.00  0.00     0.018 C 
HETATM   15  C3  UNL     1       7.821  -9.448   9.861  1.00  0.00     0.047 C 
ENDBRANCH   1  13
BRANCH   4  16
HETATM   16  C6  UNL     1       4.448  -7.675   9.955  1.00  0.00    -0.006 C 
HETATM   17  C7  UNL     1       4.502  -8.007   8.669  1.00  0.00    -0.033 C 
HETATM   18  C8  UNL     1       3.665  -9.086   8.102  1.00  0.00     0.036 C 
ENDBRANCH   4  16
BRANCH   5  19
HETATM   19  C10 UNL     1       3.260  -6.229  11.922  1.00  0.00     0.007 C 
HETATM   20  C11 UNL     1       2.884  -6.377  13.333  1.00  0.00     0.006 C 
ENDBRANCH   5  19
TORSDOF 3
ENDMDL
