MODEL 1
REMARK VINA RESULT: -9.745986197      0.000      0.000
REMARK  4 active torsions:
REMARK  status: ('A' for Active; 'I' for Inactive)
REMARK    1  A    between atoms: C5_7  and  C6_8 
REMARK    2  A    between atoms: C6_8  and  O2_10 
REMARK    3  A    between atoms: O2_10  and  N2_11 
REMARK    4  A    between atoms: C7_13  and  C8_14 
ROOT
HETATM    1  N2  UNL     1      12.864 -14.646  17.230  1.00  0.00    -0.272 N 
ATOM      2  H2  UNL     1      12.392 -14.624  16.327  1.00  0.00     0.193 HD
HETATM    3  C7  UNL     1      13.643 -13.694  17.601  1.00  0.00     0.097 C 
ENDROOT
BRANCH   1   4
HETATM    4  O2  UNL     1      12.692 -15.696  18.098  1.00  0.00    -0.195 OA
BRANCH   4   5
HETATM    5  C6  UNL     1      11.697 -16.646  17.922  1.00  0.00     0.317 C 
HETATM    6  O1  UNL     1      12.052 -17.746  17.430  1.00  0.00    -0.257 OA
BRANCH   5   7
HETATM    7  C5  UNL     1      10.308 -16.413  18.278  1.00  0.00     0.064 A 
HETATM    8  C2  UNL     1       9.229 -16.541  17.430  1.00  0.00    -0.029 A 
HETATM    9  C1  UNL     1       9.257 -16.939  15.987  1.00  0.00     0.050 C 
HETATM   10  C3  UNL     1       8.090 -16.226  18.172  1.00  0.00     0.095 A 
HETATM   11  N1  UNL     1       8.490 -15.923  19.420  1.00  0.00    -0.374 N 
HETATM   12  C4  UNL     1       9.816 -16.028  19.507  1.00  0.00     0.105 A 
ATOM     13  H1  UNL     1       7.872 -15.653  20.185  1.00  0.00     0.164 HD
ENDBRANCH   5   7
ENDBRANCH   4   5
ENDBRANCH   1   4
BRANCH   3  14
HETATM   14  C8  UNL     1      13.819 -12.565  16.652  1.00  0.00     0.059 C 
HETATM   15  C9  UNL     1      14.283 -13.224  15.306  1.00  0.00     0.093 C 
HETATM   16  C10 UNL     1      15.055 -12.224  14.693  1.00  0.00    -0.182 C 
HETATM   17  C11 UNL     1      15.850 -11.512  13.780  1.00  0.00     0.083 C 
HETATM   18  C12 UNL     1      16.231 -10.204  14.554  1.00  0.00     0.038 C 
HETATM   19  C13 UNL     1      15.221  -9.710  15.498  1.00  0.00    -0.026 C 
HETATM   20  C14 UNL     1      14.954 -10.214  16.832  1.00  0.00    -0.007 C 
HETATM   21  C15 UNL     1      14.747 -11.593  17.236  1.00  0.00    -0.016 C 
ENDBRANCH   3  14
TORSDOF 4
ENDMDL
MODEL 2
REMARK VINA RESULT: -9.645800741      1.564      2.636
REMARK  4 active torsions:
REMARK  status: ('A' for Active; 'I' for Inactive)
REMARK    1  A    between atoms: C5_7  and  C6_8 
REMARK    2  A    between atoms: C6_8  and  O2_10 
REMARK    3  A    between atoms: O2_10  and  N2_11 
REMARK    4  A    between atoms: C7_13  and  C8_14 
ROOT
HETATM    1  N2  UNL     1      12.702 -15.004  18.243  1.00  0.00    -0.272 N 
ATOM      2  H2  UNL     1      12.922 -14.265  18.910  1.00  0.00     0.193 HD
HETATM    3  C7  UNL     1      13.285 -15.067  17.100  1.00  0.00     0.097 C 
ENDROOT
BRANCH   1   4
HETATM    4  O2  UNL     1      11.772 -15.972  18.532  1.00  0.00    -0.195 OA
BRANCH   4   5
HETATM    5  C6  UNL     1      10.437 -15.842  18.182  1.00  0.00     0.317 C 
HETATM    6  O1  UNL     1       9.735 -15.098  18.910  1.00  0.00    -0.257 OA
BRANCH   5   7
HETATM    7  C5  UNL     1       9.849 -16.518  17.038  1.00  0.00     0.064 A 
HETATM    8  C2  UNL     1       8.520 -16.854  16.898  1.00  0.00    -0.029 A 
HETATM    9  C1  UNL     1       7.416 -16.599  17.878  1.00  0.00     0.050 C 
HETATM   10  C3  UNL     1       8.388 -17.484  15.660  1.00  0.00     0.095 A 
HETATM   11  N1  UNL     1       9.606 -17.516  15.089  1.00  0.00    -0.374 N 
HETATM   12  C4  UNL     1      10.498 -16.943  15.898  1.00  0.00     0.105 A 
ATOM     13  H1  UNL     1       9.816 -17.919  14.176  1.00  0.00     0.164 HD
ENDBRANCH   5   7
ENDBRANCH   4   5
ENDBRANCH   1   4
BRANCH   3  14
HETATM   14  C8  UNL     1      14.288 -14.013  16.801  1.00  0.00     0.059 C 
HETATM   15  C9  UNL     1      14.255 -13.047  18.036  1.00  0.00     0.093 C 
HETATM   16  C10 UNL     1      14.632 -11.805  17.500  1.00  0.00    -0.182 C 
HETATM   17  C11 UNL     1      14.972 -10.450  17.362  1.00  0.00     0.083 C 
HETATM   18  C12 UNL     1      15.109 -10.252  15.814  1.00  0.00     0.038 C 
HETATM   19  C13 UNL     1      15.597 -11.418  15.068  1.00  0.00    -0.026 C 
HETATM   20  C14 UNL     1      14.830 -12.585  14.676  1.00  0.00    -0.007 C 
HETATM   21  C15 UNL     1      13.965 -13.402  15.508  1.00  0.00    -0.016 C 
ENDBRANCH   3  14
TORSDOF 4
ENDMDL
MODEL 3
REMARK VINA RESULT: -9.637962064      1.368      1.790
REMARK  4 active torsions:
REMARK  status: ('A' for Active; 'I' for Inactive)
REMARK    1  A    between atoms: C5_7  and  C6_8 
REMARK    2  A    between atoms: C6_8  and  O2_10 
REMARK    3  A    between atoms: O2_10  and  N2_11 
REMARK    4  A    between atoms: C7_13  and  C8_14 
ROOT
HETATM    1  N2  UNL     1      12.635 -14.814  17.437  1.00  0.00    -0.272 N 
ATOM      2  H2  UNL     1      12.031 -14.664  16.629  1.00  0.00     0.193 HD
HETATM    3  C7  UNL     1      13.581 -13.993  17.726  1.00  0.00     0.097 C 
ENDROOT
BRANCH   1   4
HETATM    4  O2  UNL     1      12.468 -15.901  18.260  1.00  0.00    -0.195 OA
BRANCH   4   5
HETATM    5  C6  UNL     1      11.257 -16.567  18.368  1.00  0.00     0.317 C 
HETATM    6  O1  UNL     1      10.871 -16.845  19.530  1.00  0.00    -0.257 OA
BRANCH   5   7
HETATM    7  C5  UNL     1      10.452 -16.939  17.217  1.00  0.00     0.064 A 
HETATM    8  C2  UNL     1       9.085 -16.797  17.113  1.00  0.00    -0.029 A 
HETATM    9  C1  UNL     1       8.153 -16.240  18.145  1.00  0.00     0.050 C 
HETATM   10  C3  UNL     1       8.722 -17.275  15.853  1.00  0.00     0.095 A 
HETATM   11  N1  UNL     1       9.844 -17.684  15.236  1.00  0.00    -0.374 N 
HETATM   12  C4  UNL     1      10.894 -17.492  16.035  1.00  0.00     0.105 A 
ATOM     13  H1  UNL     1       9.886 -18.082  14.297  1.00  0.00     0.164 HD
ENDBRANCH   5   7
ENDBRANCH   4   5
ENDBRANCH   1   4
BRANCH   3  14
HETATM   14  C8  UNL     1      13.749 -12.823  16.827  1.00  0.00     0.059 C 
HETATM   15  C9  UNL     1      14.197 -13.420  15.448  1.00  0.00     0.093 C 
HETATM   16  C10 UNL     1      14.965 -12.394  14.873  1.00  0.00    -0.182 C 
HETATM   17  C11 UNL     1      15.751 -11.642  13.985  1.00  0.00     0.083 C 
HETATM   18  C12 UNL     1      16.143 -10.371  14.814  1.00  0.00     0.038 C 
HETATM   19  C13 UNL     1      15.144  -9.920  15.790  1.00  0.00    -0.026 C 
HETATM   20  C14 UNL     1      14.890 -10.484  17.102  1.00  0.00    -0.007 C 
HETATM   21  C15 UNL     1      14.685 -11.880  17.445  1.00  0.00    -0.016 C 
ENDBRANCH   3  14
TORSDOF 4
ENDMDL
MODEL 4
REMARK VINA RESULT: -9.594392874      0.974      1.856
REMARK  4 active torsions:
REMARK  status: ('A' for Active; 'I' for Inactive)
REMARK    1  A    between atoms: C5_7  and  C6_8 
REMARK    2  A    between atoms: C6_8  and  O2_10 
REMARK    3  A    between atoms: O2_10  and  N2_11 
REMARK    4  A    between atoms: C7_13  and  C8_14 
ROOT
HETATM    1  N2  UNL     1      12.465 -14.782  15.892  1.00  0.00    -0.272 N 
ATOM      2  H2  UNL     1      12.248 -13.916  15.399  1.00  0.00     0.193 HD
HETATM    3  C7  UNL     1      13.591 -14.946  16.489  1.00  0.00     0.097 C 
ENDROOT
BRANCH   1   4
HETATM    4  O2  UNL     1      11.564 -15.817  15.944  1.00  0.00    -0.195 OA
BRANCH   4   5
HETATM    5  C6  UNL     1      11.244 -16.459  17.130  1.00  0.00     0.317 C 
HETATM    6  O1  UNL     1      12.126 -17.207  17.620  1.00  0.00    -0.257 OA
BRANCH   5   7
HETATM    7  C5  UNL     1       9.964 -16.297  17.798  1.00  0.00     0.064 A 
HETATM    8  C2  UNL     1       8.738 -16.664  17.286  1.00  0.00    -0.029 A 
HETATM    9  C1  UNL     1       8.467 -17.298  15.957  1.00  0.00     0.050 C 
HETATM   10  C3  UNL     1       7.781 -16.333  18.247  1.00  0.00     0.095 A 
HETATM   11  N1  UNL     1       8.429 -15.787  19.292  1.00  0.00    -0.374 N 
HETATM   12  C4  UNL     1       9.738 -15.755  19.045  1.00  0.00     0.105 A 
ATOM     13  H1  UNL     1       7.984 -15.448  20.146  1.00  0.00     0.164 HD
ENDBRANCH   5   7
ENDBRANCH   4   5
ENDBRANCH   1   4
BRANCH   3  14
HETATM   14  C8  UNL     1      14.554 -13.818  16.424  1.00  0.00     0.059 C 
HETATM   15  C9  UNL     1      14.261 -12.949  17.697  1.00  0.00     0.093 C 
HETATM   16  C10 UNL     1      14.632 -11.651  17.308  1.00  0.00    -0.182 C 
HETATM   17  C11 UNL     1      14.896 -10.272  17.314  1.00  0.00     0.083 C 
HETATM   18  C12 UNL     1      15.261  -9.953  15.824  1.00  0.00     0.038 C 
HETATM   19  C13 UNL     1      15.939 -11.031  15.095  1.00  0.00    -0.026 C 
HETATM   20  C14 UNL     1      15.325 -12.209  14.510  1.00  0.00    -0.007 C 
HETATM   21  C15 UNL     1      14.397 -13.133  15.138  1.00  0.00    -0.016 C 
ENDBRANCH   3  14
TORSDOF 4
ENDMDL
MODEL 5
REMARK VINA RESULT: -9.442026439      1.350      2.397
REMARK  4 active torsions:
REMARK  status: ('A' for Active; 'I' for Inactive)
REMARK    1  A    between atoms: C5_7  and  C6_8 
REMARK    2  A    between atoms: C6_8  and  O2_10 
REMARK    3  A    between atoms: O2_10  and  N2_11 
REMARK    4  A    between atoms: C7_13  and  C8_14 
ROOT
HETATM    1  N2  UNL     1      12.476 -15.156  18.240  1.00  0.00    -0.272 N 
ATOM      2  H2  UNL     1      12.565 -14.318  18.815  1.00  0.00     0.193 HD
HETATM    3  C7  UNL     1      13.207 -15.332  17.198  1.00  0.00     0.097 C 
ENDROOT
BRANCH   1   4
HETATM    4  O2  UNL     1      11.568 -16.139  18.548  1.00  0.00    -0.195 OA
BRANCH   4   5
HETATM    5  C6  UNL     1      10.235 -15.860  18.806  1.00  0.00     0.317 C 
HETATM    6  O1  UNL     1       9.995 -15.147  19.812  1.00  0.00    -0.257 OA
BRANCH   5   7
HETATM    7  C5  UNL     1       9.148 -16.350  17.975  1.00  0.00     0.064 A 
HETATM    8  C2  UNL     1       9.282 -16.902  16.719  1.00  0.00    -0.029 A 
HETATM    9  C1  UNL     1      10.553 -17.110  15.955  1.00  0.00     0.050 C 
HETATM   10  C3  UNL     1       7.998 -17.234  16.283  1.00  0.00     0.095 A 
HETATM   11  N1  UNL     1       7.137 -16.888  17.257  1.00  0.00    -0.374 N 
HETATM   12  C4  UNL     1       7.804 -16.356  18.281  1.00  0.00     0.105 A 
ATOM     13  H1  UNL     1       6.125 -17.014  17.217  1.00  0.00     0.164 HD
ENDBRANCH   5   7
ENDBRANCH   4   5
ENDBRANCH   1   4
BRANCH   3  14
HETATM   14  C8  UNL     1      14.184 -14.260  16.877  1.00  0.00     0.059 C 
HETATM   15  C9  UNL     1      14.197 -13.321  18.133  1.00  0.00     0.093 C 
HETATM   16  C10 UNL     1      14.535 -12.064  17.608  1.00  0.00    -0.182 C 
HETATM   17  C11 UNL     1      14.852 -10.701  17.485  1.00  0.00     0.083 C 
HETATM   18  C12 UNL     1      14.916 -10.469  15.937  1.00  0.00     0.038 C 
HETATM   19  C13 UNL     1      15.382 -11.613  15.144  1.00  0.00    -0.026 C 
HETATM   20  C14 UNL     1      14.611 -12.781  14.762  1.00  0.00    -0.007 C 
HETATM   21  C15 UNL     1      13.795 -13.625  15.615  1.00  0.00    -0.016 C 
ENDBRANCH   3  14
TORSDOF 4
ENDMDL
