MODEL 1
REMARK VINA RESULT: -7.501402484      0.000      0.000
REMARK  4 active torsions:
REMARK  status: ('A' for Active; 'I' for Inactive)
REMARK    1  A    between atoms: C2_2  and  C3_4 
REMARK    2  A    between atoms: C4_5  and  O2_6 
REMARK    3  A    between atoms: C9_12  and  O3_13 
REMARK    4  A    between atoms: O3_13  and  C10_14 
ROOT
HETATM    1  C3  UNL     1       7.592  -5.630   9.813  1.00  0.00     0.077 A 
HETATM    2  C4  UNL     1       7.388  -4.623  10.809  1.00  0.00     0.088 A 
HETATM    3  C5  UNL     1       6.239  -4.563  11.546  1.00  0.00    -0.021 A 
HETATM    4  C6  UNL     1       5.994  -3.513  12.589  1.00  0.00     0.052 C 
HETATM    5  C7  UNL     1       5.256  -5.488  11.328  1.00  0.00    -0.040 A 
HETATM    6  C8  UNL     1       5.449  -6.479  10.354  1.00  0.00    -0.017 A 
HETATM    7  C9  UNL     1       6.601  -6.566   9.602  1.00  0.00     0.092 A 
HETATM    8  C13 UNL     1       4.225  -7.318  10.121  1.00  0.00     0.042 C 
HETATM    9  C14 UNL     1       3.806  -7.865  11.463  1.00  0.00     0.005 C 
HETATM   10  C15 UNL     1       3.370  -6.766  12.385  1.00  0.00     0.005 C 
HETATM   11  C16 UNL     1       4.014  -5.440  12.131  1.00  0.00     0.040 C 
ENDROOT
BRANCH   7  12
HETATM   12  O3  UNL     1       6.727  -7.593   8.673  1.00  0.00    -0.345 OA
BRANCH  12  13
HETATM   13  C10 UNL     1       7.202  -8.880   8.864  1.00  0.00     0.120 C 
HETATM   14  C11 UNL     1       8.483  -9.249   8.096  1.00  0.00     0.040 C 
HETATM   15  C12 UNL     1       7.466  -9.137  10.327  1.00  0.00     0.040 C 
ENDBRANCH  12  13
ENDBRANCH   7  12
BRANCH   1  16
HETATM   16  C2  UNL     1       8.821  -5.500   9.064  1.00  0.00     0.161 C 
HETATM   17  C1  UNL     1      10.082  -6.200   9.219  1.00  0.00     0.097 C 
HETATM   18  O1  UNL     1       8.827  -4.644   8.096  1.00  0.00    -0.293 OA
ENDBRANCH   1  16
BRANCH   2  19
HETATM   19  O2  UNL     1       8.383  -3.704  11.014  1.00  0.00    -0.359 OA
ATOM     20  H2  UNL     1       8.313  -2.862  10.579  1.00  0.00     0.217 HD
ENDBRANCH   2  19
TORSDOF 4
ENDMDL
MODEL 2
REMARK VINA RESULT: -7.094043746      1.582      3.769
REMARK  4 active torsions:
REMARK  status: ('A' for Active; 'I' for Inactive)
REMARK    1  A    between atoms: C2_2  and  C3_4 
REMARK    2  A    between atoms: C4_5  and  O2_6 
REMARK    3  A    between atoms: C9_12  and  O3_13 
REMARK    4  A    between atoms: O3_13  and  C10_14 
ROOT
HETATM    1  C3  UNL     1       7.042  -6.145   9.867  1.00  0.00     0.077 A 
HETATM    2  C4  UNL     1       5.925  -6.955   9.488  1.00  0.00     0.088 A 
HETATM    3  C5  UNL     1       4.729  -6.883  10.145  1.00  0.00    -0.021 A 
HETATM    4  C6  UNL     1       3.545  -7.727   9.776  1.00  0.00     0.052 C 
HETATM    5  C7  UNL     1       4.593  -6.015  11.192  1.00  0.00    -0.040 A 
HETATM    6  C8  UNL     1       5.682  -5.216  11.570  1.00  0.00    -0.017 A 
HETATM    7  C9  UNL     1       6.898  -5.265  10.920  1.00  0.00     0.092 A 
HETATM    8  C13 UNL     1       5.431  -4.437  12.828  1.00  0.00     0.042 C 
HETATM    9  C14 UNL     1       4.157  -3.656  12.614  1.00  0.00     0.005 C 
HETATM   10  C15 UNL     1       2.979  -4.571  12.464  1.00  0.00     0.005 C 
HETATM   11  C16 UNL     1       3.297  -5.920  11.900  1.00  0.00     0.040 C 
ENDROOT
BRANCH   7  12
HETATM   12  O3  UNL     1       7.922  -4.423  11.338  1.00  0.00    -0.345 OA
BRANCH  12  13
HETATM   13  C10 UNL     1       9.011  -4.717  12.142  1.00  0.00     0.120 C 
HETATM   14  C11 UNL     1      10.395  -4.581  11.483  1.00  0.00     0.040 C 
HETATM   15  C12 UNL     1       9.012  -3.846  13.374  1.00  0.00     0.040 C 
ENDBRANCH  12  13
ENDBRANCH   7  12
BRANCH   1  16
HETATM   16  C2  UNL     1       8.257  -6.406   9.130  1.00  0.00     0.161 C 
HETATM   17  C1  UNL     1       8.949  -5.580   8.158  1.00  0.00     0.097 C 
HETATM   18  O1  UNL     1       8.845  -7.535   9.354  1.00  0.00    -0.293 OA
ENDBRANCH   1  16
BRANCH   2  19
HETATM   19  O2  UNL     1       6.080  -7.819   8.437  1.00  0.00    -0.359 OA
ATOM     20  H2  UNL     1       5.492  -8.564   8.377  1.00  0.00     0.217 HD
ENDBRANCH   2  19
TORSDOF 4
ENDMDL
MODEL 3
REMARK VINA RESULT: -6.917613251      2.172      4.541
REMARK  4 active torsions:
REMARK  status: ('A' for Active; 'I' for Inactive)
REMARK    1  A    between atoms: C2_2  and  C3_4 
REMARK    2  A    between atoms: C4_5  and  O2_6 
REMARK    3  A    between atoms: C9_12  and  O3_13 
REMARK    4  A    between atoms: O3_13  and  C10_14 
ROOT
HETATM    1  C3  UNL     1       4.544  -5.730  11.779  1.00  0.00     0.077 A 
HETATM    2  C4  UNL     1       5.368  -4.684  12.304  1.00  0.00     0.088 A 
HETATM    3  C5  UNL     1       6.695  -4.592  11.995  1.00  0.00    -0.021 A 
HETATM    4  C6  UNL     1       7.585  -3.512  12.538  1.00  0.00     0.052 C 
HETATM    5  C7  UNL     1       7.255  -5.521  11.163  1.00  0.00    -0.040 A 
HETATM    6  C8  UNL     1       6.454  -6.549  10.644  1.00  0.00    -0.017 A 
HETATM    7  C9  UNL     1       5.110  -6.662  10.934  1.00  0.00     0.092 A 
HETATM    8  C13 UNL     1       7.239  -7.577   9.882  1.00  0.00     0.042 C 
HETATM    9  C14 UNL     1       8.027  -6.836   8.829  1.00  0.00     0.005 C 
HETATM   10  C15 UNL     1       9.046  -5.930   9.451  1.00  0.00     0.005 C 
HETATM   11  C16 UNL     1       8.689  -5.421  10.812  1.00  0.00     0.040 C 
ENDROOT
BRANCH   7  12
HETATM   12  O3  UNL     1       4.379  -7.695  10.360  1.00  0.00    -0.345 OA
BRANCH  12  13
HETATM   13  C10 UNL     1       3.649  -7.689   9.183  1.00  0.00     0.120 C 
HETATM   14  C11 UNL     1       4.081  -8.707   8.113  1.00  0.00     0.040 C 
HETATM   15  C12 UNL     1       2.186  -7.927   9.464  1.00  0.00     0.040 C 
ENDBRANCH  12  13
ENDBRANCH   7  12
BRANCH   1  16
HETATM   16  C2  UNL     1       3.186  -5.735  12.273  1.00  0.00     0.161 C 
HETATM   17  C1  UNL     1       2.596  -6.492  13.361  1.00  0.00     0.097 C 
HETATM   18  O1  UNL     1       2.346  -4.952  11.681  1.00  0.00    -0.293 OA
ENDBRANCH   1  16
BRANCH   2  19
HETATM   19  O2  UNL     1       4.791  -3.761  13.136  1.00  0.00    -0.359 OA
ATOM     20  H2  UNL     1       5.357  -3.263  13.715  1.00  0.00     0.217 HD
ENDBRANCH   2  19
TORSDOF 4
ENDMDL
MODEL 4
REMARK VINA RESULT: -6.868007772      1.859      5.370
REMARK  4 active torsions:
REMARK  status: ('A' for Active; 'I' for Inactive)
REMARK    1  A    between atoms: C2_2  and  C3_4 
REMARK    2  A    between atoms: C4_5  and  O2_6 
REMARK    3  A    between atoms: C9_12  and  O3_13 
REMARK    4  A    between atoms: O3_13  and  C10_14 
ROOT
HETATM    1  C3  UNL     1       5.671  -6.426  10.790  1.00  0.00     0.077 A 
HETATM    2  C4  UNL     1       6.692  -6.817   9.867  1.00  0.00     0.088 A 
HETATM    3  C5  UNL     1       7.934  -6.249   9.886  1.00  0.00    -0.021 A 
HETATM    4  C6  UNL     1       9.020  -6.632   8.924  1.00  0.00     0.052 C 
HETATM    5  C7  UNL     1       8.213  -5.282  10.811  1.00  0.00    -0.040 A 
HETATM    6  C8  UNL     1       7.218  -4.893  11.720  1.00  0.00    -0.017 A 
HETATM    7  C9  UNL     1       5.958  -5.455  11.727  1.00  0.00     0.092 A 
HETATM    8  C13 UNL     1       7.620  -3.717  12.563  1.00  0.00     0.042 C 
HETATM    9  C14 UNL     1       8.931  -4.075  13.219  1.00  0.00     0.005 C 
HETATM   10  C15 UNL     1      10.021  -4.233  12.203  1.00  0.00     0.005 C 
HETATM   11  C16 UNL     1       9.560  -4.671  10.848  1.00  0.00     0.040 C 
ENDROOT
BRANCH   7  12
HETATM   12  O3  UNL     1       5.035  -5.034  12.677  1.00  0.00    -0.345 OA
BRANCH  12  13
HETATM   13  C10 UNL     1       4.002  -4.122  12.536  1.00  0.00     0.120 C 
HETATM   14  C11 UNL     1       3.824  -3.512  11.135  1.00  0.00     0.040 C 
HETATM   15  C12 UNL     1       2.685  -4.749  12.923  1.00  0.00     0.040 C 
ENDBRANCH  12  13
ENDBRANCH   7  12
BRANCH   1  16
HETATM   16  C2  UNL     1       4.389  -7.059  10.579  1.00  0.00     0.161 C 
HETATM   17  C1  UNL     1       3.676  -8.013  11.408  1.00  0.00     0.097 C 
HETATM   18  O1  UNL     1       3.751  -6.742   9.501  1.00  0.00    -0.293 OA
ENDBRANCH   1  16
BRANCH   2  19
HETATM   19  O2  UNL     1       6.395  -7.788   8.946  1.00  0.00    -0.359 OA
ATOM     20  H2  UNL     1       7.114  -8.208   8.489  1.00  0.00     0.217 HD
ENDBRANCH   2  19
TORSDOF 4
ENDMDL
MODEL 5
REMARK VINA RESULT: -6.821975578      1.815      2.961
REMARK  4 active torsions:
REMARK  status: ('A' for Active; 'I' for Inactive)
REMARK    1  A    between atoms: C2_2  and  C3_4 
REMARK    2  A    between atoms: C4_5  and  O2_6 
REMARK    3  A    between atoms: C9_12  and  O3_13 
REMARK    4  A    between atoms: O3_13  and  C10_14 
ROOT
HETATM    1  C3  UNL     1       6.537  -7.155  10.715  1.00  0.00     0.077 A 
HETATM    2  C4  UNL     1       7.295  -6.065  11.249  1.00  0.00     0.088 A 
HETATM    3  C5  UNL     1       6.696  -5.019  11.890  1.00  0.00    -0.021 A 
HETATM    4  C6  UNL     1       7.464  -3.858  12.450  1.00  0.00     0.052 C 
HETATM    5  C7  UNL     1       5.335  -5.009  12.027  1.00  0.00    -0.040 A 
HETATM    6  C8  UNL     1       4.584  -6.073  11.508  1.00  0.00    -0.017 A 
HETATM    7  C9  UNL     1       5.165  -7.145  10.862  1.00  0.00     0.092 A 
HETATM    8  C13 UNL     1       3.103  -5.845  11.594  1.00  0.00     0.042 C 
HETATM    9  C14 UNL     1       2.790  -5.534  13.037  1.00  0.00     0.005 C 
HETATM   10  C15 UNL     1       3.423  -4.244  13.463  1.00  0.00     0.005 C 
HETATM   11  C16 UNL     1       4.679  -3.886  12.733  1.00  0.00     0.040 C 
ENDROOT
BRANCH   7  12
HETATM   12  O3  UNL     1       4.354  -8.175  10.397  1.00  0.00    -0.345 OA
BRANCH  12  13
HETATM   13  C10 UNL     1       3.557  -8.205   9.265  1.00  0.00     0.120 C 
HETATM   14  C11 UNL     1       4.073  -9.062   8.096  1.00  0.00     0.040 C 
HETATM   15  C12 UNL     1       2.171  -8.697   9.605  1.00  0.00     0.040 C 
ENDBRANCH  12  13
ENDBRANCH   7  12
BRANCH   1  16
HETATM   16  C2  UNL     1       7.313  -8.136   9.991  1.00  0.00     0.161 C 
HETATM   17  C1  UNL     1       7.653  -8.194   8.581  1.00  0.00     0.097 C 
HETATM   18  O1  UNL     1       7.799  -9.118  10.675  1.00  0.00    -0.293 OA
ENDBRANCH   1  16
BRANCH   2  19
HETATM   19  O2  UNL     1       8.657  -6.091  11.102  1.00  0.00    -0.359 OA
ATOM     20  H2  UNL     1       9.169  -5.426  11.547  1.00  0.00     0.217 HD
ENDBRANCH   2  19
TORSDOF 4
ENDMDL
