MODEL 1
REMARK VINA RESULT: -8.966633247      0.000      0.000
REMARK  10 active torsions:
REMARK  status: ('A' for Active; 'I' for Inactive)
REMARK    1  A    between atoms: C2_2  and  C3_3 
REMARK    2  A    between atoms: C3_3  and  C5_5 
REMARK    3  A    between atoms: C5_5  and  C6_6 
REMARK    4  A    between atoms: C6_6  and  C7_7 
REMARK    5  A    between atoms: C7_7  and  C8_8 
REMARK    6  A    between atoms: C8_8  and  O1_9 
REMARK    7  A    between atoms: C8_8  and  C9_11 
REMARK    8  A    between atoms: C9_11  and  O2_12 
REMARK    9  A    between atoms: O2_12  and  C10_13 
REMARK   10  A    between atoms: C17_20  and  C18_21 
ROOT
HETATM    1  O2  UNL     1      11.182 -27.826  15.071  1.00  0.00    -0.348 OA
ENDROOT
BRANCH   1   2
HETATM    2  C9  UNL     1      12.074 -28.712  14.814  1.00  0.00     0.207 C 
BRANCH   2   3
HETATM    3  C8  UNL     1      13.100 -29.113  15.896  1.00  0.00     0.142 C 
BRANCH   3   4
HETATM    4  C7  UNL     1      13.546 -27.995  16.737  1.00  0.00     0.034 C 
BRANCH   4   5
HETATM    5  C6  UNL     1      14.567 -28.240  17.785  1.00  0.00     0.007 C 
BRANCH   5   6
HETATM    6  C5  UNL     1      15.810 -28.942  17.363  1.00  0.00     0.033 C 
BRANCH   6   7
HETATM    7  C3  UNL     1      16.424 -29.797  18.386  1.00  0.00    -0.090 C 
HETATM    8  C4  UNL     1      15.574 -30.754  18.892  1.00  0.00     0.014 C 
BRANCH   7   9
HETATM    9  C2  UNL     1      17.688 -29.804  18.927  1.00  0.00     0.029 C 
HETATM   10  C1  UNL     1      18.100 -31.316  18.512  1.00  0.00     0.010 C 
ENDBRANCH   7   9
ENDBRANCH   6   7
ENDBRANCH   5   6
ENDBRANCH   4   5
ENDBRANCH   3   4
BRANCH   3  11
HETATM   11  O1  UNL     1      12.508 -30.186  16.548  1.00  0.00    -0.393 OA
ATOM     12  H1  UNL     1      12.348 -30.964  16.029  1.00  0.00     0.210 HD
ENDBRANCH   3  11
ENDBRANCH   2   3
ENDBRANCH   1   2
BRANCH   1  13
HETATM   13  C10 UNL     1      10.271 -26.929  15.281  1.00  0.00     0.076 A 
HETATM   14  C11 UNL     1      10.078 -25.818  14.446  1.00  0.00     0.044 A 
HETATM   15  C12 UNL     1       9.107 -24.879  14.686  1.00  0.00    -0.053 A 
HETATM   16  C13 UNL     1       8.957 -23.708  13.745  1.00  0.00     0.049 C 
HETATM   17  C14 UNL     1       8.276 -24.997  15.774  1.00  0.00    -0.055 A 
HETATM   18  C15 UNL     1       7.226 -23.987  16.037  1.00  0.00     0.049 C 
HETATM   19  C16 UNL     1       8.441 -26.085  16.620  1.00  0.00     0.017 A 
HETATM   20  C17 UNL     1       9.406 -27.029  16.392  1.00  0.00    -0.020 A 
BRANCH  20  21
HETATM   21  C18 UNL     1       9.577 -28.183  17.291  1.00  0.00     0.021 A 
HETATM   22  C19 UNL     1       9.125 -28.171  18.683  1.00  0.00     0.010 A 
HETATM   23  C20 UNL     1      10.588 -28.059  18.440  1.00  0.00     0.010 A 
ENDBRANCH  20  21
ENDBRANCH   1  13
TORSDOF 10
ENDMDL
MODEL 2
REMARK VINA RESULT: -8.862282501      0.990      1.117
REMARK  10 active torsions:
REMARK  status: ('A' for Active; 'I' for Inactive)
REMARK    1  A    between atoms: C2_2  and  C3_3 
REMARK    2  A    between atoms: C3_3  and  C5_5 
REMARK    3  A    between atoms: C5_5  and  C6_6 
REMARK    4  A    between atoms: C6_6  and  C7_7 
REMARK    5  A    between atoms: C7_7  and  C8_8 
REMARK    6  A    between atoms: C8_8  and  O1_9 
REMARK    7  A    between atoms: C8_8  and  C9_11 
REMARK    8  A    between atoms: C9_11  and  O2_12 
REMARK    9  A    between atoms: O2_12  and  C10_13 
REMARK   10  A    between atoms: C17_20  and  C18_21 
ROOT
HETATM    1  O2  UNL     1      11.498 -27.781  15.354  1.00  0.00    -0.348 OA
ENDROOT
BRANCH   1   2
HETATM    2  C9  UNL     1      12.486 -28.595  15.271  1.00  0.00     0.207 C 
BRANCH   2   3
HETATM    3  C8  UNL     1      13.473 -28.735  16.450  1.00  0.00     0.142 C 
BRANCH   3   4
HETATM    4  C7  UNL     1      14.716 -29.437  16.106  1.00  0.00     0.034 C 
BRANCH   4   5
HETATM    5  C6  UNL     1      15.319 -30.366  17.093  1.00  0.00     0.007 C 
BRANCH   5   6
HETATM    6  C5  UNL     1      16.132 -29.757  18.181  1.00  0.00     0.033 C 
BRANCH   6   7
HETATM    7  C3  UNL     1      17.052 -30.676  18.864  1.00  0.00    -0.090 C 
HETATM    8  C4  UNL     1      16.462 -31.851  19.269  1.00  0.00     0.014 C 
BRANCH   7   9
HETATM    9  C2  UNL     1      18.388 -30.565  19.170  1.00  0.00     0.029 C 
HETATM   10  C1  UNL     1      18.891 -31.943  18.479  1.00  0.00     0.010 C 
ENDBRANCH   7   9
ENDBRANCH   6   7
ENDBRANCH   5   6
ENDBRANCH   4   5
ENDBRANCH   3   4
BRANCH   3  11
HETATM   11  O1  UNL     1      13.603 -27.443  16.942  1.00  0.00    -0.393 OA
ATOM     12  H1  UNL     1      12.863 -26.862  16.814  1.00  0.00     0.210 HD
ENDBRANCH   3  11
ENDBRANCH   2   3
ENDBRANCH   1   2
BRANCH   1  13
HETATM   13  C10 UNL     1      10.471 -26.999  15.454  1.00  0.00     0.076 A 
HETATM   14  C11 UNL     1      10.236 -25.920  14.587  1.00  0.00     0.044 A 
HETATM   15  C12 UNL     1       9.141 -25.103  14.711  1.00  0.00    -0.053 A 
HETATM   16  C13 UNL     1       8.954 -23.960  13.743  1.00  0.00     0.049 C 
HETATM   17  C14 UNL     1       8.220 -25.316  15.708  1.00  0.00    -0.055 A 
HETATM   18  C15 UNL     1       7.038 -24.437  15.846  1.00  0.00     0.049 C 
HETATM   19  C16 UNL     1       8.423 -26.375  16.583  1.00  0.00     0.017 A 
HETATM   20  C17 UNL     1       9.511 -27.197  16.470  1.00  0.00    -0.020 A 
BRANCH  20  21
HETATM   21  C18 UNL     1       9.721 -28.321  17.399  1.00  0.00     0.021 A 
HETATM   22  C19 UNL     1       9.215 -28.314  18.773  1.00  0.00     0.010 A 
HETATM   23  C20 UNL     1      10.676 -28.110  18.582  1.00  0.00     0.010 A 
ENDBRANCH  20  21
ENDBRANCH   1  13
TORSDOF 10
ENDMDL
MODEL 3
REMARK VINA RESULT: -8.803426631      0.938      1.062
REMARK  10 active torsions:
REMARK  status: ('A' for Active; 'I' for Inactive)
REMARK    1  A    between atoms: C2_2  and  C3_3 
REMARK    2  A    between atoms: C3_3  and  C5_5 
REMARK    3  A    between atoms: C5_5  and  C6_6 
REMARK    4  A    between atoms: C6_6  and  C7_7 
REMARK    5  A    between atoms: C7_7  and  C8_8 
REMARK    6  A    between atoms: C8_8  and  O1_9 
REMARK    7  A    between atoms: C8_8  and  C9_11 
REMARK    8  A    between atoms: C9_11  and  O2_12 
REMARK    9  A    between atoms: O2_12  and  C10_13 
REMARK   10  A    between atoms: C17_20  and  C18_21 
ROOT
HETATM    1  O2  UNL     1      11.758 -28.191  15.725  1.00  0.00    -0.348 OA
ENDROOT
BRANCH   1   2
HETATM    2  C9  UNL     1      12.692 -29.067  15.802  1.00  0.00     0.207 C 
BRANCH   2   3
HETATM    3  C8  UNL     1      14.087 -28.666  16.328  1.00  0.00     0.142 C 
BRANCH   3   4
HETATM    4  C7  UNL     1      14.087 -28.198  17.719  1.00  0.00     0.034 C 
BRANCH   4   5
HETATM    5  C6  UNL     1      14.180 -29.192  18.817  1.00  0.00     0.007 C 
BRANCH   5   6
HETATM    6  C5  UNL     1      15.434 -29.193  19.619  1.00  0.00     0.033 C 
BRANCH   6   7
HETATM    7  C3  UNL     1      16.472 -30.122  19.154  1.00  0.00    -0.090 C 
HETATM    8  C4  UNL     1      16.028 -31.415  18.994  1.00  0.00     0.014 C 
BRANCH   7   9
HETATM    9  C2  UNL     1      17.801 -29.928  18.859  1.00  0.00     0.029 C 
HETATM   10  C1  UNL     1      18.162 -31.453  18.442  1.00  0.00     0.010 C 
ENDBRANCH   7   9
ENDBRANCH   6   7
ENDBRANCH   5   6
ENDBRANCH   4   5
ENDBRANCH   3   4
BRANCH   3  11
HETATM   11  O1  UNL     1      14.889 -29.761  16.039  1.00  0.00    -0.393 OA
ATOM     12  H1  UNL     1      14.449 -30.595  15.927  1.00  0.00     0.210 HD
ENDBRANCH   3  11
ENDBRANCH   2   3
ENDBRANCH   1   2
BRANCH   1  13
HETATM   13  C10 UNL     1      10.794 -27.326  15.690  1.00  0.00     0.076 A 
HETATM   14  C11 UNL     1      10.716 -26.297  14.739  1.00  0.00     0.044 A 
HETATM   15  C12 UNL     1       9.686 -25.391  14.720  1.00  0.00    -0.053 A 
HETATM   16  C13 UNL     1       9.668 -24.309  13.668  1.00  0.00     0.049 C 
HETATM   17  C14 UNL     1       8.678 -25.461  15.651  1.00  0.00    -0.055 A 
HETATM   18  C15 UNL     1       7.564 -24.486  15.634  1.00  0.00     0.049 C 
HETATM   19  C16 UNL     1       8.725 -26.467  16.605  1.00  0.00     0.017 A 
HETATM   20  C17 UNL     1       9.747 -27.378  16.636  1.00  0.00    -0.020 A 
BRANCH  20  21
HETATM   21  C18 UNL     1       9.793 -28.445  17.649  1.00  0.00     0.021 A 
HETATM   22  C19 UNL     1       9.173 -28.306  18.969  1.00  0.00     0.010 A 
HETATM   23  C20 UNL     1      10.656 -28.218  18.898  1.00  0.00     0.010 A 
ENDBRANCH  20  21
ENDBRANCH   1  13
TORSDOF 10
ENDMDL
MODEL 4
REMARK VINA RESULT: -8.621598519      1.167      1.584
REMARK  10 active torsions:
REMARK  status: ('A' for Active; 'I' for Inactive)
REMARK    1  A    between atoms: C2_2  and  C3_3 
REMARK    2  A    between atoms: C3_3  and  C5_5 
REMARK    3  A    between atoms: C5_5  and  C6_6 
REMARK    4  A    between atoms: C6_6  and  C7_7 
REMARK    5  A    between atoms: C7_7  and  C8_8 
REMARK    6  A    between atoms: C8_8  and  O1_9 
REMARK    7  A    between atoms: C8_8  and  C9_11 
REMARK    8  A    between atoms: C9_11  and  O2_12 
REMARK    9  A    between atoms: O2_12  and  C10_13 
REMARK   10  A    between atoms: C17_20  and  C18_21 
ROOT
HETATM    1  O2  UNL     1      11.752 -27.935  15.507  1.00  0.00    -0.348 OA
ENDROOT
BRANCH   1   2
HETATM    2  C9  UNL     1      12.747 -28.746  15.526  1.00  0.00     0.207 C 
BRANCH   2   3
HETATM    3  C8  UNL     1      13.595 -28.900  16.806  1.00  0.00     0.142 C 
BRANCH   3   4
HETATM    4  C7  UNL     1      14.733 -29.816  16.660  1.00  0.00     0.034 C 
BRANCH   4   5
HETATM    5  C6  UNL     1      15.792 -29.827  17.700  1.00  0.00     0.007 C 
BRANCH   5   6
HETATM    6  C5  UNL     1      15.812 -30.991  18.628  1.00  0.00     0.033 C 
BRANCH   6   7
HETATM    7  C3  UNL     1      17.122 -31.304  19.211  1.00  0.00    -0.090 C 
HETATM    8  C4  UNL     1      18.060 -30.312  19.032  1.00  0.00     0.014 C 
BRANCH   7   9
HETATM    9  C2  UNL     1      17.575 -32.409  19.893  1.00  0.00     0.029 C 
HETATM   10  C1  UNL     1      16.273 -33.351  19.679  1.00  0.00     0.010 C 
ENDBRANCH   7   9
ENDBRANCH   6   7
ENDBRANCH   5   6
ENDBRANCH   4   5
ENDBRANCH   3   4
BRANCH   3  11
HETATM   11  O1  UNL     1      13.890 -27.595  17.180  1.00  0.00    -0.393 OA
ATOM     12  H1  UNL     1      13.661 -27.344  18.067  1.00  0.00     0.210 HD
ENDBRANCH   3  11
ENDBRANCH   2   3
ENDBRANCH   1   2
BRANCH   1  13
HETATM   13  C10 UNL     1      10.733 -27.137  15.533  1.00  0.00     0.076 A 
HETATM   14  C11 UNL     1      10.559 -26.079  14.628  1.00  0.00     0.044 A 
HETATM   15  C12 UNL     1       9.471 -25.245  14.673  1.00  0.00    -0.053 A 
HETATM   16  C13 UNL     1       9.350 -24.126  13.667  1.00  0.00     0.049 C 
HETATM   17  C14 UNL     1       8.497 -25.420  15.626  1.00  0.00    -0.055 A 
HETATM   18  C15 UNL     1       7.321 -24.522  15.679  1.00  0.00     0.049 C 
HETATM   19  C16 UNL     1       8.639 -26.457  16.537  1.00  0.00     0.017 A 
HETATM   20  C17 UNL     1       9.719 -27.296  16.503  1.00  0.00    -0.020 A 
BRANCH  20  21
HETATM   21  C18 UNL     1       9.865 -28.397  17.470  1.00  0.00     0.021 A 
HETATM   22  C19 UNL     1       9.261 -28.361  18.804  1.00  0.00     0.010 A 
HETATM   23  C20 UNL     1      10.731 -28.155  18.715  1.00  0.00     0.010 A 
ENDBRANCH  20  21
ENDBRANCH   1  13
TORSDOF 10
ENDMDL
MODEL 5
REMARK VINA RESULT: -8.467362344      1.594      2.852
REMARK  10 active torsions:
REMARK  status: ('A' for Active; 'I' for Inactive)
REMARK    1  A    between atoms: C2_2  and  C3_3 
REMARK    2  A    between atoms: C3_3  and  C5_5 
REMARK    3  A    between atoms: C5_5  and  C6_6 
REMARK    4  A    between atoms: C6_6  and  C7_7 
REMARK    5  A    between atoms: C7_7  and  C8_8 
REMARK    6  A    between atoms: C8_8  and  O1_9 
REMARK    7  A    between atoms: C8_8  and  C9_11 
REMARK    8  A    between atoms: C9_11  and  O2_12 
REMARK    9  A    between atoms: O2_12  and  C10_13 
REMARK   10  A    between atoms: C17_20  and  C18_21 
ROOT
HETATM    1  O2  UNL     1       9.328 -27.635  17.658  1.00  0.00    -0.348 OA
ENDROOT
BRANCH   1   2
HETATM    2  C9  UNL     1       9.987 -28.357  18.490  1.00  0.00     0.207 C 
BRANCH   2   3
HETATM    3  C8  UNL     1      11.520 -28.484  18.358  1.00  0.00     0.142 C 
BRANCH   3   4
HETATM    4  C7  UNL     1      12.198 -27.216  18.059  1.00  0.00     0.034 C 
BRANCH   4   5
HETATM    5  C6  UNL     1      13.669 -27.211  17.863  1.00  0.00     0.007 C 
BRANCH   5   6
HETATM    6  C5  UNL     1      14.246 -28.327  17.064  1.00  0.00     0.033 C 
BRANCH   6   7
HETATM    7  C3  UNL     1      15.110 -29.249  17.811  1.00  0.00    -0.090 C 
HETATM    8  C4  UNL     1      15.451 -30.382  17.106  1.00  0.00     0.014 C 
BRANCH   7   9
HETATM    9  C2  UNL     1      15.628 -29.183  19.083  1.00  0.00     0.029 C 
HETATM   10  C1  UNL     1      17.155 -29.596  18.723  1.00  0.00     0.010 C 
ENDBRANCH   7   9
ENDBRANCH   6   7
ENDBRANCH   5   6
ENDBRANCH   4   5
ENDBRANCH   3   4
BRANCH   3  11
HETATM   11  O1  UNL     1      11.910 -29.141  19.517  1.00  0.00    -0.393 OA
ATOM     12  H1  UNL     1      12.821 -29.399  19.574  1.00  0.00     0.210 HD
ENDBRANCH   3  11
ENDBRANCH   2   3
ENDBRANCH   1   2
BRANCH   1  13
HETATM   13  C10 UNL     1       8.672 -26.865  16.849  1.00  0.00     0.076 A 
HETATM   14  C11 UNL     1       7.628 -26.024  17.262  1.00  0.00     0.044 A 
HETATM   15  C12 UNL     1       6.946 -25.216  16.388  1.00  0.00    -0.053 A 
HETATM   16  C13 UNL     1       5.832 -24.338  16.903  1.00  0.00     0.049 C 
HETATM   17  C14 UNL     1       7.268 -25.204  15.052  1.00  0.00    -0.055 A 
HETATM   18  C15 UNL     1       6.535 -24.335  14.105  1.00  0.00     0.049 C 
HETATM   19  C16 UNL     1       8.296 -26.025  14.611  1.00  0.00     0.017 A 
HETATM   20  C17 UNL     1       8.985 -26.836  15.473  1.00  0.00    -0.020 A 
BRANCH  20  21
HETATM   21  C18 UNL     1      10.076 -27.704  15.001  1.00  0.00     0.021 A 
HETATM   22  C19 UNL     1      11.453 -27.228  14.850  1.00  0.00     0.010 A 
HETATM   23  C20 UNL     1      10.662 -27.436  13.607  1.00  0.00     0.010 A 
ENDBRANCH  20  21
ENDBRANCH   1  13
TORSDOF 10
ENDMDL
