MODEL 1
REMARK VINA RESULT: -10.036977294      0.000      0.000
REMARK  10 active torsions:
REMARK  status: ('A' for Active; 'I' for Inactive)
REMARK    1  A    between atoms: C2_2  and  C3_3 
REMARK    2  A    between atoms: C3_3  and  O1_4 
REMARK    3  A    between atoms: O1_4  and  C4_5 
REMARK    4  A    between atoms: C4_5  and  C5_7 
REMARK    5  A    between atoms: C5_7  and  C6_8 
REMARK    6  A    between atoms: C6_8  and  C7_9 
REMARK    7  A    between atoms: C7_9  and  C8_10 
REMARK    8  A    between atoms: C8_10  and  C10_12 
REMARK    9  A    between atoms: C13_15  and  C14_16 
REMARK   10  A    between atoms: C14_16  and  C17_19 
ROOT
HETATM    1  C10 UNL     1      10.321 -26.948  15.776  1.00  0.00    -0.034 A 
HETATM    2  C11 UNL     1      10.333 -26.040  14.708  1.00  0.00     0.012 A 
HETATM    3  C12 UNL     1       9.324 -25.141  14.475  1.00  0.00     0.009 A 
HETATM    4  C13 UNL     1       8.233 -25.099  15.309  1.00  0.00    -0.050 A 
HETATM    5  C19 UNL     1       8.201 -25.978  16.363  1.00  0.00     0.009 A 
HETATM    6  C20 UNL     1       9.224 -26.890  16.599  1.00  0.00     0.012 A 
ENDROOT
BRANCH   1   7
HETATM    7  C8  UNL     1      11.453 -27.887  15.958  1.00  0.00    -0.073 C 
HETATM    8  C9  UNL     1      11.890 -28.624  14.774  1.00  0.00     0.044 C 
BRANCH   7   9
HETATM    9  C7  UNL     1      11.312 -28.688  17.250  1.00  0.00     0.035 C 
BRANCH   9  10
HETATM   10  C6  UNL     1      12.176 -28.240  18.360  1.00  0.00     0.014 C 
BRANCH  10  11
HETATM   11  C5  UNL     1      13.378 -27.455  17.971  1.00  0.00     0.111 C 
BRANCH  11  12
HETATM   12  C4  UNL     1      14.574 -28.264  17.836  1.00  0.00     0.259 C 
HETATM   13  O2  UNL     1      15.007 -28.485  16.646  1.00  0.00    -0.265 OA
BRANCH  12  14
HETATM   14  O1  UNL     1      15.261 -28.795  18.889  1.00  0.00    -0.318 OA
BRANCH  14  15
HETATM   15  C3  UNL     1      16.013 -30.046  18.718  1.00  0.00     0.205 C 
BRANCH  15  16
HETATM   16  C2  UNL     1      17.458 -29.715  18.902  1.00  0.00    -0.011 C 
HETATM   17  C1  UNL     1      18.389 -30.610  18.998  1.00  0.00     0.009 C 
ENDBRANCH  15  16
ENDBRANCH  14  15
ENDBRANCH  12  14
ENDBRANCH  11  12
ENDBRANCH  10  11
ENDBRANCH   9  10
ENDBRANCH   7   9
ENDBRANCH   1   7
BRANCH   4  18
HETATM   18  C14 UNL     1       7.097 -24.154  15.137  1.00  0.00    -0.021 C 
HETATM   19  C15 UNL     1       6.002 -24.614  16.087  1.00  0.00     0.020 C 
HETATM   20  C16 UNL     1       6.631 -24.293  13.699  1.00  0.00     0.020 C 
BRANCH  18  21
HETATM   21  C17 UNL     1       7.508 -22.729  15.350  1.00  0.00     0.009 C 
HETATM   22  C18 UNL     1       7.374 -21.977  14.052  1.00  0.00     0.006 C 
ENDBRANCH  18  21
ENDBRANCH   4  18
TORSDOF 10
ENDMDL
MODEL 2
REMARK VINA RESULT: -9.981454703      0.127      1.009
REMARK  10 active torsions:
REMARK  status: ('A' for Active; 'I' for Inactive)
REMARK    1  A    between atoms: C2_2  and  C3_3 
REMARK    2  A    between atoms: C3_3  and  O1_4 
REMARK    3  A    between atoms: O1_4  and  C4_5 
REMARK    4  A    between atoms: C4_5  and  C5_7 
REMARK    5  A    between atoms: C5_7  and  C6_8 
REMARK    6  A    between atoms: C6_8  and  C7_9 
REMARK    7  A    between atoms: C7_9  and  C8_10 
REMARK    8  A    between atoms: C8_10  and  C10_12 
REMARK    9  A    between atoms: C13_15  and  C14_16 
REMARK   10  A    between atoms: C14_16  and  C17_19 
ROOT
HETATM    1  C10 UNL     1      10.370 -26.878  15.708  1.00  0.00    -0.034 A 
HETATM    2  C11 UNL     1       9.250 -26.924  16.550  1.00  0.00     0.012 A 
HETATM    3  C12 UNL     1       8.180 -26.076  16.426  1.00  0.00     0.009 A 
HETATM    4  C13 UNL     1       8.170 -25.121  15.438  1.00  0.00    -0.050 A 
HETATM    5  C19 UNL     1       9.256 -25.058  14.600  1.00  0.00     0.009 A 
HETATM    6  C20 UNL     1      10.341 -25.918  14.727  1.00  0.00     0.012 A 
ENDROOT
BRANCH   1   7
HETATM    7  C8  UNL     1      11.485 -27.832  15.911  1.00  0.00    -0.073 C 
HETATM    8  C9  UNL     1      11.850 -28.665  14.767  1.00  0.00     0.044 C 
BRANCH   7   9
HETATM    9  C7  UNL     1      11.382 -28.532  17.263  1.00  0.00     0.035 C 
BRANCH   9  10
HETATM   10  C6  UNL     1      12.224 -27.957  18.330  1.00  0.00     0.014 C 
BRANCH  10  11
HETATM   11  C5  UNL     1      13.489 -27.312  17.883  1.00  0.00     0.111 C 
BRANCH  11  12
HETATM   12  C4  UNL     1      14.600 -28.239  17.777  1.00  0.00     0.259 C 
HETATM   13  O2  UNL     1      15.023 -28.521  16.596  1.00  0.00    -0.265 OA
BRANCH  12  14
HETATM   14  O1  UNL     1      15.217 -28.818  18.847  1.00  0.00    -0.318 OA
BRANCH  14  15
HETATM   15  C3  UNL     1      16.043 -30.018  18.657  1.00  0.00     0.205 C 
BRANCH  15  16
HETATM   16  C2  UNL     1      17.457 -29.623  18.933  1.00  0.00    -0.011 C 
HETATM   17  C1  UNL     1      18.431 -30.472  19.027  1.00  0.00     0.009 C 
ENDBRANCH  15  16
ENDBRANCH  14  15
ENDBRANCH  12  14
ENDBRANCH  11  12
ENDBRANCH  10  11
ENDBRANCH   9  10
ENDBRANCH   7   9
ENDBRANCH   1   7
BRANCH   4  18
HETATM   18  C14 UNL     1       7.051 -24.165  15.224  1.00  0.00    -0.021 C 
HETATM   19  C15 UNL     1       5.926 -24.599  16.152  1.00  0.00     0.020 C 
HETATM   20  C16 UNL     1       6.621 -24.316  13.777  1.00  0.00     0.020 C 
BRANCH  18  21
HETATM   21  C17 UNL     1       7.473 -22.742  15.431  1.00  0.00     0.009 C 
HETATM   22  C18 UNL     1       7.298 -21.983  14.142  1.00  0.00     0.006 C 
ENDBRANCH  18  21
ENDBRANCH   4  18
TORSDOF 10
ENDMDL
MODEL 3
REMARK VINA RESULT: -9.764459815      0.748      1.787
REMARK  10 active torsions:
REMARK  status: ('A' for Active; 'I' for Inactive)
REMARK    1  A    between atoms: C2_2  and  C3_3 
REMARK    2  A    between atoms: C3_3  and  O1_4 
REMARK    3  A    between atoms: O1_4  and  C4_5 
REMARK    4  A    between atoms: C4_5  and  C5_7 
REMARK    5  A    between atoms: C5_7  and  C6_8 
REMARK    6  A    between atoms: C6_8  and  C7_9 
REMARK    7  A    between atoms: C7_9  and  C8_10 
REMARK    8  A    between atoms: C8_10  and  C10_12 
REMARK    9  A    between atoms: C13_15  and  C14_16 
REMARK   10  A    between atoms: C14_16  and  C17_19 
ROOT
HETATM    1  C10 UNL     1      10.429 -26.581  15.441  1.00  0.00    -0.034 A 
HETATM    2  C11 UNL     1       9.384 -26.738  16.362  1.00  0.00     0.012 A 
HETATM    3  C12 UNL     1       8.230 -26.000  16.322  1.00  0.00     0.009 A 
HETATM    4  C13 UNL     1       8.053 -25.051  15.344  1.00  0.00    -0.050 A 
HETATM    5  C19 UNL     1       9.063 -24.881  14.430  1.00  0.00     0.009 A 
HETATM    6  C20 UNL     1      10.235 -25.629  14.471  1.00  0.00     0.012 A 
ENDROOT
BRANCH   1   7
HETATM    7  C8  UNL     1      11.645 -27.420  15.554  1.00  0.00    -0.073 C 
HETATM    8  C9  UNL     1      11.755 -28.544  14.626  1.00  0.00     0.044 C 
BRANCH   7   9
HETATM    9  C7  UNL     1      11.996 -27.700  17.013  1.00  0.00     0.035 C 
BRANCH   9  10
HETATM   10  C6  UNL     1      13.248 -27.076  17.485  1.00  0.00     0.014 C 
BRANCH  10  11
HETATM   11  C5  UNL     1      14.109 -27.924  18.353  1.00  0.00     0.111 C 
BRANCH  11  12
HETATM   12  C4  UNL     1      14.924 -28.867  17.610  1.00  0.00     0.259 C 
HETATM   13  O2  UNL     1      15.136 -28.613  16.368  1.00  0.00    -0.265 OA
BRANCH  12  14
HETATM   14  O1  UNL     1      15.475 -29.992  18.150  1.00  0.00    -0.318 OA
BRANCH  14  15
HETATM   15  C3  UNL     1      16.294 -29.897  19.366  1.00  0.00     0.205 C 
BRANCH  15  16
HETATM   16  C2  UNL     1      17.722 -29.859  18.929  1.00  0.00    -0.011 C 
HETATM   17  C1  UNL     1      18.518 -30.878  18.998  1.00  0.00     0.009 C 
ENDBRANCH  15  16
ENDBRANCH  14  15
ENDBRANCH  12  14
ENDBRANCH  11  12
ENDBRANCH  10  11
ENDBRANCH   9  10
ENDBRANCH   7   9
ENDBRANCH   1   7
BRANCH   4  18
HETATM   18  C14 UNL     1       6.832 -24.210  15.220  1.00  0.00    -0.021 C 
HETATM   19  C15 UNL     1       6.450 -24.215  13.747  1.00  0.00     0.020 C 
HETATM   20  C16 UNL     1       7.224 -22.809  15.651  1.00  0.00     0.020 C 
BRANCH  18  21
HETATM   21  C17 UNL     1       5.729 -24.676  16.120  1.00  0.00     0.009 C 
HETATM   22  C18 UNL     1       5.921 -24.075  17.488  1.00  0.00     0.006 C 
ENDBRANCH  18  21
ENDBRANCH   4  18
TORSDOF 10
ENDMDL
MODEL 4
REMARK VINA RESULT: -9.720324265      1.047      1.508
REMARK  10 active torsions:
REMARK  status: ('A' for Active; 'I' for Inactive)
REMARK    1  A    between atoms: C2_2  and  C3_3 
REMARK    2  A    between atoms: C3_3  and  O1_4 
REMARK    3  A    between atoms: O1_4  and  C4_5 
REMARK    4  A    between atoms: C4_5  and  C5_7 
REMARK    5  A    between atoms: C5_7  and  C6_8 
REMARK    6  A    between atoms: C6_8  and  C7_9 
REMARK    7  A    between atoms: C7_9  and  C8_10 
REMARK    8  A    between atoms: C8_10  and  C10_12 
REMARK    9  A    between atoms: C13_15  and  C14_16 
REMARK   10  A    between atoms: C14_16  and  C17_19 
ROOT
HETATM    1  C10 UNL     1      10.036 -27.417  16.389  1.00  0.00    -0.034 A 
HETATM    2  C11 UNL     1      10.305 -26.593  15.286  1.00  0.00     0.012 A 
HETATM    3  C12 UNL     1       9.450 -25.612  14.856  1.00  0.00     0.009 A 
HETATM    4  C13 UNL     1       8.262 -25.396  15.513  1.00  0.00    -0.050 A 
HETATM    5  C19 UNL     1       7.980 -26.189  16.597  1.00  0.00     0.009 A 
HETATM    6  C20 UNL     1       8.846 -27.186  17.033  1.00  0.00     0.012 A 
ENDROOT
BRANCH   1   7
HETATM    7  C8  UNL     1      11.014 -28.455  16.789  1.00  0.00    -0.073 C 
HETATM    8  C9  UNL     1      11.405 -28.479  18.197  1.00  0.00     0.044 C 
BRANCH   7   9
HETATM    9  C7  UNL     1      12.138 -28.589  15.764  1.00  0.00     0.035 C 
BRANCH   9  10
HETATM   10  C6  UNL     1      13.495 -28.343  16.288  1.00  0.00     0.014 C 
BRANCH  10  11
HETATM   11  C5  UNL     1      14.420 -29.508  16.269  1.00  0.00     0.111 C 
BRANCH  11  12
HETATM   12  C4  UNL     1      15.113 -29.713  17.527  1.00  0.00     0.259 C 
HETATM   13  O2  UNL     1      14.896 -28.862  18.466  1.00  0.00    -0.265 OA
BRANCH  12  14
HETATM   14  O1  UNL     1      15.967 -30.749  17.769  1.00  0.00    -0.318 OA
BRANCH  14  15
HETATM   15  C3  UNL     1      16.663 -30.840  19.060  1.00  0.00     0.205 C 
BRANCH  15  16
HETATM   16  C2  UNL     1      18.127 -30.882  18.765  1.00  0.00    -0.011 C 
HETATM   17  C1  UNL     1      18.749 -31.954  18.390  1.00  0.00     0.009 C 
ENDBRANCH  15  16
ENDBRANCH  14  15
ENDBRANCH  12  14
ENDBRANCH  11  12
ENDBRANCH  10  11
ENDBRANCH   9  10
ENDBRANCH   7   9
ENDBRANCH   1   7
BRANCH   4  18
HETATM   18  C14 UNL     1       7.279 -24.351  15.121  1.00  0.00    -0.021 C 
HETATM   19  C15 UNL     1       6.020 -24.612  15.934  1.00  0.00     0.020 C 
HETATM   20  C16 UNL     1       6.996 -24.554  13.644  1.00  0.00     0.020 C 
BRANCH  18  21
HETATM   21  C17 UNL     1       7.823 -22.966  15.298  1.00  0.00     0.009 C 
HETATM   22  C18 UNL     1       7.438 -22.128  14.107  1.00  0.00     0.006 C 
ENDBRANCH  18  21
ENDBRANCH   4  18
TORSDOF 10
ENDMDL
MODEL 5
REMARK VINA RESULT: -9.659008178      1.318      2.257
REMARK  10 active torsions:
REMARK  status: ('A' for Active; 'I' for Inactive)
REMARK    1  A    between atoms: C2_2  and  C3_3 
REMARK    2  A    between atoms: C3_3  and  O1_4 
REMARK    3  A    between atoms: O1_4  and  C4_5 
REMARK    4  A    between atoms: C4_5  and  C5_7 
REMARK    5  A    between atoms: C5_7  and  C6_8 
REMARK    6  A    between atoms: C6_8  and  C7_9 
REMARK    7  A    between atoms: C7_9  and  C8_10 
REMARK    8  A    between atoms: C8_10  and  C10_12 
REMARK    9  A    between atoms: C13_15  and  C14_16 
REMARK   10  A    between atoms: C14_16  and  C17_19 
ROOT
HETATM    1  C10 UNL     1      10.823 -27.702  16.310  1.00  0.00    -0.034 A 
HETATM    2  C11 UNL     1      11.201 -27.061  15.122  1.00  0.00     0.012 A 
HETATM    3  C12 UNL     1      10.474 -26.050  14.549  1.00  0.00     0.009 A 
HETATM    4  C13 UNL     1       9.312 -25.617  15.140  1.00  0.00    -0.050 A 
HETATM    5  C19 UNL     1       8.923 -26.228  16.306  1.00  0.00     0.009 A 
HETATM    6  C20 UNL     1       9.660 -27.254  16.887  1.00  0.00     0.012 A 
ENDROOT
BRANCH   1   7
HETATM    7  C8  UNL     1      11.666 -28.786  16.864  1.00  0.00    -0.073 C 
HETATM    8  C9  UNL     1      11.968 -28.718  18.293  1.00  0.00     0.044 C 
BRANCH   7   9
HETATM    9  C7  UNL     1      12.829 -29.120  15.934  1.00  0.00     0.035 C 
BRANCH   9  10
HETATM   10  C6  UNL     1      14.167 -28.797  16.465  1.00  0.00     0.014 C 
BRANCH  10  11
HETATM   11  C5  UNL     1      15.065 -29.958  16.715  1.00  0.00     0.111 C 
BRANCH  11  12
HETATM   12  C4  UNL     1      15.672 -29.941  18.032  1.00  0.00     0.259 C 
HETATM   13  O2  UNL     1      14.969 -30.383  19.013  1.00  0.00    -0.265 OA
BRANCH  12  14
HETATM   14  O1  UNL     1      16.936 -29.493  18.285  1.00  0.00    -0.318 OA
BRANCH  14  15
HETATM   15  C3  UNL     1      17.835 -30.278  19.140  1.00  0.00     0.205 C 
BRANCH  15  16
HETATM   16  C2  UNL     1      18.293 -31.450  18.334  1.00  0.00    -0.011 C 
HETATM   17  C1  UNL     1      18.978 -32.433  18.827  1.00  0.00     0.009 C 
ENDBRANCH  15  16
ENDBRANCH  14  15
ENDBRANCH  12  14
ENDBRANCH  11  12
ENDBRANCH  10  11
ENDBRANCH   9  10
ENDBRANCH   7   9
ENDBRANCH   1   7
BRANCH   4  18
HETATM   18  C14 UNL     1       8.464 -24.523  14.593  1.00  0.00    -0.021 C 
HETATM   19  C15 UNL     1       9.349 -23.717  13.653  1.00  0.00     0.020 C 
HETATM   20  C16 UNL     1       8.045 -23.668  15.775  1.00  0.00     0.020 C 
BRANCH  18  21
HETATM   21  C17 UNL     1       7.221 -25.043  13.938  1.00  0.00     0.009 C 
HETATM   22  C18 UNL     1       6.392 -23.880  13.460  1.00  0.00     0.006 C 
ENDBRANCH  18  21
ENDBRANCH   4  18
TORSDOF 10
ENDMDL
