MODEL 1
REMARK VINA RESULT: -9.093513629      0.000      0.000
REMARK  10 active torsions:
REMARK  status: ('A' for Active; 'I' for Inactive)
REMARK    1  A    between atoms: C2_2  and  C3_3 
REMARK    2  A    between atoms: C4_4  and  C5_5 
REMARK    3  A    between atoms: C5_5  and  C6_6 
REMARK    4  A    between atoms: C6_6  and  C7_7 
REMARK    5  A    between atoms: C7_7  and  C9_9 
REMARK    6  A    between atoms: C12_12  and  C13_13 
REMARK    7  A    between atoms: C13_13  and  O2_15 
REMARK    8  A    between atoms: O2_15  and  C14_16 
REMARK    9  A    between atoms: C16_18  and  C17_19 
REMARK   10  A    between atoms: C17_19  and  C18_20 
ROOT
HETATM    1  C9  UNL     1       9.831 -27.344  16.348  1.00  0.00    -0.054 A 
HETATM    2  C10 UNL     1      11.101 -27.212  15.804  1.00  0.00     0.008 A 
HETATM    3  C11 UNL     1      12.234 -27.559  16.494  1.00  0.00     0.018 A 
HETATM    4  C12 UNL     1      12.141 -28.067  17.796  1.00  0.00     0.045 A 
HETATM    5  C16 UNL     1      10.904 -28.211  18.373  1.00  0.00    -0.041 A 
HETATM    6  C20 UNL     1       9.782 -27.847  17.631  1.00  0.00     0.015 A 
ENDROOT
BRANCH   1   7
HETATM    7  C7  UNL     1       8.652 -26.947  15.580  1.00  0.00     0.015 C 
HETATM    8  C8  UNL     1       8.868 -26.570  14.167  1.00  0.00     0.015 C 
BRANCH   7   9
HETATM    9  C6  UNL     1       7.783 -25.899  16.301  1.00  0.00     0.012 C 
BRANCH   9  10
HETATM   10  C5  UNL     1       8.564 -24.587  16.088  1.00  0.00     0.027 C 
BRANCH  10  11
HETATM   11  C4  UNL     1       7.668 -23.443  16.157  1.00  0.00    -0.031 C 
HETATM   12  C3  UNL     1       7.247 -22.774  15.119  1.00  0.00    -0.031 C 
BRANCH  12  13
HETATM   13  C2  UNL     1       7.589 -23.046  13.706  1.00  0.00     0.022 C 
HETATM   14  C1  UNL     1       6.529 -23.998  13.153  1.00  0.00     0.009 C 
ENDBRANCH  12  13
ENDBRANCH  10  11
ENDBRANCH   9  10
ENDBRANCH   7   9
ENDBRANCH   1   7
BRANCH   5  15
HETATM   15  C17 UNL     1      10.699 -28.651  19.781  1.00  0.00     0.039 C 
BRANCH  15  16
HETATM   16  C18 UNL     1       9.283 -28.379  20.281  1.00  0.00     0.000 C 
HETATM   17  C19 UNL     1       9.399 -28.393  21.809  1.00  0.00     0.005 C 
ENDBRANCH  15  16
ENDBRANCH   5  15
BRANCH   4  18
HETATM   18  C13 UNL     1      13.373 -28.516  18.471  1.00  0.00     0.293 C 
HETATM   19  O1  UNL     1      14.156 -27.622  18.906  1.00  0.00    -0.259 OA
BRANCH  18  20
HETATM   20  O2  UNL     1      13.731 -29.818  18.662  1.00  0.00    -0.318 OA
BRANCH  20  21
HETATM   21  C14 UNL     1      15.044 -30.200  18.972  1.00  0.00     0.174 C 
HETATM   22  C15 UNL     1      15.766 -30.628  17.722  1.00  0.00     0.034 C 
ENDBRANCH  20  21
ENDBRANCH  18  20
ENDBRANCH   4  18
TORSDOF 10
ENDMDL
MODEL 2
REMARK VINA RESULT: -9.013987516      3.179      7.286
REMARK  10 active torsions:
REMARK  status: ('A' for Active; 'I' for Inactive)
REMARK    1  A    between atoms: C2_2  and  C3_3 
REMARK    2  A    between atoms: C4_4  and  C5_5 
REMARK    3  A    between atoms: C5_5  and  C6_6 
REMARK    4  A    between atoms: C6_6  and  C7_7 
REMARK    5  A    between atoms: C7_7  and  C9_9 
REMARK    6  A    between atoms: C12_12  and  C13_13 
REMARK    7  A    between atoms: C13_13  and  O2_15 
REMARK    8  A    between atoms: O2_15  and  C14_16 
REMARK    9  A    between atoms: C16_18  and  C17_19 
REMARK   10  A    between atoms: C17_19  and  C18_20 
ROOT
HETATM    1  C9  UNL     1       9.239 -27.428  16.432  1.00  0.00    -0.054 A 
HETATM    2  C10 UNL     1       9.824 -27.255  15.186  1.00  0.00     0.008 A 
HETATM    3  C11 UNL     1       9.372 -26.322  14.288  1.00  0.00     0.018 A 
HETATM    4  C12 UNL     1       8.285 -25.500  14.609  1.00  0.00     0.045 A 
HETATM    5  C16 UNL     1       7.675 -25.640  15.830  1.00  0.00    -0.041 A 
HETATM    6  C20 UNL     1       8.171 -26.601  16.710  1.00  0.00     0.015 A 
ENDROOT
BRANCH   1   7
HETATM    7  C7  UNL     1       9.744 -28.446  17.352  1.00  0.00     0.015 C 
HETATM    8  C8  UNL     1       9.432 -28.267  18.786  1.00  0.00     0.015 C 
BRANCH   7   9
HETATM    9  C6  UNL     1      11.239 -28.758  17.151  1.00  0.00     0.012 C 
BRANCH   9  10
HETATM   10  C5  UNL     1      11.907 -28.077  18.360  1.00  0.00     0.027 C 
BRANCH  10  11
HETATM   11  C4  UNL     1      12.889 -27.098  17.916  1.00  0.00    -0.031 C 
HETATM   12  C3  UNL     1      14.121 -27.385  17.596  1.00  0.00    -0.031 C 
BRANCH  12  13
HETATM   13  C2  UNL     1      14.741 -28.728  17.621  1.00  0.00     0.022 C 
HETATM   14  C1  UNL     1      14.726 -29.267  16.190  1.00  0.00     0.009 C 
ENDBRANCH  12  13
ENDBRANCH  10  11
ENDBRANCH   9  10
ENDBRANCH   7   9
ENDBRANCH   1   7
BRANCH   5  15
HETATM   15  C17 UNL     1       6.456 -24.885  16.234  1.00  0.00     0.039 C 
BRANCH  15  16
HETATM   16  C18 UNL     1       6.274 -24.830  17.748  1.00  0.00     0.000 C 
HETATM   17  C19 UNL     1       5.281 -23.686  17.980  1.00  0.00     0.005 C 
ENDBRANCH  15  16
ENDBRANCH   5  15
BRANCH   4  18
HETATM   18  C13 UNL     1       7.887 -24.447  13.655  1.00  0.00     0.293 C 
HETATM   19  O1  UNL     1       6.836 -24.642  12.979  1.00  0.00    -0.259 OA
BRANCH  18  20
HETATM   20  O2  UNL     1       8.565 -23.281  13.449  1.00  0.00    -0.318 OA
BRANCH  20  21
HETATM   21  C14 UNL     1       8.457 -22.185  14.315  1.00  0.00     0.174 C 
HETATM   22  C15 UNL     1       7.068 -21.609  14.248  1.00  0.00     0.034 C 
ENDBRANCH  20  21
ENDBRANCH  18  20
ENDBRANCH   4  18
TORSDOF 10
ENDMDL
MODEL 3
REMARK VINA RESULT: -8.953696161      0.836      1.012
REMARK  10 active torsions:
REMARK  status: ('A' for Active; 'I' for Inactive)
REMARK    1  A    between atoms: C2_2  and  C3_3 
REMARK    2  A    between atoms: C4_4  and  C5_5 
REMARK    3  A    between atoms: C5_5  and  C6_6 
REMARK    4  A    between atoms: C6_6  and  C7_7 
REMARK    5  A    between atoms: C7_7  and  C9_9 
REMARK    6  A    between atoms: C12_12  and  C13_13 
REMARK    7  A    between atoms: C13_13  and  O2_15 
REMARK    8  A    between atoms: O2_15  and  C14_16 
REMARK    9  A    between atoms: C16_18  and  C17_19 
REMARK   10  A    between atoms: C17_19  and  C18_20 
ROOT
HETATM    1  C9  UNL     1      10.739 -27.387  16.095  1.00  0.00    -0.054 A 
HETATM    2  C10 UNL     1      12.081 -27.351  15.741  1.00  0.00     0.008 A 
HETATM    3  C11 UNL     1      13.076 -27.744  16.597  1.00  0.00     0.018 A 
HETATM    4  C12 UNL     1      12.762 -28.205  17.882  1.00  0.00     0.045 A 
HETATM    5  C16 UNL     1      11.448 -28.255  18.274  1.00  0.00    -0.041 A 
HETATM    6  C20 UNL     1      10.472 -27.846  17.367  1.00  0.00     0.015 A 
ENDROOT
BRANCH   1   7
HETATM    7  C7  UNL     1       9.713 -26.943  15.154  1.00  0.00     0.015 C 
HETATM    8  C8  UNL     1      10.026 -25.753  14.333  1.00  0.00     0.015 C 
BRANCH   7   9
HETATM    9  C6  UNL     1       8.317 -26.816  15.793  1.00  0.00     0.012 C 
BRANCH   9  10
HETATM   10  C5  UNL     1       8.174 -25.300  16.029  1.00  0.00     0.027 C 
BRANCH  10  11
HETATM   11  C4  UNL     1       6.778 -24.899  15.939  1.00  0.00    -0.031 C 
HETATM   12  C3  UNL     1       6.271 -24.218  14.947  1.00  0.00    -0.031 C 
BRANCH  12  13
HETATM   13  C2  UNL     1       6.999 -23.738  13.754  1.00  0.00     0.022 C 
HETATM   14  C1  UNL     1       7.477 -22.316  14.049  1.00  0.00     0.009 C 
ENDBRANCH  12  13
ENDBRANCH  10  11
ENDBRANCH   9  10
ENDBRANCH   7   9
ENDBRANCH   1   7
BRANCH   5  15
HETATM   15  C17 UNL     1      11.012 -28.637  19.646  1.00  0.00     0.039 C 
BRANCH  15  16
HETATM   16  C18 UNL     1       9.535 -28.346  19.896  1.00  0.00     0.000 C 
HETATM   17  C19 UNL     1       9.373 -28.421  21.418  1.00  0.00     0.005 C 
ENDBRANCH  15  16
ENDBRANCH   5  15
BRANCH   4  18
HETATM   18  C13 UNL     1      13.852 -28.707  18.741  1.00  0.00     0.293 C 
HETATM   19  O1  UNL     1      14.625 -27.850  19.259  1.00  0.00    -0.259 OA
BRANCH  18  20
HETATM   20  O2  UNL     1      14.086 -30.022  19.019  1.00  0.00    -0.318 OA
BRANCH  20  21
HETATM   21  C14 UNL     1      15.355 -30.603  18.887  1.00  0.00     0.174 C 
HETATM   22  C15 UNL     1      15.750 -30.655  17.435  1.00  0.00     0.034 C 
ENDBRANCH  20  21
ENDBRANCH  18  20
ENDBRANCH   4  18
TORSDOF 10
ENDMDL
MODEL 4
REMARK VINA RESULT: -8.654091255      3.118      7.898
REMARK  10 active torsions:
REMARK  status: ('A' for Active; 'I' for Inactive)
REMARK    1  A    between atoms: C2_2  and  C3_3 
REMARK    2  A    between atoms: C4_4  and  C5_5 
REMARK    3  A    between atoms: C5_5  and  C6_6 
REMARK    4  A    between atoms: C6_6  and  C7_7 
REMARK    5  A    between atoms: C7_7  and  C9_9 
REMARK    6  A    between atoms: C12_12  and  C13_13 
REMARK    7  A    between atoms: C13_13  and  O2_15 
REMARK    8  A    between atoms: O2_15  and  C14_16 
REMARK    9  A    between atoms: C16_18  and  C17_19 
REMARK   10  A    between atoms: C17_19  and  C18_20 
ROOT
HETATM    1  C9  UNL     1      10.950 -27.696  16.429  1.00  0.00    -0.054 A 
HETATM    2  C10 UNL     1      11.312 -27.209  15.181  1.00  0.00     0.008 A 
HETATM    3  C11 UNL     1      10.508 -26.362  14.463  1.00  0.00     0.018 A 
HETATM    4  C12 UNL     1       9.271 -25.956  14.979  1.00  0.00     0.045 A 
HETATM    5  C16 UNL     1       8.872 -26.416  16.209  1.00  0.00    -0.041 A 
HETATM    6  C20 UNL     1       9.725 -27.274  16.901  1.00  0.00     0.015 A 
ENDROOT
BRANCH   1   7
HETATM    7  C7  UNL     1      11.833 -28.610  17.151  1.00  0.00     0.015 C 
HETATM    8  C8  UNL     1      12.605 -28.045  18.279  1.00  0.00     0.015 C 
BRANCH   7   9
HETATM    9  C6  UNL     1      12.744 -29.436  16.223  1.00  0.00     0.012 C 
BRANCH   9  10
HETATM   10  C5  UNL     1      14.160 -29.104  16.733  1.00  0.00     0.027 C 
BRANCH  10  11
HETATM   11  C4  UNL     1      15.013 -30.282  16.673  1.00  0.00    -0.031 C 
HETATM   12  C3  UNL     1      15.878 -30.611  17.592  1.00  0.00    -0.031 C 
BRANCH  12  13
HETATM   13  C2  UNL     1      16.151 -29.870  18.842  1.00  0.00     0.022 C 
HETATM   14  C1  UNL     1      17.646 -29.550  18.870  1.00  0.00     0.009 C 
ENDBRANCH  12  13
ENDBRANCH  10  11
ENDBRANCH   9  10
ENDBRANCH   7   9
ENDBRANCH   1   7
BRANCH   5  15
HETATM   15  C17 UNL     1       7.540 -26.123  16.806  1.00  0.00     0.039 C 
BRANCH  15  16
HETATM   16  C18 UNL     1       7.345 -24.640  17.109  1.00  0.00     0.000 C 
HETATM   17  C19 UNL     1       5.826 -24.436  17.099  1.00  0.00     0.005 C 
ENDBRANCH  15  16
ENDBRANCH   5  15
BRANCH   4  18
HETATM   18  C13 UNL     1       8.475 -24.971  14.220  1.00  0.00     0.293 C 
HETATM   19  O1  UNL     1       7.421 -25.386  13.658  1.00  0.00    -0.259 OA
BRANCH  18  20
HETATM   20  O2  UNL     1       8.790 -23.651  14.081  1.00  0.00    -0.318 OA
BRANCH  20  21
HETATM   21  C14 UNL     1       7.904 -22.722  13.518  1.00  0.00     0.174 C 
HETATM   22  C15 UNL     1       7.216 -21.940  14.605  1.00  0.00     0.034 C 
ENDBRANCH  20  21
ENDBRANCH  18  20
ENDBRANCH   4  18
TORSDOF 10
ENDMDL
MODEL 5
REMARK VINA RESULT: -8.606965632      5.214      9.911
REMARK  10 active torsions:
REMARK  status: ('A' for Active; 'I' for Inactive)
REMARK    1  A    between atoms: C2_2  and  C3_3 
REMARK    2  A    between atoms: C4_4  and  C5_5 
REMARK    3  A    between atoms: C5_5  and  C6_6 
REMARK    4  A    between atoms: C6_6  and  C7_7 
REMARK    5  A    between atoms: C7_7  and  C9_9 
REMARK    6  A    between atoms: C12_12  and  C13_13 
REMARK    7  A    between atoms: C13_13  and  O2_15 
REMARK    8  A    between atoms: O2_15  and  C14_16 
REMARK    9  A    between atoms: C16_18  and  C17_19 
REMARK   10  A    between atoms: C17_19  and  C18_20 
ROOT
HETATM    1  C9  UNL     1      17.697 -31.981  18.738  1.00  0.00    -0.054 A 
HETATM    2  C10 UNL     1      17.139 -32.933  19.580  1.00  0.00     0.008 A 
HETATM    3  C11 UNL     1      17.692 -34.177  19.747  1.00  0.00     0.018 A 
HETATM    4  C12 UNL     1      18.859 -34.530  19.059  1.00  0.00     0.045 A 
HETATM    5  C16 UNL     1      19.442 -33.619  18.214  1.00  0.00    -0.041 A 
HETATM    6  C20 UNL     1      18.844 -32.367  18.079  1.00  0.00     0.015 A 
ENDROOT
BRANCH   1   7
HETATM    7  C7  UNL     1      17.064 -30.673  18.578  1.00  0.00     0.015 C 
HETATM    8  C8  UNL     1      17.829 -29.497  19.047  1.00  0.00     0.015 C 
BRANCH   7   9
HETATM    9  C6  UNL     1      15.617 -30.630  19.103  1.00  0.00     0.012 C 
BRANCH   9  10
HETATM   10  C5  UNL     1      14.981 -29.484  18.291  1.00  0.00     0.027 C 
BRANCH  10  11
HETATM   11  C4  UNL     1      14.911 -29.836  16.881  1.00  0.00    -0.031 C 
HETATM   12  C3  UNL     1      14.064 -29.316  16.035  1.00  0.00    -0.031 C 
BRANCH  12  13
HETATM   13  C2  UNL     1      13.040 -28.293  16.338  1.00  0.00     0.022 C 
HETATM   14  C1  UNL     1      11.986 -28.356  15.233  1.00  0.00     0.009 C 
ENDBRANCH  12  13
ENDBRANCH  10  11
ENDBRANCH   9  10
ENDBRANCH   7   9
ENDBRANCH   1   7
BRANCH   5  15
HETATM   15  C17 UNL     1      20.627 -33.924  17.365  1.00  0.00     0.039 C 
BRANCH  15  16
HETATM   16  C18 UNL     1      21.922 -33.355  17.938  1.00  0.00     0.000 C 
HETATM   17  C19 UNL     1      22.542 -32.558  16.785  1.00  0.00     0.005 C 
ENDBRANCH  15  16
ENDBRANCH   5  15
BRANCH   4  18
HETATM   18  C13 UNL     1      19.475 -35.842  19.335  1.00  0.00     0.293 C 
HETATM   19  O1  UNL     1      20.516 -35.856  20.054  1.00  0.00    -0.259 OA
BRANCH  18  20
HETATM   20  O2  UNL     1      19.008 -37.038  18.875  1.00  0.00    -0.318 OA
BRANCH  20  21
HETATM   21  C14 UNL     1      18.466 -37.190  17.591  1.00  0.00     0.174 C 
HETATM   22  C15 UNL     1      19.570 -37.303  16.574  1.00  0.00     0.034 C 
ENDBRANCH  20  21
ENDBRANCH  18  20
ENDBRANCH   4  18
TORSDOF 10
ENDMDL
