MODEL 1
REMARK VINA RESULT: -8.748813894      0.000      0.000
REMARK  9 active torsions:
REMARK  status: ('A' for Active; 'I' for Inactive)
REMARK    1  A    between atoms: C2_2  and  C3_3 
REMARK    2  A    between atoms: C3_3  and  O1_4 
REMARK    3  A    between atoms: O1_4  and  C4_5 
REMARK    4  A    between atoms: C4_5  and  C5_6 
REMARK    5  A    between atoms: C9_10  and  C10_11 
REMARK    6  A    between atoms: C15_16  and  C16_17 
REMARK    7  A    between atoms: C15_16  and  C17_20 
REMARK    8  A    between atoms: C16_17  and  O2_18 
REMARK    9  A    between atoms: C17_20  and  C18_21 
ROOT
HETATM    1  O1  UNL     1      10.648 -26.378  14.534  1.00  0.00    -0.351 OA
ENDROOT
BRANCH   1   2
HETATM    2  C3  UNL     1       9.251 -26.269  14.749  1.00  0.00     0.051 C 
HETATM    3  C15 UNL     1       8.615 -25.233  14.173  1.00  0.00    -0.027 C 
BRANCH   2   4
HETATM    4  C2  UNL     1       8.545 -27.251  15.570  1.00  0.00     0.060 C 
HETATM    5  C1  UNL     1       8.719 -26.910  17.069  1.00  0.00     0.012 C 
ENDBRANCH   2   4
BRANCH   3   6
HETATM    6  C16 UNL     1       9.461 -24.339  13.373  1.00  0.00     0.201 C 
BRANCH   6   7
HETATM    7  O2  UNL     1      10.480 -23.688  13.977  1.00  0.00    -0.397 OA
ATOM      8  H2  UNL     1      11.307 -23.600  13.516  1.00  0.00     0.209 HD
ENDBRANCH   6   7
ENDBRANCH   3   6
BRANCH   3   9
HETATM    9  C17 UNL     1       7.213 -25.008  14.476  1.00  0.00     0.043 C 
BRANCH   9  10
HETATM   10  C18 UNL     1       6.804 -23.927  15.391  1.00  0.00    -0.019 C 
HETATM   11  C19 UNL     1       5.824 -24.595  16.405  1.00  0.00     0.010 C 
HETATM   12  C20 UNL     1       7.883 -23.296  16.227  1.00  0.00     0.010 C 
ENDBRANCH   9  10
ENDBRANCH   3   9
ENDBRANCH   1   2
BRANCH   1  13
HETATM   13  C4  UNL     1      11.132 -27.721  14.519  1.00  0.00     0.214 C 
BRANCH  13  14
HETATM   14  C5  UNL     1      12.163 -27.972  15.538  1.00  0.00    -0.033 A 
HETATM   15  C6  UNL     1      12.273 -27.192  16.672  1.00  0.00     0.017 A 
HETATM   16  C7  UNL     1      13.225 -27.443  17.592  1.00  0.00    -0.051 A 
HETATM   17  C8  UNL     1      13.277 -26.548  18.796  1.00  0.00     0.049 C 
HETATM   18  C9  UNL     1      14.157 -28.492  17.475  1.00  0.00    -0.028 A 
HETATM   19  C12 UNL     1      14.060 -29.268  16.364  1.00  0.00    -0.051 A 
HETATM   20  C13 UNL     1      15.003 -30.358  16.182  1.00  0.00     0.049 C 
HETATM   21  C14 UNL     1      13.059 -28.995  15.408  1.00  0.00     0.017 A 
BRANCH  18  22
HETATM   22  C10 UNL     1      15.089 -28.622  18.530  1.00  0.00    -0.019 C 
HETATM   23  C11 UNL     1      15.122 -29.627  19.560  1.00  0.00     0.037 C 
ENDBRANCH  18  22
ENDBRANCH  13  14
ENDBRANCH   1  13
TORSDOF 9
ENDMDL
MODEL 2
REMARK VINA RESULT: -8.730193313      0.060      1.793
REMARK  9 active torsions:
REMARK  status: ('A' for Active; 'I' for Inactive)
REMARK    1  A    between atoms: C2_2  and  C3_3 
REMARK    2  A    between atoms: C3_3  and  O1_4 
REMARK    3  A    between atoms: O1_4  and  C4_5 
REMARK    4  A    between atoms: C4_5  and  C5_6 
REMARK    5  A    between atoms: C9_10  and  C10_11 
REMARK    6  A    between atoms: C15_16  and  C16_17 
REMARK    7  A    between atoms: C15_16  and  C17_20 
REMARK    8  A    between atoms: C16_17  and  O2_18 
REMARK    9  A    between atoms: C17_20  and  C18_21 
ROOT
HETATM    1  O1  UNL     1      10.652 -26.384  14.547  1.00  0.00    -0.351 OA
ENDROOT
BRANCH   1   2
HETATM    2  C3  UNL     1       9.254 -26.273  14.758  1.00  0.00     0.051 C 
HETATM    3  C15 UNL     1       8.619 -25.241  14.176  1.00  0.00    -0.027 C 
BRANCH   2   4
HETATM    4  C2  UNL     1       8.547 -27.250  15.584  1.00  0.00     0.060 C 
HETATM    5  C1  UNL     1       8.723 -26.903  17.083  1.00  0.00     0.012 C 
ENDBRANCH   2   4
BRANCH   3   6
HETATM    6  C16 UNL     1       9.467 -24.352  13.372  1.00  0.00     0.201 C 
BRANCH   6   7
HETATM    7  O2  UNL     1      10.479 -23.690  13.975  1.00  0.00    -0.397 OA
ATOM      8  H2  UNL     1      10.938 -24.107  14.695  1.00  0.00     0.209 HD
ENDBRANCH   6   7
ENDBRANCH   3   6
BRANCH   3   9
HETATM    9  C17 UNL     1       7.217 -25.014  14.475  1.00  0.00     0.043 C 
BRANCH   9  10
HETATM   10  C18 UNL     1       6.808 -23.933  15.391  1.00  0.00    -0.019 C 
HETATM   11  C19 UNL     1       5.834 -24.605  16.409  1.00  0.00     0.010 C 
HETATM   12  C20 UNL     1       7.888 -23.299  16.223  1.00  0.00     0.010 C 
ENDBRANCH   9  10
ENDBRANCH   3   9
ENDBRANCH   1   2
BRANCH   1  13
HETATM   13  C4  UNL     1      11.135 -27.728  14.537  1.00  0.00     0.214 C 
BRANCH  13  14
HETATM   14  C5  UNL     1      12.173 -27.973  15.551  1.00  0.00    -0.033 A 
HETATM   15  C6  UNL     1      13.087 -29.000  15.426  1.00  0.00     0.017 A 
HETATM   16  C7  UNL     1      14.030 -29.203  16.367  1.00  0.00    -0.051 A 
HETATM   17  C8  UNL     1      14.986 -30.341  16.155  1.00  0.00     0.049 C 
HETATM   18  C9  UNL     1      14.154 -28.406  17.521  1.00  0.00    -0.028 A 
HETATM   19  C12 UNL     1      13.260 -27.391  17.657  1.00  0.00    -0.051 A 
HETATM   20  C13 UNL     1      13.332 -26.544  18.835  1.00  0.00     0.049 C 
HETATM   21  C14 UNL     1      12.278 -27.189  16.665  1.00  0.00     0.017 A 
BRANCH  18  22
HETATM   22  C10 UNL     1      15.199 -28.750  18.409  1.00  0.00    -0.019 C 
HETATM   23  C11 UNL     1      15.119 -29.568  19.592  1.00  0.00     0.037 C 
ENDBRANCH  18  22
ENDBRANCH  13  14
ENDBRANCH   1  13
TORSDOF 9
ENDMDL
MODEL 3
REMARK VINA RESULT: -8.679073361      1.523      7.252
REMARK  9 active torsions:
REMARK  status: ('A' for Active; 'I' for Inactive)
REMARK    1  A    between atoms: C2_2  and  C3_3 
REMARK    2  A    between atoms: C3_3  and  O1_4 
REMARK    3  A    between atoms: O1_4  and  C4_5 
REMARK    4  A    between atoms: C4_5  and  C5_6 
REMARK    5  A    between atoms: C9_10  and  C10_11 
REMARK    6  A    between atoms: C15_16  and  C16_17 
REMARK    7  A    between atoms: C15_16  and  C17_20 
REMARK    8  A    between atoms: C16_17  and  O2_18 
REMARK    9  A    between atoms: C17_20  and  C18_21 
ROOT
HETATM    1  O1  UNL     1      10.376 -28.336  16.577  1.00  0.00    -0.351 OA
ENDROOT
BRANCH   1   2
HETATM    2  C3  UNL     1      11.686 -28.134  17.082  1.00  0.00     0.051 C 
HETATM    3  C15 UNL     1      12.715 -28.487  16.292  1.00  0.00    -0.027 C 
BRANCH   2   4
HETATM    4  C2  UNL     1      11.891 -27.565  18.413  1.00  0.00     0.060 C 
HETATM    5  C1  UNL     1      11.588 -28.629  19.495  1.00  0.00     0.012 C 
ENDBRANCH   2   4
BRANCH   3   6
HETATM    6  C16 UNL     1      12.346 -29.036  14.982  1.00  0.00     0.201 C 
BRANCH   6   7
HETATM    7  O2  UNL     1      11.566 -28.299  14.159  1.00  0.00    -0.397 OA
ATOM      8  H2  UNL     1      11.057 -28.741  13.489  1.00  0.00     0.209 HD
ENDBRANCH   6   7
ENDBRANCH   3   6
BRANCH   3   9
HETATM    9  C17 UNL     1      14.066 -28.421  16.820  1.00  0.00     0.043 C 
BRANCH   9  10
HETATM   10  C18 UNL     1      14.591 -29.496  17.683  1.00  0.00    -0.019 C 
HETATM   11  C19 UNL     1      15.362 -30.453  16.722  1.00  0.00     0.010 C 
HETATM   12  C20 UNL     1      15.583 -29.098  18.740  1.00  0.00     0.010 C 
ENDBRANCH   9  10
ENDBRANCH   3   9
ENDBRANCH   1   2
BRANCH   1  13
HETATM   13  C4  UNL     1       9.362 -27.625  17.287  1.00  0.00     0.214 C 
BRANCH  13  14
HETATM   14  C5  UNL     1       8.796 -26.507  16.514  1.00  0.00    -0.033 A 
HETATM   15  C6  UNL     1       7.542 -25.997  16.781  1.00  0.00     0.017 A 
HETATM   16  C7  UNL     1       7.047 -24.971  16.061  1.00  0.00    -0.051 A 
HETATM   17  C8  UNL     1       5.675 -24.475  16.416  1.00  0.00     0.049 C 
HETATM   18  C9  UNL     1       7.750 -24.356  15.008  1.00  0.00    -0.028 A 
HETATM   19  C12 UNL     1       8.986 -24.848  14.734  1.00  0.00    -0.051 A 
HETATM   20  C13 UNL     1       9.753 -24.261  13.649  1.00  0.00     0.049 C 
HETATM   21  C14 UNL     1       9.493 -25.922  15.496  1.00  0.00     0.017 A 
BRANCH  18  22
HETATM   22  C10 UNL     1       7.089 -23.290  14.354  1.00  0.00    -0.019 C 
HETATM   23  C11 UNL     1       7.430 -21.891  14.380  1.00  0.00     0.037 C 
ENDBRANCH  18  22
ENDBRANCH  13  14
ENDBRANCH   1  13
TORSDOF 9
ENDMDL
MODEL 4
REMARK VINA RESULT: -8.652629106      1.512      7.376
REMARK  9 active torsions:
REMARK  status: ('A' for Active; 'I' for Inactive)
REMARK    1  A    between atoms: C2_2  and  C3_3 
REMARK    2  A    between atoms: C3_3  and  O1_4 
REMARK    3  A    between atoms: O1_4  and  C4_5 
REMARK    4  A    between atoms: C4_5  and  C5_6 
REMARK    5  A    between atoms: C9_10  and  C10_11 
REMARK    6  A    between atoms: C15_16  and  C16_17 
REMARK    7  A    between atoms: C15_16  and  C17_20 
REMARK    8  A    between atoms: C16_17  and  O2_18 
REMARK    9  A    between atoms: C17_20  and  C18_21 
ROOT
HETATM    1  O1  UNL     1      10.382 -28.344  16.606  1.00  0.00    -0.351 OA
ENDROOT
BRANCH   1   2
HETATM    2  C3  UNL     1      11.695 -28.143  17.101  1.00  0.00     0.051 C 
HETATM    3  C15 UNL     1      12.719 -28.481  16.298  1.00  0.00    -0.027 C 
BRANCH   2   4
HETATM    4  C2  UNL     1      11.910 -27.590  18.438  1.00  0.00     0.060 C 
HETATM    5  C1  UNL     1      11.622 -28.669  19.509  1.00  0.00     0.012 C 
ENDBRANCH   2   4
BRANCH   3   6
HETATM    6  C16 UNL     1      12.339 -29.015  14.984  1.00  0.00     0.201 C 
BRANCH   6   7
HETATM    7  O2  UNL     1      11.554 -28.269  14.176  1.00  0.00    -0.397 OA
ATOM      8  H2  UNL     1      10.729 -27.938  14.513  1.00  0.00     0.209 HD
ENDBRANCH   6   7
ENDBRANCH   3   6
BRANCH   3   9
HETATM    9  C17 UNL     1      14.074 -28.417  16.815  1.00  0.00     0.043 C 
BRANCH   9  10
HETATM   10  C18 UNL     1      14.612 -29.503  17.655  1.00  0.00    -0.019 C 
HETATM   11  C19 UNL     1      15.384 -30.437  16.671  1.00  0.00     0.010 C 
HETATM   12  C20 UNL     1      15.610 -29.117  18.711  1.00  0.00     0.010 C 
ENDBRANCH   9  10
ENDBRANCH   3   9
ENDBRANCH   1   2
BRANCH   1  13
HETATM   13  C4  UNL     1       9.374 -27.624  17.317  1.00  0.00     0.214 C 
BRANCH  13  14
HETATM   14  C5  UNL     1       8.799 -26.518  16.536  1.00  0.00    -0.033 A 
HETATM   15  C6  UNL     1       9.485 -25.927  15.493  1.00  0.00     0.017 A 
HETATM   16  C7  UNL     1       8.936 -24.917  14.791  1.00  0.00    -0.051 A 
HETATM   17  C8  UNL     1       9.747 -24.330  13.672  1.00  0.00     0.049 C 
HETATM   18  C9  UNL     1       7.655 -24.397  15.057  1.00  0.00    -0.028 A 
HETATM   19  C12 UNL     1       6.968 -24.969  16.081  1.00  0.00    -0.051 A 
HETATM   20  C13 UNL     1       5.646 -24.464  16.410  1.00  0.00     0.049 C 
HETATM   21  C14 UNL     1       7.554 -26.026  16.808  1.00  0.00     0.017 A 
BRANCH  18  22
HETATM   22  C10 UNL     1       7.225 -23.337  14.225  1.00  0.00    -0.019 C 
HETATM   23  C11 UNL     1       7.405 -21.924  14.432  1.00  0.00     0.037 C 
ENDBRANCH  18  22
ENDBRANCH  13  14
ENDBRANCH   1  13
TORSDOF 9
ENDMDL
MODEL 5
REMARK VINA RESULT: -8.565722540      1.717      7.594
REMARK  9 active torsions:
REMARK  status: ('A' for Active; 'I' for Inactive)
REMARK    1  A    between atoms: C2_2  and  C3_3 
REMARK    2  A    between atoms: C3_3  and  O1_4 
REMARK    3  A    between atoms: O1_4  and  C4_5 
REMARK    4  A    between atoms: C4_5  and  C5_6 
REMARK    5  A    between atoms: C9_10  and  C10_11 
REMARK    6  A    between atoms: C15_16  and  C16_17 
REMARK    7  A    between atoms: C15_16  and  C17_20 
REMARK    8  A    between atoms: C16_17  and  O2_18 
REMARK    9  A    between atoms: C17_20  and  C18_21 
ROOT
HETATM    1  O1  UNL     1      11.287 -27.082  17.110  1.00  0.00    -0.351 OA
ENDROOT
BRANCH   1   2
HETATM    2  C3  UNL     1      12.215 -28.047  16.643  1.00  0.00     0.051 C 
HETATM    3  C15 UNL     1      13.464 -27.997  17.138  1.00  0.00    -0.027 C 
BRANCH   2   4
HETATM    4  C2  UNL     1      11.813 -29.050  15.658  1.00  0.00     0.060 C 
HETATM    5  C1  UNL     1      11.665 -28.393  14.264  1.00  0.00     0.012 C 
ENDBRANCH   2   4
BRANCH   3   6
HETATM    6  C16 UNL     1      13.709 -26.937  18.125  1.00  0.00     0.201 C 
BRANCH   6   7
HETATM    7  O2  UNL     1      13.165 -27.051  19.357  1.00  0.00    -0.397 OA
ATOM      8  H2  UNL     1      12.445 -27.657  19.488  1.00  0.00     0.209 HD
ENDBRANCH   6   7
ENDBRANCH   3   6
BRANCH   3   9
HETATM    9  C17 UNL     1      14.478 -28.879  16.590  1.00  0.00     0.043 C 
BRANCH   9  10
HETATM   10  C18 UNL     1      15.100 -29.923  17.426  1.00  0.00    -0.019 C 
HETATM   11  C19 UNL     1      16.484 -29.339  17.850  1.00  0.00     0.010 C 
HETATM   12  C20 UNL     1      14.400 -30.276  18.709  1.00  0.00     0.010 C 
ENDBRANCH   9  10
ENDBRANCH   3   9
ENDBRANCH   1   2
BRANCH   1  13
HETATM   13  C4  UNL     1       9.921 -27.421  16.867  1.00  0.00     0.214 C 
BRANCH  13  14
HETATM   14  C5  UNL     1       9.175 -26.350  16.188  1.00  0.00    -0.033 A 
HETATM   15  C6  UNL     1       9.710 -25.649  15.125  1.00  0.00     0.017 A 
HETATM   16  C7  UNL     1       9.005 -24.674  14.518  1.00  0.00    -0.051 A 
HETATM   17  C8  UNL     1       9.658 -23.961  13.369  1.00  0.00     0.049 C 
HETATM   18  C9  UNL     1       7.705 -24.301  14.910  1.00  0.00    -0.028 A 
HETATM   19  C12 UNL     1       7.167 -24.982  15.955  1.00  0.00    -0.051 A 
HETATM   20  C13 UNL     1       5.833 -24.632  16.412  1.00  0.00     0.049 C 
HETATM   21  C14 UNL     1       7.915 -26.001  16.582  1.00  0.00     0.017 A 
BRANCH  18  22
HETATM   22  C10 UNL     1       7.103 -23.259  14.167  1.00  0.00    -0.019 C 
HETATM   23  C11 UNL     1       7.240 -21.840  14.366  1.00  0.00     0.037 C 
ENDBRANCH  18  22
ENDBRANCH  13  14
ENDBRANCH   1  13
TORSDOF 9
ENDMDL
