MODEL 1
REMARK VINA RESULT: -7.894647978      0.000      0.000
REMARK  10 active torsions:
REMARK  status: ('A' for Active; 'I' for Inactive)
REMARK    1  A    between atoms: C2_2  and  C3_3 
REMARK    2  A    between atoms: C3_3  and  C4_4 
REMARK    3  A    between atoms: C4_4  and  C5_5 
REMARK    4  A    between atoms: C4_4  and  C9_9 
REMARK    5  A    between atoms: C5_5  and  C6_6 
REMARK    6  A    between atoms: C12_12  and  C13_13 
REMARK    7  A    between atoms: C17_17  and  O1_18 
REMARK    8  A    between atoms: O1_18  and  C18_19 
REMARK    9  A    between atoms: C18_19  and  C19_20 
REMARK   10  A    between atoms: C19_20  and  O2_21 
ROOT
HETATM    1  C9  UNL     1      11.010 -27.700  16.120  1.00  0.00    -0.021 A 
HETATM    2  C10 UNL     1      11.201 -27.041  14.944  1.00  0.00     0.011 A 
HETATM    3  C11 UNL     1      10.168 -26.300  14.375  1.00  0.00     0.008 A 
HETATM    4  C12 UNL     1       8.954 -26.230  14.994  1.00  0.00    -0.052 A 
HETATM    5  C16 UNL     1       8.783 -26.913  16.194  1.00  0.00     0.044 A 
HETATM    6  C17 UNL     1       9.782 -27.658  16.786  1.00  0.00     0.076 A 
ENDROOT
BRANCH   1   7
HETATM    7  C4  UNL     1      12.166 -28.436  16.744  1.00  0.00     0.022 C 
BRANCH   7   8
HETATM    8  C3  UNL     1      12.947 -29.106  15.678  1.00  0.00     0.009 C 
BRANCH   8   9
HETATM    9  C2  UNL     1      14.443 -29.012  15.736  1.00  0.00    -0.004 C 
HETATM   10  C1  UNL     1      14.962 -30.301  16.448  1.00  0.00     0.005 C 
ENDBRANCH   8   9
ENDBRANCH   7   8
BRANCH   7  11
HETATM   11  C5  UNL     1      12.827 -27.489  17.655  1.00  0.00     0.013 C 
BRANCH  11  12
HETATM   12  C6  UNL     1      13.281 -27.865  18.998  1.00  0.00    -0.022 C 
HETATM   13  C7  UNL     1      12.819 -29.361  19.172  1.00  0.00     0.009 C 
HETATM   14  C8  UNL     1      14.760 -27.899  19.216  1.00  0.00     0.009 C 
ENDBRANCH  11  12
ENDBRANCH   7  11
ENDBRANCH   1   7
BRANCH   6  15
HETATM   15  O1  UNL     1       9.654 -28.340  17.951  1.00  0.00    -0.348 OA
BRANCH  15  16
HETATM   16  C18 UNL     1       8.939 -28.078  19.101  1.00  0.00     0.201 C 
BRANCH  16  17
HETATM   17  C19 UNL     1       9.573 -28.421  20.402  1.00  0.00     0.193 C 
BRANCH  17  18
HETATM   18  O2  UNL     1       8.820 -28.000  21.507  1.00  0.00    -0.394 OA
HETATM   19  C20 UNL     1       9.366 -28.606  22.627  1.00  0.00     0.201 C 
ENDBRANCH  17  18
ENDBRANCH  16  17
ENDBRANCH  15  16
ENDBRANCH   6  15
BRANCH   4  20
HETATM   20  C13 UNL     1       7.870 -25.427  14.390  1.00  0.00     0.010 C 
HETATM   21  C14 UNL     1       8.466 -24.168  13.803  1.00  0.00     0.015 C 
HETATM   22  C15 UNL     1       6.911 -24.982  15.501  1.00  0.00     0.015 C 
ENDBRANCH   4  20
TORSDOF 10
ENDMDL
MODEL 2
REMARK VINA RESULT: -7.348748231      1.199      5.886
REMARK  10 active torsions:
REMARK  status: ('A' for Active; 'I' for Inactive)
REMARK    1  A    between atoms: C2_2  and  C3_3 
REMARK    2  A    between atoms: C3_3  and  C4_4 
REMARK    3  A    between atoms: C4_4  and  C5_5 
REMARK    4  A    between atoms: C4_4  and  C9_9 
REMARK    5  A    between atoms: C5_5  and  C6_6 
REMARK    6  A    between atoms: C12_12  and  C13_13 
REMARK    7  A    between atoms: C17_17  and  O1_18 
REMARK    8  A    between atoms: O1_18  and  C18_19 
REMARK    9  A    between atoms: C18_19  and  C19_20 
REMARK   10  A    between atoms: C19_20  and  O2_21 
ROOT
HETATM    1  C9  UNL     1       9.604 -26.880  16.114  1.00  0.00    -0.021 A 
HETATM    2  C10 UNL     1      10.498 -26.620  15.121  1.00  0.00     0.011 A 
HETATM    3  C11 UNL     1      11.803 -27.098  15.204  1.00  0.00     0.008 A 
HETATM    4  C12 UNL     1      12.196 -27.832  16.286  1.00  0.00    -0.052 A 
HETATM    5  C16 UNL     1      11.265 -28.083  17.287  1.00  0.00     0.044 A 
HETATM    6  C17 UNL     1       9.964 -27.625  17.240  1.00  0.00     0.076 A 
ENDROOT
BRANCH   1   7
HETATM    7  C4  UNL     1       8.182 -26.407  15.962  1.00  0.00     0.022 C 
BRANCH   7   8
HETATM    8  C3  UNL     1       7.837 -25.530  17.105  1.00  0.00     0.009 C 
BRANCH   8   9
HETATM    9  C2  UNL     1       6.394 -25.423  17.500  1.00  0.00    -0.004 C 
HETATM   10  C1  UNL     1       6.026 -23.906  17.506  1.00  0.00     0.005 C 
ENDBRANCH   8   9
ENDBRANCH   7   8
BRANCH   7  11
HETATM   11  C5  UNL     1       8.048 -25.908  14.585  1.00  0.00     0.013 C 
BRANCH  11  12
HETATM   12  C6  UNL     1       7.704 -24.516  14.275  1.00  0.00    -0.022 C 
HETATM   13  C7  UNL     1       9.032 -23.894  13.704  1.00  0.00     0.009 C 
HETATM   14  C8  UNL     1       6.693 -24.306  13.193  1.00  0.00     0.009 C 
ENDBRANCH  11  12
ENDBRANCH   7  11
ENDBRANCH   1   7
BRANCH   6  15
HETATM   15  O1  UNL     1       9.029 -27.845  18.197  1.00  0.00    -0.348 OA
BRANCH  15  16
HETATM   16  C18 UNL     1       9.027 -28.645  19.320  1.00  0.00     0.201 C 
BRANCH  16  17
HETATM   17  C19 UNL     1       9.007 -27.975  20.648  1.00  0.00     0.193 C 
BRANCH  17  18
HETATM   18  O2  UNL     1       9.534 -28.772  21.673  1.00  0.00    -0.394 OA
HETATM   19  C20 UNL     1       8.974 -28.331  22.861  1.00  0.00     0.201 C 
ENDBRANCH  17  18
ENDBRANCH  16  17
ENDBRANCH  15  16
ENDBRANCH   6  15
BRANCH   4  20
HETATM   20  C13 UNL     1      13.579 -28.349  16.355  1.00  0.00     0.010 C 
HETATM   21  C14 UNL     1      13.537 -29.859  16.343  1.00  0.00     0.015 C 
HETATM   22  C15 UNL     1      14.189 -27.938  17.702  1.00  0.00     0.015 C 
ENDBRANCH   4  20
TORSDOF 10
ENDMDL
MODEL 3
REMARK VINA RESULT: -6.787994815      1.832      4.104
REMARK  10 active torsions:
REMARK  status: ('A' for Active; 'I' for Inactive)
REMARK    1  A    between atoms: C2_2  and  C3_3 
REMARK    2  A    between atoms: C3_3  and  C4_4 
REMARK    3  A    between atoms: C4_4  and  C5_5 
REMARK    4  A    between atoms: C4_4  and  C9_9 
REMARK    5  A    between atoms: C5_5  and  C6_6 
REMARK    6  A    between atoms: C12_12  and  C13_13 
REMARK    7  A    between atoms: C17_17  and  O1_18 
REMARK    8  A    between atoms: O1_18  and  C18_19 
REMARK    9  A    between atoms: C18_19  and  C19_20 
REMARK   10  A    between atoms: C19_20  and  O2_21 
ROOT
HETATM    1  C9  UNL     1       9.700 -27.263  16.887  1.00  0.00    -0.021 A 
HETATM    2  C10 UNL     1       8.452 -26.780  17.136  1.00  0.00     0.011 A 
HETATM    3  C11 UNL     1       7.791 -26.011  16.182  1.00  0.00     0.008 A 
HETATM    4  C12 UNL     1       8.392 -25.734  14.989  1.00  0.00    -0.052 A 
HETATM    5  C16 UNL     1       9.668 -26.237  14.759  1.00  0.00     0.044 A 
HETATM    6  C17 UNL     1      10.354 -27.002  15.680  1.00  0.00     0.076 A 
ENDROOT
BRANCH   1   7
HETATM    7  C4  UNL     1      10.361 -28.149  17.911  1.00  0.00     0.022 C 
BRANCH   7   8
HETATM    8  C3  UNL     1      11.657 -27.550  18.307  1.00  0.00     0.009 C 
BRANCH   8   9
HETATM    9  C2  UNL     1      12.712 -28.461  18.862  1.00  0.00    -0.004 C 
HETATM   10  C1  UNL     1      14.049 -27.655  18.896  1.00  0.00     0.005 C 
ENDBRANCH   8   9
ENDBRANCH   7   8
BRANCH   7  11
HETATM   11  C5  UNL     1       9.344 -28.444  18.932  1.00  0.00     0.013 C 
BRANCH  11  12
HETATM   12  C6  UNL     1       9.549 -28.174  20.359  1.00  0.00    -0.022 C 
HETATM   13  C7  UNL     1       8.129 -27.759  20.896  1.00  0.00     0.009 C 
HETATM   14  C8  UNL     1       9.948 -29.339  21.207  1.00  0.00     0.009 C 
ENDBRANCH  11  12
ENDBRANCH   7  11
ENDBRANCH   1   7
BRANCH   6  15
HETATM   15  O1  UNL     1      11.599 -27.506  15.496  1.00  0.00    -0.348 OA
BRANCH  15  16
HETATM   16  C18 UNL     1      12.049 -28.646  14.863  1.00  0.00     0.201 C 
BRANCH  16  17
HETATM   17  C19 UNL     1      12.907 -29.578  15.643  1.00  0.00     0.193 C 
BRANCH  17  18
HETATM   18  O2  UNL     1      14.235 -29.143  15.749  1.00  0.00    -0.394 OA
HETATM   19  C20 UNL     1      14.930 -30.120  16.442  1.00  0.00     0.201 C 
ENDBRANCH  17  18
ENDBRANCH  16  17
ENDBRANCH  15  16
ENDBRANCH   6  15
BRANCH   4  20
HETATM   20  C13 UNL     1       7.674 -24.930  13.977  1.00  0.00     0.010 C 
HETATM   21  C14 UNL     1       8.542 -23.759  13.578  1.00  0.00     0.015 C 
HETATM   22  C15 UNL     1       6.413 -24.341  14.625  1.00  0.00     0.015 C 
ENDBRANCH   4  20
TORSDOF 10
ENDMDL
MODEL 4
REMARK VINA RESULT: -6.716358465      1.965      2.849
REMARK  10 active torsions:
REMARK  status: ('A' for Active; 'I' for Inactive)
REMARK    1  A    between atoms: C2_2  and  C3_3 
REMARK    2  A    between atoms: C3_3  and  C4_4 
REMARK    3  A    between atoms: C4_4  and  C5_5 
REMARK    4  A    between atoms: C4_4  and  C9_9 
REMARK    5  A    between atoms: C5_5  and  C6_6 
REMARK    6  A    between atoms: C12_12  and  C13_13 
REMARK    7  A    between atoms: C17_17  and  O1_18 
REMARK    8  A    between atoms: O1_18  and  C18_19 
REMARK    9  A    between atoms: C18_19  and  C19_20 
REMARK   10  A    between atoms: C19_20  and  O2_21 
ROOT
HETATM    1  C9  UNL     1      10.214 -26.407  15.215  1.00  0.00    -0.021 A 
HETATM    2  C10 UNL     1      10.744 -25.596  14.259  1.00  0.00     0.011 A 
HETATM    3  C11 UNL     1       9.958 -24.627  13.641  1.00  0.00     0.008 A 
HETATM    4  C12 UNL     1       8.646 -24.484  13.990  1.00  0.00    -0.052 A 
HETATM    5  C16 UNL     1       8.128 -25.325  14.969  1.00  0.00     0.044 A 
HETATM    6  C17 UNL     1       8.876 -26.297  15.602  1.00  0.00     0.076 A 
ENDROOT
BRANCH   1   7
HETATM    7  C4  UNL     1      11.108 -27.398  15.912  1.00  0.00     0.022 C 
BRANCH   7   8
HETATM    8  C3  UNL     1      11.744 -28.274  14.901  1.00  0.00     0.009 C 
BRANCH   8   9
HETATM    9  C2  UNL     1      12.483 -29.487  15.384  1.00  0.00    -0.004 C 
HETATM   10  C1  UNL     1      13.973 -29.071  15.591  1.00  0.00     0.005 C 
ENDBRANCH   8   9
ENDBRANCH   7   8
BRANCH   7  11
HETATM   11  C5  UNL     1      11.942 -26.629  16.849  1.00  0.00     0.013 C 
BRANCH  11  12
HETATM   12  C6  UNL     1      12.191 -27.060  18.229  1.00  0.00    -0.022 C 
HETATM   13  C7  UNL     1      11.317 -28.357  18.406  1.00  0.00     0.009 C 
HETATM   14  C8  UNL     1      13.584 -27.497  18.549  1.00  0.00     0.009 C 
ENDBRANCH  11  12
ENDBRANCH   7  11
ENDBRANCH   1   7
BRANCH   6  15
HETATM   15  O1  UNL     1       8.407 -27.138  16.556  1.00  0.00    -0.348 OA
BRANCH  15  16
HETATM   16  C18 UNL     1       8.009 -26.926  17.860  1.00  0.00     0.201 C 
BRANCH  16  17
HETATM   17  C19 UNL     1       7.224 -25.697  18.152  1.00  0.00     0.193 C 
BRANCH  17  18
HETATM   18  O2  UNL     1       6.164 -25.496  17.258  1.00  0.00    -0.394 OA
HETATM   19  C20 UNL     1       5.686 -24.214  17.473  1.00  0.00     0.201 C 
ENDBRANCH  17  18
ENDBRANCH  16  17
ENDBRANCH  15  16
ENDBRANCH   6  15
BRANCH   4  20
HETATM   20  C13 UNL     1       7.826 -23.441  13.340  1.00  0.00     0.010 C 
HETATM   21  C14 UNL     1       7.877 -22.186  14.180  1.00  0.00     0.015 C 
HETATM   22  C15 UNL     1       6.363 -23.903  13.330  1.00  0.00     0.015 C 
ENDBRANCH   4  20
TORSDOF 10
ENDMDL
MODEL 5
REMARK VINA RESULT: -6.526850214      1.972      5.574
REMARK  10 active torsions:
REMARK  status: ('A' for Active; 'I' for Inactive)
REMARK    1  A    between atoms: C2_2  and  C3_3 
REMARK    2  A    between atoms: C3_3  and  C4_4 
REMARK    3  A    between atoms: C4_4  and  C5_5 
REMARK    4  A    between atoms: C4_4  and  C9_9 
REMARK    5  A    between atoms: C5_5  and  C6_6 
REMARK    6  A    between atoms: C12_12  and  C13_13 
REMARK    7  A    between atoms: C17_17  and  O1_18 
REMARK    8  A    between atoms: O1_18  and  C18_19 
REMARK    9  A    between atoms: C18_19  and  C19_20 
REMARK   10  A    between atoms: C19_20  and  O2_21 
ROOT
HETATM    1  C9  UNL     1      11.038 -27.731  17.406  1.00  0.00    -0.021 A 
HETATM    2  C10 UNL     1       9.709 -28.004  17.522  1.00  0.00     0.011 A 
HETATM    3  C11 UNL     1       9.181 -28.437  18.736  1.00  0.00     0.008 A 
HETATM    4  C12 UNL     1       9.996 -28.592  19.820  1.00  0.00    -0.052 A 
HETATM    5  C16 UNL     1      11.349 -28.308  19.676  1.00  0.00     0.044 A 
HETATM    6  C17 UNL     1      11.908 -27.879  18.489  1.00  0.00     0.076 A 
ENDROOT
BRANCH   1   7
HETATM    7  C4  UNL     1      11.565 -27.200  16.099  1.00  0.00     0.022 C 
BRANCH   7   8
HETATM    8  C3  UNL     1      11.775 -28.330  15.165  1.00  0.00     0.009 C 
BRANCH   8   9
HETATM    9  C2  UNL     1      12.580 -29.501  15.645  1.00  0.00    -0.004 C 
HETATM   10  C1  UNL     1      14.085 -29.093  15.568  1.00  0.00     0.005 C 
ENDBRANCH   8   9
ENDBRANCH   7   8
BRANCH   7  11
HETATM   11  C5  UNL     1      10.691 -26.080  15.715  1.00  0.00     0.013 C 
BRANCH  11  12
HETATM   12  C6  UNL     1      10.136 -25.933  14.366  1.00  0.00    -0.022 C 
HETATM   13  C7  UNL     1       8.672 -26.503  14.472  1.00  0.00     0.009 C 
HETATM   14  C8  UNL     1       9.961 -24.535  13.867  1.00  0.00     0.009 C 
ENDBRANCH  11  12
ENDBRANCH   7  11
ENDBRANCH   1   7
BRANCH   6  15
HETATM   15  O1  UNL     1      13.221 -27.596  18.308  1.00  0.00    -0.348 OA
BRANCH  15  16
HETATM   16  C18 UNL     1      14.348 -27.939  19.026  1.00  0.00     0.201 C 
BRANCH  16  17
HETATM   17  C19 UNL     1      14.756 -29.369  19.034  1.00  0.00     0.193 C 
BRANCH  17  18
HETATM   18  O2  UNL     1      16.091 -29.561  18.653  1.00  0.00    -0.394 OA
HETATM   19  C20 UNL     1      16.209 -30.877  18.234  1.00  0.00     0.201 C 
ENDBRANCH  17  18
ENDBRANCH  16  17
ENDBRANCH  15  16
ENDBRANCH   6  15
BRANCH   4  20
HETATM   20  C13 UNL     1       9.421 -29.035  21.108  1.00  0.00     0.010 C 
HETATM   21  C14 UNL     1       8.886 -27.830  21.844  1.00  0.00     0.015 C 
HETATM   22  C15 UNL     1      10.549 -29.613  21.974  1.00  0.00     0.015 C 
ENDBRANCH   4  20
TORSDOF 10
ENDMDL
