MODEL 1
REMARK VINA RESULT: -6.514905182      0.000      0.000
REMARK  10 active torsions:
REMARK  status: ('A' for Active; 'I' for Inactive)
REMARK    1  A    between atoms: C3_4  and  C4_5 
REMARK    2  A    between atoms: C4_5  and  O2_7 
REMARK    3  A    between atoms: O2_7  and  C5_8 
REMARK    4  A    between atoms: C6_9  and  N2_10 
REMARK    5  A    between atoms: C7_14  and  O3_15 
REMARK    6  A    between atoms: C8_17  and  O4_18 
REMARK    7  A    between atoms: C9_20  and  O5_21 
REMARK    8  A    between atoms: C10_23  and  N3_24 
REMARK    9  A    between atoms: N3_24  and  O6_26 
REMARK   10  A    between atoms: O6_26  and  S1_27 
ROOT
HETATM    1  C5  UNL     1     -89.627  66.657  95.435  1.00  0.00     0.192 C 
HETATM    2  C6  UNL     1     -88.119  66.875  95.304  1.00  0.00     0.246 C 
HETATM    3  C7  UNL     1     -87.719  68.221  95.813  1.00  0.00     0.182 C 
HETATM    4  C8  UNL     1     -88.871  69.142  96.081  1.00  0.00     0.179 C 
HETATM    5  C9  UNL     1     -89.901  69.097  94.995  1.00  0.00     0.176 C 
HETATM    6  C10 UNL     1     -90.267  67.726  94.544  1.00  0.00     0.170 C 
ENDROOT
BRANCH   1   7
HETATM    7  O2  UNL     1     -89.933  65.386  94.951  1.00  0.00    -0.308 OA
BRANCH   7   8
HETATM    8  C4  UNL     1     -89.905  64.270  95.773  1.00  0.00     0.284 C 
HETATM    9  O1  UNL     1     -90.946  63.527  95.867  1.00  0.00    -0.260 OA
BRANCH   8  10
HETATM   10  C3  UNL     1     -88.715  63.953  96.513  1.00  0.00     0.103 C 
HETATM   11  C2  UNL     1     -87.979  62.915  96.165  1.00  0.00     0.026 C 
HETATM   12  C1  UNL     1     -86.751  62.623  96.962  1.00  0.00     0.065 C 
HETATM   13  N1  UNL     1     -88.297  62.072  95.082  1.00  0.00    -0.107 NA
ENDBRANCH   8  10
ENDBRANCH   7   8
ENDBRANCH   1   7
BRANCH   2  14
HETATM   14  N2  UNL     1     -87.758  66.664  93.919  1.00  0.00    -0.070 N 
ATOM     15  H23 UNL     1     -86.904  66.117  93.812  1.00  0.00     0.274 HD
ATOM     16  H22 UNL     1     -88.390  66.023  93.440  1.00  0.00     0.274 HD
ATOM     17  H21 UNL     1     -87.703  67.577  93.467  1.00  0.00     0.274 HD
ENDBRANCH   2  14
BRANCH   6  18
HETATM   18  N3  UNL     1     -91.666  67.477  94.470  1.00  0.00    -0.274 N 
ATOM     19  H3  UNL     1     -92.245  67.385  95.305  1.00  0.00     0.189 HD
BRANCH  18  20
HETATM   20  O6  UNL     1     -92.168  67.374  93.249  1.00  0.00    -0.142 OA
BRANCH  20  21
HETATM   21  S1  UNL     1     -93.317  66.193  93.058  1.00  0.00     0.422 S 
HETATM   22  O7  UNL     1     -94.723  66.770  93.012  1.00  0.00    -0.177 OA
HETATM   23  O8  UNL     1     -93.293  65.163  94.126  1.00  0.00    -0.177 OA
ENDBRANCH  20  21
ENDBRANCH  18  20
ENDBRANCH   6  18
BRANCH   3  24
HETATM   24  O3  UNL     1     -86.930  68.843  94.817  1.00  0.00    -0.391 OA
ATOM     25  H3  UNL     1     -87.127  69.772  94.829  1.00  0.00     0.210 HD
ENDBRANCH   3  24
BRANCH   5  26
HETATM   26  O5  UNL     1     -89.373  69.816  93.898  1.00  0.00    -0.391 OA
ATOM     27  H5  UNL     1     -90.098  69.996  93.311  1.00  0.00     0.210 HD
ENDBRANCH   5  26
BRANCH   4  28
HETATM   28  O4  UNL     1     -89.411  68.973  97.354  1.00  0.00    -0.390 OA
ATOM     29  H4  UNL     1     -89.782  69.773  97.706  1.00  0.00     0.210 HD
ENDBRANCH   4  28
TORSDOF 10
ENDMDL
MODEL 2
REMARK VINA RESULT: -5.887195805      0.977      1.022
REMARK  10 active torsions:
REMARK  status: ('A' for Active; 'I' for Inactive)
REMARK    1  A    between atoms: C3_4  and  C4_5 
REMARK    2  A    between atoms: C4_5  and  O2_7 
REMARK    3  A    between atoms: O2_7  and  C5_8 
REMARK    4  A    between atoms: C6_9  and  N2_10 
REMARK    5  A    between atoms: C7_14  and  O3_15 
REMARK    6  A    between atoms: C8_17  and  O4_18 
REMARK    7  A    between atoms: C9_20  and  O5_21 
REMARK    8  A    between atoms: C10_23  and  N3_24 
REMARK    9  A    between atoms: N3_24  and  O6_26 
REMARK   10  A    between atoms: O6_26  and  S1_27 
ROOT
HETATM    1  C5  UNL     1     -89.391  66.551  95.528  1.00  0.00     0.192 C 
HETATM    2  C6  UNL     1     -87.929  66.950  95.324  1.00  0.00     0.246 C 
HETATM    3  C7  UNL     1     -87.683  68.357  95.763  1.00  0.00     0.182 C 
HETATM    4  C8  UNL     1     -88.932  69.137  96.044  1.00  0.00     0.179 C 
HETATM    5  C9  UNL     1     -89.987  68.917  95.005  1.00  0.00     0.176 C 
HETATM    6  C10 UNL     1     -90.193  67.491  94.623  1.00  0.00     0.170 C 
ENDROOT
BRANCH   1   7
HETATM    7  O2  UNL     1     -89.551  65.231  95.107  1.00  0.00    -0.308 OA
BRANCH   7   8
HETATM    8  C4  UNL     1     -89.138  64.165  95.890  1.00  0.00     0.284 C 
HETATM    9  O1  UNL     1     -89.243  64.239  97.166  1.00  0.00    -0.260 OA
BRANCH   8  10
HETATM   10  C3  UNL     1     -88.597  62.987  95.270  1.00  0.00     0.103 C 
HETATM   11  C2  UNL     1     -87.332  62.665  95.456  1.00  0.00     0.026 C 
HETATM   12  C1  UNL     1     -86.812  61.433  94.793  1.00  0.00     0.065 C 
HETATM   13  N1  UNL     1     -86.450  63.428  96.247  1.00  0.00    -0.107 NA
ENDBRANCH   8  10
ENDBRANCH   7   8
ENDBRANCH   1   7
BRANCH   2  14
HETATM   14  N2  UNL     1     -87.595  66.725  93.935  1.00  0.00    -0.070 N 
ATOM     15  H23 UNL     1     -88.236  66.078  93.475  1.00  0.00     0.274 HD
ATOM     16  H22 UNL     1     -87.779  67.538  93.348  1.00  0.00     0.274 HD
ATOM     17  H21 UNL     1     -86.624  66.416  93.892  1.00  0.00     0.274 HD
ENDBRANCH   2  14
BRANCH   6  18
HETATM   18  N3  UNL     1     -91.551  67.067  94.618  1.00  0.00    -0.274 N 
ATOM     19  H3  UNL     1     -91.960  66.547  95.395  1.00  0.00     0.189 HD
BRANCH  18  20
HETATM   20  O6  UNL     1     -92.251  67.391  93.542  1.00  0.00    -0.142 OA
BRANCH  20  21
HETATM   21  S1  UNL     1     -93.445  66.317  93.129  1.00  0.00     0.422 S 
HETATM   22  O7  UNL     1     -94.817  66.973  93.106  1.00  0.00    -0.177 OA
HETATM   23  O8  UNL     1     -93.527  65.143  94.033  1.00  0.00    -0.177 OA
ENDBRANCH  20  21
ENDBRANCH  18  20
ENDBRANCH   6  18
BRANCH   3  24
HETATM   24  O3  UNL     1     -87.017  69.028  94.711  1.00  0.00    -0.391 OA
ATOM     25  H3  UNL     1     -86.776  69.892  95.024  1.00  0.00     0.210 HD
ENDBRANCH   3  24
BRANCH   5  26
HETATM   26  O5  UNL     1     -89.595  69.646  93.859  1.00  0.00    -0.391 OA
ATOM     27  H5  UNL     1     -89.951  70.522  93.954  1.00  0.00     0.210 HD
ENDBRANCH   5  26
BRANCH   4  28
HETATM   28  O4  UNL     1     -89.399  68.958  97.344  1.00  0.00    -0.390 OA
ATOM     29  H4  UNL     1     -88.799  69.293  97.999  1.00  0.00     0.210 HD
ENDBRANCH   4  28
TORSDOF 10
ENDMDL
MODEL 3
REMARK VINA RESULT: -5.258642128      1.954      2.495
REMARK  10 active torsions:
REMARK  status: ('A' for Active; 'I' for Inactive)
REMARK    1  A    between atoms: C3_4  and  C4_5 
REMARK    2  A    between atoms: C4_5  and  O2_7 
REMARK    3  A    between atoms: O2_7  and  C5_8 
REMARK    4  A    between atoms: C6_9  and  N2_10 
REMARK    5  A    between atoms: C7_14  and  O3_15 
REMARK    6  A    between atoms: C8_17  and  O4_18 
REMARK    7  A    between atoms: C9_20  and  O5_21 
REMARK    8  A    between atoms: C10_23  and  N3_24 
REMARK    9  A    between atoms: N3_24  and  O6_26 
REMARK   10  A    between atoms: O6_26  and  S1_27 
ROOT
HETATM    1  C5  UNL     1     -89.036  65.096  96.055  1.00  0.00     0.192 C 
HETATM    2  C6  UNL     1     -87.826  65.682  95.325  1.00  0.00     0.246 C 
HETATM    3  C7  UNL     1     -87.939  67.166  95.191  1.00  0.00     0.182 C 
HETATM    4  C8  UNL     1     -89.290  67.711  95.545  1.00  0.00     0.179 C 
HETATM    5  C9  UNL     1     -90.404  66.885  94.981  1.00  0.00     0.176 C 
HETATM    6  C10 UNL     1     -90.238  65.415  95.161  1.00  0.00     0.170 C 
ENDROOT
BRANCH   1   7
HETATM    7  O2  UNL     1     -88.866  63.716  96.153  1.00  0.00    -0.308 OA
BRANCH   7   8
HETATM    8  C4  UNL     1     -87.626  63.154  96.414  1.00  0.00     0.284 C 
HETATM    9  O1  UNL     1     -86.721  63.856  96.988  1.00  0.00    -0.260 OA
BRANCH   8  10
HETATM   10  C3  UNL     1     -87.364  61.791  96.040  1.00  0.00     0.103 C 
HETATM   11  C2  UNL     1     -86.691  61.527  94.937  1.00  0.00     0.026 C 
HETATM   12  C1  UNL     1     -86.442  60.097  94.588  1.00  0.00     0.065 C 
HETATM   13  N1  UNL     1     -86.200  62.527  94.075  1.00  0.00    -0.107 NA
ENDBRANCH   8  10
ENDBRANCH   7   8
ENDBRANCH   1   7
BRANCH   2  14
HETATM   14  N2  UNL     1     -87.706  65.007  94.051  1.00  0.00    -0.070 N 
ATOM     15  H23 UNL     1     -86.751  65.011  93.691  1.00  0.00     0.274 HD
ATOM     16  H22 UNL     1     -87.817  63.996  94.128  1.00  0.00     0.274 HD
ATOM     17  H21 UNL     1     -88.373  65.431  93.407  1.00  0.00     0.274 HD
ENDBRANCH   2  14
BRANCH   6  18
HETATM   18  N3  UNL     1     -91.380  64.747  95.682  1.00  0.00    -0.274 N 
ATOM     19  H3  UNL     1     -91.733  64.927  96.623  1.00  0.00     0.189 HD
BRANCH  18  20
HETATM   20  O6  UNL     1     -91.959  63.877  94.868  1.00  0.00    -0.142 OA
BRANCH  20  21
HETATM   21  S1  UNL     1     -93.348  64.412  94.138  1.00  0.00     0.422 S 
HETATM   22  O7  UNL     1     -93.827  63.457  93.057  1.00  0.00    -0.177 OA
HETATM   23  O8  UNL     1     -93.215  65.755  93.520  1.00  0.00    -0.177 OA
ENDBRANCH  20  21
ENDBRANCH  18  20
ENDBRANCH   6  18
BRANCH   3  24
HETATM   24  O3  UNL     1     -87.715  67.496  93.834  1.00  0.00    -0.391 OA
ATOM     25  H3  UNL     1     -88.512  67.306  93.353  1.00  0.00     0.210 HD
ENDBRANCH   3  24
BRANCH   5  26
HETATM   26  O5  UNL     1     -90.471  67.172  93.599  1.00  0.00    -0.391 OA
ATOM     27  H5  UNL     1     -90.035  66.459  93.146  1.00  0.00     0.210 HD
ENDBRANCH   5  26
BRANCH   4  28
HETATM   28  O4  UNL     1     -89.430  67.962  96.908  1.00  0.00    -0.390 OA
ATOM     29  H4  UNL     1     -90.313  67.804  97.222  1.00  0.00     0.210 HD
ENDBRANCH   4  28
TORSDOF 10
ENDMDL
MODEL 4
REMARK VINA RESULT: -5.171384823      2.710      5.969
REMARK  10 active torsions:
REMARK  status: ('A' for Active; 'I' for Inactive)
REMARK    1  A    between atoms: C3_4  and  C4_5 
REMARK    2  A    between atoms: C4_5  and  O2_7 
REMARK    3  A    between atoms: O2_7  and  C5_8 
REMARK    4  A    between atoms: C6_9  and  N2_10 
REMARK    5  A    between atoms: C7_14  and  O3_15 
REMARK    6  A    between atoms: C8_17  and  O4_18 
REMARK    7  A    between atoms: C9_20  and  O5_21 
REMARK    8  A    between atoms: C10_23  and  N3_24 
REMARK    9  A    between atoms: N3_24  and  O6_26 
REMARK   10  A    between atoms: O6_26  and  S1_27 
ROOT
HETATM    1  C5  UNL     1     -90.196  66.026  94.962  1.00  0.00     0.192 C 
HETATM    2  C6  UNL     1     -91.468  65.185  95.072  1.00  0.00     0.246 C 
HETATM    3  C7  UNL     1     -91.377  64.206  96.197  1.00  0.00     0.182 C 
HETATM    4  C8  UNL     1     -90.003  64.073  96.782  1.00  0.00     0.179 C 
HETATM    5  C9  UNL     1     -88.939  64.012  95.731  1.00  0.00     0.176 C 
HETATM    6  C10 UNL     1     -89.079  65.025  94.648  1.00  0.00     0.170 C 
ENDROOT
BRANCH   1   7
HETATM    7  O2  UNL     1     -90.348  66.921  93.904  1.00  0.00    -0.308 OA
BRANCH   7   8
HETATM    8  C4  UNL     1     -91.233  67.984  93.974  1.00  0.00     0.284 C 
HETATM    9  O1  UNL     1     -90.779  69.181  94.043  1.00  0.00    -0.260 OA
BRANCH   8  10
HETATM   10  C3  UNL     1     -92.650  67.741  93.968  1.00  0.00     0.103 C 
HETATM   11  C2  UNL     1     -93.240  67.311  92.870  1.00  0.00     0.026 C 
HETATM   12  C1  UNL     1     -94.713  67.072  92.909  1.00  0.00     0.065 C 
HETATM   13  N1  UNL     1     -92.549  67.068  91.666  1.00  0.00    -0.107 NA
ENDBRANCH   8  10
ENDBRANCH   7   8
ENDBRANCH   1   7
BRANCH   2  14
HETATM   14  N2  UNL     1     -91.698  64.555  93.791  1.00  0.00    -0.070 N 
ATOM     15  H23 UNL     1     -90.896  64.015  93.467  1.00  0.00     0.274 HD
ATOM     16  H22 UNL     1     -92.366  63.787  93.842  1.00  0.00     0.274 HD
ATOM     17  H21 UNL     1     -91.979  65.281  93.131  1.00  0.00     0.274 HD
ENDBRANCH   2  14
BRANCH   6  18
HETATM   18  N3  UNL     1     -87.891  65.749  94.353  1.00  0.00    -0.274 N 
ATOM     19  H3  UNL     1     -87.462  65.735  93.427  1.00  0.00     0.189 HD
BRANCH  18  20
HETATM   20  O6  UNL     1     -87.377  66.443  95.357  1.00  0.00    -0.142 OA
BRANCH  20  21
HETATM   21  S1  UNL     1     -87.208  68.069  95.075  1.00  0.00     0.422 S 
HETATM   22  O7  UNL     1     -85.788  68.547  95.333  1.00  0.00    -0.177 OA
HETATM   23  O8  UNL     1     -88.117  68.911  95.891  1.00  0.00    -0.177 OA
ENDBRANCH  20  21
ENDBRANCH  18  20
ENDBRANCH   6  18
BRANCH   3  24
HETATM   24  O3  UNL     1     -91.723  62.932  95.689  1.00  0.00    -0.391 OA
ATOM     25  H3  UNL     1     -91.219  62.787  94.897  1.00  0.00     0.210 HD
ENDBRANCH   3  24
BRANCH   5  26
HETATM   26  O5  UNL     1     -88.997  62.720  95.161  1.00  0.00    -0.391 OA
ATOM     27  H5  UNL     1     -88.904  62.099  95.874  1.00  0.00     0.210 HD
ENDBRANCH   5  26
BRANCH   4  28
HETATM   28  O4  UNL     1     -89.744  65.021  97.769  1.00  0.00    -0.390 OA
ATOM     29  H4  UNL     1     -88.822  65.237  97.839  1.00  0.00     0.210 HD
ENDBRANCH   4  28
TORSDOF 10
ENDMDL
MODEL 5
REMARK VINA RESULT: -5.157357943      1.874      5.070
REMARK  10 active torsions:
REMARK  status: ('A' for Active; 'I' for Inactive)
REMARK    1  A    between atoms: C3_4  and  C4_5 
REMARK    2  A    between atoms: C4_5  and  O2_7 
REMARK    3  A    between atoms: O2_7  and  C5_8 
REMARK    4  A    between atoms: C6_9  and  N2_10 
REMARK    5  A    between atoms: C7_14  and  O3_15 
REMARK    6  A    between atoms: C8_17  and  O4_18 
REMARK    7  A    between atoms: C9_20  and  O5_21 
REMARK    8  A    between atoms: C10_23  and  N3_24 
REMARK    9  A    between atoms: N3_24  and  O6_26 
REMARK   10  A    between atoms: O6_26  and  S1_27 
ROOT
HETATM    1  C5  UNL     1     -89.350  65.975  95.420  1.00  0.00     0.192 C 
HETATM    2  C6  UNL     1     -88.977  65.177  96.670  1.00  0.00     0.246 C 
HETATM    3  C7  UNL     1     -88.894  63.715  96.377  1.00  0.00     0.182 C 
HETATM    4  C8  UNL     1     -89.441  63.328  95.035  1.00  0.00     0.179 C 
HETATM    5  C9  UNL     1     -90.733  64.018  94.726  1.00  0.00     0.176 C 
HETATM    6  C10 UNL     1     -90.744  65.477  95.026  1.00  0.00     0.170 C 
ENDROOT
BRANCH   1   7
HETATM    7  O2  UNL     1     -89.404  67.327  95.758  1.00  0.00    -0.308 OA
BRANCH   7   8
HETATM    8  C4  UNL     1     -88.508  68.243  95.231  1.00  0.00     0.284 C 
HETATM    9  O1  UNL     1     -87.451  67.825  94.637  1.00  0.00    -0.260 OA
BRANCH   8  10
HETATM   10  C3  UNL     1     -88.766  69.651  95.353  1.00  0.00     0.103 C 
HETATM   11  C2  UNL     1     -89.774  70.196  94.700  1.00  0.00     0.026 C 
HETATM   12  C1  UNL     1     -90.005  71.662  94.856  1.00  0.00     0.065 C 
HETATM   13  N1  UNL     1     -90.639  69.461  93.864  1.00  0.00    -0.107 NA
ENDBRANCH   8  10
ENDBRANCH   7   8
ENDBRANCH   1   7
BRANCH   2  14
HETATM   14  N2  UNL     1     -89.939  65.493  97.703  1.00  0.00    -0.070 N 
ATOM     15  H23 UNL     1     -90.552  66.268  97.448  1.00  0.00     0.274 HD
ATOM     16  H22 UNL     1     -90.659  64.778  97.804  1.00  0.00     0.274 HD
ATOM     17  H21 UNL     1     -89.425  65.663  98.568  1.00  0.00     0.274 HD
ENDBRANCH   2  14
BRANCH   6  18
HETATM   18  N3  UNL     1     -91.239  66.297  93.975  1.00  0.00    -0.274 N 
ATOM     19  H3  UNL     1     -90.661  66.568  93.180  1.00  0.00     0.189 HD
BRANCH  18  20
HETATM   20  O6  UNL     1     -92.500  66.686  94.094  1.00  0.00    -0.142 OA
BRANCH  20  21
HETATM   21  S1  UNL     1     -93.563  65.955  93.051  1.00  0.00     0.422 S 
HETATM   22  O7  UNL     1     -94.931  66.618  93.077  1.00  0.00    -0.177 OA
HETATM   23  O8  UNL     1     -93.763  64.510  93.323  1.00  0.00    -0.177 OA
ENDBRANCH  20  21
ENDBRANCH  18  20
ENDBRANCH   6  18
BRANCH   3  24
HETATM   24  O3  UNL     1     -89.675  63.035  97.340  1.00  0.00    -0.391 OA
ATOM     25  H3  UNL     1     -89.811  62.148  97.031  1.00  0.00     0.210 HD
ENDBRANCH   3  24
BRANCH   5  26
HETATM   26  O5  UNL     1     -91.733  63.383  95.497  1.00  0.00    -0.391 OA
ATOM     27  H5  UNL     1     -92.313  64.066  95.815  1.00  0.00     0.210 HD
ENDBRANCH   5  26
BRANCH   4  28
HETATM   28  O4  UNL     1     -88.499  63.446  94.015  1.00  0.00    -0.390 OA
ATOM     29  H4  UNL     1     -88.165  64.330  93.924  1.00  0.00     0.210 HD
ENDBRANCH   4  28
TORSDOF 10
ENDMDL
