MODEL 1
REMARK VINA RESULT: -7.306661366      0.000      0.000
REMARK  9 active torsions:
REMARK  status: ('A' for Active; 'I' for Inactive)
REMARK    1  A    between atoms: O1_2  and  C2_3 
REMARK    2  A    between atoms: C6_9  and  C7_10 
REMARK    3  A    between atoms: C7_10  and  O4_11 
REMARK    4  A    between atoms: O4_11  and  C8_12 
REMARK    5  A    between atoms: C9_13  and  N1_14 
REMARK    6  A    between atoms: C10_19  and  O6_20 
REMARK    7  A    between atoms: C11_22  and  O7_23 
REMARK    8  A    between atoms: C12_25  and  O8_26 
REMARK    9  A    between atoms: C13_28  and  O9_29 
ROOT
HETATM    1  C8  UNL     1     -87.326  60.441  93.877  1.00  0.00     0.209 C 
HETATM    2  C9  UNL     1     -88.098  59.252  93.386  1.00  0.00     0.352 C 
HETATM    3  O5  UNL     1     -87.992  58.138  94.175  1.00  0.00    -0.324 OA
HETATM    4  C10 UNL     1     -86.677  57.699  94.245  1.00  0.00     0.290 C 
HETATM    5  C11 UNL     1     -85.896  58.717  95.027  1.00  0.00     0.204 C 
HETATM    6  C12 UNL     1     -86.041  60.109  94.556  1.00  0.00     0.185 C 
ENDROOT
BRANCH   1   7
HETATM    7  O4  UNL     1     -88.155  61.188  94.708  1.00  0.00    -0.376 OA
BRANCH   7   8
HETATM    8  C7  UNL     1     -87.930  62.551  94.549  1.00  0.00     0.203 C 
BRANCH   8   9
HETATM    9  C6  UNL     1     -88.815  63.376  95.458  1.00  0.00     0.182 C 
HETATM   10  O3  UNL     1     -90.080  63.376  94.880  1.00  0.00    -0.346 OA
HETATM   11  C3  UNL     1     -90.935  64.271  95.506  1.00  0.00     0.160 C 
HETATM   12  O2  UNL     1     -90.397  64.870  96.603  1.00  0.00    -0.324 OA
HETATM   13  C4  UNL     1     -91.270  65.340  94.490  1.00  0.00     0.078 C 
HETATM   14  C5  UNL     1     -92.232  63.566  95.846  1.00  0.00     0.078 C 
HETATM   15  C2  UNL     1     -89.258  65.578  96.406  1.00  0.00     0.293 C 
HETATM   16  C13 UNL     1     -88.262  64.743  95.656  1.00  0.00     0.204 C 
BRANCH  15  17
HETATM   17  O1  UNL     1     -89.474  66.816  95.805  1.00  0.00    -0.363 OA
HETATM   18  C1  UNL     1     -88.390  67.300  95.114  1.00  0.00     0.204 C 
ENDBRANCH  15  17
BRANCH  16  19
HETATM   19  O9  UNL     1     -87.033  64.647  96.310  1.00  0.00    -0.388 OA
ATOM     20  H9  UNL     1     -86.323  64.400  95.728  1.00  0.00     0.210 HD
ENDBRANCH  16  19
ENDBRANCH   8   9
ENDBRANCH   7   8
ENDBRANCH   1   7
BRANCH   2  21
HETATM   21  N1  UNL     1     -87.749  58.969  92.005  1.00  0.00    -0.050 N 
ATOM     22  H13 UNL     1     -87.589  59.822  91.469  1.00  0.00     0.277 HD
ATOM     23  H12 UNL     1     -86.817  58.563  91.921  1.00  0.00     0.277 HD
ATOM     24  H11 UNL     1     -88.463  58.378  91.579  1.00  0.00     0.277 HD
ENDBRANCH   2  21
BRANCH   6  25
HETATM   25  O8  UNL     1     -84.935  60.422  93.750  1.00  0.00    -0.390 OA
ATOM     26  H8  UNL     1     -84.470  59.641  93.474  1.00  0.00     0.210 HD
ENDBRANCH   6  25
BRANCH   5  27
HETATM   27  O7  UNL     1     -84.549  58.288  95.009  1.00  0.00    -0.388 OA
ATOM     28  H7  UNL     1     -84.407  57.885  94.160  1.00  0.00     0.210 HD
ENDBRANCH   5  27
BRANCH   4  29
HETATM   29  O6  UNL     1     -86.126  57.390  93.028  1.00  0.00    -0.368 OA
ATOM     30  H6  UNL     1     -85.925  58.147  92.490  1.00  0.00     0.212 HD
ENDBRANCH   4  29
TORSDOF 9
ENDMDL
MODEL 2
REMARK VINA RESULT: -6.435103527      2.117      3.602
REMARK  9 active torsions:
REMARK  status: ('A' for Active; 'I' for Inactive)
REMARK    1  A    between atoms: O1_2  and  C2_3 
REMARK    2  A    between atoms: C6_9  and  C7_10 
REMARK    3  A    between atoms: C7_10  and  O4_11 
REMARK    4  A    between atoms: O4_11  and  C8_12 
REMARK    5  A    between atoms: C9_13  and  N1_14 
REMARK    6  A    between atoms: C10_19  and  O6_20 
REMARK    7  A    between atoms: C11_22  and  O7_23 
REMARK    8  A    between atoms: C12_25  and  O8_26 
REMARK    9  A    between atoms: C13_28  and  O9_29 
ROOT
HETATM    1  C8  UNL     1     -87.763  62.861  95.927  1.00  0.00     0.209 C 
HETATM    2  C9  UNL     1     -87.873  62.701  94.440  1.00  0.00     0.352 C 
HETATM    3  O5  UNL     1     -87.982  61.405  94.011  1.00  0.00    -0.324 OA
HETATM    4  C10 UNL     1     -86.859  60.668  94.362  1.00  0.00     0.290 C 
HETATM    5  C11 UNL     1     -86.864  60.511  95.856  1.00  0.00     0.204 C 
HETATM    6  C12 UNL     1     -87.018  61.768  96.614  1.00  0.00     0.185 C 
ENDROOT
BRANCH   1   7
HETATM    7  O4  UNL     1     -89.045  63.001  96.449  1.00  0.00    -0.376 OA
BRANCH   7   8
HETATM    8  C7  UNL     1     -89.292  64.315  96.830  1.00  0.00     0.203 C 
BRANCH   8   9
HETATM    9  C6  UNL     1     -89.219  65.263  95.653  1.00  0.00     0.182 C 
HETATM   10  O3  UNL     1     -88.542  66.394  96.100  1.00  0.00    -0.346 OA
HETATM   11  C3  UNL     1     -88.593  67.427  95.175  1.00  0.00     0.160 C 
HETATM   12  O2  UNL     1     -89.190  67.085  94.002  1.00  0.00    -0.324 OA
HETATM   13  C4  UNL     1     -89.387  68.545  95.812  1.00  0.00     0.078 C 
HETATM   14  C5  UNL     1     -87.193  67.957  94.945  1.00  0.00     0.078 C 
HETATM   15  C2  UNL     1     -90.471  66.646  94.082  1.00  0.00     0.293 C 
HETATM   16  C13 UNL     1     -90.575  65.566  95.119  1.00  0.00     0.204 C 
BRANCH  15  17
HETATM   17  O1  UNL     1     -91.394  67.668  94.283  1.00  0.00    -0.363 OA
HETATM   18  C1  UNL     1     -92.509  67.580  93.486  1.00  0.00     0.204 C 
ENDBRANCH  15  17
BRANCH  16  19
HETATM   19  O9  UNL     1     -91.143  64.392  94.624  1.00  0.00    -0.388 OA
ATOM     20  H9  UNL     1     -90.529  63.868  94.122  1.00  0.00     0.210 HD
ENDBRANCH  16  19
ENDBRANCH   8   9
ENDBRANCH   7   8
ENDBRANCH   1   7
BRANCH   2  21
HETATM   21  N1  UNL     1     -86.779  63.395  93.783  1.00  0.00    -0.050 N 
ATOM     22  H13 UNL     1     -86.029  63.627  94.434  1.00  0.00     0.277 HD
ATOM     23  H12 UNL     1     -86.254  62.780  93.163  1.00  0.00     0.277 HD
ATOM     24  H11 UNL     1     -87.131  64.219  93.295  1.00  0.00     0.277 HD
ENDBRANCH   2  21
BRANCH   6  25
HETATM   25  O8  UNL     1     -85.747  62.192  97.033  1.00  0.00    -0.390 OA
ATOM     26  H8  UNL     1     -85.161  61.458  97.174  1.00  0.00     0.210 HD
ENDBRANCH   6  25
BRANCH   5  27
HETATM   27  O7  UNL     1     -85.669  59.832  96.191  1.00  0.00    -0.388 OA
ATOM     28  H7  UNL     1     -85.808  59.452  97.051  1.00  0.00     0.210 HD
ENDBRANCH   5  27
BRANCH   4  29
HETATM   29  O6  UNL     1     -85.684  61.165  93.859  1.00  0.00    -0.368 OA
ATOM     30  H6  UNL     1     -84.905  60.774  94.235  1.00  0.00     0.212 HD
ENDBRANCH   4  29
TORSDOF 9
ENDMDL
MODEL 3
REMARK VINA RESULT: -6.433770733      1.454      2.176
REMARK  9 active torsions:
REMARK  status: ('A' for Active; 'I' for Inactive)
REMARK    1  A    between atoms: O1_2  and  C2_3 
REMARK    2  A    between atoms: C6_9  and  C7_10 
REMARK    3  A    between atoms: C7_10  and  O4_11 
REMARK    4  A    between atoms: O4_11  and  C8_12 
REMARK    5  A    between atoms: C9_13  and  N1_14 
REMARK    6  A    between atoms: C10_19  and  O6_20 
REMARK    7  A    between atoms: C11_22  and  O7_23 
REMARK    8  A    between atoms: C12_25  and  O8_26 
REMARK    9  A    between atoms: C13_28  and  O9_29 
ROOT
HETATM    1  C8  UNL     1     -87.791  61.045  94.454  1.00  0.00     0.209 C 
HETATM    2  C9  UNL     1     -86.435  61.234  95.067  1.00  0.00     0.352 C 
HETATM    3  O5  UNL     1     -85.388  60.929  94.238  1.00  0.00    -0.324 OA
HETATM    4  C10 UNL     1     -85.421  59.593  93.864  1.00  0.00     0.290 C 
HETATM    5  C11 UNL     1     -86.607  59.401  92.961  1.00  0.00     0.204 C 
HETATM    6  C12 UNL     1     -87.886  59.907  93.497  1.00  0.00     0.185 C 
ENDROOT
BRANCH   1   7
HETATM    7  O4  UNL     1     -88.171  62.241  93.853  1.00  0.00    -0.376 OA
BRANCH   7   8
HETATM    8  C7  UNL     1     -87.625  63.333  94.518  1.00  0.00     0.203 C 
BRANCH   8   9
HETATM    9  C6  UNL     1     -88.675  64.097  95.298  1.00  0.00     0.182 C 
HETATM   10  O3  UNL     1     -89.907  63.591  94.896  1.00  0.00    -0.346 OA
HETATM   11  C3  UNL     1     -90.961  64.351  95.382  1.00  0.00     0.160 C 
HETATM   12  O2  UNL     1     -90.578  65.348  96.223  1.00  0.00    -0.324 OA
HETATM   13  C4  UNL     1     -91.645  64.968  94.182  1.00  0.00     0.078 C 
HETATM   14  C5  UNL     1     -91.973  63.436  96.041  1.00  0.00     0.078 C 
HETATM   15  C2  UNL     1     -89.711  66.263  95.720  1.00  0.00     0.293 C 
HETATM   16  C13 UNL     1     -88.546  65.563  95.083  1.00  0.00     0.204 C 
BRANCH  15  17
HETATM   17  O1  UNL     1     -90.313  67.182  94.864  1.00  0.00    -0.363 OA
HETATM   18  C1  UNL     1     -89.796  68.451  94.953  1.00  0.00     0.204 C 
ENDBRANCH  15  17
BRANCH  16  19
HETATM   19  O9  UNL     1     -87.317  65.992  95.586  1.00  0.00    -0.388 OA
ATOM     20  H9  UNL     1     -87.087  65.570  96.406  1.00  0.00     0.210 HD
ENDBRANCH  16  19
ENDBRANCH   8   9
ENDBRANCH   7   8
ENDBRANCH   1   7
BRANCH   2  21
HETATM   21  N1  UNL     1     -86.353  60.516  96.325  1.00  0.00    -0.050 N 
ATOM     22  H13 UNL     1     -85.438  60.085  96.461  1.00  0.00     0.277 HD
ATOM     23  H12 UNL     1     -86.341  61.147  97.126  1.00  0.00     0.277 HD
ATOM     24  H11 UNL     1     -87.109  59.834  96.388  1.00  0.00     0.277 HD
ENDBRANCH   2  21
BRANCH   6  25
HETATM   25  O8  UNL     1     -88.595  58.827  94.046  1.00  0.00    -0.390 OA
ATOM     26  H8  UNL     1     -89.475  59.079  94.301  1.00  0.00     0.210 HD
ENDBRANCH   6  25
BRANCH   5  27
HETATM   27  O7  UNL     1     -86.665  58.019  92.665  1.00  0.00    -0.388 OA
ATOM     28  H7  UNL     1     -85.774  57.748  92.476  1.00  0.00     0.210 HD
ENDBRANCH   5  27
BRANCH   4  29
HETATM   29  O6  UNL     1     -85.376  58.716  94.917  1.00  0.00    -0.368 OA
ATOM     30  H6  UNL     1     -85.188  57.819  94.667  1.00  0.00     0.212 HD
ENDBRANCH   4  29
TORSDOF 9
ENDMDL
MODEL 4
REMARK VINA RESULT: -6.368758975      2.547      7.283
REMARK  9 active torsions:
REMARK  status: ('A' for Active; 'I' for Inactive)
REMARK    1  A    between atoms: O1_2  and  C2_3 
REMARK    2  A    between atoms: C6_9  and  C7_10 
REMARK    3  A    between atoms: C7_10  and  O4_11 
REMARK    4  A    between atoms: O4_11  and  C8_12 
REMARK    5  A    between atoms: C9_13  and  N1_14 
REMARK    6  A    between atoms: C10_19  and  O6_20 
REMARK    7  A    between atoms: C11_22  and  O7_23 
REMARK    8  A    between atoms: C12_25  and  O8_26 
REMARK    9  A    between atoms: C13_28  and  O9_29 
ROOT
HETATM    1  C8  UNL     1     -87.222  61.420  94.823  1.00  0.00     0.209 C 
HETATM    2  C9  UNL     1     -87.284  61.500  96.320  1.00  0.00     0.352 C 
HETATM    3  O5  UNL     1     -88.242  62.348  96.807  1.00  0.00    -0.324 OA
HETATM    4  C10 UNL     1     -88.009  63.653  96.394  1.00  0.00     0.290 C 
HETATM    5  C11 UNL     1     -88.253  63.714  94.912  1.00  0.00     0.204 C 
HETATM    6  C12 UNL     1     -87.535  62.696  94.120  1.00  0.00     0.185 C 
ENDROOT
BRANCH   1   7
HETATM    7  O4  UNL     1     -88.066  60.395  94.404  1.00  0.00    -0.376 OA
BRANCH   7   8
HETATM    8  C7  UNL     1     -87.819  60.051  93.080  1.00  0.00     0.203 C 
BRANCH   8   9
HETATM    9  C6  UNL     1     -87.600  58.562  92.919  1.00  0.00     0.182 C 
HETATM   10  O3  UNL     1     -88.082  57.967  94.081  1.00  0.00    -0.346 OA
HETATM   11  C3  UNL     1     -87.748  56.622  94.149  1.00  0.00     0.160 C 
HETATM   12  O2  UNL     1     -87.126  56.152  93.035  1.00  0.00    -0.324 OA
HETATM   13  C4  UNL     1     -86.813  56.462  95.327  1.00  0.00     0.078 C 
HETATM   14  C5  UNL     1     -88.992  55.816  94.464  1.00  0.00     0.078 C 
HETATM   15  C2  UNL     1     -85.968  56.765  92.686  1.00  0.00     0.293 C 
HETATM   16  C13 UNL     1     -86.169  58.252  92.653  1.00  0.00     0.204 C 
BRANCH  15  17
HETATM   17  O1  UNL     1     -84.885  56.392  93.478  1.00  0.00    -0.363 OA
HETATM   18  C1  UNL     1     -84.327  55.186  93.132  1.00  0.00     0.204 C 
ENDBRANCH  15  17
BRANCH  16  19
HETATM   19  O9  UNL     1     -85.798  58.822  91.435  1.00  0.00    -0.388 OA
ATOM     20  H9  UNL     1     -86.545  59.076  90.904  1.00  0.00     0.210 HD
ENDBRANCH  16  19
ENDBRANCH   8   9
ENDBRANCH   7   8
ENDBRANCH   1   7
BRANCH   2  21
HETATM   21  N1  UNL     1     -85.970  61.807  96.855  1.00  0.00    -0.050 N 
ATOM     22  H13 UNL     1     -85.251  61.188  96.481  1.00  0.00     0.277 HD
ATOM     23  H12 UNL     1     -85.607  62.690  96.497  1.00  0.00     0.277 HD
ATOM     24  H11 UNL     1     -85.996  61.791  97.875  1.00  0.00     0.277 HD
ENDBRANCH   2  21
BRANCH   6  25
HETATM   25  O8  UNL     1     -86.380  63.286  93.581  1.00  0.00    -0.390 OA
ATOM     26  H8  UNL     1     -86.552  64.164  93.263  1.00  0.00     0.210 HD
ENDBRANCH   6  25
BRANCH   5  27
HETATM   27  O7  UNL     1     -87.926  65.029  94.507  1.00  0.00    -0.388 OA
ATOM     28  H7  UNL     1     -86.988  65.122  94.627  1.00  0.00     0.210 HD
ENDBRANCH   5  27
BRANCH   4  29
HETATM   29  O6  UNL     1     -86.790  64.151  96.778  1.00  0.00    -0.368 OA
ATOM     30  H6  UNL     1     -86.342  63.621  97.427  1.00  0.00     0.212 HD
ENDBRANCH   4  29
TORSDOF 9
ENDMDL
MODEL 5
REMARK VINA RESULT: -5.866618434      2.131      7.053
REMARK  9 active torsions:
REMARK  status: ('A' for Active; 'I' for Inactive)
REMARK    1  A    between atoms: O1_2  and  C2_3 
REMARK    2  A    between atoms: C6_9  and  C7_10 
REMARK    3  A    between atoms: C7_10  and  O4_11 
REMARK    4  A    between atoms: O4_11  and  C8_12 
REMARK    5  A    between atoms: C9_13  and  N1_14 
REMARK    6  A    between atoms: C10_19  and  O6_20 
REMARK    7  A    between atoms: C11_22  and  O7_23 
REMARK    8  A    between atoms: C12_25  and  O8_26 
REMARK    9  A    between atoms: C13_28  and  O9_29 
ROOT
HETATM    1  C8  UNL     1     -87.527  64.110  95.316  1.00  0.00     0.209 C 
HETATM    2  C9  UNL     1     -88.554  63.358  96.109  1.00  0.00     0.352 C 
HETATM    3  O5  UNL     1     -89.838  63.490  95.651  1.00  0.00    -0.324 OA
HETATM    4  C10 UNL     1     -90.253  64.814  95.703  1.00  0.00     0.290 C 
HETATM    5  C11 UNL     1     -89.468  65.580  94.676  1.00  0.00     0.204 C 
HETATM    6  C12 UNL     1     -88.004  65.406  94.754  1.00  0.00     0.185 C 
ENDROOT
BRANCH   1   7
HETATM    7  O4  UNL     1     -87.049  63.273  94.312  1.00  0.00    -0.376 OA
BRANCH   7   8
HETATM    8  C7  UNL     1     -87.789  62.097  94.244  1.00  0.00     0.203 C 
BRANCH   8   9
HETATM    9  C6  UNL     1     -86.906  60.892  94.003  1.00  0.00     0.182 C 
HETATM   10  O3  UNL     1     -87.491  60.178  92.962  1.00  0.00    -0.346 OA
HETATM   11  C3  UNL     1     -86.893  58.939  92.784  1.00  0.00     0.160 C 
HETATM   12  O2  UNL     1     -85.809  58.733  93.579  1.00  0.00    -0.324 OA
HETATM   13  C4  UNL     1     -87.938  57.897  93.114  1.00  0.00     0.078 C 
HETATM   14  C5  UNL     1     -86.542  58.761  91.321  1.00  0.00     0.078 C 
HETATM   15  C2  UNL     1     -86.018  58.813  94.917  1.00  0.00     0.293 C 
HETATM   16  C13 UNL     1     -86.741  60.087  95.244  1.00  0.00     0.204 C 
BRANCH  15  17
HETATM   17  O1  UNL     1     -86.651  57.692  95.446  1.00  0.00    -0.363 OA
HETATM   18  C1  UNL     1     -86.000  56.509  95.192  1.00  0.00     0.204 C 
ENDBRANCH  15  17
BRANCH  16  19
HETATM   19  O9  UNL     1     -86.077  60.856  96.201  1.00  0.00    -0.388 OA
ATOM     20  H9  UNL     1     -85.254  60.471  96.478  1.00  0.00     0.210 HD
ENDBRANCH  16  19
ENDBRANCH   8   9
ENDBRANCH   7   8
ENDBRANCH   1   7
BRANCH   2  21
HETATM   21  N1  UNL     1     -88.446  63.703  97.515  1.00  0.00    -0.050 N 
ATOM     22  H13 UNL     1     -87.600  64.235  97.714  1.00  0.00     0.277 HD
ATOM     23  H12 UNL     1     -89.132  64.406  97.790  1.00  0.00     0.277 HD
ATOM     24  H11 UNL     1     -88.512  62.861  98.087  1.00  0.00     0.277 HD
ENDBRANCH   2  21
BRANCH   6  25
HETATM   25  O8  UNL     1     -87.463  66.500  95.446  1.00  0.00    -0.390 OA
ATOM     26  H8  UNL     1     -88.116  67.171  95.607  1.00  0.00     0.210 HD
ENDBRANCH   6  25
BRANCH   5  27
HETATM   27  O7  UNL     1     -89.849  66.935  94.811  1.00  0.00    -0.388 OA
ATOM     28  H7  UNL     1     -89.105  67.386  95.195  1.00  0.00     0.210 HD
ENDBRANCH   5  27
BRANCH   4  29
HETATM   29  O6  UNL     1     -90.210  65.363  96.960  1.00  0.00    -0.368 OA
ATOM     30  H6  UNL     1     -90.909  65.983  97.135  1.00  0.00     0.212 HD
ENDBRANCH   4  29
TORSDOF 9
ENDMDL
