MODEL 1
REMARK VINA RESULT: -6.953248112      0.000      0.000
REMARK  10 active torsions:
REMARK  status: ('A' for Active; 'I' for Inactive)
REMARK    1  A    between atoms: O1_2  and  C2_3 
REMARK    2  A    between atoms: C3_5  and  C4_6 
REMARK    3  A    between atoms: C4_6  and  O3_7 
REMARK    4  A    between atoms: C5_10  and  O5_11 
REMARK    5  A    between atoms: O5_11  and  C6_12 
REMARK    6  A    between atoms: C8_14  and  C9_15 
REMARK    7  A    between atoms: N1_16  and  N2_18 
REMARK    8  A    between atoms: C10_21  and  O6_22 
REMARK    9  A    between atoms: C11_24  and  N3_25 
REMARK   10  A    between atoms: C12_29  and  O7_30 
ROOT
HETATM    1  C6  UNL     1     -89.767  64.950  95.411  1.00  0.00     0.158 C 
HETATM    2  C7  UNL     1     -89.469  63.634  94.730  1.00  0.00     0.046 C 
HETATM    3  C8  UNL     1     -88.192  63.149  95.349  1.00  0.00     0.059 C 
HETATM    4  C10 UNL     1     -87.820  64.135  96.434  1.00  0.00     0.160 C 
HETATM    5  C11 UNL     1     -88.398  65.430  95.848  1.00  0.00     0.241 C 
ENDROOT
BRANCH   1   6
HETATM    6  O5  UNL     1     -90.335  65.875  94.583  1.00  0.00    -0.351 OA
BRANCH   6   7
HETATM    7  C5  UNL     1     -91.712  65.709  94.578  1.00  0.00     0.297 C 
HETATM    8  O4  UNL     1     -91.974  64.373  94.449  1.00  0.00    -0.327 OA
HETATM    9  C3  UNL     1     -93.182  63.990  94.027  1.00  0.00     0.289 C 
HETATM   10  O2  UNL     1     -93.883  64.813  93.194  1.00  0.00    -0.327 OA
HETATM   11  C2  UNL     1     -93.843  66.152  93.509  1.00  0.00     0.295 C 
HETATM   12  C12 UNL     1     -92.388  66.569  93.544  1.00  0.00     0.228 C 
BRANCH   9  13
HETATM   13  C4  UNL     1     -94.060  63.753  95.267  1.00  0.00     0.225 C 
BRANCH  13  14
HETATM   14  O3  UNL     1     -93.730  62.560  95.893  1.00  0.00    -0.396 OA
ATOM     15  H3  UNL     1     -94.086  62.526  96.774  1.00  0.00     0.209 HD
ENDBRANCH  13  14
ENDBRANCH   9  13
BRANCH  11  16
HETATM   16  O1  UNL     1     -94.466  66.857  92.483  1.00  0.00    -0.363 OA
HETATM   17  C1  UNL     1     -95.704  67.284  92.960  1.00  0.00     0.204 C 
ENDBRANCH  11  16
BRANCH  12  18
HETATM   18  O7  UNL     1     -92.345  67.899  93.960  1.00  0.00    -0.386 OA
ATOM     19  H7  UNL     1     -91.971  68.407  93.250  1.00  0.00     0.210 HD
ENDBRANCH  12  18
ENDBRANCH   6   7
ENDBRANCH   1   6
BRANCH   5  20
HETATM   20  N3  UNL     1     -87.632  65.873  94.702  1.00  0.00    -0.070 N 
ATOM     21  H33 UNL     1     -87.840  65.322  93.869  1.00  0.00     0.274 HD
ATOM     22  H32 UNL     1     -87.947  66.782  94.363  1.00  0.00     0.274 HD
ATOM     23  H31 UNL     1     -86.636  65.872  94.920  1.00  0.00     0.274 HD
ENDBRANCH   5  20
BRANCH   3  24
HETATM   24  C9  UNL     1     -87.105  63.036  94.335  1.00  0.00     0.087 C 
HETATM   25  N1  UNL     1     -86.231  62.087  94.390  1.00  0.00    -0.322 N 
ATOM     26  H1  UNL     1     -85.496  62.028  93.686  1.00  0.00     0.185 HD
BRANCH  25  27
HETATM   27  N2  UNL     1     -86.297  61.143  95.416  1.00  0.00    -0.346 N 
ATOM     28  H22 UNL     1     -87.173  60.648  95.579  1.00  0.00     0.176 HD
ATOM     29  H21 UNL     1     -85.473  60.959  95.988  1.00  0.00     0.176 HD
ENDBRANCH  25  27
ENDBRANCH   3  24
BRANCH   4  30
HETATM   30  O6  UNL     1     -88.547  63.842  97.582  1.00  0.00    -0.393 OA
ATOM     31  H6  UNL     1     -88.130  64.257  98.328  1.00  0.00     0.210 HD
ENDBRANCH   4  30
TORSDOF 10
ENDMDL
MODEL 2
REMARK VINA RESULT: -5.843837313      2.960      4.731
REMARK  10 active torsions:
REMARK  status: ('A' for Active; 'I' for Inactive)
REMARK    1  A    between atoms: O1_2  and  C2_3 
REMARK    2  A    between atoms: C3_5  and  C4_6 
REMARK    3  A    between atoms: C4_6  and  O3_7 
REMARK    4  A    between atoms: C5_10  and  O5_11 
REMARK    5  A    between atoms: O5_11  and  C6_12 
REMARK    6  A    between atoms: C8_14  and  C9_15 
REMARK    7  A    between atoms: N1_16  and  N2_18 
REMARK    8  A    between atoms: C10_21  and  O6_22 
REMARK    9  A    between atoms: C11_24  and  N3_25 
REMARK   10  A    between atoms: C12_29  and  O7_30 
ROOT
HETATM    1  C6  UNL     1     -89.480  64.770  94.963  1.00  0.00     0.158 C 
HETATM    2  C7  UNL     1     -87.981  64.933  95.055  1.00  0.00     0.046 C 
HETATM    3  C8  UNL     1     -87.457  63.578  95.426  1.00  0.00     0.059 C 
HETATM    4  C10 UNL     1     -88.641  62.636  95.453  1.00  0.00     0.160 C 
HETATM    5  C11 UNL     1     -89.757  63.598  95.882  1.00  0.00     0.241 C 
ENDROOT
BRANCH   1   6
HETATM    6  O5  UNL     1     -90.175  65.865  95.394  1.00  0.00    -0.351 OA
BRANCH   6   7
HETATM    7  C5  UNL     1     -89.550  67.017  94.942  1.00  0.00     0.297 C 
HETATM    8  O4  UNL     1     -88.542  67.319  95.815  1.00  0.00    -0.327 OA
HETATM    9  C3  UNL     1     -88.055  68.563  95.835  1.00  0.00     0.289 C 
HETATM   10  O2  UNL     1     -88.877  69.600  95.500  1.00  0.00    -0.327 OA
HETATM   11  C2  UNL     1     -89.700  69.380  94.419  1.00  0.00     0.295 C 
HETATM   12  C12 UNL     1     -90.522  68.144  94.715  1.00  0.00     0.228 C 
BRANCH   9  13
HETATM   13  C4  UNL     1     -86.855  68.613  94.875  1.00  0.00     0.225 C 
BRANCH  13  14
HETATM   14  O3  UNL     1     -85.656  68.551  95.569  1.00  0.00    -0.396 OA
ATOM     15  H3  UNL     1     -84.949  68.255  95.007  1.00  0.00     0.209 HD
ENDBRANCH  13  14
ENDBRANCH   9  13
BRANCH  11  16
HETATM   16  O1  UNL     1     -90.574  70.460  94.314  1.00  0.00    -0.363 OA
HETATM   17  C1  UNL     1     -89.874  71.602  94.698  1.00  0.00     0.204 C 
ENDBRANCH  11  16
BRANCH  12  18
HETATM   18  O7  UNL     1     -91.282  67.866  93.580  1.00  0.00    -0.386 OA
ATOM     19  H7  UNL     1     -90.998  67.023  93.246  1.00  0.00     0.210 HD
ENDBRANCH  12  18
ENDBRANCH   6   7
ENDBRANCH   1   6
BRANCH   5  20
HETATM   20  N3  UNL     1     -89.602  63.996  97.264  1.00  0.00    -0.070 N 
ATOM     21  H33 UNL     1     -88.991  63.361  97.778  1.00  0.00     0.274 HD
ATOM     22  H32 UNL     1     -89.046  64.846  97.355  1.00  0.00     0.274 HD
ATOM     23  H31 UNL     1     -90.515  64.089  97.711  1.00  0.00     0.274 HD
ENDBRANCH   5  20
BRANCH   3  24
HETATM   24  C9  UNL     1     -86.767  63.605  96.747  1.00  0.00     0.087 C 
HETATM   25  N1  UNL     1     -86.112  62.581  97.183  1.00  0.00    -0.322 N 
ATOM     26  H1  UNL     1     -85.646  62.620  98.089  1.00  0.00     0.185 HD
BRANCH  25  27
HETATM   27  N2  UNL     1     -86.044  61.421  96.409  1.00  0.00    -0.346 N 
ATOM     28  H22 UNL     1     -86.454  61.423  95.475  1.00  0.00     0.176 HD
ATOM     29  H21 UNL     1     -85.588  60.589  96.783  1.00  0.00     0.176 HD
ENDBRANCH  25  27
ENDBRANCH   3  24
BRANCH   4  30
HETATM   30  O6  UNL     1     -88.925  62.228  94.155  1.00  0.00    -0.393 OA
ATOM     31  H6  UNL     1     -89.138  62.990  93.630  1.00  0.00     0.210 HD
ENDBRANCH   4  30
TORSDOF 10
ENDMDL
MODEL 3
REMARK VINA RESULT: -5.758910213      4.647      7.633
REMARK  10 active torsions:
REMARK  status: ('A' for Active; 'I' for Inactive)
REMARK    1  A    between atoms: O1_2  and  C2_3 
REMARK    2  A    between atoms: C3_5  and  C4_6 
REMARK    3  A    between atoms: C4_6  and  O3_7 
REMARK    4  A    between atoms: C5_10  and  O5_11 
REMARK    5  A    between atoms: O5_11  and  C6_12 
REMARK    6  A    between atoms: C8_14  and  C9_15 
REMARK    7  A    between atoms: N1_16  and  N2_18 
REMARK    8  A    between atoms: C10_21  and  O6_22 
REMARK    9  A    between atoms: C11_24  and  N3_25 
REMARK   10  A    between atoms: C12_29  and  O7_30 
ROOT
HETATM    1  C6  UNL     1     -87.455  62.426  94.849  1.00  0.00     0.158 C 
HETATM    2  C7  UNL     1     -87.341  63.779  94.185  1.00  0.00     0.046 C 
HETATM    3  C8  UNL     1     -87.445  64.777  95.300  1.00  0.00     0.059 C 
HETATM    4  C10 UNL     1     -87.524  63.994  96.592  1.00  0.00     0.160 C 
HETATM    5  C11 UNL     1     -88.241  62.726  96.110  1.00  0.00     0.241 C 
ENDROOT
BRANCH   1   6
HETATM    6  O5  UNL     1     -88.128  61.505  94.098  1.00  0.00    -0.351 OA
BRANCH   6   7
HETATM    7  C5  UNL     1     -87.284  60.447  93.798  1.00  0.00     0.297 C 
HETATM    8  O4  UNL     1     -87.755  59.839  92.667  1.00  0.00    -0.327 OA
HETATM    9  C3  UNL     1     -87.371  58.589  92.397  1.00  0.00     0.289 C 
HETATM   10  O2  UNL     1     -87.064  57.754  93.432  1.00  0.00    -0.327 OA
HETATM   11  C2  UNL     1     -86.329  58.316  94.451  1.00  0.00     0.295 C 
HETATM   12  C12 UNL     1     -87.100  59.513  94.964  1.00  0.00     0.228 C 
BRANCH   9  13
HETATM   13  C4  UNL     1     -86.127  58.663  91.497  1.00  0.00     0.225 C 
BRANCH  13  14
HETATM   14  O3  UNL     1     -86.378  59.414  90.358  1.00  0.00    -0.396 OA
ATOM     15  H3  UNL     1     -85.591  59.856  90.059  1.00  0.00     0.209 HD
ENDBRANCH  13  14
ENDBRANCH   9  13
BRANCH  11  16
HETATM   16  O1  UNL     1     -86.243  57.387  95.486  1.00  0.00    -0.363 OA
HETATM   17  C1  UNL     1     -86.346  56.118  94.918  1.00  0.00     0.204 C 
ENDBRANCH  11  16
BRANCH  12  18
HETATM   18  O7  UNL     1     -86.310  60.138  95.927  1.00  0.00    -0.386 OA
ATOM     19  H7  UNL     1     -85.789  59.465  96.348  1.00  0.00     0.210 HD
ENDBRANCH  12  18
ENDBRANCH   6   7
ENDBRANCH   1   6
BRANCH   5  20
HETATM   20  N3  UNL     1     -89.625  62.998  95.786  1.00  0.00    -0.070 N 
ATOM     21  H33 UNL     1     -89.785  63.011  94.779  1.00  0.00     0.274 HD
ATOM     22  H32 UNL     1     -90.232  62.214  96.025  1.00  0.00     0.274 HD
ATOM     23  H31 UNL     1     -89.929  63.864  96.230  1.00  0.00     0.274 HD
ENDBRANCH   5  20
BRANCH   3  24
HETATM   24  C9  UNL     1     -88.639  65.655  95.133  1.00  0.00     0.087 C 
HETATM   25  N1  UNL     1     -88.514  66.920  94.906  1.00  0.00    -0.322 N 
ATOM     26  H1  UNL     1     -89.343  67.503  94.794  1.00  0.00     0.185 HD
BRANCH  25  27
HETATM   27  N2  UNL     1     -87.242  67.486  94.812  1.00  0.00    -0.346 N 
ATOM     28  H22 UNL     1     -86.733  67.708  95.668  1.00  0.00     0.176 HD
ATOM     29  H21 UNL     1     -86.835  67.670  93.895  1.00  0.00     0.176 HD
ENDBRANCH  25  27
ENDBRANCH   3  24
BRANCH   4  30
HETATM   30  O6  UNL     1     -86.242  63.622  96.976  1.00  0.00    -0.393 OA
ATOM     31  H6  UNL     1     -85.757  64.397  97.234  1.00  0.00     0.210 HD
ENDBRANCH   4  30
TORSDOF 10
ENDMDL
MODEL 4
REMARK VINA RESULT: -5.588681748      1.638      2.901
REMARK  10 active torsions:
REMARK  status: ('A' for Active; 'I' for Inactive)
REMARK    1  A    between atoms: O1_2  and  C2_3 
REMARK    2  A    between atoms: C3_5  and  C4_6 
REMARK    3  A    between atoms: C4_6  and  O3_7 
REMARK    4  A    between atoms: C5_10  and  O5_11 
REMARK    5  A    between atoms: O5_11  and  C6_12 
REMARK    6  A    between atoms: C8_14  and  C9_15 
REMARK    7  A    between atoms: N1_16  and  N2_18 
REMARK    8  A    between atoms: C10_21  and  O6_22 
REMARK    9  A    between atoms: C11_24  and  N3_25 
REMARK   10  A    between atoms: C12_29  and  O7_30 
ROOT
HETATM    1  C6  UNL     1     -89.936  64.957  95.942  1.00  0.00     0.158 C 
HETATM    2  C7  UNL     1     -89.326  64.148  97.064  1.00  0.00     0.046 C 
HETATM    3  C8  UNL     1     -87.925  63.851  96.622  1.00  0.00     0.059 C 
HETATM    4  C10 UNL     1     -87.714  64.562  95.303  1.00  0.00     0.160 C 
HETATM    5  C11 UNL     1     -89.137  64.521  94.731  1.00  0.00     0.241 C 
ENDROOT
BRANCH   1   6
HETATM    6  O5  UNL     1     -91.261  64.692  95.738  1.00  0.00    -0.351 OA
BRANCH   6   7
HETATM    7  C5  UNL     1     -91.697  65.366  94.607  1.00  0.00     0.297 C 
HETATM    8  O4  UNL     1     -91.352  66.682  94.741  1.00  0.00    -0.327 OA
HETATM    9  C3  UNL     1     -91.987  67.595  94.002  1.00  0.00     0.289 C 
HETATM   10  O2  UNL     1     -93.277  67.358  93.623  1.00  0.00    -0.327 OA
HETATM   11  C2  UNL     1     -93.549  66.073  93.210  1.00  0.00     0.295 C 
HETATM   12  C12 UNL     1     -93.161  65.141  94.337  1.00  0.00     0.228 C 
BRANCH   9  13
HETATM   13  C4  UNL     1     -91.174  67.806  92.715  1.00  0.00     0.225 C 
BRANCH  13  14
HETATM   14  O3  UNL     1     -92.000  67.839  91.601  1.00  0.00    -0.396 OA
ATOM     15  H3  UNL     1     -92.550  68.614  91.605  1.00  0.00     0.209 HD
ENDBRANCH  13  14
ENDBRANCH   9  13
BRANCH  11  16
HETATM   16  O1  UNL     1     -94.924  65.963  93.016  1.00  0.00    -0.363 OA
HETATM   17  C1  UNL     1     -95.478  67.224  93.223  1.00  0.00     0.204 C 
ENDBRANCH  11  16
BRANCH  12  18
HETATM   18  O7  UNL     1     -93.344  63.836  93.882  1.00  0.00    -0.386 OA
ATOM     19  H7  UNL     1     -93.944  63.873  93.147  1.00  0.00     0.210 HD
ENDBRANCH  12  18
ENDBRANCH   6   7
ENDBRANCH   1   6
BRANCH   5  20
HETATM   20  N3  UNL     1     -89.507  63.177  94.342  1.00  0.00    -0.070 N 
ATOM     21  H33 UNL     1     -89.473  62.530  95.130  1.00  0.00     0.274 HD
ATOM     22  H32 UNL     1     -90.501  63.103  94.129  1.00  0.00     0.274 HD
ATOM     23  H31 UNL     1     -88.926  62.860  93.565  1.00  0.00     0.274 HD
ENDBRANCH   5  20
BRANCH   3  24
HETATM   24  C9  UNL     1     -87.700  62.383  96.479  1.00  0.00     0.087 C 
HETATM   25  N1  UNL     1     -86.595  61.834  96.858  1.00  0.00    -0.322 N 
ATOM     26  H1  UNL     1     -86.461  60.829  96.752  1.00  0.00     0.185 HD
BRANCH  25  27
HETATM   27  N2  UNL     1     -85.585  62.621  97.414  1.00  0.00    -0.346 N 
ATOM     28  H22 UNL     1     -85.838  63.380  98.046  1.00  0.00     0.176 HD
ATOM     29  H21 UNL     1     -84.610  62.429  97.185  1.00  0.00     0.176 HD
ENDBRANCH  25  27
ENDBRANCH   3  24
BRANCH   4  30
HETATM   30  O6  UNL     1     -87.408  65.894  95.550  1.00  0.00    -0.393 OA
ATOM     31  H6  UNL     1     -88.160  66.432  95.332  1.00  0.00     0.210 HD
ENDBRANCH   4  30
TORSDOF 10
ENDMDL
MODEL 5
REMARK VINA RESULT: -5.434425890      2.576      3.988
REMARK  10 active torsions:
REMARK  status: ('A' for Active; 'I' for Inactive)
REMARK    1  A    between atoms: O1_2  and  C2_3 
REMARK    2  A    between atoms: C3_5  and  C4_6 
REMARK    3  A    between atoms: C4_6  and  O3_7 
REMARK    4  A    between atoms: C5_10  and  O5_11 
REMARK    5  A    between atoms: O5_11  and  C6_12 
REMARK    6  A    between atoms: C8_14  and  C9_15 
REMARK    7  A    between atoms: N1_16  and  N2_18 
REMARK    8  A    between atoms: C10_21  and  O6_22 
REMARK    9  A    between atoms: C11_24  and  N3_25 
REMARK   10  A    between atoms: C12_29  and  O7_30 
ROOT
HETATM    1  C6  UNL     1     -88.108  64.411  95.078  1.00  0.00     0.158 C 
HETATM    2  C7  UNL     1     -87.536  63.471  94.042  1.00  0.00     0.046 C 
HETATM    3  C8  UNL     1     -87.539  62.119  94.690  1.00  0.00     0.059 C 
HETATM    4  C10 UNL     1     -88.191  62.276  96.046  1.00  0.00     0.160 C 
HETATM    5  C11 UNL     1     -87.789  63.718  96.387  1.00  0.00     0.241 C 
ENDROOT
BRANCH   1   6
HETATM    6  O5  UNL     1     -87.535  65.651  95.064  1.00  0.00    -0.351 OA
BRANCH   6   7
HETATM    7  C5  UNL     1     -88.525  66.619  95.147  1.00  0.00     0.297 C 
HETATM    8  O4  UNL     1     -89.461  66.347  94.189  1.00  0.00    -0.327 OA
HETATM    9  C3  UNL     1     -90.289  67.320  93.799  1.00  0.00     0.289 C 
HETATM   10  O2  UNL     1     -89.859  68.614  93.854  1.00  0.00    -0.327 OA
HETATM   11  C2  UNL     1     -89.147  68.957  94.981  1.00  0.00     0.295 C 
HETATM   12  C12 UNL     1     -87.966  68.015  95.078  1.00  0.00     0.228 C 
BRANCH   9  13
HETATM   13  C4  UNL     1     -91.558  67.232  94.662  1.00  0.00     0.225 C 
BRANCH  13  14
HETATM   14  O3  UNL     1     -92.160  65.988  94.542  1.00  0.00    -0.396 OA
ATOM     15  H3  UNL     1     -91.513  65.308  94.392  1.00  0.00     0.209 HD
ENDBRANCH  13  14
ENDBRANCH   9  13
BRANCH  11  16
HETATM   16  O1  UNL     1     -88.653  70.247  94.805  1.00  0.00    -0.363 OA
HETATM   17  C1  UNL     1     -89.734  71.071  94.497  1.00  0.00     0.204 C 
ENDBRANCH  11  16
BRANCH  12  18
HETATM   18  O7  UNL     1     -87.303  68.298  96.271  1.00  0.00    -0.386 OA
ATOM     19  H7  UNL     1     -86.926  67.486  96.587  1.00  0.00     0.210 HD
ENDBRANCH  12  18
ENDBRANCH   6   7
ENDBRANCH   1   6
BRANCH   5  20
HETATM   20  N3  UNL     1     -86.373  63.812  96.672  1.00  0.00    -0.070 N 
ATOM     21  H33 UNL     1     -86.045  64.777  96.659  1.00  0.00     0.274 HD
ATOM     22  H32 UNL     1     -86.167  63.596  97.647  1.00  0.00     0.274 HD
ATOM     23  H31 UNL     1     -85.843  63.222  96.031  1.00  0.00     0.274 HD
ENDBRANCH   5  20
BRANCH   3  24
HETATM   24  C9  UNL     1     -86.156  61.577  94.823  1.00  0.00     0.087 C 
HETATM   25  N1  UNL     1     -85.785  60.521  94.180  1.00  0.00    -0.322 N 
ATOM     26  H1  UNL     1     -84.834  60.167  94.284  1.00  0.00     0.185 HD
BRANCH  25  27
HETATM   27  N2  UNL     1     -86.688  59.867  93.341  1.00  0.00    -0.346 N 
ATOM     28  H22 UNL     1     -86.920  60.284  92.439  1.00  0.00     0.176 HD
ATOM     29  H21 UNL     1     -87.105  58.984  93.635  1.00  0.00     0.176 HD
ENDBRANCH  25  27
ENDBRANCH   3  24
BRANCH   4  30
HETATM   30  O6  UNL     1     -89.572  62.261  95.889  1.00  0.00    -0.393 OA
ATOM     31  H6  UNL     1     -89.976  62.650  96.656  1.00  0.00     0.210 HD
ENDBRANCH   4  30
TORSDOF 10
ENDMDL
