MODEL 1
REMARK VINA RESULT: -5.205370366      0.000      0.000
REMARK  10 active torsions:
REMARK  status: ('A' for Active; 'I' for Inactive)
REMARK    1  A    between atoms: N1_2  and  C2_5 
REMARK    2  A    between atoms: C4_8  and  O2_9 
REMARK    3  A    between atoms: O2_9  and  C5_10 
REMARK    4  A    between atoms: C6_12  and  C7_13 
REMARK    5  A    between atoms: C7_13  and  N2_14 
REMARK    6  A    between atoms: C8_18  and  O4_19 
REMARK    7  A    between atoms: C9_21  and  O5_22 
REMARK    8  A    between atoms: C10_24  and  O6_25 
REMARK    9  A    between atoms: C12_27  and  N3_28 
REMARK   10  A    between atoms: C13_32  and  O7_33 
ROOT
HETATM    1  C5  UNL     1     -91.415  65.259  94.728  1.00  0.00     0.295 C 
HETATM    2  O3  UNL     1     -92.674  65.823  94.551  1.00  0.00    -0.349 OA
HETATM    3  C6  UNL     1     -93.663  64.968  94.179  1.00  0.00     0.181 C 
HETATM    4  C8  UNL     1     -93.710  63.657  94.877  1.00  0.00     0.180 C 
HETATM    5  C9  UNL     1     -92.703  63.521  95.991  1.00  0.00     0.183 C 
HETATM    6  C10 UNL     1     -91.347  64.129  95.635  1.00  0.00     0.207 C 
ENDROOT
BRANCH   1   7
HETATM    7  O2  UNL     1     -90.603  66.322  95.126  1.00  0.00    -0.327 OA
BRANCH   7   8
HETATM    8  C4  UNL     1     -89.815  66.859  94.150  1.00  0.00     0.296 C 
HETATM    9  O1  UNL     1     -90.558  67.948  93.624  1.00  0.00    -0.357 OA
HETATM   10  C3  UNL     1     -90.687  68.954  94.575  1.00  0.00     0.206 C 
HETATM   11  C2  UNL     1     -89.321  69.572  94.750  1.00  0.00     0.239 C 
HETATM   12  C13 UNL     1     -88.471  68.515  95.456  1.00  0.00     0.186 C 
HETATM   13  C12 UNL     1     -88.453  67.316  94.526  1.00  0.00     0.268 C 
BRANCH  11  14
HETATM   14  N1  UNL     1     -89.352  70.773  95.545  1.00  0.00    -0.070 N 
HETATM   15  C1  UNL     1     -90.002  71.815  94.765  1.00  0.00     0.267 C 
ATOM     16  H12 UNL     1     -88.428  71.049  95.878  1.00  0.00     0.277 HD
ATOM     17  H11 UNL     1     -89.790  70.631  96.455  1.00  0.00     0.277 HD
ENDBRANCH  11  14
BRANCH  12  18
HETATM   18  O7  UNL     1     -87.187  68.968  95.621  1.00  0.00    -0.391 OA
ATOM     19  H7  UNL     1     -86.670  68.328  96.096  1.00  0.00     0.210 HD
ENDBRANCH  12  18
BRANCH  13  20
HETATM   20  N3  UNL     1     -87.568  66.351  95.049  1.00  0.00    -0.068 N 
ATOM     21  H33 UNL     1     -87.359  66.575  96.022  1.00  0.00     0.275 HD
ATOM     22  H32 UNL     1     -88.060  65.465  95.159  1.00  0.00     0.275 HD
ATOM     23  H31 UNL     1     -86.696  66.192  94.544  1.00  0.00     0.275 HD
ENDBRANCH  13  20
ENDBRANCH   7   8
ENDBRANCH   1   7
BRANCH   6  24
HETATM   24  O6  UNL     1     -90.494  63.120  95.231  1.00  0.00    -0.383 OA
HETATM   25  C11 UNL     1     -89.182  63.306  95.589  1.00  0.00     0.202 C 
ENDBRANCH   6  24
BRANCH   3  26
HETATM   26  C7  UNL     1     -93.526  64.698  92.693  1.00  0.00     0.264 C 
BRANCH  26  27
HETATM   27  N2  UNL     1     -93.939  63.362  92.387  1.00  0.00    -0.077 N 
ATOM     28  H23 UNL     1     -93.377  62.668  92.881  1.00  0.00     0.274 HD
ATOM     29  H22 UNL     1     -94.846  63.142  92.797  1.00  0.00     0.274 HD
ATOM     30  H21 UNL     1     -93.930  63.208  91.378  1.00  0.00     0.274 HD
ENDBRANCH  26  27
ENDBRANCH   3  26
BRANCH   5  31
HETATM   31  O5  UNL     1     -92.589  62.170  96.313  1.00  0.00    -0.390 OA
ATOM     32  H5  UNL     1     -91.698  62.007  96.601  1.00  0.00     0.210 HD
ENDBRANCH   5  31
BRANCH   4  33
HETATM   33  O4  UNL     1     -95.009  63.534  95.434  1.00  0.00    -0.390 OA
ATOM     34  H4  UNL     1     -94.961  62.858  96.099  1.00  0.00     0.210 HD
ENDBRANCH   4  33
TORSDOF 10
ENDMDL
MODEL 2
REMARK VINA RESULT: -4.447344930      1.783      6.896
REMARK  10 active torsions:
REMARK  status: ('A' for Active; 'I' for Inactive)
REMARK    1  A    between atoms: N1_2  and  C2_5 
REMARK    2  A    between atoms: C4_8  and  O2_9 
REMARK    3  A    between atoms: O2_9  and  C5_10 
REMARK    4  A    between atoms: C6_12  and  C7_13 
REMARK    5  A    between atoms: C7_13  and  N2_14 
REMARK    6  A    between atoms: C8_18  and  O4_19 
REMARK    7  A    between atoms: C9_21  and  O5_22 
REMARK    8  A    between atoms: C10_24  and  O6_25 
REMARK    9  A    between atoms: C12_27  and  N3_28 
REMARK   10  A    between atoms: C13_32  and  O7_33 
ROOT
HETATM    1  C5  UNL     1     -90.624  66.827  94.676  1.00  0.00     0.295 C 
HETATM    2  O3  UNL     1     -89.829  67.057  95.794  1.00  0.00    -0.349 OA
HETATM    3  C6  UNL     1     -88.817  67.950  95.633  1.00  0.00     0.181 C 
HETATM    4  C8  UNL     1     -89.138  69.195  94.887  1.00  0.00     0.180 C 
HETATM    5  C9  UNL     1     -90.594  69.327  94.515  1.00  0.00     0.183 C 
HETATM    6  C10 UNL     1     -91.206  68.004  94.058  1.00  0.00     0.207 C 
ENDROOT
BRANCH   1   7
HETATM    7  O2  UNL     1     -91.583  65.910  95.106  1.00  0.00    -0.327 OA
BRANCH   7   8
HETATM    8  C4  UNL     1     -91.665  64.758  94.379  1.00  0.00     0.296 C 
HETATM    9  O1  UNL     1     -90.902  63.803  95.100  1.00  0.00    -0.357 OA
HETATM   10  C3  UNL     1     -91.514  63.506  96.313  1.00  0.00     0.206 C 
HETATM   11  C2  UNL     1     -92.764  62.721  95.994  1.00  0.00     0.239 C 
HETATM   12  C13 UNL     1     -93.725  63.713  95.337  1.00  0.00     0.186 C 
HETATM   13  C12 UNL     1     -93.014  64.208  94.091  1.00  0.00     0.268 C 
BRANCH  11  14
HETATM   14  N1  UNL     1     -93.382  62.159  97.167  1.00  0.00    -0.070 N 
HETATM   15  C1  UNL     1     -94.136  60.983  96.762  1.00  0.00     0.267 C 
ATOM     16  H12 UNL     1     -93.951  62.837  97.675  1.00  0.00     0.277 HD
ATOM     17  H11 UNL     1     -92.710  61.960  97.909  1.00  0.00     0.277 HD
ENDBRANCH  11  14
BRANCH  12  18
HETATM   18  O7  UNL     1     -94.884  63.081  94.966  1.00  0.00    -0.391 OA
ATOM     19  H7  UNL     1     -95.570  63.248  95.601  1.00  0.00     0.210 HD
ENDBRANCH  12  18
BRANCH  13  20
HETATM   20  N3  UNL     1     -93.902  65.022  93.357  1.00  0.00    -0.068 N 
ATOM     21  H33 UNL     1     -94.536  64.432  92.819  1.00  0.00     0.275 HD
ATOM     22  H32 UNL     1     -94.557  65.471  93.997  1.00  0.00     0.275 HD
ATOM     23  H31 UNL     1     -93.493  65.727  92.744  1.00  0.00     0.275 HD
ENDBRANCH  13  20
ENDBRANCH   7   8
ENDBRANCH   1   7
BRANCH   6  24
HETATM   24  O6  UNL     1     -91.232  67.973  92.677  1.00  0.00    -0.383 OA
HETATM   25  C11 UNL     1     -92.400  67.492  92.140  1.00  0.00     0.202 C 
ENDBRANCH   6  24
BRANCH   3  26
HETATM   26  C7  UNL     1     -87.678  67.257  94.910  1.00  0.00     0.264 C 
BRANCH  26  27
HETATM   27  N2  UNL     1     -86.521  68.099  94.876  1.00  0.00    -0.077 N 
ATOM     28  H23 UNL     1     -86.423  68.645  95.732  1.00  0.00     0.274 HD
ATOM     29  H22 UNL     1     -85.657  67.560  94.942  1.00  0.00     0.274 HD
ATOM     30  H21 UNL     1     -86.536  68.692  94.046  1.00  0.00     0.274 HD
ENDBRANCH  26  27
ENDBRANCH   3  26
BRANCH   5  31
HETATM   31  O5  UNL     1     -90.706  70.308  93.533  1.00  0.00    -0.390 OA
ATOM     32  H5  UNL     1     -91.354  70.022  92.899  1.00  0.00     0.210 HD
ENDBRANCH   5  31
BRANCH   4  33
HETATM   33  O4  UNL     1     -88.795  70.281  95.731  1.00  0.00    -0.390 OA
ATOM     34  H4  UNL     1     -88.924  69.987  96.625  1.00  0.00     0.210 HD
ENDBRANCH   4  33
TORSDOF 10
ENDMDL
MODEL 3
REMARK VINA RESULT: -4.349688577      4.181      7.502
REMARK  10 active torsions:
REMARK  status: ('A' for Active; 'I' for Inactive)
REMARK    1  A    between atoms: N1_2  and  C2_5 
REMARK    2  A    between atoms: C4_8  and  O2_9 
REMARK    3  A    between atoms: O2_9  and  C5_10 
REMARK    4  A    between atoms: C6_12  and  C7_13 
REMARK    5  A    between atoms: C7_13  and  N2_14 
REMARK    6  A    between atoms: C8_18  and  O4_19 
REMARK    7  A    between atoms: C9_21  and  O5_22 
REMARK    8  A    between atoms: C10_24  and  O6_25 
REMARK    9  A    between atoms: C12_27  and  N3_28 
REMARK   10  A    between atoms: C13_32  and  O7_33 
ROOT
HETATM    1  C5  UNL     1     -88.439  63.118  94.928  1.00  0.00     0.295 C 
HETATM    2  O3  UNL     1     -89.615  63.442  94.259  1.00  0.00    -0.349 OA
HETATM    3  C6  UNL     1     -90.293  64.520  94.734  1.00  0.00     0.181 C 
HETATM    4  C8  UNL     1     -89.483  65.714  95.091  1.00  0.00     0.180 C 
HETATM    5  C9  UNL     1     -88.019  65.582  94.757  1.00  0.00     0.183 C 
HETATM    6  C10 UNL     1     -87.470  64.189  95.063  1.00  0.00     0.207 C 
ENDROOT
BRANCH   1   7
HETATM    7  O2  UNL     1     -87.933  62.014  94.240  1.00  0.00    -0.327 OA
BRANCH   7   8
HETATM    8  C4  UNL     1     -87.917  60.842  94.938  1.00  0.00     0.296 C 
HETATM    9  O1  UNL     1     -88.589  59.904  94.111  1.00  0.00    -0.357 OA
HETATM   10  C3  UNL     1     -87.847  59.647  92.963  1.00  0.00     0.206 C 
HETATM   11  C2  UNL     1     -86.631  58.862  93.391  1.00  0.00     0.239 C 
HETATM   12  C13 UNL     1     -85.756  59.842  94.175  1.00  0.00     0.186 C 
HETATM   13  C12 UNL     1     -86.601  60.294  95.352  1.00  0.00     0.268 C 
BRANCH  11  14
HETATM   14  N1  UNL     1     -85.885  58.341  92.274  1.00  0.00    -0.070 N 
HETATM   15  C1  UNL     1     -85.860  56.890  92.386  1.00  0.00     0.267 C 
ATOM     16  H12 UNL     1     -84.952  58.747  92.200  1.00  0.00     0.277 HD
ATOM     17  H11 UNL     1     -86.247  58.661  91.375  1.00  0.00     0.277 HD
ENDBRANCH  11  14
BRANCH  12  18
HETATM   18  O7  UNL     1     -84.637  59.207  94.650  1.00  0.00    -0.391 OA
ATOM     19  H7  UNL     1     -84.132  59.794  95.200  1.00  0.00     0.210 HD
ENDBRANCH  12  18
BRANCH  13  20
HETATM   20  N3  UNL     1     -85.805  61.091  96.200  1.00  0.00    -0.068 N 
ATOM     21  H33 UNL     1     -84.823  60.850  96.068  1.00  0.00     0.275 HD
ATOM     22  H32 UNL     1     -85.812  62.054  95.863  1.00  0.00     0.275 HD
ATOM     23  H31 UNL     1     -86.025  61.081  97.196  1.00  0.00     0.275 HD
ENDBRANCH  13  20
ENDBRANCH   7   8
ENDBRANCH   1   7
BRANCH   6  24
HETATM   24  O6  UNL     1     -86.817  64.220  96.280  1.00  0.00    -0.383 OA
HETATM   25  C11 UNL     1     -87.473  63.570  97.296  1.00  0.00     0.202 C 
ENDBRANCH   6  24
BRANCH   3  26
HETATM   26  C7  UNL     1     -91.061  64.093  95.971  1.00  0.00     0.264 C 
BRANCH  26  27
HETATM   27  N2  UNL     1     -92.308  63.494  95.603  1.00  0.00    -0.077 N 
ATOM     28  H23 UNL     1     -92.587  62.764  96.260  1.00  0.00     0.274 HD
ATOM     29  H22 UNL     1     -93.091  64.131  95.743  1.00  0.00     0.274 HD
ATOM     30  H21 UNL     1     -92.267  63.147  94.644  1.00  0.00     0.274 HD
ENDBRANCH  26  27
ENDBRANCH   3  26
BRANCH   5  31
HETATM   31  O5  UNL     1     -87.323  66.569  95.451  1.00  0.00    -0.390 OA
ATOM     32  H5  UNL     1     -86.764  67.028  94.834  1.00  0.00     0.210 HD
ENDBRANCH   5  31
BRANCH   4  33
HETATM   33  O4  UNL     1     -90.011  66.804  94.353  1.00  0.00    -0.390 OA
ATOM     34  H4  UNL     1     -89.512  67.573  94.602  1.00  0.00     0.210 HD
ENDBRANCH   4  33
TORSDOF 10
ENDMDL
MODEL 4
REMARK VINA RESULT: -4.215227893      2.672      5.630
REMARK  10 active torsions:
REMARK  status: ('A' for Active; 'I' for Inactive)
REMARK    1  A    between atoms: N1_2  and  C2_5 
REMARK    2  A    between atoms: C4_8  and  O2_9 
REMARK    3  A    between atoms: O2_9  and  C5_10 
REMARK    4  A    between atoms: C6_12  and  C7_13 
REMARK    5  A    between atoms: C7_13  and  N2_14 
REMARK    6  A    between atoms: C8_18  and  O4_19 
REMARK    7  A    between atoms: C9_21  and  O5_22 
REMARK    8  A    between atoms: C10_24  and  O6_25 
REMARK    9  A    between atoms: C12_27  and  N3_28 
REMARK   10  A    between atoms: C13_32  and  O7_33 
ROOT
HETATM    1  C5  UNL     1     -90.567  64.726  94.981  1.00  0.00     0.295 C 
HETATM    2  O3  UNL     1     -91.464  63.969  94.234  1.00  0.00    -0.349 OA
HETATM    3  C6  UNL     1     -92.726  64.464  94.137  1.00  0.00     0.181 C 
HETATM    4  C8  UNL     1     -92.852  65.923  93.886  1.00  0.00     0.180 C 
HETATM    5  C9  UNL     1     -91.535  66.622  93.661  1.00  0.00     0.183 C 
HETATM    6  C10 UNL     1     -90.436  66.118  94.594  1.00  0.00     0.207 C 
ENDROOT
BRANCH   1   7
HETATM    7  O2  UNL     1     -89.362  64.025  94.902  1.00  0.00    -0.327 OA
BRANCH   7   8
HETATM    8  C4  UNL     1     -89.284  62.901  95.671  1.00  0.00     0.296 C 
HETATM    9  O1  UNL     1     -89.221  61.821  94.752  1.00  0.00    -0.357 OA
HETATM   10  C3  UNL     1     -88.026  61.855  94.042  1.00  0.00     0.206 C 
HETATM   11  C2  UNL     1     -86.927  61.494  95.013  1.00  0.00     0.239 C 
HETATM   12  C13 UNL     1     -86.811  62.679  95.972  1.00  0.00     0.186 C 
HETATM   13  C12 UNL     1     -88.167  62.797  96.645  1.00  0.00     0.268 C 
BRANCH  11  14
HETATM   14  N1  UNL     1     -85.660  61.277  94.363  1.00  0.00    -0.070 N 
HETATM   15  C1  UNL     1     -85.461  59.842  94.229  1.00  0.00     0.267 C 
ATOM     16  H12 UNL     1     -84.887  61.739  94.842  1.00  0.00     0.277 HD
ATOM     17  H11 UNL     1     -85.585  61.770  93.473  1.00  0.00     0.277 HD
ENDBRANCH  11  14
BRANCH  12  18
HETATM   18  O7  UNL     1     -85.862  62.427  96.929  1.00  0.00    -0.391 OA
ATOM     19  H7  UNL     1     -85.392  63.224  97.147  1.00  0.00     0.210 HD
ENDBRANCH  12  18
BRANCH  13  20
HETATM   20  N3  UNL     1     -88.090  63.783  97.649  1.00  0.00    -0.068 N 
ATOM     21  H33 UNL     1     -88.317  64.693  97.248  1.00  0.00     0.275 HD
ATOM     22  H32 UNL     1     -88.865  63.663  98.301  1.00  0.00     0.275 HD
ATOM     23  H31 UNL     1     -87.216  63.852  98.172  1.00  0.00     0.275 HD
ENDBRANCH  13  20
ENDBRANCH   7   8
ENDBRANCH   1   7
BRANCH   6  24
HETATM   24  O6  UNL     1     -90.306  66.996  95.652  1.00  0.00    -0.383 OA
HETATM   25  C11 UNL     1     -89.097  67.644  95.710  1.00  0.00     0.202 C 
ENDBRANCH   6  24
BRANCH   3  26
HETATM   26  C7  UNL     1     -93.463  64.149  95.424  1.00  0.00     0.264 C 
BRANCH  26  27
HETATM   27  N2  UNL     1     -94.640  63.381  95.152  1.00  0.00    -0.077 N 
ATOM     28  H23 UNL     1     -94.418  62.492  94.703  1.00  0.00     0.274 HD
ATOM     29  H22 UNL     1     -95.062  63.017  96.006  1.00  0.00     0.274 HD
ATOM     30  H21 UNL     1     -95.303  63.928  94.604  1.00  0.00     0.274 HD
ENDBRANCH  26  27
ENDBRANCH   3  26
BRANCH   5  31
HETATM   31  O5  UNL     1     -91.738  67.993  93.804  1.00  0.00    -0.390 OA
ATOM     32  H5  UNL     1     -91.128  68.317  94.457  1.00  0.00     0.210 HD
ENDBRANCH   5  31
BRANCH   4  33
HETATM   33  O4  UNL     1     -93.641  66.072  92.716  1.00  0.00    -0.390 OA
ATOM     34  H4  UNL     1     -94.444  66.506  92.979  1.00  0.00     0.210 HD
ENDBRANCH   4  33
TORSDOF 10
ENDMDL
MODEL 5
REMARK VINA RESULT: -3.784863841      2.948      5.799
REMARK  10 active torsions:
REMARK  status: ('A' for Active; 'I' for Inactive)
REMARK    1  A    between atoms: N1_2  and  C2_5 
REMARK    2  A    between atoms: C4_8  and  O2_9 
REMARK    3  A    between atoms: O2_9  and  C5_10 
REMARK    4  A    between atoms: C6_12  and  C7_13 
REMARK    5  A    between atoms: C7_13  and  N2_14 
REMARK    6  A    between atoms: C8_18  and  O4_19 
REMARK    7  A    between atoms: C9_21  and  O5_22 
REMARK    8  A    between atoms: C10_24  and  O6_25 
REMARK    9  A    between atoms: C12_27  and  N3_28 
REMARK   10  A    between atoms: C13_32  and  O7_33 
ROOT
HETATM    1  C5  UNL     1     -88.764  63.754  94.627  1.00  0.00     0.295 C 
HETATM    2  O3  UNL     1     -88.929  62.373  94.619  1.00  0.00    -0.349 OA
HETATM    3  C6  UNL     1     -87.840  61.641  94.976  1.00  0.00     0.181 C 
HETATM    4  C8  UNL     1     -87.067  62.124  96.149  1.00  0.00     0.180 C 
HETATM    5  C9  UNL     1     -87.687  63.311  96.844  1.00  0.00     0.183 C 
HETATM    6  C10 UNL     1     -88.269  64.327  95.864  1.00  0.00     0.207 C 
ENDROOT
BRANCH   1   7
HETATM    7  O2  UNL     1     -90.011  64.260  94.256  1.00  0.00    -0.327 OA
BRANCH   7   8
HETATM    8  C4  UNL     1     -90.786  64.723  95.279  1.00  0.00     0.296 C 
HETATM    9  O1  UNL     1     -91.085  66.070  94.943  1.00  0.00    -0.357 OA
HETATM   10  C3  UNL     1     -91.904  66.121  93.821  1.00  0.00     0.206 C 
HETATM   11  C2  UNL     1     -93.259  65.602  94.239  1.00  0.00     0.239 C 
HETATM   12  C13 UNL     1     -93.075  64.104  94.484  1.00  0.00     0.186 C 
HETATM   13  C12 UNL     1     -92.042  63.993  95.590  1.00  0.00     0.268 C 
BRANCH  11  14
HETATM   14  N1  UNL     1     -94.267  65.804  93.231  1.00  0.00    -0.070 N 
HETATM   15  C1  UNL     1     -94.540  67.230  93.143  1.00  0.00     0.267 C 
ATOM     16  H12 UNL     1     -95.108  65.251  93.399  1.00  0.00     0.277 HD
ATOM     17  H11 UNL     1     -94.012  65.396  92.331  1.00  0.00     0.277 HD
ENDBRANCH  11  14
BRANCH  12  18
HETATM   18  O7  UNL     1     -94.249  63.544  94.916  1.00  0.00    -0.391 OA
ATOM     19  H7  UNL     1     -94.404  63.762  95.827  1.00  0.00     0.210 HD
ENDBRANCH  12  18
BRANCH  13  20
HETATM   20  N3  UNL     1     -91.926  62.639  95.967  1.00  0.00    -0.068 N 
ATOM     21  H33 UNL     1     -91.345  62.147  95.288  1.00  0.00     0.275 HD
ATOM     22  H32 UNL     1     -91.345  62.569  96.802  1.00  0.00     0.275 HD
ATOM     23  H31 UNL     1     -92.791  62.118  96.113  1.00  0.00     0.275 HD
ENDBRANCH  13  20
ENDBRANCH   7   8
ENDBRANCH   1   7
BRANCH   6  24
HETATM   24  O6  UNL     1     -87.365  65.359  95.696  1.00  0.00    -0.383 OA
HETATM   25  C11 UNL     1     -87.888  66.485  95.111  1.00  0.00     0.202 C 
ENDBRANCH   6  24
BRANCH   3  26
HETATM   26  C7  UNL     1     -86.896  61.581  93.791  1.00  0.00     0.264 C 
BRANCH  26  27
HETATM   27  N2  UNL     1     -85.689  60.897  94.146  1.00  0.00    -0.077 N 
ATOM     28  H23 UNL     1     -85.056  61.495  94.679  1.00  0.00     0.274 HD
ATOM     29  H22 UNL     1     -85.853  60.181  94.854  1.00  0.00     0.274 HD
ATOM     30  H21 UNL     1     -85.239  60.513  93.315  1.00  0.00     0.274 HD
ENDBRANCH  26  27
ENDBRANCH   3  26
BRANCH   5  31
HETATM   31  O5  UNL     1     -86.721  63.888  97.667  1.00  0.00    -0.390 OA
ATOM     32  H5  UNL     1     -86.627  63.345  98.441  1.00  0.00     0.210 HD
ENDBRANCH   5  31
BRANCH   4  33
HETATM   33  O4  UNL     1     -87.006  61.050  97.073  1.00  0.00    -0.390 OA
ATOM     34  H4  UNL     1     -86.113  61.014  97.396  1.00  0.00     0.210 HD
ENDBRANCH   4  33
TORSDOF 10
ENDMDL
