MODEL 1
REMARK VINA RESULT: -6.836627940      0.000      0.000
REMARK  10 active torsions:
REMARK  status: ('A' for Active; 'I' for Inactive)
REMARK    1  A    between atoms: N1_1  and  C1_4 
REMARK    2  A    between atoms: C2_7  and  N3_8 
REMARK    3  A    between atoms: N3_8  and  C3_10 
REMARK    4  A    between atoms: C3_10  and  N4_11 
REMARK    5  A    between atoms: N4_11  and  N5_12 
REMARK    6  A    between atoms: N4_11  and  O1_15 
REMARK    7  A    between atoms: C4_19  and  N7_20 
REMARK    8  A    between atoms: N7_20  and  C5_22 
REMARK    9  A    between atoms: C5_22  and  C6_23 
REMARK   10  A    between atoms: C6_23  and  O2_24 
ROOT
HETATM    1  C1  UNL     1     -34.622  20.362  -6.293  1.00  0.00     0.705 A 
HETATM    2  N2  UNL     1     -34.018  21.213  -5.447  1.00  0.00    -0.022 N 
ATOM      3  H2  UNL     1     -33.011  21.362  -5.512  1.00  0.00     0.203 HD
HETATM    4  C2  UNL     1     -34.738  21.878  -4.503  1.00  0.00     0.708 A 
HETATM    5  N6  UNL     1     -36.069  21.650  -4.451  1.00  0.00    -0.021 N 
ATOM      6  H6  UNL     1     -36.621  22.141  -3.749  1.00  0.00     0.203 HD
HETATM    7  C4  UNL     1     -36.698  20.803  -5.287  1.00  0.00     0.707 A 
HETATM    8  N8  UNL     1     -35.951  20.164  -6.206  1.00  0.00    -0.022 N 
ATOM      9  H8  UNL     1     -36.401  19.515  -6.852  1.00  0.00     0.203 HD
ENDROOT
BRANCH   4  10
HETATM   10  N3  UNL     1     -34.084  22.768  -3.622  1.00  0.00    -0.209 N 
ATOM     11  H3  UNL     1     -33.380  22.416  -2.973  1.00  0.00     0.179 HD
BRANCH  10  12
HETATM   12  C3  UNL     1     -34.405  24.168  -3.636  1.00  0.00     0.284 C 
BRANCH  12  13
HETATM   13  N4  UNL     1     -35.807  24.406  -3.837  1.00  0.00    -0.095 NA
BRANCH  13  14
HETATM   14  N5  UNL     1     -36.321  25.375  -2.988  1.00  0.00    -0.339 NA
ATOM     15  H52 UNL     1     -36.734  24.921  -2.174  1.00  0.00     0.173 HD
ATOM     16  H51 UNL     1     -36.972  26.009  -3.453  1.00  0.00     0.173 HD
ENDBRANCH  13  14
BRANCH  13  17
HETATM   17  O1  UNL     1     -36.092  24.737  -5.106  1.00  0.00    -0.293 OA
ATOM     18  H1  UNL     1     -36.959  25.115  -5.195  1.00  0.00     0.239 HD
ENDBRANCH  13  17
ENDBRANCH  12  13
ENDBRANCH  10  12
ENDBRANCH   4  10
BRANCH   1  19
HETATM   19  N1  UNL     1     -33.951  19.723  -7.195  1.00  0.00    -0.234 N 
ATOM     20  H12 UNL     1     -34.307  19.699  -8.150  1.00  0.00     0.174 HD
ATOM     21  H11 UNL     1     -33.079  19.247  -6.968  1.00  0.00     0.174 HD
ENDBRANCH   1  19
BRANCH   7  22
HETATM   22  N7  UNL     1     -37.981  20.635  -5.176  1.00  0.00    -0.223 N 
ATOM     23  H7  UNL     1     -38.327  19.769  -4.763  1.00  0.00     0.177 HD
BRANCH  22  24
HETATM   24  C5  UNL     1     -38.926  21.613  -5.609  1.00  0.00     0.164 C 
BRANCH  24  25
HETATM   25  C6  UNL     1     -39.321  22.575  -4.512  1.00  0.00     0.184 C 
BRANCH  25  26
HETATM   26  O2  UNL     1     -38.521  23.711  -4.552  1.00  0.00    -0.399 OA
ATOM     27  H2  UNL     1     -38.976  24.450  -4.168  1.00  0.00     0.209 HD
ENDBRANCH  25  26
ENDBRANCH  24  25
ENDBRANCH  22  24
ENDBRANCH   7  22
TORSDOF 10
ENDMDL
MODEL 2
REMARK VINA RESULT: -6.492535919      2.510      3.846
REMARK  10 active torsions:
REMARK  status: ('A' for Active; 'I' for Inactive)
REMARK    1  A    between atoms: N1_1  and  C1_4 
REMARK    2  A    between atoms: C2_7  and  N3_8 
REMARK    3  A    between atoms: N3_8  and  C3_10 
REMARK    4  A    between atoms: C3_10  and  N4_11 
REMARK    5  A    between atoms: N4_11  and  N5_12 
REMARK    6  A    between atoms: N4_11  and  O1_15 
REMARK    7  A    between atoms: C4_19  and  N7_20 
REMARK    8  A    between atoms: N7_20  and  C5_22 
REMARK    9  A    between atoms: C5_22  and  C6_23 
REMARK   10  A    between atoms: C6_23  and  O2_24 
ROOT
HETATM    1  C1  UNL     1     -34.078  21.887  -4.587  1.00  0.00     0.705 A 
HETATM    2  N2  UNL     1     -35.283  22.473  -4.491  1.00  0.00    -0.022 N 
ATOM      3  H2  UNL     1     -35.414  23.259  -3.854  1.00  0.00     0.203 HD
HETATM    4  C2  UNL     1     -36.330  22.027  -5.236  1.00  0.00     0.708 A 
HETATM    5  N6  UNL     1     -36.112  20.984  -6.067  1.00  0.00    -0.021 N 
ATOM      6  H6  UNL     1     -36.888  20.639  -6.632  1.00  0.00     0.203 HD
HETATM    7  C4  UNL     1     -34.915  20.379  -6.181  1.00  0.00     0.707 A 
HETATM    8  N8  UNL     1     -33.904  20.849  -5.427  1.00  0.00    -0.022 N 
ATOM      9  H8  UNL     1     -32.986  20.409  -5.493  1.00  0.00     0.203 HD
ENDROOT
BRANCH   4  10
HETATM   10  N3  UNL     1     -37.590  22.657  -5.121  1.00  0.00    -0.209 N 
ATOM     11  H3  UNL     1     -38.281  22.551  -5.864  1.00  0.00     0.179 HD
BRANCH  10  12
HETATM   12  C3  UNL     1     -37.904  23.445  -3.962  1.00  0.00     0.284 C 
BRANCH  12  13
HETATM   13  N4  UNL     1     -37.376  24.777  -4.047  1.00  0.00    -0.095 NA
BRANCH  13  14
HETATM   14  N5  UNL     1     -38.296  25.751  -3.688  1.00  0.00    -0.339 NA
ATOM     15  H52 UNL     1     -38.085  26.612  -4.192  1.00  0.00     0.173 HD
ATOM     16  H51 UNL     1     -38.354  25.895  -2.680  1.00  0.00     0.173 HD
ENDBRANCH  13  14
BRANCH  13  17
HETATM   17  O1  UNL     1     -36.262  24.934  -3.314  1.00  0.00    -0.293 OA
ATOM     18  H1  UNL     1     -35.643  24.226  -3.441  1.00  0.00     0.239 HD
ENDBRANCH  13  17
ENDBRANCH  12  13
ENDBRANCH  10  12
ENDBRANCH   4  10
BRANCH   1  19
HETATM   19  N1  UNL     1     -33.073  22.299  -3.886  1.00  0.00    -0.234 N 
ATOM     20  H12 UNL     1     -33.197  22.446  -2.884  1.00  0.00     0.174 HD
ATOM     21  H11 UNL     1     -32.166  22.479  -4.315  1.00  0.00     0.174 HD
ENDBRANCH   1  19
BRANCH   7  22
HETATM   22  N7  UNL     1     -34.782  19.381  -7.001  1.00  0.00    -0.223 N 
ATOM     23  H7  UNL     1     -34.494  19.571  -7.962  1.00  0.00     0.177 HD
BRANCH  22  24
HETATM   24  C5  UNL     1     -35.021  18.028  -6.614  1.00  0.00     0.164 C 
BRANCH  24  25
HETATM   25  C6  UNL     1     -35.649  17.203  -7.716  1.00  0.00     0.184 C 
BRANCH  25  26
HETATM   26  O2  UNL     1     -36.921  16.785  -7.342  1.00  0.00    -0.399 OA
ATOM     27  H2  UNL     1     -37.514  16.829  -8.082  1.00  0.00     0.209 HD
ENDBRANCH  25  26
ENDBRANCH  24  25
ENDBRANCH  22  24
ENDBRANCH   7  22
TORSDOF 10
ENDMDL
MODEL 3
REMARK VINA RESULT: -6.488717156      2.612      4.349
REMARK  10 active torsions:
REMARK  status: ('A' for Active; 'I' for Inactive)
REMARK    1  A    between atoms: N1_1  and  C1_4 
REMARK    2  A    between atoms: C2_7  and  N3_8 
REMARK    3  A    between atoms: N3_8  and  C3_10 
REMARK    4  A    between atoms: C3_10  and  N4_11 
REMARK    5  A    between atoms: N4_11  and  N5_12 
REMARK    6  A    between atoms: N4_11  and  O1_15 
REMARK    7  A    between atoms: C4_19  and  N7_20 
REMARK    8  A    between atoms: N7_20  and  C5_22 
REMARK    9  A    between atoms: C5_22  and  C6_23 
REMARK   10  A    between atoms: C6_23  and  O2_24 
ROOT
HETATM    1  C1  UNL     1     -34.127  22.031  -4.486  1.00  0.00     0.705 A 
HETATM    2  N2  UNL     1     -35.315  22.283  -3.912  1.00  0.00    -0.022 N 
ATOM      3  H2  UNL     1     -35.377  22.963  -3.155  1.00  0.00     0.203 HD
HETATM    4  C2  UNL     1     -36.437  21.639  -4.333  1.00  0.00     0.708 A 
HETATM    5  N6  UNL     1     -36.309  20.746  -5.339  1.00  0.00    -0.021 N 
ATOM      6  H6  UNL     1     -37.142  20.255  -5.665  1.00  0.00     0.203 HD
HETATM    7  C4  UNL     1     -35.131  20.475  -5.931  1.00  0.00     0.707 A 
HETATM    8  N8  UNL     1     -34.044  21.133  -5.486  1.00  0.00    -0.022 N 
ATOM      9  H8  UNL     1     -33.138  20.947  -5.915  1.00  0.00     0.203 HD
ENDROOT
BRANCH   4  10
HETATM   10  N3  UNL     1     -37.677  21.917  -3.716  1.00  0.00    -0.209 N 
ATOM     11  H3  UNL     1     -37.921  21.462  -2.836  1.00  0.00     0.179 HD
BRANCH  10  12
HETATM   12  C3  UNL     1     -38.597  22.839  -4.322  1.00  0.00     0.284 C 
BRANCH  12  13
HETATM   13  N4  UNL     1     -39.355  22.237  -5.383  1.00  0.00    -0.095 NA
BRANCH  13  14
HETATM   14  N5  UNL     1     -38.842  22.513  -6.642  1.00  0.00    -0.339 NA
ATOM     15  H52 UNL     1     -38.253  23.343  -6.587  1.00  0.00     0.173 HD
ATOM     16  H51 UNL     1     -39.563  22.594  -7.358  1.00  0.00     0.173 HD
ENDBRANCH  13  14
BRANCH  13  17
HETATM   17  O1  UNL     1     -39.471  20.907  -5.238  1.00  0.00    -0.293 OA
ATOM     18  H1  UNL     1     -38.628  20.479  -5.145  1.00  0.00     0.239 HD
ENDBRANCH  13  17
ENDBRANCH  12  13
ENDBRANCH  10  12
ENDBRANCH   4  10
BRANCH   1  19
HETATM   19  N1  UNL     1     -33.052  22.635  -4.097  1.00  0.00    -0.234 N 
ATOM     20  H12 UNL     1     -33.137  23.505  -3.572  1.00  0.00     0.174 HD
ATOM     21  H11 UNL     1     -32.128  22.259  -4.307  1.00  0.00     0.174 HD
ENDBRANCH   1  19
BRANCH   7  22
HETATM   22  N7  UNL     1     -35.087  19.603  -6.892  1.00  0.00    -0.223 N 
ATOM     23  H7  UNL     1     -35.086  19.938  -7.856  1.00  0.00     0.177 HD
BRANCH  22  24
HETATM   24  C5  UNL     1     -35.038  18.196  -6.656  1.00  0.00     0.164 C 
BRANCH  24  25
HETATM   25  C6  UNL     1     -35.594  17.387  -7.807  1.00  0.00     0.184 C 
BRANCH  25  26
HETATM   26  O2  UNL     1     -36.738  16.704  -7.410  1.00  0.00    -0.399 OA
ATOM     27  H2  UNL     1     -37.241  16.433  -8.169  1.00  0.00     0.209 HD
ENDBRANCH  25  26
ENDBRANCH  24  25
ENDBRANCH  22  24
ENDBRANCH   7  22
TORSDOF 10
ENDMDL
MODEL 4
REMARK VINA RESULT: -6.418372110      2.393      4.351
REMARK  10 active torsions:
REMARK  status: ('A' for Active; 'I' for Inactive)
REMARK    1  A    between atoms: N1_1  and  C1_4 
REMARK    2  A    between atoms: C2_7  and  N3_8 
REMARK    3  A    between atoms: N3_8  and  C3_10 
REMARK    4  A    between atoms: C3_10  and  N4_11 
REMARK    5  A    between atoms: N4_11  and  N5_12 
REMARK    6  A    between atoms: N4_11  and  O1_15 
REMARK    7  A    between atoms: C4_19  and  N7_20 
REMARK    8  A    between atoms: N7_20  and  C5_22 
REMARK    9  A    between atoms: C5_22  and  C6_23 
REMARK   10  A    between atoms: C6_23  and  O2_24 
ROOT
HETATM    1  C1  UNL     1     -34.239  22.307  -4.298  1.00  0.00     0.705 A 
HETATM    2  N2  UNL     1     -35.457  22.498  -3.766  1.00  0.00    -0.022 N 
ATOM      3  H2  UNL     1     -35.570  23.137  -2.979  1.00  0.00     0.203 HD
HETATM    4  C2  UNL     1     -36.541  21.847  -4.267  1.00  0.00     0.708 A 
HETATM    5  N6  UNL     1     -36.345  21.010  -5.309  1.00  0.00    -0.021 N 
ATOM      6  H6  UNL     1     -37.149  20.515  -5.696  1.00  0.00     0.203 HD
HETATM    7  C4  UNL     1     -35.135  20.800  -5.861  1.00  0.00     0.707 A 
HETATM    8  N8  UNL     1     -34.088  21.463  -5.337  1.00  0.00    -0.022 N 
ATOM      9  H8  UNL     1     -33.159  21.323  -5.735  1.00  0.00     0.203 HD
ENDROOT
BRANCH   4  10
HETATM   10  N3  UNL     1     -37.814  22.061  -3.693  1.00  0.00    -0.209 N 
ATOM     11  H3  UNL     1     -38.062  21.597  -2.818  1.00  0.00     0.179 HD
BRANCH  10  12
HETATM   12  C3  UNL     1     -38.762  22.930  -4.333  1.00  0.00     0.284 C 
BRANCH  12  13
HETATM   13  N4  UNL     1     -39.444  22.287  -5.421  1.00  0.00    -0.095 NA
BRANCH  13  14
HETATM   14  N5  UNL     1     -38.887  22.575  -6.659  1.00  0.00    -0.339 NA
ATOM     15  H52 UNL     1     -39.624  22.875  -7.295  1.00  0.00     0.173 HD
ATOM     16  H51 UNL     1     -38.335  21.806  -7.038  1.00  0.00     0.173 HD
ENDBRANCH  13  14
BRANCH  13  17
HETATM   17  O1  UNL     1     -39.508  20.955  -5.269  1.00  0.00    -0.293 OA
ATOM     18  H1  UNL     1     -38.656  20.541  -5.340  1.00  0.00     0.239 HD
ENDBRANCH  13  17
ENDBRANCH  12  13
ENDBRANCH  10  12
ENDBRANCH   4  10
BRANCH   1  19
HETATM   19  N1  UNL     1     -33.199  22.919  -3.833  1.00  0.00    -0.234 N 
ATOM     20  H12 UNL     1     -32.953  22.799  -2.851  1.00  0.00     0.174 HD
ATOM     21  H11 UNL     1     -32.626  23.516  -4.428  1.00  0.00     0.174 HD
ENDBRANCH   1  19
BRANCH   7  22
HETATM   22  N7  UNL     1     -35.025  19.980  -6.862  1.00  0.00    -0.223 N 
ATOM     23  H7  UNL     1     -35.001  20.363  -7.808  1.00  0.00     0.177 HD
BRANCH  22  24
HETATM   24  C5  UNL     1     -34.936  18.566  -6.693  1.00  0.00     0.164 C 
BRANCH  24  25
HETATM   25  C6  UNL     1     -34.255  18.169  -5.402  1.00  0.00     0.184 C 
BRANCH  25  26
HETATM   26  O2  UNL     1     -32.908  18.511  -5.441  1.00  0.00    -0.399 OA
ATOM     27  H2  UNL     1     -32.368  17.731  -5.386  1.00  0.00     0.209 HD
ENDBRANCH  25  26
ENDBRANCH  24  25
ENDBRANCH  22  24
ENDBRANCH   7  22
TORSDOF 10
ENDMDL
MODEL 5
REMARK VINA RESULT: -6.363252895      2.877      4.259
REMARK  10 active torsions:
REMARK  status: ('A' for Active; 'I' for Inactive)
REMARK    1  A    between atoms: N1_1  and  C1_4 
REMARK    2  A    between atoms: C2_7  and  N3_8 
REMARK    3  A    between atoms: N3_8  and  C3_10 
REMARK    4  A    between atoms: C3_10  and  N4_11 
REMARK    5  A    between atoms: N4_11  and  N5_12 
REMARK    6  A    between atoms: N4_11  and  O1_15 
REMARK    7  A    between atoms: C4_19  and  N7_20 
REMARK    8  A    between atoms: N7_20  and  C5_22 
REMARK    9  A    between atoms: C5_22  and  C6_23 
REMARK   10  A    between atoms: C6_23  and  O2_24 
ROOT
HETATM    1  C1  UNL     1     -35.249  19.242  -6.411  1.00  0.00     0.705 A 
HETATM    2  N2  UNL     1     -36.112  20.272  -6.398  1.00  0.00    -0.022 N 
ATOM      3  H2  UNL     1     -36.953  20.234  -6.973  1.00  0.00     0.203 HD
HETATM    4  C2  UNL     1     -35.873  21.364  -5.624  1.00  0.00     0.708 A 
HETATM    5  N6  UNL     1     -34.747  21.372  -4.877  1.00  0.00    -0.021 N 
ATOM      6  H6  UNL     1     -34.555  22.185  -4.292  1.00  0.00     0.203 HD
HETATM    7  C4  UNL     1     -33.866  20.355  -4.873  1.00  0.00     0.707 A 
HETATM    8  N8  UNL     1     -34.138  19.292  -5.653  1.00  0.00    -0.022 N 
ATOM      9  H8  UNL     1     -33.487  18.506  -5.669  1.00  0.00     0.203 HD
ENDROOT
BRANCH   4  10
HETATM   10  N3  UNL     1     -36.793  22.437  -5.624  1.00  0.00    -0.209 N 
ATOM     11  H3  UNL     1     -37.226  22.735  -6.498  1.00  0.00     0.179 HD
BRANCH  10  12
HETATM   12  C3  UNL     1     -37.122  23.110  -4.399  1.00  0.00     0.284 C 
BRANCH  12  13
HETATM   13  N4  UNL     1     -36.450  24.372  -4.270  1.00  0.00    -0.095 NA
BRANCH  13  14
HETATM   14  N5  UNL     1     -37.248  25.359  -3.710  1.00  0.00    -0.339 NA
ATOM     15  H52 UNL     1     -37.456  26.062  -4.418  1.00  0.00     0.173 HD
ATOM     16  H51 UNL     1     -36.846  25.766  -2.865  1.00  0.00     0.173 HD
ENDBRANCH  13  14
BRANCH  13  17
HETATM   17  O1  UNL     1     -35.311  24.275  -3.565  1.00  0.00    -0.293 OA
ATOM     18  H1  UNL     1     -35.388  24.660  -2.700  1.00  0.00     0.239 HD
ENDBRANCH  13  17
ENDBRANCH  12  13
ENDBRANCH  10  12
ENDBRANCH   4  10
BRANCH   1  19
HETATM   19  N1  UNL     1     -35.462  18.197  -7.142  1.00  0.00    -0.234 N 
ATOM     20  H12 UNL     1     -36.382  17.758  -7.118  1.00  0.00     0.174 HD
ATOM     21  H11 UNL     1     -34.730  17.808  -7.736  1.00  0.00     0.174 HD
ENDBRANCH   1  19
BRANCH   7  22
HETATM   22  N7  UNL     1     -32.804  20.434  -4.129  1.00  0.00    -0.223 N 
ATOM     23  H7  UNL     1     -32.104  21.142  -4.351  1.00  0.00     0.177 HD
BRANCH  22  24
HETATM   24  C5  UNL     1     -32.578  19.573  -3.014  1.00  0.00     0.164 C 
BRANCH  24  25
HETATM   25  C6  UNL     1     -31.660  18.415  -3.342  1.00  0.00     0.184 C 
BRANCH  25  26
HETATM   26  O2  UNL     1     -32.364  17.409  -3.993  1.00  0.00    -0.399 OA
ATOM     27  H2  UNL     1     -33.268  17.670  -4.125  1.00  0.00     0.209 HD
ENDBRANCH  25  26
ENDBRANCH  24  25
ENDBRANCH  22  24
ENDBRANCH   7  22
TORSDOF 10
ENDMDL
