MODEL 1
REMARK VINA RESULT: -6.868571808      0.000      0.000
REMARK  7 active torsions:
REMARK  status: ('A' for Active; 'I' for Inactive)
REMARK    1  A    between atoms: N1_1  and  C1_4 
REMARK    2  A    between atoms: N3_8  and  C3_9 
REMARK    3  A    between atoms: C3_9  and  C4_10 
REMARK    4  A    between atoms: C4_10  and  C5_11 
REMARK    5  A    between atoms: C5_11  and  C6_12 
REMARK    6  A    between atoms: C6_12  and  N4_13 
REMARK    7  A    between atoms: C8_22  and  N8_23 
ROOT
HETATM    1  C1  UNL     1     -34.748  18.536  -5.760  1.00  0.00     0.705 A 
HETATM    2  N2  UNL     1     -35.539  19.623  -5.720  1.00  0.00    -0.019 N 
ATOM      3  H2  UNL     1     -36.442  19.602  -6.194  1.00  0.00     0.203 HD
HETATM    4  C2  UNL     1     -35.165  20.738  -5.068  1.00  0.00     0.738 A 
HETATM    5  N3  UNL     1     -35.744  21.935  -4.874  1.00  0.00    -0.151 N 
HETATM    6  C7  UNL     1     -34.923  22.722  -4.126  1.00  0.00     0.225 A 
HETATM    7  N5  UNL     1     -35.241  24.053  -3.741  1.00  0.00    -0.061 NA
HETATM    8  N6  UNL     1     -33.833  21.985  -3.866  1.00  0.00    -0.237 N 
ATOM      9  H6  UNL     1     -33.028  22.296  -3.323  1.00  0.00     0.191 HD
HETATM   10  N7  UNL     1     -33.966  20.795  -4.424  1.00  0.00     0.093 N 
HETATM   11  C8  UNL     1     -33.172  19.712  -4.461  1.00  0.00     0.727 A 
HETATM   12  N9  UNL     1     -33.555  18.602  -5.115  1.00  0.00    -0.020 N 
ATOM     13  H9  UNL     1     -32.936  17.792  -5.128  1.00  0.00     0.203 HD
ENDROOT
BRANCH   5  14
HETATM   14  C3  UNL     1     -37.052  22.289  -5.405  1.00  0.00     0.151 C 
BRANCH  14  15
HETATM   15  C4  UNL     1     -38.009  22.333  -4.239  1.00  0.00     0.022 C 
BRANCH  15  16
HETATM   16  C5  UNL     1     -39.309  23.017  -4.601  1.00  0.00     0.029 C 
BRANCH  16  17
HETATM   17  C6  UNL     1     -39.415  24.255  -3.705  1.00  0.00     0.229 C 
BRANCH  17  18
HETATM   18  N4  UNL     1     -38.147  24.863  -3.457  1.00  0.00    -0.079 N 
ATOM     19  H43 UNL     1     -37.923  25.551  -4.176  1.00  0.00     0.274 HD
ATOM     20  H42 UNL     1     -38.189  25.480  -2.646  1.00  0.00     0.274 HD
ATOM     21  H41 UNL     1     -37.396  24.179  -3.358  1.00  0.00     0.274 HD
ENDBRANCH  17  18
ENDBRANCH  16  17
ENDBRANCH  15  16
ENDBRANCH  14  15
ENDBRANCH   5  14
BRANCH   1  22
HETATM   22  N1  UNL     1     -35.103  17.456  -6.388  1.00  0.00    -0.234 N 
ATOM     23  H12 UNL     1     -36.076  17.303  -6.650  1.00  0.00     0.174 HD
ATOM     24  H11 UNL     1     -34.427  16.734  -6.637  1.00  0.00     0.174 HD
ENDBRANCH   1  22
BRANCH  11  25
HETATM   25  N8  UNL     1     -32.033  19.760  -3.851  1.00  0.00    -0.232 N 
ATOM     26  H82 UNL     1     -31.939  20.242  -2.957  1.00  0.00     0.174 HD
ATOM     27  H81 UNL     1     -31.228  19.307  -4.285  1.00  0.00     0.174 HD
ENDBRANCH  11  25
TORSDOF 7
ENDMDL
MODEL 2
REMARK VINA RESULT: -6.629840014      1.230      1.334
REMARK  7 active torsions:
REMARK  status: ('A' for Active; 'I' for Inactive)
REMARK    1  A    between atoms: N1_1  and  C1_4 
REMARK    2  A    between atoms: N3_8  and  C3_9 
REMARK    3  A    between atoms: C3_9  and  C4_10 
REMARK    4  A    between atoms: C4_10  and  C5_11 
REMARK    5  A    between atoms: C5_11  and  C6_12 
REMARK    6  A    between atoms: C6_12  and  N4_13 
REMARK    7  A    between atoms: C8_22  and  N8_23 
ROOT
HETATM    1  C1  UNL     1     -35.243  19.493  -6.158  1.00  0.00     0.705 A 
HETATM    2  N2  UNL     1     -36.216  20.419  -6.082  1.00  0.00    -0.019 N 
ATOM      3  H2  UNL     1     -37.103  20.252  -6.558  1.00  0.00     0.203 HD
HETATM    4  C2  UNL     1     -36.045  21.560  -5.391  1.00  0.00     0.738 A 
HETATM    5  N3  UNL     1     -36.828  22.626  -5.157  1.00  0.00    -0.151 N 
HETATM    6  C7  UNL     1     -36.158  23.521  -4.382  1.00  0.00     0.225 A 
HETATM    7  N5  UNL     1     -36.707  24.760  -3.951  1.00  0.00    -0.061 NA
HETATM    8  N6  UNL     1     -34.952  22.984  -4.146  1.00  0.00    -0.237 N 
ATOM      9  H6  UNL     1     -34.213  23.415  -3.590  1.00  0.00     0.191 HD
HETATM   10  N7  UNL     1     -34.872  21.809  -4.744  1.00  0.00     0.093 N 
HETATM   11  C8  UNL     1     -33.897  20.887  -4.817  1.00  0.00     0.727 A 
HETATM   12  N9  UNL     1     -34.079  19.750  -5.510  1.00  0.00    -0.020 N 
ATOM     13  H9  UNL     1     -33.324  19.065  -5.550  1.00  0.00     0.203 HD
ENDROOT
BRANCH   5  14
HETATM   14  C3  UNL     1     -38.181  22.758  -5.677  1.00  0.00     0.151 C 
BRANCH  14  15
HETATM   15  C4  UNL     1     -39.109  22.832  -4.490  1.00  0.00     0.022 C 
BRANCH  15  16
HETATM   16  C5  UNL     1     -40.340  23.660  -4.786  1.00  0.00     0.029 C 
BRANCH  16  17
HETATM   17  C6  UNL     1     -40.300  24.858  -3.833  1.00  0.00     0.229 C 
BRANCH  17  18
HETATM   18  N4  UNL     1     -39.367  24.679  -2.766  1.00  0.00    -0.079 N 
ATOM     19  H43 UNL     1     -38.827  23.822  -2.891  1.00  0.00     0.274 HD
ATOM     20  H42 UNL     1     -38.609  25.360  -2.824  1.00  0.00     0.274 HD
ATOM     21  H41 UNL     1     -39.811  24.702  -1.848  1.00  0.00     0.274 HD
ENDBRANCH  17  18
ENDBRANCH  16  17
ENDBRANCH  15  16
ENDBRANCH  14  15
ENDBRANCH   5  14
BRANCH   1  22
HETATM   22  N1  UNL     1     -35.402  18.389  -6.823  1.00  0.00    -0.234 N 
ATOM     23  H12 UNL     1     -36.241  17.823  -6.699  1.00  0.00     0.174 HD
ATOM     24  H11 UNL     1     -34.700  18.056  -7.484  1.00  0.00     0.174 HD
ENDBRANCH   1  22
BRANCH  11  25
HETATM   25  N8  UNL     1     -32.782  21.118  -4.205  1.00  0.00    -0.232 N 
ATOM     26  H82 UNL     1     -32.765  21.646  -3.332  1.00  0.00     0.174 HD
ATOM     27  H81 UNL     1     -31.918  20.762  -4.614  1.00  0.00     0.174 HD
ENDBRANCH  11  25
TORSDOF 7
ENDMDL
MODEL 3
REMARK VINA RESULT: -6.559755880      1.716      5.107
REMARK  7 active torsions:
REMARK  status: ('A' for Active; 'I' for Inactive)
REMARK    1  A    between atoms: N1_1  and  C1_4 
REMARK    2  A    between atoms: N3_8  and  C3_9 
REMARK    3  A    between atoms: C3_9  and  C4_10 
REMARK    4  A    between atoms: C4_10  and  C5_11 
REMARK    5  A    between atoms: C5_11  and  C6_12 
REMARK    6  A    between atoms: C6_12  and  N4_13 
REMARK    7  A    between atoms: C8_22  and  N8_23 
ROOT
HETATM    1  C1  UNL     1     -38.549  20.949  -5.192  1.00  0.00     0.705 A 
HETATM    2  N2  UNL     1     -37.209  21.043  -5.113  1.00  0.00    -0.019 N 
ATOM      3  H2  UNL     1     -36.634  20.253  -5.403  1.00  0.00     0.203 HD
HETATM    4  C2  UNL     1     -36.612  22.159  -4.658  1.00  0.00     0.738 A 
HETATM    5  N3  UNL     1     -35.328  22.513  -4.478  1.00  0.00    -0.151 N 
HETATM    6  C7  UNL     1     -35.271  23.779  -3.983  1.00  0.00     0.225 A 
HETATM    7  N5  UNL     1     -34.056  24.455  -3.681  1.00  0.00    -0.061 NA
HETATM    8  N6  UNL     1     -36.541  24.193  -3.864  1.00  0.00    -0.237 N 
ATOM      9  H6  UNL     1     -36.833  25.107  -3.517  1.00  0.00     0.191 HD
HETATM   10  N7  UNL     1     -37.353  23.232  -4.265  1.00  0.00     0.093 N 
HETATM   11  C8  UNL     1     -38.692  23.143  -4.343  1.00  0.00     0.727 A 
HETATM   12  N9  UNL     1     -39.280  22.023  -4.799  1.00  0.00    -0.020 N 
ATOM     13  H9  UNL     1     -40.297  21.980  -4.849  1.00  0.00     0.203 HD
ENDROOT
BRANCH   5  14
HETATM   14  C3  UNL     1     -34.204  21.639  -4.782  1.00  0.00     0.151 C 
BRANCH  14  15
HETATM   15  C4  UNL     1     -33.974  20.771  -3.570  1.00  0.00     0.022 C 
BRANCH  15  16
HETATM   16  C5  UNL     1     -33.521  19.379  -3.949  1.00  0.00     0.029 C 
BRANCH  16  17
HETATM   17  C6  UNL     1     -33.967  19.154  -5.396  1.00  0.00     0.229 C 
BRANCH  17  18
HETATM   18  N4  UNL     1     -34.758  17.975  -5.550  1.00  0.00    -0.079 N 
ATOM     19  H43 UNL     1     -35.628  18.045  -5.020  1.00  0.00     0.274 HD
ATOM     20  H42 UNL     1     -35.145  17.914  -6.492  1.00  0.00     0.274 HD
ATOM     21  H41 UNL     1     -34.248  17.126  -5.307  1.00  0.00     0.274 HD
ENDBRANCH  17  18
ENDBRANCH  16  17
ENDBRANCH  15  16
ENDBRANCH  14  15
ENDBRANCH   5  14
BRANCH   1  22
HETATM   22  N1  UNL     1     -39.133  19.875  -5.630  1.00  0.00    -0.234 N 
ATOM     23  H12 UNL     1     -39.744  19.912  -6.446  1.00  0.00     0.174 HD
ATOM     24  H11 UNL     1     -39.002  18.970  -5.178  1.00  0.00     0.174 HD
ENDBRANCH   1  22
BRANCH  11  25
HETATM   25  N8  UNL     1     -39.401  24.158  -3.971  1.00  0.00    -0.232 N 
ATOM     26  H82 UNL     1     -39.507  24.388  -2.983  1.00  0.00     0.174 HD
ATOM     27  H81 UNL     1     -39.854  24.725  -4.688  1.00  0.00     0.174 HD
ENDBRANCH  11  25
TORSDOF 7
ENDMDL
MODEL 4
REMARK VINA RESULT: -6.391542387      1.803      5.648
REMARK  7 active torsions:
REMARK  status: ('A' for Active; 'I' for Inactive)
REMARK    1  A    between atoms: N1_1  and  C1_4 
REMARK    2  A    between atoms: N3_8  and  C3_9 
REMARK    3  A    between atoms: C3_9  and  C4_10 
REMARK    4  A    between atoms: C4_10  and  C5_11 
REMARK    5  A    between atoms: C5_11  and  C6_12 
REMARK    6  A    between atoms: C6_12  and  N4_13 
REMARK    7  A    between atoms: C8_22  and  N8_23 
ROOT
HETATM    1  C1  UNL     1     -38.033  23.089  -4.211  1.00  0.00     0.705 A 
HETATM    2  N2  UNL     1     -36.740  22.759  -4.376  1.00  0.00    -0.019 N 
ATOM      3  H2  UNL     1     -36.015  23.389  -4.032  1.00  0.00     0.203 HD
HETATM    4  C2  UNL     1     -36.381  21.615  -4.985  1.00  0.00     0.738 A 
HETATM    5  N3  UNL     1     -35.195  21.054  -5.276  1.00  0.00    -0.151 N 
HETATM    6  C7  UNL     1     -35.397  19.868  -5.912  1.00  0.00     0.225 A 
HETATM    7  N5  UNL     1     -34.344  19.021  -6.356  1.00  0.00    -0.061 NA
HETATM    8  N6  UNL     1     -36.725  19.714  -6.005  1.00  0.00    -0.237 N 
ATOM      9  H6  UNL     1     -37.198  18.918  -6.434  1.00  0.00     0.191 HD
HETATM   10  N7  UNL     1     -37.326  20.753  -5.453  1.00  0.00     0.093 N 
HETATM   11  C8  UNL     1     -38.620  21.078  -5.290  1.00  0.00     0.727 A 
HETATM   12  N9  UNL     1     -38.968  22.224  -4.680  1.00  0.00    -0.020 N 
ATOM     13  H9  UNL     1     -39.956  22.448  -4.567  1.00  0.00     0.203 HD
ENDROOT
BRANCH   5  14
HETATM   14  C3  UNL     1     -33.916  21.662  -4.941  1.00  0.00     0.151 C 
BRANCH  14  15
HETATM   15  C4  UNL     1     -33.790  21.635  -3.438  1.00  0.00     0.022 C 
BRANCH  15  16
HETATM   16  C5  UNL     1     -33.611  20.228  -2.911  1.00  0.00     0.029 C 
BRANCH  16  17
HETATM   17  C6  UNL     1     -32.365  19.661  -3.596  1.00  0.00     0.229 C 
BRANCH  17  18
HETATM   18  N4  UNL     1     -32.526  18.297  -3.989  1.00  0.00    -0.079 N 
ATOM     19  H43 UNL     1     -33.089  17.784  -3.309  1.00  0.00     0.274 HD
ATOM     20  H42 UNL     1     -33.139  18.220  -4.801  1.00  0.00     0.274 HD
ATOM     21  H41 UNL     1     -31.636  17.829  -4.156  1.00  0.00     0.274 HD
ENDBRANCH  17  18
ENDBRANCH  16  17
ENDBRANCH  15  16
ENDBRANCH  14  15
ENDBRANCH   5  14
BRANCH   1  22
HETATM   22  N1  UNL     1     -38.387  24.192  -3.624  1.00  0.00    -0.234 N 
ATOM     23  H12 UNL     1     -38.366  24.269  -2.607  1.00  0.00     0.174 HD
ATOM     24  H11 UNL     1     -38.694  25.007  -4.154  1.00  0.00     0.174 HD
ENDBRANCH   1  22
BRANCH  11  25
HETATM   25  N8  UNL     1     -39.521  20.263  -5.733  1.00  0.00    -0.232 N 
ATOM     26  H82 UNL     1     -40.368  20.078  -5.194  1.00  0.00     0.174 HD
ATOM     27  H81 UNL     1     -39.368  19.807  -6.632  1.00  0.00     0.174 HD
ENDBRANCH  11  25
TORSDOF 7
ENDMDL
MODEL 5
REMARK VINA RESULT: -6.366965368      1.599      3.472
REMARK  7 active torsions:
REMARK  status: ('A' for Active; 'I' for Inactive)
REMARK    1  A    between atoms: N1_1  and  C1_4 
REMARK    2  A    between atoms: N3_8  and  C3_9 
REMARK    3  A    between atoms: C3_9  and  C4_10 
REMARK    4  A    between atoms: C4_10  and  C5_11 
REMARK    5  A    between atoms: C5_11  and  C6_12 
REMARK    6  A    between atoms: C6_12  and  N4_13 
REMARK    7  A    between atoms: C8_22  and  N8_23 
ROOT
HETATM    1  C1  UNL     1     -34.278  22.863  -4.088  1.00  0.00     0.705 A 
HETATM    2  N2  UNL     1     -35.612  22.937  -3.929  1.00  0.00    -0.019 N 
ATOM      3  H2  UNL     1     -36.009  23.703  -3.385  1.00  0.00     0.203 HD
HETATM    4  C2  UNL     1     -36.434  22.022  -4.472  1.00  0.00     0.738 A 
HETATM    5  N3  UNL     1     -37.768  21.859  -4.470  1.00  0.00    -0.151 N 
HETATM    6  C7  UNL     1     -38.091  20.747  -5.186  1.00  0.00     0.225 A 
HETATM    7  N5  UNL     1     -39.425  20.294  -5.379  1.00  0.00    -0.061 NA
HETATM    8  N6  UNL     1     -36.933  20.234  -5.625  1.00  0.00    -0.237 N 
ATOM      9  H6  UNL     1     -36.839  19.393  -6.195  1.00  0.00     0.191 HD
HETATM   10  N7  UNL     1     -35.933  20.989  -5.205  1.00  0.00     0.093 N 
HETATM   11  C8  UNL     1     -34.601  20.910  -5.367  1.00  0.00     0.727 A 
HETATM   12  N9  UNL     1     -33.788  21.831  -4.820  1.00  0.00    -0.020 N 
ATOM     13  H9  UNL     1     -32.781  21.751  -4.958  1.00  0.00     0.203 HD
ENDROOT
BRANCH   5  14
HETATM   14  C3  UNL     1     -38.685  22.761  -3.790  1.00  0.00     0.151 C 
BRANCH  14  15
HETATM   15  C4  UNL     1     -39.579  23.366  -4.844  1.00  0.00     0.022 C 
BRANCH  15  16
HETATM   16  C5  UNL     1     -40.396  24.517  -4.300  1.00  0.00     0.029 C 
BRANCH  16  17
HETATM   17  C6  UNL     1     -39.573  25.139  -3.168  1.00  0.00     0.229 C 
BRANCH  17  18
HETATM   18  N4  UNL     1     -39.022  26.407  -3.522  1.00  0.00    -0.079 N 
ATOM     19  H43 UNL     1     -38.795  26.443  -4.516  1.00  0.00     0.274 HD
ATOM     20  H42 UNL     1     -39.734  27.138  -3.490  1.00  0.00     0.274 HD
ATOM     21  H41 UNL     1     -38.214  26.657  -2.952  1.00  0.00     0.274 HD
ENDBRANCH  17  18
ENDBRANCH  16  17
ENDBRANCH  15  16
ENDBRANCH  14  15
ENDBRANCH   5  14
BRANCH   1  22
HETATM   22  N1  UNL     1     -33.478  23.743  -3.567  1.00  0.00    -0.234 N 
ATOM     23  H12 UNL     1     -33.779  24.315  -2.778  1.00  0.00     0.174 HD
ATOM     24  H11 UNL     1     -32.534  23.889  -3.924  1.00  0.00     0.174 HD
ENDBRANCH   1  22
BRANCH  11  25
HETATM   25  N8  UNL     1     -34.120  19.932  -6.062  1.00  0.00    -0.232 N 
ATOM     26  H82 UNL     1     -33.236  20.031  -6.561  1.00  0.00     0.174 HD
ATOM     27  H81 UNL     1     -34.645  19.058  -6.102  1.00  0.00     0.174 HD
ENDBRANCH  11  25
TORSDOF 7
ENDMDL
