MODEL 1
REMARK VINA RESULT: -6.773349396      0.000      0.000
REMARK  8 active torsions:
REMARK  status: ('A' for Active; 'I' for Inactive)
REMARK    1  A    between atoms: N1_1  and  C1_4 
REMARK    2  A    between atoms: C2_7  and  N3_8 
REMARK    3  A    between atoms: N5_14  and  C4_15 
REMARK    4  A    between atoms: C4_15  and  C5_16 
REMARK    5  A    between atoms: C5_16  and  N6_17 
REMARK    6  A    between atoms: N6_17  and  C6_20 
REMARK    7  A    between atoms: C6_20  and  C7_21 
REMARK    8  A    between atoms: C7_21  and  O1_22 
ROOT
HETATM    1  C1  UNL     1     -34.533  20.533  -6.188  1.00  0.00     0.679 A 
HETATM    2  N2  UNL     1     -33.876  21.269  -5.276  1.00  0.00    -0.175 N 
ATOM      3  H2  UNL     1     -32.869  21.150  -5.171  1.00  0.00     0.186 HD
HETATM    4  C2  UNL     1     -34.520  22.164  -4.494  1.00  0.00     0.147 A 
HETATM    5  C3  UNL     1     -35.886  22.335  -4.628  1.00  0.00     0.140 A 
HETATM    6  N4  UNL     1     -36.800  23.121  -4.018  1.00  0.00    -0.277 N 
ATOM      7  H4  UNL     1     -36.592  23.791  -3.277  1.00  0.00     0.189 HD
HETATM    8  N5  UNL     1     -38.012  22.896  -4.526  1.00  0.00    -0.230 N 
HETATM    9  N7  UNL     1     -37.839  21.966  -5.452  1.00  0.00    -0.266 N 
ATOM     10  H7  UNL     1     -38.592  21.580  -6.022  1.00  0.00     0.190 HD
HETATM   11  C8  UNL     1     -36.564  21.593  -5.551  1.00  0.00     0.169 A 
HETATM   12  N8  UNL     1     -35.857  20.716  -6.299  1.00  0.00    -0.173 N 
ATOM     13  H8  UNL     1     -36.361  20.161  -6.990  1.00  0.00     0.186 HD
ENDROOT
BRANCH   8  14
HETATM   14  C4  UNL     1     -39.262  23.530  -4.137  1.00  0.00     0.197 C 
BRANCH  14  15
HETATM   15  C5  UNL     1     -38.922  24.895  -3.571  1.00  0.00     0.255 C 
BRANCH  15  16
HETATM   16  N6  UNL     1     -39.331  25.035  -2.208  1.00  0.00    -0.071 N 
ATOM     17  H62 UNL     1     -40.279  24.693  -2.054  1.00  0.00     0.277 HD
ATOM     18  H61 UNL     1     -38.840  24.389  -1.591  1.00  0.00     0.277 HD
BRANCH  16  19
HETATM   19  C6  UNL     1     -39.173  26.405  -1.798  1.00  0.00     0.258 C 
BRANCH  19  20
HETATM   20  C7  UNL     1     -39.050  26.523  -0.297  1.00  0.00     0.191 C 
BRANCH  20  21
HETATM   21  O1  UNL     1     -37.894  25.813   0.083  1.00  0.00    -0.399 OA
ATOM     22  H1  UNL     1     -38.072  25.418   0.928  1.00  0.00     0.209 HD
ENDBRANCH  20  21
ENDBRANCH  19  20
ENDBRANCH  16  19
ENDBRANCH  15  16
ENDBRANCH  14  15
ENDBRANCH   8  14
BRANCH   4  23
HETATM   23  N3  UNL     1     -33.913  22.873  -3.616  1.00  0.00    -0.383 N 
ATOM     24  H32 UNL     1     -33.257  22.400  -2.994  1.00  0.00     0.157 HD
ATOM     25  H31 UNL     1     -34.062  23.878  -3.525  1.00  0.00     0.157 HD
ENDBRANCH   4  23
BRANCH   1  26
HETATM   26  N1  UNL     1     -33.889  19.676  -6.927  1.00  0.00    -0.234 N 
ATOM     27  H12 UNL     1     -32.881  19.538  -6.844  1.00  0.00     0.174 HD
ATOM     28  H11 UNL     1     -34.387  19.115  -7.619  1.00  0.00     0.174 HD
ENDBRANCH   1  26
TORSDOF 8
ENDMDL
MODEL 2
REMARK VINA RESULT: -6.741430723      1.967      2.442
REMARK  8 active torsions:
REMARK  status: ('A' for Active; 'I' for Inactive)
REMARK    1  A    between atoms: N1_1  and  C1_4 
REMARK    2  A    between atoms: C2_7  and  N3_8 
REMARK    3  A    between atoms: N5_14  and  C4_15 
REMARK    4  A    between atoms: C4_15  and  C5_16 
REMARK    5  A    between atoms: C5_16  and  N6_17 
REMARK    6  A    between atoms: N6_17  and  C6_20 
REMARK    7  A    between atoms: C6_20  and  C7_21 
REMARK    8  A    between atoms: C7_21  and  O1_22 
ROOT
HETATM    1  C1  UNL     1     -33.505  19.020  -4.467  1.00  0.00     0.679 A 
HETATM    2  N2  UNL     1     -32.972  20.216  -4.164  1.00  0.00    -0.175 N 
ATOM      3  H2  UNL     1     -32.016  20.260  -3.810  1.00  0.00     0.186 HD
HETATM    4  C2  UNL     1     -33.671  21.361  -4.317  1.00  0.00     0.147 A 
HETATM    5  C3  UNL     1     -34.968  21.314  -4.798  1.00  0.00     0.140 A 
HETATM    6  N4  UNL     1     -35.909  22.248  -5.057  1.00  0.00    -0.277 N 
ATOM      7  H4  UNL     1     -35.788  23.252  -4.922  1.00  0.00     0.189 HD
HETATM    8  N5  UNL     1     -37.018  21.668  -5.516  1.00  0.00    -0.230 N 
HETATM    9  N7  UNL     1     -36.754  20.370  -5.537  1.00  0.00    -0.266 N 
ATOM     10  H7  UNL     1     -37.417  19.658  -5.843  1.00  0.00     0.190 HD
HETATM   11  C8  UNL     1     -35.521  20.107  -5.109  1.00  0.00     0.169 A 
HETATM   12  N8  UNL     1     -34.764  19.001  -4.931  1.00  0.00    -0.173 N 
ATOM     13  H8  UNL     1     -35.174  18.097  -5.163  1.00  0.00     0.186 HD
ENDROOT
BRANCH   8  14
HETATM   14  C4  UNL     1     -38.260  22.321  -5.901  1.00  0.00     0.197 C 
BRANCH  14  15
HETATM   15  C5  UNL     1     -39.169  22.318  -4.687  1.00  0.00     0.255 C 
BRANCH  15  16
HETATM   16  N6  UNL     1     -38.663  23.133  -3.628  1.00  0.00    -0.071 N 
ATOM     17  H62 UNL     1     -38.829  22.719  -2.711  1.00  0.00     0.277 HD
ATOM     18  H61 UNL     1     -37.644  23.142  -3.602  1.00  0.00     0.277 HD
BRANCH  16  19
HETATM   19  C6  UNL     1     -39.217  24.457  -3.734  1.00  0.00     0.258 C 
BRANCH  19  20
HETATM   20  C7  UNL     1     -38.188  25.515  -3.409  1.00  0.00     0.191 C 
BRANCH  20  21
HETATM   21  O1  UNL     1     -37.009  25.177  -4.104  1.00  0.00    -0.399 OA
ATOM     22  H1  UNL     1     -36.540  25.985  -4.271  1.00  0.00     0.209 HD
ENDBRANCH  20  21
ENDBRANCH  19  20
ENDBRANCH  16  19
ENDBRANCH  15  16
ENDBRANCH  14  15
ENDBRANCH   8  14
BRANCH   4  23
HETATM   23  N3  UNL     1     -33.182  22.510  -4.030  1.00  0.00    -0.383 N 
ATOM     24  H32 UNL     1     -32.758  22.630  -3.111  1.00  0.00     0.157 HD
ATOM     25  H31 UNL     1     -33.202  23.293  -4.684  1.00  0.00     0.157 HD
ENDBRANCH   4  23
BRANCH   1  26
HETATM   26  N1  UNL     1     -32.809  17.931  -4.308  1.00  0.00    -0.234 N 
ATOM     27  H12 UNL     1     -32.426  17.413  -5.098  1.00  0.00     0.174 HD
ATOM     28  H11 UNL     1     -32.632  17.566  -3.372  1.00  0.00     0.174 HD
ENDBRANCH   1  26
TORSDOF 8
ENDMDL
MODEL 3
REMARK VINA RESULT: -6.614826300      1.647      2.471
REMARK  8 active torsions:
REMARK  status: ('A' for Active; 'I' for Inactive)
REMARK    1  A    between atoms: N1_1  and  C1_4 
REMARK    2  A    between atoms: C2_7  and  N3_8 
REMARK    3  A    between atoms: N5_14  and  C4_15 
REMARK    4  A    between atoms: C4_15  and  C5_16 
REMARK    5  A    between atoms: C5_16  and  N6_17 
REMARK    6  A    between atoms: N6_17  and  C6_20 
REMARK    7  A    between atoms: C6_20  and  C7_21 
REMARK    8  A    between atoms: C7_21  and  O1_22 
ROOT
HETATM    1  C1  UNL     1     -33.470  19.761  -3.866  1.00  0.00     0.679 A 
HETATM    2  N2  UNL     1     -33.401  19.673  -5.205  1.00  0.00    -0.175 N 
ATOM      3  H2  UNL     1     -32.596  19.217  -5.634  1.00  0.00     0.186 HD
HETATM    4  C2  UNL     1     -34.374  20.174  -5.997  1.00  0.00     0.147 A 
HETATM    5  C3  UNL     1     -35.473  20.793  -5.427  1.00  0.00     0.140 A 
HETATM    6  N4  UNL     1     -36.583  21.380  -5.923  1.00  0.00    -0.277 N 
ATOM      7  H4  UNL     1     -36.806  21.464  -6.915  1.00  0.00     0.189 HD
HETATM    8  N5  UNL     1     -37.346  21.835  -4.928  1.00  0.00    -0.230 N 
HETATM    9  N7  UNL     1     -36.698  21.523  -3.816  1.00  0.00    -0.266 N 
ATOM     10  H7  UNL     1     -37.034  21.742  -2.879  1.00  0.00     0.190 HD
HETATM   11  C8  UNL     1     -35.554  20.888  -4.069  1.00  0.00     0.169 A 
HETATM   12  N8  UNL     1     -34.544  20.366  -3.337  1.00  0.00    -0.173 N 
ATOM     13  H8  UNL     1     -34.603  20.436  -2.322  1.00  0.00     0.186 HD
ENDROOT
BRANCH   8  14
HETATM   14  C4  UNL     1     -38.617  22.535  -5.041  1.00  0.00     0.197 C 
BRANCH  14  15
HETATM   15  C5  UNL     1     -38.835  23.288  -3.743  1.00  0.00     0.255 C 
BRANCH  15  16
HETATM   16  N6  UNL     1     -38.138  24.536  -3.716  1.00  0.00    -0.071 N 
ATOM     17  H62 UNL     1     -37.305  24.499  -3.128  1.00  0.00     0.277 HD
ATOM     18  H61 UNL     1     -37.682  24.742  -4.604  1.00  0.00     0.277 HD
BRANCH  16  19
HETATM   19  C6  UNL     1     -39.041  25.582  -3.314  1.00  0.00     0.258 C 
BRANCH  19  20
HETATM   20  C7  UNL     1     -38.600  26.228  -2.022  1.00  0.00     0.191 C 
BRANCH  20  21
HETATM   21  O1  UNL     1     -37.195  26.129  -1.966  1.00  0.00    -0.399 OA
ATOM     22  H1  UNL     1     -36.968  25.846  -1.088  1.00  0.00     0.209 HD
ENDBRANCH  20  21
ENDBRANCH  19  20
ENDBRANCH  16  19
ENDBRANCH  15  16
ENDBRANCH  14  15
ENDBRANCH   8  14
BRANCH   4  23
HETATM   23  N3  UNL     1     -34.326  20.103  -7.276  1.00  0.00    -0.383 N 
ATOM     24  H32 UNL     1     -35.059  19.577  -7.750  1.00  0.00     0.157 HD
ATOM     25  H31 UNL     1     -33.590  20.551  -7.822  1.00  0.00     0.157 HD
ENDBRANCH   4  23
BRANCH   1  26
HETATM   26  N1  UNL     1     -32.517  19.272  -3.125  1.00  0.00    -0.234 N 
ATOM     27  H12 UNL     1     -31.532  19.380  -3.369  1.00  0.00     0.174 HD
ATOM     28  H11 UNL     1     -32.739  18.761  -2.272  1.00  0.00     0.174 HD
ENDBRANCH   1  26
TORSDOF 8
ENDMDL
MODEL 4
REMARK VINA RESULT: -6.574322946      2.957      4.334
REMARK  8 active torsions:
REMARK  status: ('A' for Active; 'I' for Inactive)
REMARK    1  A    between atoms: N1_1  and  C1_4 
REMARK    2  A    between atoms: C2_7  and  N3_8 
REMARK    3  A    between atoms: N5_14  and  C4_15 
REMARK    4  A    between atoms: C4_15  and  C5_16 
REMARK    5  A    between atoms: C5_16  and  N6_17 
REMARK    6  A    between atoms: N6_17  and  C6_20 
REMARK    7  A    between atoms: C6_20  and  C7_21 
REMARK    8  A    between atoms: C7_21  and  O1_22 
ROOT
HETATM    1  C1  UNL     1     -32.539  18.401  -3.838  1.00  0.00     0.679 A 
HETATM    2  N2  UNL     1     -33.393  18.030  -4.808  1.00  0.00    -0.175 N 
ATOM      3  H2  UNL     1     -33.328  17.089  -5.195  1.00  0.00     0.186 HD
HETATM    4  C2  UNL     1     -34.335  18.875  -5.281  1.00  0.00     0.147 A 
HETATM    5  C3  UNL     1     -34.433  20.154  -4.762  1.00  0.00     0.140 A 
HETATM    6  N4  UNL     1     -35.239  21.209  -5.010  1.00  0.00    -0.277 N 
ATOM      7  H4  UNL     1     -35.989  21.222  -5.701  1.00  0.00     0.189 HD
HETATM    8  N5  UNL     1     -34.912  22.233  -4.220  1.00  0.00    -0.230 N 
HETATM    9  N7  UNL     1     -33.899  21.800  -3.484  1.00  0.00    -0.266 N 
ATOM     10  H7  UNL     1     -33.425  22.362  -2.777  1.00  0.00     0.190 HD
HETATM   11  C8  UNL     1     -33.573  20.542  -3.778  1.00  0.00     0.169 A 
HETATM   12  N8  UNL     1     -32.654  19.646  -3.352  1.00  0.00    -0.173 N 
ATOM     13  H8  UNL     1     -32.010  19.934  -2.616  1.00  0.00     0.186 HD
ENDROOT
BRANCH   8  14
HETATM   14  C4  UNL     1     -35.529  23.550  -4.182  1.00  0.00     0.197 C 
BRANCH  14  15
HETATM   15  C5  UNL     1     -36.900  23.426  -4.815  1.00  0.00     0.255 C 
BRANCH  15  16
HETATM   16  N6  UNL     1     -37.938  23.296  -3.842  1.00  0.00    -0.071 N 
ATOM     17  H62 UNL     1     -37.661  22.702  -3.060  1.00  0.00     0.277 HD
ATOM     18  H61 UNL     1     -38.090  24.160  -3.322  1.00  0.00     0.277 HD
BRANCH  16  19
HETATM   19  C6  UNL     1     -39.140  22.827  -4.480  1.00  0.00     0.258 C 
BRANCH  19  20
HETATM   20  C7  UNL     1     -38.836  21.809  -5.554  1.00  0.00     0.191 C 
BRANCH  20  21
HETATM   21  O1  UNL     1     -39.561  20.642  -5.238  1.00  0.00    -0.399 OA
ATOM     22  H1  UNL     1     -40.246  20.552  -5.890  1.00  0.00     0.209 HD
ENDBRANCH  20  21
ENDBRANCH  19  20
ENDBRANCH  16  19
ENDBRANCH  15  16
ENDBRANCH  14  15
ENDBRANCH   8  14
BRANCH   4  23
HETATM   23  N3  UNL     1     -35.156  18.542  -6.207  1.00  0.00    -0.383 N 
ATOM     24  H32 UNL     1     -35.675  17.672  -6.091  1.00  0.00     0.157 HD
ATOM     25  H31 UNL     1     -35.304  19.113  -7.039  1.00  0.00     0.157 HD
ENDBRANCH   4  23
BRANCH   1  26
HETATM   26  N1  UNL     1     -31.639  17.568  -3.402  1.00  0.00    -0.234 N 
ATOM     27  H12 UNL     1     -30.716  17.494  -3.830  1.00  0.00     0.174 HD
ATOM     28  H11 UNL     1     -31.842  16.959  -2.610  1.00  0.00     0.174 HD
ENDBRANCH   1  26
TORSDOF 8
ENDMDL
MODEL 5
REMARK VINA RESULT: -6.547209628      2.309      2.690
REMARK  8 active torsions:
REMARK  status: ('A' for Active; 'I' for Inactive)
REMARK    1  A    between atoms: N1_1  and  C1_4 
REMARK    2  A    between atoms: C2_7  and  N3_8 
REMARK    3  A    between atoms: N5_14  and  C4_15 
REMARK    4  A    between atoms: C4_15  and  C5_16 
REMARK    5  A    between atoms: C5_16  and  N6_17 
REMARK    6  A    between atoms: N6_17  and  C6_20 
REMARK    7  A    between atoms: C6_20  and  C7_21 
REMARK    8  A    between atoms: C7_21  and  O1_22 
ROOT
HETATM    1  C1  UNL     1     -34.582  20.598  -6.083  1.00  0.00     0.679 A 
HETATM    2  N2  UNL     1     -34.013  21.435  -5.199  1.00  0.00    -0.175 N 
ATOM      3  H2  UNL     1     -33.003  21.399  -5.057  1.00  0.00     0.186 HD
HETATM    4  C2  UNL     1     -34.746  22.323  -4.494  1.00  0.00     0.147 A 
HETATM    5  C3  UNL     1     -36.116  22.382  -4.679  1.00  0.00     0.140 A 
HETATM    6  N4  UNL     1     -37.106  23.133  -4.146  1.00  0.00    -0.277 N 
ATOM      7  H4  UNL     1     -36.973  23.859  -3.441  1.00  0.00     0.189 HD
HETATM    8  N5  UNL     1     -38.280  22.787  -4.674  1.00  0.00    -0.230 N 
HETATM    9  N7  UNL     1     -38.007  21.818  -5.536  1.00  0.00    -0.266 N 
ATOM     10  H7  UNL     1     -38.710  21.344  -6.102  1.00  0.00     0.190 HD
HETATM   11  C8  UNL     1     -36.706  21.538  -5.573  1.00  0.00     0.169 A 
HETATM   12  N8  UNL     1     -35.911  20.674  -6.244  1.00  0.00    -0.173 N 
ATOM     13  H8  UNL     1     -36.349  20.042  -6.914  1.00  0.00     0.186 HD
ENDROOT
BRANCH   8  14
HETATM   14  C4  UNL     1     -39.586  23.346  -4.362  1.00  0.00     0.197 C 
BRANCH  14  15
HETATM   15  C5  UNL     1     -39.357  24.692  -3.703  1.00  0.00     0.255 C 
BRANCH  15  16
HETATM   16  N6  UNL     1     -40.376  25.639  -4.033  1.00  0.00    -0.071 N 
ATOM     17  H62 UNL     1     -40.810  26.043  -3.202  1.00  0.00     0.277 HD
ATOM     18  H61 UNL     1     -39.991  26.496  -4.429  1.00  0.00     0.277 HD
BRANCH  16  19
HETATM   19  C6  UNL     1     -41.340  25.022  -4.905  1.00  0.00     0.258 C 
BRANCH  19  20
HETATM   20  C7  UNL     1     -42.041  26.046  -5.767  1.00  0.00     0.191 C 
BRANCH  20  21
HETATM   21  O1  UNL     1     -41.323  26.131  -6.978  1.00  0.00    -0.399 OA
ATOM     22  H1  UNL     1     -40.949  27.003  -7.020  1.00  0.00     0.209 HD
ENDBRANCH  20  21
ENDBRANCH  19  20
ENDBRANCH  16  19
ENDBRANCH  15  16
ENDBRANCH  14  15
ENDBRANCH   8  14
BRANCH   4  23
HETATM   23  N3  UNL     1     -34.224  23.127  -3.644  1.00  0.00    -0.383 N 
ATOM     24  H32 UNL     1     -33.259  23.420  -3.798  1.00  0.00     0.157 HD
ATOM     25  H31 UNL     1     -34.736  23.478  -2.834  1.00  0.00     0.157 HD
ENDBRANCH   4  23
BRANCH   1  26
HETATM   26  N1  UNL     1     -33.851  19.750  -6.749  1.00  0.00    -0.234 N 
ATOM     27  H12 UNL     1     -34.214  18.848  -7.057  1.00  0.00     0.174 HD
ATOM     28  H11 UNL     1     -32.883  19.973  -6.978  1.00  0.00     0.174 HD
ENDBRANCH   1  26
TORSDOF 8
ENDMDL
