MODEL 1
REMARK VINA RESULT: -6.872576810      0.000      0.000
REMARK  8 active torsions:
REMARK  status: ('A' for Active; 'I' for Inactive)
REMARK    1  A    between atoms: N1_1  and  C1_4 
REMARK    2  A    between atoms: C2_7  and  N3_8 
REMARK    3  A    between atoms: N6_16  and  C4_17 
REMARK    4  A    between atoms: C4_17  and  C5_18 
REMARK    5  A    between atoms: C5_18  and  O1_19 
REMARK    6  A    between atoms: O1_19  and  N7_20 
REMARK    7  A    between atoms: N7_20  and  C6_21 
REMARK    8  A    between atoms: C6_21  and  N8_22 
ROOT
HETATM    1  C1  UNL     1     -33.885  22.839  -3.936  1.00  0.00     0.679 A 
HETATM    2  N2  UNL     1     -33.104  21.751  -3.867  1.00  0.00    -0.175 N 
ATOM      3  H2  UNL     1     -32.170  21.844  -3.468  1.00  0.00     0.186 HD
HETATM    4  C2  UNL     1     -33.502  20.540  -4.300  1.00  0.00     0.147 A 
HETATM    5  C3  UNL     1     -34.771  20.472  -4.829  1.00  0.00     0.140 A 
HETATM    6  N4  UNL     1     -35.488  19.437  -5.351  1.00  0.00    -0.279 N 
ATOM      7  H4  UNL     1     -35.185  18.468  -5.446  1.00  0.00     0.189 HD
HETATM    8  N5  UNL     1     -36.654  19.944  -5.710  1.00  0.00    -0.238 N 
ATOM      9  H5  UNL     1     -37.404  19.401  -6.137  1.00  0.00     0.208 HD
HETATM   10  N6  UNL     1     -36.734  21.222  -5.453  1.00  0.00    -0.258 N 
HETATM   11  C7  UNL     1     -35.571  21.605  -4.896  1.00  0.00     0.171 A 
HETATM   12  N9  UNL     1     -35.126  22.788  -4.450  1.00  0.00    -0.173 N 
ATOM     13  H9  UNL     1     -35.710  23.623  -4.498  1.00  0.00     0.186 HD
ENDROOT
BRANCH  10  14
HETATM   14  C4  UNL     1     -37.835  22.150  -5.689  1.00  0.00     0.180 C 
BRANCH  14  15
HETATM   15  C5  UNL     1     -38.735  22.054  -4.466  1.00  0.00     0.217 C 
BRANCH  15  16
HETATM   16  O1  UNL     1     -38.304  23.008  -3.547  1.00  0.00    -0.283 OA
BRANCH  16  17
HETATM   17  N7  UNL     1     -37.968  24.167  -4.138  1.00  0.00    -0.074 NA
BRANCH  17  18
HETATM   18  C6  UNL     1     -38.508  25.302  -3.406  1.00  0.00     0.371 C 
BRANCH  18  19
HETATM   19  N8  UNL     1     -37.482  25.896  -2.571  1.00  0.00    -0.064 N 
ATOM     20  H83 UNL     1     -37.427  25.446  -1.658  1.00  0.00     0.275 HD
ATOM     21  H82 UNL     1     -36.544  25.675  -2.905  1.00  0.00     0.275 HD
ATOM     22  H81 UNL     1     -37.631  26.902  -2.491  1.00  0.00     0.275 HD
ENDBRANCH  18  19
ENDBRANCH  17  18
ENDBRANCH  16  17
ENDBRANCH  15  16
ENDBRANCH  14  15
ENDBRANCH  10  14
BRANCH   4  23
HETATM   23  N3  UNL     1     -32.744  19.505  -4.227  1.00  0.00    -0.383 N 
ATOM     24  H32 UNL     1     -32.405  19.152  -3.333  1.00  0.00     0.157 HD
ATOM     25  H31 UNL     1     -32.447  18.990  -5.056  1.00  0.00     0.157 HD
ENDBRANCH   4  23
BRANCH   1  26
HETATM   26  N1  UNL     1     -33.471  23.978  -3.512  1.00  0.00    -0.234 N 
ATOM     27  H12 UNL     1     -32.462  24.114  -3.450  1.00  0.00     0.174 HD
ATOM     28  H11 UNL     1     -34.129  24.711  -3.250  1.00  0.00     0.174 HD
ENDBRANCH   1  26
TORSDOF 8
ENDMDL
MODEL 2
REMARK VINA RESULT: -6.867592273      1.120      2.676
REMARK  8 active torsions:
REMARK  status: ('A' for Active; 'I' for Inactive)
REMARK    1  A    between atoms: N1_1  and  C1_4 
REMARK    2  A    between atoms: C2_7  and  N3_8 
REMARK    3  A    between atoms: N6_16  and  C4_17 
REMARK    4  A    between atoms: C4_17  and  C5_18 
REMARK    5  A    between atoms: C5_18  and  O1_19 
REMARK    6  A    between atoms: O1_19  and  N7_20 
REMARK    7  A    between atoms: N7_20  and  C6_21 
REMARK    8  A    between atoms: C6_21  and  N8_22 
ROOT
HETATM    1  C1  UNL     1     -35.110  19.200  -6.062  1.00  0.00     0.679 A 
HETATM    2  N2  UNL     1     -33.966  19.492  -5.425  1.00  0.00    -0.175 N 
ATOM      3  H2  UNL     1     -33.195  18.826  -5.476  1.00  0.00     0.186 HD
HETATM    4  C2  UNL     1     -33.793  20.626  -4.722  1.00  0.00     0.147 A 
HETATM    5  C3  UNL     1     -34.866  21.488  -4.687  1.00  0.00     0.140 A 
HETATM    6  N4  UNL     1     -35.045  22.699  -4.087  1.00  0.00    -0.279 N 
ATOM      7  H4  UNL     1     -34.366  23.210  -3.523  1.00  0.00     0.189 HD
HETATM    8  N5  UNL     1     -36.275  23.077  -4.385  1.00  0.00    -0.238 N 
ATOM      9  H5  UNL     1     -36.694  23.952  -4.071  1.00  0.00     0.208 HD
HETATM   10  N6  UNL     1     -36.891  22.199  -5.130  1.00  0.00    -0.258 N 
HETATM   11  C7  UNL     1     -36.045  21.176  -5.349  1.00  0.00     0.171 A 
HETATM   12  N9  UNL     1     -36.166  20.031  -6.036  1.00  0.00    -0.173 N 
ATOM     13  H9  UNL     1     -37.031  19.798  -6.524  1.00  0.00     0.186 HD
ENDROOT
BRANCH  10  14
HETATM   14  C4  UNL     1     -38.245  22.229  -5.675  1.00  0.00     0.180 C 
BRANCH  14  15
HETATM   15  C5  UNL     1     -39.144  22.699  -4.541  1.00  0.00     0.217 C 
BRANCH  15  16
HETATM   16  O1  UNL     1     -38.974  24.075  -4.407  1.00  0.00    -0.283 OA
BRANCH  16  17
HETATM   17  N7  UNL     1     -38.817  24.445  -3.126  1.00  0.00    -0.074 NA
BRANCH  17  18
HETATM   18  C6  UNL     1     -38.676  25.888  -3.012  1.00  0.00     0.371 C 
BRANCH  18  19
HETATM   19  N8  UNL     1     -37.715  26.219  -1.978  1.00  0.00    -0.064 N 
ATOM     20  H83 UNL     1     -37.693  27.221  -1.786  1.00  0.00     0.275 HD
ATOM     21  H82 UNL     1     -38.017  25.895  -1.059  1.00  0.00     0.275 HD
ATOM     22  H81 UNL     1     -36.793  25.859  -2.224  1.00  0.00     0.275 HD
ENDBRANCH  18  19
ENDBRANCH  17  18
ENDBRANCH  16  17
ENDBRANCH  15  16
ENDBRANCH  14  15
ENDBRANCH  10  14
BRANCH   4  23
HETATM   23  N3  UNL     1     -32.691  20.894  -4.117  1.00  0.00    -0.383 N 
ATOM     24  H32 UNL     1     -32.169  20.178  -3.612  1.00  0.00     0.157 HD
ATOM     25  H31 UNL     1     -32.288  21.831  -4.112  1.00  0.00     0.157 HD
ENDBRANCH   4  23
BRANCH   1  26
HETATM   26  N1  UNL     1     -35.238  18.107  -6.723  1.00  0.00    -0.234 N 
ATOM     27  H12 UNL     1     -34.541  17.912  -7.441  1.00  0.00     0.174 HD
ATOM     28  H11 UNL     1     -36.008  17.466  -6.533  1.00  0.00     0.174 HD
ENDBRANCH   1  26
TORSDOF 8
ENDMDL
MODEL 3
REMARK VINA RESULT: -6.861274477      1.357      2.955
REMARK  8 active torsions:
REMARK  status: ('A' for Active; 'I' for Inactive)
REMARK    1  A    between atoms: N1_1  and  C1_4 
REMARK    2  A    between atoms: C2_7  and  N3_8 
REMARK    3  A    between atoms: N6_16  and  C4_17 
REMARK    4  A    between atoms: C4_17  and  C5_18 
REMARK    5  A    between atoms: C5_18  and  O1_19 
REMARK    6  A    between atoms: O1_19  and  N7_20 
REMARK    7  A    between atoms: N7_20  and  C6_21 
REMARK    8  A    between atoms: C6_21  and  N8_22 
ROOT
HETATM    1  C1  UNL     1     -34.680  18.358  -5.775  1.00  0.00     0.679 A 
HETATM    2  N2  UNL     1     -33.503  18.347  -5.132  1.00  0.00    -0.175 N 
ATOM      3  H2  UNL     1     -32.937  17.499  -5.162  1.00  0.00     0.186 HD
HETATM    4  C2  UNL     1     -33.037  19.409  -4.449  1.00  0.00     0.147 A 
HETATM    5  C3  UNL     1     -33.841  20.526  -4.442  1.00  0.00     0.140 A 
HETATM    6  N4  UNL     1     -33.693  21.754  -3.867  1.00  0.00    -0.279 N 
ATOM      7  H4  UNL     1     -32.905  22.076  -3.306  1.00  0.00     0.189 HD
HETATM    8  N5  UNL     1     -34.776  22.439  -4.186  1.00  0.00    -0.238 N 
ATOM      9  H5  UNL     1     -34.948  23.400  -3.892  1.00  0.00     0.208 HD
HETATM   10  N6  UNL     1     -35.601  21.742  -4.920  1.00  0.00    -0.258 N 
HETATM   11  C7  UNL     1     -35.058  20.526  -5.110  1.00  0.00     0.171 A 
HETATM   12  N9  UNL     1     -35.476  19.440  -5.776  1.00  0.00    -0.173 N 
ATOM     13  H9  UNL     1     -36.370  19.436  -6.269  1.00  0.00     0.186 HD
ENDROOT
BRANCH  10  14
HETATM   14  C4  UNL     1     -36.895  22.120  -5.479  1.00  0.00     0.180 C 
BRANCH  14  15
HETATM   15  C5  UNL     1     -37.501  23.114  -4.500  1.00  0.00     0.217 C 
BRANCH  15  16
HETATM   16  O1  UNL     1     -36.830  24.326  -4.656  1.00  0.00    -0.283 OA
BRANCH  16  17
HETATM   17  N7  UNL     1     -36.643  24.956  -3.485  1.00  0.00    -0.074 NA
BRANCH  17  18
HETATM   18  C6  UNL     1     -37.861  25.622  -3.050  1.00  0.00     0.371 C 
BRANCH  18  19
HETATM   19  N8  UNL     1     -37.622  26.356  -1.822  1.00  0.00    -0.064 N 
ATOM     20  H83 UNL     1     -36.930  25.895  -1.233  1.00  0.00     0.275 HD
ATOM     21  H82 UNL     1     -37.120  27.227  -1.992  1.00  0.00     0.275 HD
ATOM     22  H81 UNL     1     -38.500  26.512  -1.327  1.00  0.00     0.275 HD
ENDBRANCH  18  19
ENDBRANCH  17  18
ENDBRANCH  16  17
ENDBRANCH  15  16
ENDBRANCH  14  15
ENDBRANCH  10  14
BRANCH   4  23
HETATM   23  N3  UNL     1     -31.907  19.385  -3.838  1.00  0.00    -0.383 N 
ATOM     24  H32 UNL     1     -31.155  18.759  -4.125  1.00  0.00     0.157 HD
ATOM     25  H31 UNL     1     -31.709  19.989  -3.039  1.00  0.00     0.157 HD
ENDBRANCH   4  23
BRANCH   1  26
HETATM   26  N1  UNL     1     -35.092  17.324  -6.417  1.00  0.00    -0.234 N 
ATOM     27  H12 UNL     1     -34.676  16.426  -6.172  1.00  0.00     0.174 HD
ATOM     28  H11 UNL     1     -35.806  17.406  -7.140  1.00  0.00     0.174 HD
ENDBRANCH   1  26
TORSDOF 8
ENDMDL
MODEL 4
REMARK VINA RESULT: -6.776175384      1.860      3.220
REMARK  8 active torsions:
REMARK  status: ('A' for Active; 'I' for Inactive)
REMARK    1  A    between atoms: N1_1  and  C1_4 
REMARK    2  A    between atoms: C2_7  and  N3_8 
REMARK    3  A    between atoms: N6_16  and  C4_17 
REMARK    4  A    between atoms: C4_17  and  C5_18 
REMARK    5  A    between atoms: C5_18  and  O1_19 
REMARK    6  A    between atoms: O1_19  and  N7_20 
REMARK    7  A    between atoms: N7_20  and  C6_21 
REMARK    8  A    between atoms: C6_21  and  N8_22 
ROOT
HETATM    1  C1  UNL     1     -32.757  18.723  -4.039  1.00  0.00     0.679 A 
HETATM    2  N2  UNL     1     -33.501  18.034  -4.918  1.00  0.00    -0.175 N 
ATOM      3  H2  UNL     1     -33.279  17.053  -5.082  1.00  0.00     0.186 HD
HETATM    4  C2  UNL     1     -34.528  18.584  -5.591  1.00  0.00     0.147 A 
HETATM    5  C3  UNL     1     -34.784  19.911  -5.330  1.00  0.00     0.140 A 
HETATM    6  N4  UNL     1     -35.722  20.773  -5.815  1.00  0.00    -0.279 N 
ATOM      7  H4  UNL     1     -36.447  20.567  -6.502  1.00  0.00     0.189 HD
HETATM    8  N5  UNL     1     -35.502  21.929  -5.215  1.00  0.00    -0.238 N 
ATOM      9  H5  UNL     1     -36.053  22.771  -5.381  1.00  0.00     0.208 HD
HETATM   10  N6  UNL     1     -34.496  21.868  -4.384  1.00  0.00    -0.258 N 
HETATM   11  C7  UNL     1     -34.007  20.615  -4.419  1.00  0.00     0.171 A 
HETATM   12  N9  UNL     1     -32.993  20.019  -3.775  1.00  0.00    -0.173 N 
ATOM     13  H9  UNL     1     -32.420  20.533  -3.105  1.00  0.00     0.186 HD
ENDROOT
BRANCH  10  14
HETATM   14  C4  UNL     1     -33.930  22.908  -3.531  1.00  0.00     0.180 C 
BRANCH  14  15
HETATM   15  C5  UNL     1     -34.494  24.224  -4.044  1.00  0.00     0.217 C 
BRANCH  15  16
HETATM   16  O1  UNL     1     -35.661  24.492  -3.332  1.00  0.00    -0.283 OA
BRANCH  16  17
HETATM   17  N7  UNL     1     -36.703  24.741  -4.142  1.00  0.00    -0.074 NA
BRANCH  17  18
HETATM   18  C6  UNL     1     -37.812  25.324  -3.403  1.00  0.00     0.371 C 
BRANCH  18  19
HETATM   19  N8  UNL     1     -37.317  26.086  -2.272  1.00  0.00    -0.064 N 
ATOM     20  H83 UNL     1     -37.151  25.494  -1.459  1.00  0.00     0.275 HD
ATOM     21  H82 UNL     1     -36.361  26.410  -2.421  1.00  0.00     0.275 HD
ATOM     22  H81 UNL     1     -37.951  26.856  -2.060  1.00  0.00     0.275 HD
ENDBRANCH  18  19
ENDBRANCH  17  18
ENDBRANCH  16  17
ENDBRANCH  15  16
ENDBRANCH  14  15
ENDBRANCH  10  14
BRANCH   4  23
HETATM   23  N3  UNL     1     -35.233  17.912  -6.429  1.00  0.00    -0.383 N 
ATOM     24  H32 UNL     1     -35.912  17.216  -6.122  1.00  0.00     0.157 HD
ATOM     25  H31 UNL     1     -35.148  18.043  -7.438  1.00  0.00     0.157 HD
ENDBRANCH   4  23
BRANCH   1  26
HETATM   26  N1  UNL     1     -31.783  18.164  -3.416  1.00  0.00    -0.234 N 
ATOM     27  H12 UNL     1     -31.137  18.775  -2.916  1.00  0.00     0.174 HD
ATOM     28  H11 UNL     1     -31.667  17.151  -3.425  1.00  0.00     0.174 HD
ENDBRANCH   1  26
TORSDOF 8
ENDMDL
MODEL 5
REMARK VINA RESULT: -6.637352912      1.026      1.111
REMARK  8 active torsions:
REMARK  status: ('A' for Active; 'I' for Inactive)
REMARK    1  A    between atoms: N1_1  and  C1_4 
REMARK    2  A    between atoms: C2_7  and  N3_8 
REMARK    3  A    between atoms: N6_16  and  C4_17 
REMARK    4  A    between atoms: C4_17  and  C5_18 
REMARK    5  A    between atoms: C5_18  and  O1_19 
REMARK    6  A    between atoms: O1_19  and  N7_20 
REMARK    7  A    between atoms: N7_20  and  C6_21 
REMARK    8  A    between atoms: C6_21  and  N8_22 
ROOT
HETATM    1  C1  UNL     1     -33.675  22.628  -3.942  1.00  0.00     0.679 A 
HETATM    2  N2  UNL     1     -32.917  21.525  -3.855  1.00  0.00    -0.175 N 
ATOM      3  H2  UNL     1     -31.985  21.603  -3.447  1.00  0.00     0.186 HD
HETATM    4  C2  UNL     1     -33.333  20.319  -4.284  1.00  0.00     0.147 A 
HETATM    5  C3  UNL     1     -34.598  20.272  -4.826  1.00  0.00     0.140 A 
HETATM    6  N4  UNL     1     -35.329  19.247  -5.349  1.00  0.00    -0.279 N 
ATOM      7  H4  UNL     1     -35.045  18.272  -5.433  1.00  0.00     0.189 HD
HETATM    8  N5  UNL     1     -36.481  19.774  -5.724  1.00  0.00    -0.238 N 
ATOM      9  H5  UNL     1     -37.237  19.243  -6.155  1.00  0.00     0.208 HD
HETATM   10  N6  UNL     1     -36.538  21.056  -5.478  1.00  0.00    -0.258 N 
HETATM   11  C7  UNL     1     -35.374  21.420  -4.911  1.00  0.00     0.171 A 
HETATM   12  N9  UNL     1     -34.910  22.598  -4.469  1.00  0.00    -0.173 N 
ATOM     13  H9  UNL     1     -35.477  23.444  -4.530  1.00  0.00     0.186 HD
ENDROOT
BRANCH  10  14
HETATM   14  C4  UNL     1     -37.618  22.004  -5.733  1.00  0.00     0.180 C 
BRANCH  14  15
HETATM   15  C5  UNL     1     -38.905  21.285  -5.360  1.00  0.00     0.217 C 
BRANCH  15  16
HETATM   16  O1  UNL     1     -39.643  22.135  -4.538  1.00  0.00    -0.283 OA
BRANCH  16  17
HETATM   17  N7  UNL     1     -39.966  23.283  -5.156  1.00  0.00    -0.074 NA
BRANCH  17  18
HETATM   18  C6  UNL     1     -40.168  24.355  -4.194  1.00  0.00     0.371 C 
BRANCH  18  19
HETATM   19  N8  UNL     1     -39.035  24.443  -3.293  1.00  0.00    -0.064 N 
ATOM     20  H83 UNL     1     -38.344  23.716  -3.480  1.00  0.00     0.275 HD
ATOM     21  H82 UNL     1     -38.454  25.258  -3.490  1.00  0.00     0.275 HD
ATOM     22  H81 UNL     1     -39.351  24.427  -2.324  1.00  0.00     0.275 HD
ENDBRANCH  18  19
ENDBRANCH  17  18
ENDBRANCH  16  17
ENDBRANCH  15  16
ENDBRANCH  14  15
ENDBRANCH  10  14
BRANCH   4  23
HETATM   23  N3  UNL     1     -32.597  19.270  -4.194  1.00  0.00    -0.383 N 
ATOM     24  H32 UNL     1     -31.655  19.308  -3.806  1.00  0.00     0.157 HD
ATOM     25  H31 UNL     1     -32.918  18.353  -4.507  1.00  0.00     0.157 HD
ENDBRANCH   4  23
BRANCH   1  26
HETATM   26  N1  UNL     1     -33.242  23.762  -3.521  1.00  0.00    -0.234 N 
ATOM     27  H12 UNL     1     -32.639  23.756  -2.699  1.00  0.00     0.174 HD
ATOM     28  H11 UNL     1     -33.496  24.628  -3.995  1.00  0.00     0.174 HD
ENDBRANCH   1  26
TORSDOF 8
ENDMDL
