MODEL 1
REMARK VINA RESULT: -6.783534575      0.000      0.000
REMARK  7 active torsions:
REMARK  status: ('A' for Active; 'I' for Inactive)
REMARK    1  A    between atoms: N1_1  and  C1_4 
REMARK    2  A    between atoms: N5_15  and  C5_16 
REMARK    3  A    between atoms: C5_16  and  C6_17 
REMARK    4  A    between atoms: C6_17  and  N6_18 
REMARK    5  A    between atoms: N6_18  and  C7_20 
REMARK    6  A    between atoms: C7_20  and  O1_21 
REMARK    7  A    between atoms: O1_21  and  N7_22 
ROOT
HETATM    1  C1  UNL     1     -34.967  18.744  -5.962  1.00  0.00     0.679 A 
HETATM    2  N2  UNL     1     -33.771  18.925  -5.352  1.00  0.00    -0.175 N 
ATOM      3  H2  UNL     1     -33.064  18.190  -5.378  1.00  0.00     0.186 HD
HETATM    4  C2  UNL     1     -33.524  20.082  -4.713  1.00  0.00     0.145 A 
HETATM    5  N3  UNL     1     -32.418  20.337  -4.111  1.00  0.00    -0.383 N 
ATOM      6  H31 UNL     1     -32.231  21.215  -3.626  1.00  0.00     0.157 HD
ATOM      7  H32 UNL     1     -31.710  19.604  -4.134  1.00  0.00     0.157 HD
HETATM    8  C3  UNL     1     -34.482  21.074  -4.682  1.00  0.00     0.123 A 
HETATM    9  N4  UNL     1     -34.545  22.307  -4.146  1.00  0.00    -0.346 N 
ATOM     10  H4  UNL     1     -33.799  22.752  -3.613  1.00  0.00     0.167 HD
HETATM   11  C4  UNL     1     -35.741  22.865  -4.419  1.00  0.00     0.185 A 
HETATM   12  N5  UNL     1     -36.429  21.951  -5.140  1.00  0.00    -0.325 N 
HETATM   13  C8  UNL     1     -35.700  20.839  -5.327  1.00  0.00     0.155 A 
HETATM   14  N8  UNL     1     -35.932  19.676  -5.960  1.00  0.00    -0.174 N 
ATOM     15  H8  UNL     1     -36.822  19.506  -6.429  1.00  0.00     0.186 HD
ENDROOT
BRANCH  12  16
HETATM   16  C5  UNL     1     -37.796  22.169  -5.640  1.00  0.00     0.150 C 
BRANCH  16  17
HETATM   17  C6  UNL     1     -38.750  22.315  -4.478  1.00  0.00     0.136 C 
BRANCH  17  18
HETATM   18  N6  UNL     1     -39.587  23.455  -4.601  1.00  0.00    -0.398 N 
ATOM     19  H6  UNL     1     -40.271  23.555  -5.351  1.00  0.00     0.155 HD
BRANCH  18  20
HETATM   20  C7  UNL     1     -39.397  24.461  -3.586  1.00  0.00     0.318 C 
BRANCH  20  21
HETATM   21  O1  UNL     1     -38.268  25.216  -3.987  1.00  0.00    -0.268 OA
BRANCH  21  22
HETATM   22  N7  UNL     1     -37.603  25.620  -2.884  1.00  0.00    -0.309 N 
ATOM     23  H72 UNL     1     -37.890  26.391  -2.281  1.00  0.00     0.184 HD
ATOM     24  H71 UNL     1     -36.779  25.031  -2.763  1.00  0.00     0.184 HD
ENDBRANCH  21  22
ENDBRANCH  20  21
ENDBRANCH  18  20
ENDBRANCH  17  18
ENDBRANCH  16  17
ENDBRANCH  12  16
BRANCH   1  25
HETATM   25  N1  UNL     1     -35.201  17.613  -6.581  1.00  0.00    -0.234 N 
ATOM     26  H12 UNL     1     -34.952  17.544  -7.568  1.00  0.00     0.174 HD
ATOM     27  H11 UNL     1     -35.623  16.842  -6.062  1.00  0.00     0.174 HD
ENDBRANCH   1  25
TORSDOF 7
ENDMDL
MODEL 2
REMARK VINA RESULT: -6.747210548      1.245      1.279
REMARK  7 active torsions:
REMARK  status: ('A' for Active; 'I' for Inactive)
REMARK    1  A    between atoms: N1_1  and  C1_4 
REMARK    2  A    between atoms: N5_15  and  C5_16 
REMARK    3  A    between atoms: C5_16  and  C6_17 
REMARK    4  A    between atoms: C6_17  and  N6_18 
REMARK    5  A    between atoms: N6_18  and  C7_20 
REMARK    6  A    between atoms: C7_20  and  O1_21 
REMARK    7  A    between atoms: O1_21  and  N7_22 
ROOT
HETATM    1  C1  UNL     1     -34.877  18.478  -5.924  1.00  0.00     0.679 A 
HETATM    2  N2  UNL     1     -33.715  18.215  -5.278  1.00  0.00    -0.175 N 
ATOM      3  H2  UNL     1     -33.264  17.306  -5.380  1.00  0.00     0.186 HD
HETATM    4  C2  UNL     1     -33.161  19.164  -4.502  1.00  0.00     0.145 A 
HETATM    5  N3  UNL     1     -32.063  19.000  -3.857  1.00  0.00    -0.383 N 
ATOM      6  H31 UNL     1     -31.643  19.720  -3.269  1.00  0.00     0.157 HD
ATOM      7  H32 UNL     1     -31.611  18.091  -3.955  1.00  0.00     0.157 HD
HETATM    8  C3  UNL     1     -33.773  20.393  -4.370  1.00  0.00     0.123 A 
HETATM    9  N4  UNL     1     -33.487  21.520  -3.693  1.00  0.00    -0.346 N 
ATOM     10  H4  UNL     1     -32.669  21.654  -3.099  1.00  0.00     0.167 HD
HETATM   11  C4  UNL     1     -34.441  22.445  -3.916  1.00  0.00     0.185 A 
HETATM   12  N5  UNL     1     -35.336  21.871  -4.751  1.00  0.00    -0.325 N 
HETATM   13  C8  UNL     1     -34.970  20.615  -5.057  1.00  0.00     0.155 A 
HETATM   14  N8  UNL     1     -35.512  19.655  -5.827  1.00  0.00    -0.174 N 
ATOM     15  H8  UNL     1     -36.386  19.819  -6.327  1.00  0.00     0.186 HD
ENDROOT
BRANCH  12  16
HETATM   16  C5  UNL     1     -36.545  22.551  -5.244  1.00  0.00     0.150 C 
BRANCH  16  17
HETATM   17  C6  UNL     1     -37.635  22.477  -4.202  1.00  0.00     0.136 C 
BRANCH  17  18
HETATM   18  N6  UNL     1     -38.026  23.757  -3.730  1.00  0.00    -0.398 N 
ATOM     19  H6  UNL     1     -38.854  23.900  -3.152  1.00  0.00     0.155 HD
BRANCH  18  20
HETATM   20  C7  UNL     1     -37.164  24.842  -4.131  1.00  0.00     0.318 C 
BRANCH  20  21
HETATM   21  O1  UNL     1     -36.491  25.264  -2.959  1.00  0.00    -0.268 OA
BRANCH  21  22
HETATM   22  N7  UNL     1     -37.327  26.033  -2.231  1.00  0.00    -0.309 N 
ATOM     23  H72 UNL     1     -38.112  26.561  -2.611  1.00  0.00     0.184 HD
ATOM     24  H71 UNL     1     -37.041  25.994  -1.253  1.00  0.00     0.184 HD
ENDBRANCH  21  22
ENDBRANCH  20  21
ENDBRANCH  18  20
ENDBRANCH  17  18
ENDBRANCH  16  17
ENDBRANCH  12  16
BRANCH   1  25
HETATM   25  N1  UNL     1     -35.412  17.547  -6.676  1.00  0.00    -0.234 N 
ATOM     26  H12 UNL     1     -36.246  17.071  -6.333  1.00  0.00     0.174 HD
ATOM     27  H11 UNL     1     -34.980  17.329  -7.575  1.00  0.00     0.174 HD
ENDBRANCH   1  25
TORSDOF 7
ENDMDL
MODEL 3
REMARK VINA RESULT: -6.672729855      1.406      2.673
REMARK  7 active torsions:
REMARK  status: ('A' for Active; 'I' for Inactive)
REMARK    1  A    between atoms: N1_1  and  C1_4 
REMARK    2  A    between atoms: N5_15  and  C5_16 
REMARK    3  A    between atoms: C5_16  and  C6_17 
REMARK    4  A    between atoms: C6_17  and  N6_18 
REMARK    5  A    between atoms: N6_18  and  C7_20 
REMARK    6  A    between atoms: C7_20  and  O1_21 
REMARK    7  A    between atoms: O1_21  and  N7_22 
ROOT
HETATM    1  C1  UNL     1     -32.813  19.468  -4.332  1.00  0.00     0.679 A 
HETATM    2  N2  UNL     1     -33.344  18.434  -5.029  1.00  0.00    -0.175 N 
ATOM      3  H2  UNL     1     -32.829  17.559  -5.123  1.00  0.00     0.186 HD
HETATM    4  C2  UNL     1     -34.556  18.573  -5.595  1.00  0.00     0.145 A 
HETATM    5  N3  UNL     1     -35.133  17.645  -6.271  1.00  0.00    -0.383 N 
ATOM      6  H31 UNL     1     -36.052  17.750  -6.700  1.00  0.00     0.157 HD
ATOM      7  H32 UNL     1     -34.620  16.769  -6.369  1.00  0.00     0.157 HD
HETATM    8  C3  UNL     1     -35.250  19.758  -5.463  1.00  0.00     0.123 A 
HETATM    9  N4  UNL     1     -36.445  20.203  -5.893  1.00  0.00    -0.346 N 
ATOM     10  H4  UNL     1     -37.103  19.663  -6.454  1.00  0.00     0.167 HD
HETATM   11  C4  UNL     1     -36.641  21.468  -5.474  1.00  0.00     0.185 A 
HETATM   12  N5  UNL     1     -35.540  21.808  -4.768  1.00  0.00    -0.325 N 
HETATM   13  C8  UNL     1     -34.659  20.794  -4.734  1.00  0.00     0.155 A 
HETATM   14  N8  UNL     1     -33.446  20.640  -4.175  1.00  0.00    -0.174 N 
ATOM     15  H8  UNL     1     -33.017  21.397  -3.644  1.00  0.00     0.186 HD
ENDROOT
BRANCH  12  16
HETATM   16  C5  UNL     1     -35.351  23.123  -4.133  1.00  0.00     0.150 C 
BRANCH  16  17
HETATM   17  C6  UNL     1     -36.460  24.057  -4.551  1.00  0.00     0.136 C 
BRANCH  17  18
HETATM   18  N6  UNL     1     -36.870  24.920  -3.501  1.00  0.00    -0.398 N 
ATOM     19  H6  UNL     1     -36.227  25.256  -2.784  1.00  0.00     0.155 HD
BRANCH  18  20
HETATM   20  C7  UNL     1     -38.265  25.286  -3.524  1.00  0.00     0.318 C 
BRANCH  20  21
HETATM   21  O1  UNL     1     -38.588  25.689  -2.205  1.00  0.00    -0.268 OA
BRANCH  21  22
HETATM   22  N7  UNL     1     -37.558  26.403  -1.706  1.00  0.00    -0.309 N 
ATOM     23  H72 UNL     1     -37.552  26.855  -0.792  1.00  0.00     0.184 HD
ATOM     24  H71 UNL     1     -36.802  26.411  -2.390  1.00  0.00     0.184 HD
ENDBRANCH  21  22
ENDBRANCH  20  21
ENDBRANCH  18  20
ENDBRANCH  17  18
ENDBRANCH  16  17
ENDBRANCH  12  16
BRANCH   1  25
HETATM   25  N1  UNL     1     -31.631  19.326  -3.784  1.00  0.00    -0.234 N 
ATOM     26  H12 UNL     1     -31.007  18.614  -4.165  1.00  0.00     0.174 HD
ATOM     27  H11 UNL     1     -31.373  19.926  -3.001  1.00  0.00     0.174 HD
ENDBRANCH   1  25
TORSDOF 7
ENDMDL
MODEL 4
REMARK VINA RESULT: -6.645543005      1.773      2.338
REMARK  7 active torsions:
REMARK  status: ('A' for Active; 'I' for Inactive)
REMARK    1  A    between atoms: N1_1  and  C1_4 
REMARK    2  A    between atoms: N5_15  and  C5_16 
REMARK    3  A    between atoms: C5_16  and  C6_17 
REMARK    4  A    between atoms: C6_17  and  N6_18 
REMARK    5  A    between atoms: N6_18  and  C7_20 
REMARK    6  A    between atoms: C7_20  and  O1_21 
REMARK    7  A    between atoms: O1_21  and  N7_22 
ROOT
HETATM    1  C1  UNL     1     -34.667  18.265  -5.697  1.00  0.00     0.679 A 
HETATM    2  N2  UNL     1     -33.540  18.022  -4.984  1.00  0.00    -0.175 N 
ATOM      3  H2  UNL     1     -33.100  17.103  -5.015  1.00  0.00     0.186 HD
HETATM    4  C2  UNL     1     -33.008  19.005  -4.235  1.00  0.00     0.145 A 
HETATM    5  N3  UNL     1     -31.944  18.861  -3.531  1.00  0.00    -0.383 N 
ATOM      6  H31 UNL     1     -31.541  19.606  -2.963  1.00  0.00     0.157 HD
ATOM      7  H32 UNL     1     -31.502  17.943  -3.558  1.00  0.00     0.157 HD
HETATM    8  C3  UNL     1     -33.606  20.247  -4.198  1.00  0.00     0.123 A 
HETATM    9  N4  UNL     1     -33.334  21.405  -3.570  1.00  0.00    -0.346 N 
ATOM     10  H4  UNL     1     -32.543  21.561  -2.946  1.00  0.00     0.167 HD
HETATM   11  C4  UNL     1     -34.262  22.329  -3.887  1.00  0.00     0.185 A 
HETATM   12  N5  UNL     1     -35.126  21.722  -4.732  1.00  0.00    -0.325 N 
HETATM   13  C8  UNL     1     -34.766  20.447  -4.952  1.00  0.00     0.155 A 
HETATM   14  N8  UNL     1     -35.287  19.454  -5.694  1.00  0.00    -0.174 N 
ATOM     15  H8  UNL     1     -36.133  19.602  -6.243  1.00  0.00     0.186 HD
ENDROOT
BRANCH  12  16
HETATM   16  C5  UNL     1     -36.300  22.391  -5.317  1.00  0.00     0.150 C 
BRANCH  16  17
HETATM   17  C6  UNL     1     -37.032  23.168  -4.250  1.00  0.00     0.136 C 
BRANCH  17  18
HETATM   18  N6  UNL     1     -38.384  22.759  -4.109  1.00  0.00    -0.398 N 
ATOM     19  H6  UNL     1     -38.887  22.821  -3.224  1.00  0.00     0.155 HD
BRANCH  18  20
HETATM   20  C7  UNL     1     -38.994  22.249  -5.313  1.00  0.00     0.318 C 
BRANCH  20  21
HETATM   21  O1  UNL     1     -39.592  21.015  -4.958  1.00  0.00    -0.268 OA
BRANCH  21  22
HETATM   22  N7  UNL     1     -38.848  20.010  -5.467  1.00  0.00    -0.309 N 
ATOM     23  H72 UNL     1     -37.929  19.734  -5.124  1.00  0.00     0.184 HD
ATOM     24  H71 UNL     1     -39.359  19.584  -6.241  1.00  0.00     0.184 HD
ENDBRANCH  21  22
ENDBRANCH  20  21
ENDBRANCH  18  20
ENDBRANCH  17  18
ENDBRANCH  16  17
ENDBRANCH  12  16
BRANCH   1  25
HETATM   25  N1  UNL     1     -35.180  17.301  -6.423  1.00  0.00    -0.234 N 
ATOM     26  H12 UNL     1     -34.822  17.170  -7.369  1.00  0.00     0.174 HD
ATOM     27  H11 UNL     1     -35.916  16.719  -6.023  1.00  0.00     0.174 HD
ENDBRANCH   1  25
TORSDOF 7
ENDMDL
MODEL 5
REMARK VINA RESULT: -6.576590732      1.154      2.773
REMARK  7 active torsions:
REMARK  status: ('A' for Active; 'I' for Inactive)
REMARK    1  A    between atoms: N1_1  and  C1_4 
REMARK    2  A    between atoms: N5_15  and  C5_16 
REMARK    3  A    between atoms: C5_16  and  C6_17 
REMARK    4  A    between atoms: C6_17  and  N6_18 
REMARK    5  A    between atoms: N6_18  and  C7_20 
REMARK    6  A    between atoms: C7_20  and  O1_21 
REMARK    7  A    between atoms: O1_21  and  N7_22 
ROOT
HETATM    1  C1  UNL     1     -33.838  22.955  -3.946  1.00  0.00     0.679 A 
HETATM    2  N2  UNL     1     -33.029  21.875  -3.831  1.00  0.00    -0.175 N 
ATOM      3  H2  UNL     1     -32.099  21.969  -3.422  1.00  0.00     0.186 HD
HETATM    4  C2  UNL     1     -33.464  20.676  -4.260  1.00  0.00     0.145 A 
HETATM    5  N3  UNL     1     -32.764  19.602  -4.188  1.00  0.00    -0.383 N 
ATOM      6  H31 UNL     1     -33.093  18.693  -4.514  1.00  0.00     0.157 HD
ATOM      7  H32 UNL     1     -31.833  19.693  -3.782  1.00  0.00     0.157 HD
HETATM    8  C3  UNL     1     -34.723  20.552  -4.810  1.00  0.00     0.123 A 
HETATM    9  N4  UNL     1     -35.433  19.529  -5.317  1.00  0.00    -0.346 N 
ATOM     10  H4  UNL     1     -35.107  18.565  -5.381  1.00  0.00     0.167 HD
HETATM   11  C4  UNL     1     -36.639  19.967  -5.729  1.00  0.00     0.185 A 
HETATM   12  N5  UNL     1     -36.669  21.292  -5.468  1.00  0.00    -0.325 N 
HETATM   13  C8  UNL     1     -35.519  21.698  -4.905  1.00  0.00     0.155 A 
HETATM   14  N8  UNL     1     -35.070  22.889  -4.473  1.00  0.00    -0.174 N 
ATOM     15  H8  UNL     1     -35.652  23.723  -4.544  1.00  0.00     0.186 HD
ENDROOT
BRANCH  12  16
HETATM   16  C5  UNL     1     -37.821  22.158  -5.773  1.00  0.00     0.150 C 
BRANCH  16  17
HETATM   17  C6  UNL     1     -38.845  22.055  -4.668  1.00  0.00     0.136 C 
BRANCH  17  18
HETATM   18  N6  UNL     1     -38.574  22.939  -3.590  1.00  0.00    -0.398 N 
ATOM     19  H6  UNL     1     -38.299  22.608  -2.665  1.00  0.00     0.155 HD
BRANCH  18  20
HETATM   20  C7  UNL     1     -38.716  24.340  -3.902  1.00  0.00     0.318 C 
BRANCH  20  21
HETATM   21  O1  UNL     1     -37.412  24.890  -3.843  1.00  0.00    -0.268 OA
BRANCH  21  22
HETATM   22  N7  UNL     1     -37.324  25.682  -2.754  1.00  0.00    -0.309 N 
ATOM     23  H72 UNL     1     -37.708  25.455  -1.837  1.00  0.00     0.184 HD
ATOM     24  H71 UNL     1     -36.816  26.530  -3.005  1.00  0.00     0.184 HD
ENDBRANCH  21  22
ENDBRANCH  20  21
ENDBRANCH  18  20
ENDBRANCH  17  18
ENDBRANCH  16  17
ENDBRANCH  12  16
BRANCH   1  25
HETATM   25  N1  UNL     1     -33.407  24.120  -3.526  1.00  0.00    -0.234 N 
ATOM     26  H12 UNL     1     -32.889  24.705  -4.182  1.00  0.00     0.174 HD
ATOM     27  H11 UNL     1     -33.602  24.403  -2.566  1.00  0.00     0.174 HD
ENDBRANCH   1  25
TORSDOF 7
ENDMDL
