MODEL 1
REMARK VINA RESULT: -7.141969191      0.000      0.000
REMARK  9 active torsions:
REMARK  status: ('A' for Active; 'I' for Inactive)
REMARK    1  A    between atoms: N1_1  and  C1_4 
REMARK    2  A    between atoms: C2_7  and  N3_8 
REMARK    3  A    between atoms: N3_8  and  C3_9 
REMARK    4  A    between atoms: N3_8  and  C5_13 
REMARK    5  A    between atoms: C3_9  and  C4_10 
REMARK    6  A    between atoms: C4_10  and  O1_11 
REMARK    7  A    between atoms: C5_13  and  C6_14 
REMARK    8  A    between atoms: C6_14  and  N4_15 
REMARK    9  A    between atoms: C10_23  and  N7_24 
ROOT
HETATM    1  C1  UNL     1     -41.620 -12.728  13.463  1.00  0.00     0.705 A 
HETATM    2  N2  UNL     1     -40.339 -12.278  13.464  1.00  0.00    -0.022 N 
ATOM      3  H2  UNL     1     -39.588 -12.921  13.217  1.00  0.00     0.203 HD
HETATM    4  C2  UNL     1     -40.035 -11.011  13.781  1.00  0.00     0.709 A 
HETATM    5  N6  UNL     1     -41.033 -10.166  14.107  1.00  0.00    -0.022 N 
ATOM      6  H6  UNL     1     -40.809  -9.201  14.349  1.00  0.00     0.203 HD
HETATM    7  C10 UNL     1     -42.324 -10.570  14.119  1.00  0.00     0.705 A 
HETATM    8  N8  UNL     1     -42.573 -11.839  13.797  1.00  0.00    -0.022 N 
ATOM      9  H8  UNL     1     -43.543 -12.155  13.803  1.00  0.00     0.203 HD
ENDROOT
BRANCH   4  10
HETATM   10  N3  UNL     1     -38.668 -10.538  13.774  1.00  0.00    -0.213 N 
BRANCH  10  11
HETATM   11  C3  UNL     1     -38.402  -9.325  14.505  1.00  0.00     0.167 C 
BRANCH  11  12
HETATM   12  C4  UNL     1     -38.347  -9.493  15.993  1.00  0.00     0.184 C 
BRANCH  12  13
HETATM   13  O1  UNL     1     -38.285 -10.808  16.428  1.00  0.00    -0.399 OA
ATOM     14  H1  UNL     1     -37.618 -11.336  16.006  1.00  0.00     0.209 HD
ENDBRANCH  12  13
ENDBRANCH  11  12
ENDBRANCH  10  11
BRANCH  10  15
HETATM   15  C5  UNL     1     -37.646 -11.263  13.054  1.00  0.00     0.161 C 
BRANCH  15  16
HETATM   16  C6  UNL     1     -37.587 -10.813  11.612  1.00  0.00     0.149 C 
BRANCH  16  17
HETATM   17  N4  UNL     1     -36.365 -10.043  11.358  1.00  0.00    -0.350 N 
HETATM   18  C7  UNL     1     -35.486  -9.591  12.274  1.00  0.00     0.108 A 
HETATM   19  C8  UNL     1     -34.484  -8.922  11.643  1.00  0.00     0.106 A 
HETATM   20  N5  UNL     1     -34.776  -8.979  10.312  1.00  0.00    -0.361 N 
HETATM   21  C9  UNL     1     -35.921  -9.662  10.142  1.00  0.00     0.182 A 
ATOM     22  H5  UNL     1     -34.216  -8.569   9.565  1.00  0.00     0.166 HD
ENDBRANCH  16  17
ENDBRANCH  15  16
ENDBRANCH  10  15
ENDBRANCH   4  10
BRANCH   1  23
HETATM   23  N1  UNL     1     -41.895 -13.961  13.155  1.00  0.00    -0.234 N 
ATOM     24  H12 UNL     1     -42.214 -14.639  13.847  1.00  0.00     0.174 HD
ATOM     25  H11 UNL     1     -41.798 -14.296  12.197  1.00  0.00     0.174 HD
ENDBRANCH   1  23
BRANCH   7  26
HETATM   26  N7  UNL     1     -43.265  -9.720  14.441  1.00  0.00    -0.234 N 
ATOM     27  H72 UNL     1     -43.959  -9.381  13.773  1.00  0.00     0.174 HD
ATOM     28  H71 UNL     1     -43.323  -9.368  15.396  1.00  0.00     0.174 HD
ENDBRANCH   7  26
TORSDOF 9
ENDMDL
MODEL 2
REMARK VINA RESULT: -7.076117500      0.523      1.904
REMARK  9 active torsions:
REMARK  status: ('A' for Active; 'I' for Inactive)
REMARK    1  A    between atoms: N1_1  and  C1_4 
REMARK    2  A    between atoms: C2_7  and  N3_8 
REMARK    3  A    between atoms: N3_8  and  C3_9 
REMARK    4  A    between atoms: N3_8  and  C5_13 
REMARK    5  A    between atoms: C3_9  and  C4_10 
REMARK    6  A    between atoms: C4_10  and  O1_11 
REMARK    7  A    between atoms: C5_13  and  C6_14 
REMARK    8  A    between atoms: C6_14  and  N4_15 
REMARK    9  A    between atoms: C10_23  and  N7_24 
ROOT
HETATM    1  C1  UNL     1     -42.427 -11.395  13.987  1.00  0.00     0.705 A 
HETATM    2  N2  UNL     1     -41.225 -10.762  14.006  1.00  0.00    -0.022 N 
ATOM      3  H2  UNL     1     -41.188  -9.778  14.268  1.00  0.00     0.203 HD
HETATM    4  C2  UNL     1     -40.088 -11.397  13.692  1.00  0.00     0.709 A 
HETATM    5  N6  UNL     1     -40.143 -12.698  13.346  1.00  0.00    -0.022 N 
ATOM      6  H6  UNL     1     -39.282 -13.187  13.105  1.00  0.00     0.203 HD
HETATM    7  C10 UNL     1     -41.318 -13.369  13.313  1.00  0.00     0.705 A 
HETATM    8  N8  UNL     1     -42.421 -12.693  13.634  1.00  0.00    -0.022 N 
ATOM      9  H8  UNL     1     -43.312 -13.189  13.612  1.00  0.00     0.203 HD
ENDROOT
BRANCH   4  10
HETATM   10  N3  UNL     1     -38.811 -10.717  13.720  1.00  0.00    -0.213 N 
BRANCH  10  11
HETATM   11  C3  UNL     1     -38.765  -9.458  14.420  1.00  0.00     0.167 C 
BRANCH  11  12
HETATM   12  C4  UNL     1     -38.369  -9.560  15.862  1.00  0.00     0.184 C 
BRANCH  12  13
HETATM   13  O1  UNL     1     -38.332 -10.850  16.365  1.00  0.00    -0.399 OA
ATOM     14  H1  UNL     1     -37.462 -11.223  16.442  1.00  0.00     0.209 HD
ENDBRANCH  12  13
ENDBRANCH  11  12
ENDBRANCH  10  11
BRANCH  10  15
HETATM   15  C5  UNL     1     -37.659 -11.295  13.064  1.00  0.00     0.161 C 
BRANCH  15  16
HETATM   16  C6  UNL     1     -37.583 -10.842  11.623  1.00  0.00     0.149 C 
BRANCH  16  17
HETATM   17  N4  UNL     1     -36.402 -10.002  11.405  1.00  0.00    -0.350 N 
HETATM   18  C7  UNL     1     -35.647  -9.403  12.347  1.00  0.00     0.108 A 
HETATM   19  C8  UNL     1     -34.641  -8.713  11.746  1.00  0.00     0.106 A 
HETATM   20  N5  UNL     1     -34.803  -8.908  10.405  1.00  0.00    -0.361 N 
HETATM   21  C9  UNL     1     -35.875  -9.694  10.202  1.00  0.00     0.182 A 
ATOM     22  H5  UNL     1     -34.207  -8.521   9.675  1.00  0.00     0.166 HD
ENDBRANCH  16  17
ENDBRANCH  15  16
ENDBRANCH  10  15
ENDBRANCH   4  10
BRANCH   1  23
HETATM   23  N1  UNL     1     -43.521 -10.762  14.293  1.00  0.00    -0.234 N 
ATOM     24  H12 UNL     1     -43.521  -9.918  14.864  1.00  0.00     0.174 HD
ATOM     25  H11 UNL     1     -44.428 -11.096  13.969  1.00  0.00     0.174 HD
ENDBRANCH   1  23
BRANCH   7  26
HETATM   26  N7  UNL     1     -41.331 -14.633  12.973  1.00  0.00    -0.234 N 
ATOM     27  H72 UNL     1     -40.963 -15.372  13.571  1.00  0.00     0.174 HD
ATOM     28  H71 UNL     1     -41.724 -14.909  12.073  1.00  0.00     0.174 HD
ENDBRANCH   7  26
TORSDOF 9
ENDMDL
MODEL 3
REMARK VINA RESULT: -7.009805762      0.967      2.211
REMARK  9 active torsions:
REMARK  status: ('A' for Active; 'I' for Inactive)
REMARK    1  A    between atoms: N1_1  and  C1_4 
REMARK    2  A    between atoms: C2_7  and  N3_8 
REMARK    3  A    between atoms: N3_8  and  C3_9 
REMARK    4  A    between atoms: N3_8  and  C5_13 
REMARK    5  A    between atoms: C3_9  and  C4_10 
REMARK    6  A    between atoms: C4_10  and  O1_11 
REMARK    7  A    between atoms: C5_13  and  C6_14 
REMARK    8  A    between atoms: C6_14  and  N4_15 
REMARK    9  A    between atoms: C10_23  and  N7_24 
ROOT
HETATM    1  C1  UNL     1     -42.383 -10.543  14.204  1.00  0.00     0.705 A 
HETATM    2  N2  UNL     1     -41.065 -10.282  14.405  1.00  0.00    -0.022 N 
ATOM      3  H2  UNL     1     -40.789  -9.365  14.755  1.00  0.00     0.203 HD
HETATM    4  C2  UNL     1     -40.118 -11.197  14.156  1.00  0.00     0.709 A 
HETATM    5  N6  UNL     1     -40.490 -12.406  13.693  1.00  0.00    -0.022 N 
ATOM      6  H6  UNL     1     -39.775 -13.108  13.501  1.00  0.00     0.203 HD
HETATM    7  C10 UNL     1     -41.790 -12.710  13.477  1.00  0.00     0.705 A 
HETATM    8  N8  UNL     1     -42.693 -11.766  13.741  1.00  0.00    -0.022 N 
ATOM      9  H8  UNL     1     -43.677 -11.984  13.582  1.00  0.00     0.203 HD
ENDROOT
BRANCH   4  10
HETATM   10  N3  UNL     1     -38.717 -10.914  14.378  1.00  0.00    -0.213 N 
BRANCH  10  11
HETATM   11  C3  UNL     1     -38.392 -10.150  15.555  1.00  0.00     0.167 C 
BRANCH  11  12
HETATM   12  C4  UNL     1     -38.444  -8.664  15.368  1.00  0.00     0.184 C 
BRANCH  12  13
HETATM   13  O1  UNL     1     -39.527  -8.040  15.966  1.00  0.00    -0.399 OA
ATOM     14  H1  UNL     1     -39.531  -8.073  16.915  1.00  0.00     0.209 HD
ENDBRANCH  12  13
ENDBRANCH  11  12
ENDBRANCH  10  11
BRANCH  10  15
HETATM   15  C5  UNL     1     -37.719 -11.382  13.442  1.00  0.00     0.161 C 
BRANCH  15  16
HETATM   16  C6  UNL     1     -37.875 -10.692  12.106  1.00  0.00     0.149 C 
BRANCH  16  17
HETATM   17  N4  UNL     1     -36.664  -9.937  11.767  1.00  0.00    -0.350 N 
HETATM   18  C7  UNL     1     -36.110  -9.796  10.548  1.00  0.00     0.108 A 
HETATM   19  C8  UNL     1     -34.996  -9.021  10.647  1.00  0.00     0.106 A 
HETATM   20  N5  UNL     1     -34.886  -8.692  11.966  1.00  0.00    -0.361 N 
HETATM   21  C9  UNL     1     -35.903  -9.250  12.645  1.00  0.00     0.182 A 
ATOM     22  H5  UNL     1     -34.151  -8.114  12.372  1.00  0.00     0.166 HD
ENDBRANCH  16  17
ENDBRANCH  15  16
ENDBRANCH  10  15
ENDBRANCH   4  10
BRANCH   1  23
HETATM   23  N1  UNL     1     -43.288  -9.641  14.450  1.00  0.00    -0.234 N 
ATOM     24  H12 UNL     1     -43.943  -9.317  13.740  1.00  0.00     0.174 HD
ATOM     25  H11 UNL     1     -43.370  -9.220  15.376  1.00  0.00     0.174 HD
ENDBRANCH   1  23
BRANCH   7  26
HETATM   26  N7  UNL     1     -42.112 -13.897  13.027  1.00  0.00    -0.234 N 
ATOM     27  H72 UNL     1     -41.478 -14.695  13.065  1.00  0.00     0.174 HD
ATOM     28  H71 UNL     1     -43.033 -14.048  12.618  1.00  0.00     0.174 HD
ENDBRANCH   7  26
TORSDOF 9
ENDMDL
MODEL 4
REMARK VINA RESULT: -6.832371172      1.844      2.266
REMARK  9 active torsions:
REMARK  status: ('A' for Active; 'I' for Inactive)
REMARK    1  A    between atoms: N1_1  and  C1_4 
REMARK    2  A    between atoms: C2_7  and  N3_8 
REMARK    3  A    between atoms: N3_8  and  C3_9 
REMARK    4  A    between atoms: N3_8  and  C5_13 
REMARK    5  A    between atoms: C3_9  and  C4_10 
REMARK    6  A    between atoms: C4_10  and  O1_11 
REMARK    7  A    between atoms: C5_13  and  C6_14 
REMARK    8  A    between atoms: C6_14  and  N4_15 
REMARK    9  A    between atoms: C10_23  and  N7_24 
ROOT
HETATM    1  C1  UNL     1     -42.920 -12.250  13.250  1.00  0.00     0.705 A 
HETATM    2  N2  UNL     1     -41.569 -12.157  13.161  1.00  0.00    -0.022 N 
ATOM      3  H2  UNL     1     -41.045 -12.927  12.745  1.00  0.00     0.203 HD
HETATM    4  C2  UNL     1     -40.904 -11.082  13.607  1.00  0.00     0.709 A 
HETATM    5  N6  UNL     1     -41.601 -10.069  14.157  1.00  0.00    -0.022 N 
ATOM      6  H6  UNL     1     -41.102  -9.248  14.498  1.00  0.00     0.203 HD
HETATM    7  C10 UNL     1     -42.949 -10.118  14.266  1.00  0.00     0.705 A 
HETATM    8  N8  UNL     1     -43.563 -11.209  13.808  1.00  0.00    -0.022 N 
ATOM      9  H8  UNL     1     -44.579 -11.257  13.885  1.00  0.00     0.203 HD
ENDROOT
BRANCH   4  10
HETATM   10  N3  UNL     1     -39.464 -10.988  13.504  1.00  0.00    -0.213 N 
BRANCH  10  11
HETATM   11  C3  UNL     1     -38.714 -12.167  13.853  1.00  0.00     0.167 C 
BRANCH  11  12
HETATM   12  C4  UNL     1     -38.202 -12.950  12.682  1.00  0.00     0.184 C 
BRANCH  12  13
HETATM   13  O1  UNL     1     -39.008 -14.007  12.292  1.00  0.00    -0.399 OA
ATOM     14  H1  UNL     1     -38.563 -14.844  12.226  1.00  0.00     0.209 HD
ENDBRANCH  12  13
ENDBRANCH  11  12
ENDBRANCH  10  11
BRANCH  10  15
HETATM   15  C5  UNL     1     -38.840  -9.755  13.077  1.00  0.00     0.161 C 
BRANCH  15  16
HETATM   16  C6  UNL     1     -37.618  -9.456  13.916  1.00  0.00     0.149 C 
BRANCH  16  17
HETATM   17  N4  UNL     1     -36.473  -9.121  13.065  1.00  0.00    -0.350 N 
HETATM   18  C7  UNL     1     -35.991  -7.891  12.800  1.00  0.00     0.108 A 
HETATM   19  C8  UNL     1     -34.920  -7.996  11.969  1.00  0.00     0.106 A 
HETATM   20  N5  UNL     1     -34.760  -9.331  11.733  1.00  0.00    -0.361 N 
HETATM   21  C9  UNL     1     -35.707 -10.012  12.402  1.00  0.00     0.182 A 
ATOM     22  H5  UNL     1     -34.039  -9.745  11.144  1.00  0.00     0.166 HD
ENDBRANCH  16  17
ENDBRANCH  15  16
ENDBRANCH  10  15
ENDBRANCH   4  10
BRANCH   1  23
HETATM   23  N1  UNL     1     -43.548 -13.303  12.814  1.00  0.00    -0.234 N 
ATOM     24  H12 UNL     1     -44.177 -13.847  13.404  1.00  0.00     0.174 HD
ATOM     25  H11 UNL     1     -43.427 -13.625  11.854  1.00  0.00     0.174 HD
ENDBRANCH   1  23
BRANCH   7  26
HETATM   26  N7  UNL     1     -43.592  -9.114  14.806  1.00  0.00    -0.234 N 
ATOM     27  H72 UNL     1     -43.150  -8.451  15.443  1.00  0.00     0.174 HD
ATOM     28  H71 UNL     1     -44.579  -8.972  14.591  1.00  0.00     0.174 HD
ENDBRANCH   7  26
TORSDOF 9
ENDMDL
MODEL 5
REMARK VINA RESULT: -6.819224575      1.821      2.871
REMARK  9 active torsions:
REMARK  status: ('A' for Active; 'I' for Inactive)
REMARK    1  A    between atoms: N1_1  and  C1_4 
REMARK    2  A    between atoms: C2_7  and  N3_8 
REMARK    3  A    between atoms: N3_8  and  C3_9 
REMARK    4  A    between atoms: N3_8  and  C5_13 
REMARK    5  A    between atoms: C3_9  and  C4_10 
REMARK    6  A    between atoms: C4_10  and  O1_11 
REMARK    7  A    between atoms: C5_13  and  C6_14 
REMARK    8  A    between atoms: C6_14  and  N4_15 
REMARK    9  A    between atoms: C10_23  and  N7_24 
ROOT
HETATM    1  C1  UNL     1     -42.938 -10.114  14.274  1.00  0.00     0.705 A 
HETATM    2  N2  UNL     1     -41.587 -10.044  14.155  1.00  0.00    -0.022 N 
ATOM      3  H2  UNL     1     -41.102  -9.213  14.491  1.00  0.00     0.203 HD
HETATM    4  C2  UNL     1     -40.874 -11.039  13.608  1.00  0.00     0.709 A 
HETATM    5  N6  UNL     1     -41.521 -12.135  13.166  1.00  0.00    -0.022 N 
ATOM      6  H6  UNL     1     -40.985 -12.895  12.749  1.00  0.00     0.203 HD
HETATM    7  C10 UNL     1     -42.866 -12.248  13.264  1.00  0.00     0.705 A 
HETATM    8  N8  UNL     1     -43.529 -11.231  13.815  1.00  0.00    -0.022 N 
ATOM      9  H8  UNL     1     -44.543 -11.306  13.894  1.00  0.00     0.203 HD
ENDROOT
BRANCH   4  10
HETATM   10  N3  UNL     1     -39.435 -10.960  13.490  1.00  0.00    -0.213 N 
BRANCH  10  11
HETATM   11  C3  UNL     1     -38.690 -12.130  13.882  1.00  0.00     0.167 C 
BRANCH  11  12
HETATM   12  C4  UNL     1     -38.156 -12.941  12.740  1.00  0.00     0.184 C 
BRANCH  12  13
HETATM   13  O1  UNL     1     -38.998 -13.949  12.299  1.00  0.00    -0.399 OA
ATOM     14  H1  UNL     1     -39.764 -14.094  12.841  1.00  0.00     0.209 HD
ENDBRANCH  12  13
ENDBRANCH  11  12
ENDBRANCH  10  11
BRANCH  10  15
HETATM   15  C5  UNL     1     -38.805  -9.752  13.006  1.00  0.00     0.161 C 
BRANCH  15  16
HETATM   16  C6  UNL     1     -37.603  -9.400  13.855  1.00  0.00     0.149 C 
BRANCH  16  17
HETATM   17  N4  UNL     1     -36.444  -9.097  13.011  1.00  0.00    -0.350 N 
HETATM   18  C7  UNL     1     -35.926  -7.882  12.747  1.00  0.00     0.108 A 
HETATM   19  C8  UNL     1     -34.853  -8.018  11.924  1.00  0.00     0.106 A 
HETATM   20  N5  UNL     1     -34.728  -9.357  11.691  1.00  0.00    -0.361 N 
HETATM   21  C9  UNL     1     -35.697 -10.010  12.355  1.00  0.00     0.182 A 
ATOM     22  H5  UNL     1     -34.014  -9.792  11.108  1.00  0.00     0.166 HD
ENDBRANCH  16  17
ENDBRANCH  15  16
ENDBRANCH  10  15
ENDBRANCH   4  10
BRANCH   1  23
HETATM   23  N1  UNL     1     -43.613  -9.137  14.806  1.00  0.00    -0.234 N 
ATOM     24  H12 UNL     1     -43.198  -8.225  14.994  1.00  0.00     0.174 HD
ATOM     25  H11 UNL     1     -44.595  -9.255  15.058  1.00  0.00     0.174 HD
ENDBRANCH   1  23
BRANCH   7  26
HETATM   26  N7  UNL     1     -43.459 -13.329  12.823  1.00  0.00    -0.234 N 
ATOM     27  H72 UNL     1     -43.102 -13.876  12.040  1.00  0.00     0.174 HD
ATOM     28  H71 UNL     1     -44.316 -13.651  13.270  1.00  0.00     0.174 HD
ENDBRANCH   7  26
TORSDOF 9
ENDMDL
