MODEL 1
REMARK VINA RESULT: -7.061004180      0.000      0.000
REMARK  11 active torsions:
REMARK  status: ('A' for Active; 'I' for Inactive)
REMARK    1  A    between atoms: C2_3  and  C3_4 
REMARK    2  A    between atoms: C3_4  and  N2_5 
REMARK    3  A    between atoms: N2_5  and  C4_6 
REMARK    4  A    between atoms: N2_5  and  C7_11 
REMARK    5  A    between atoms: C4_6  and  C5_7 
REMARK    6  A    between atoms: C5_7  and  C6_8 
REMARK    7  A    between atoms: C6_8  and  O1_9 
REMARK    8  A    between atoms: C8_14  and  N4_15 
REMARK    9  A    between atoms: N4_15  and  N5_17 
REMARK   10  A    between atoms: N5_17  and  C9_19 
REMARK   11  A    between atoms: C10_25  and  N8_26 
ROOT
HETATM    1  N1  UNL     1     -34.712  -8.105  12.209  1.00  0.00    -0.197 NA
HETATM    2  C1  UNL     1     -35.446  -8.932  11.865  1.00  0.00     0.060 C 
HETATM    3  C2  UNL     1     -36.395  -9.993  11.446  1.00  0.00     0.144 C 
ENDROOT
BRANCH   3   4
HETATM    4  C3  UNL     1     -36.589 -10.892  12.628  1.00  0.00     0.155 C 
BRANCH   4   5
HETATM    5  N2  UNL     1     -37.978 -11.012  13.043  1.00  0.00    -0.216 N 
BRANCH   5   6
HETATM    6  C4  UNL     1     -38.672  -9.812  13.429  1.00  0.00     0.143 C 
BRANCH   6   7
HETATM    7  C5  UNL     1     -37.960  -9.113  14.575  1.00  0.00     0.046 C 
BRANCH   7   8
HETATM    8  C6  UNL     1     -38.719  -9.423  15.861  1.00  0.00     0.165 C 
BRANCH   8   9
HETATM    9  O1  UNL     1     -38.294 -10.642  16.399  1.00  0.00    -0.401 OA
ATOM     10  H1  UNL     1     -39.040 -11.193  16.605  1.00  0.00     0.209 HD
ENDBRANCH   8   9
ENDBRANCH   7   8
ENDBRANCH   6   7
ENDBRANCH   5   6
BRANCH   5  11
HETATM   11  C7  UNL     1     -38.603 -12.302  13.040  1.00  0.00     0.709 A 
HETATM   12  N3  UNL     1     -37.824 -13.414  13.023  1.00  0.00    -0.020 N 
HETATM   13  C8  UNL     1     -38.370 -14.652  13.008  1.00  0.00     0.726 A 
ATOM     14  H3  UNL     1     -36.809 -13.314  13.022  1.00  0.00     0.203 HD
HETATM   15  N7  UNL     1     -39.706 -14.822  13.008  1.00  0.00    -0.020 N 
HETATM   16  C10 UNL     1     -40.484 -13.729  13.023  1.00  0.00     0.705 A 
ATOM     17  H7  UNL     1     -40.116 -15.756  12.996  1.00  0.00     0.203 HD
HETATM   18  N9  UNL     1     -39.925 -12.499  13.039  1.00  0.00    -0.022 N 
ATOM     19  H9  UNL     1     -40.539 -11.685  13.052  1.00  0.00     0.203 HD
BRANCH  13  20
HETATM   20  N4  UNL     1     -37.614 -15.697  12.992  1.00  0.00    -0.130 N 
ATOM     21  H4  UNL     1     -37.882 -16.454  12.364  1.00  0.00     0.205 HD
BRANCH  20  22
HETATM   22  N5  UNL     1     -36.484 -15.881  13.740  1.00  0.00    -0.282 N 
ATOM     23  H5  UNL     1     -36.194 -15.118  14.350  1.00  0.00     0.188 HD
BRANCH  22  24
HETATM   24  C9  UNL     1     -35.759 -16.950  13.734  1.00  0.00     0.191 C 
HETATM   25  N6  UNL     1     -35.134 -17.970  13.236  1.00  0.00    -0.394 N 
ATOM     26  H62 UNL     1     -35.370 -17.824  12.255  1.00  0.00     0.156 HD
ATOM     27  H61 UNL     1     -34.561 -18.814  13.231  1.00  0.00     0.156 HD
ENDBRANCH  22  24
ENDBRANCH  20  22
ENDBRANCH  13  20
BRANCH  16  28
HETATM   28  N8  UNL     1     -41.761 -13.850  13.027  1.00  0.00    -0.234 N 
ATOM     29  H82 UNL     1     -42.211 -14.452  13.716  1.00  0.00     0.174 HD
ATOM     30  H81 UNL     1     -42.323 -13.347  12.341  1.00  0.00     0.174 HD
ENDBRANCH  16  28
ENDBRANCH   5  11
ENDBRANCH   4   5
ENDBRANCH   3   4
TORSDOF 11
ENDMDL
MODEL 2
REMARK VINA RESULT: -6.921098175      2.638      5.735
REMARK  11 active torsions:
REMARK  status: ('A' for Active; 'I' for Inactive)
REMARK    1  A    between atoms: C2_3  and  C3_4 
REMARK    2  A    between atoms: C3_4  and  N2_5 
REMARK    3  A    between atoms: N2_5  and  C4_6 
REMARK    4  A    between atoms: N2_5  and  C7_11 
REMARK    5  A    between atoms: C4_6  and  C5_7 
REMARK    6  A    between atoms: C5_7  and  C6_8 
REMARK    7  A    between atoms: C6_8  and  O1_9 
REMARK    8  A    between atoms: C8_14  and  N4_15 
REMARK    9  A    between atoms: N4_15  and  N5_17 
REMARK   10  A    between atoms: N5_17  and  C9_19 
REMARK   11  A    between atoms: C10_25  and  N8_26 
ROOT
HETATM    1  N1  UNL     1     -38.581 -14.355  12.370  1.00  0.00    -0.197 NA
HETATM    2  C1  UNL     1     -39.699 -14.290  12.663  1.00  0.00     0.060 C 
HETATM    3  C2  UNL     1     -41.129 -14.184  13.046  1.00  0.00     0.144 C 
ENDROOT
BRANCH   3   4
HETATM    4  C3  UNL     1     -41.206 -13.189  14.163  1.00  0.00     0.155 C 
BRANCH   4   5
HETATM    5  N2  UNL     1     -41.160 -11.807  13.713  1.00  0.00    -0.216 N 
BRANCH   5   6
HETATM    6  C4  UNL     1     -42.296 -11.294  12.992  1.00  0.00     0.143 C 
BRANCH   6   7
HETATM    7  C5  UNL     1     -43.580 -11.496  13.781  1.00  0.00     0.046 C 
BRANCH   7   8
HETATM    8  C6  UNL     1     -43.624 -10.446  14.885  1.00  0.00     0.165 C 
BRANCH   8   9
HETATM    9  O1  UNL     1     -43.648  -9.159  14.337  1.00  0.00    -0.401 OA
ATOM     10  H1  UNL     1     -43.468  -8.509  15.007  1.00  0.00     0.209 HD
ENDBRANCH   8   9
ENDBRANCH   7   8
ENDBRANCH   6   7
ENDBRANCH   5   6
BRANCH   5  11
HETATM   11  C7  UNL     1     -40.007 -11.008  14.012  1.00  0.00     0.709 A 
HETATM   12  N3  UNL     1     -38.828 -11.297  13.404  1.00  0.00    -0.020 N 
HETATM   13  C8  UNL     1     -37.712 -10.579  13.663  1.00  0.00     0.726 A 
ATOM     14  H3  UNL     1     -38.783 -12.070  12.739  1.00  0.00     0.203 HD
HETATM   15  N7  UNL     1     -37.733  -9.552  14.535  1.00  0.00    -0.020 N 
HETATM   16  C10 UNL     1     -38.894  -9.260  15.141  1.00  0.00     0.705 A 
ATOM     17  H7  UNL     1     -36.891  -9.011  14.729  1.00  0.00     0.203 HD
HETATM   18  N9  UNL     1     -40.001  -9.986  14.872  1.00  0.00    -0.022 N 
ATOM     19  H9  UNL     1     -40.870  -9.742  15.346  1.00  0.00     0.203 HD
BRANCH  13  20
HETATM   20  N4  UNL     1     -36.600 -10.868  13.076  1.00  0.00    -0.130 N 
ATOM     21  H4  UNL     1     -36.405 -11.856  12.914  1.00  0.00     0.205 HD
BRANCH  20  22
HETATM   22  N5  UNL     1     -35.660  -9.971  12.651  1.00  0.00    -0.282 N 
ATOM     23  H5  UNL     1     -34.923  -9.715  13.307  1.00  0.00     0.188 HD
BRANCH  22  24
HETATM   24  C9  UNL     1     -35.634  -9.424  11.481  1.00  0.00     0.191 C 
HETATM   25  N6  UNL     1     -35.118  -8.894  10.418  1.00  0.00    -0.394 N 
ATOM     26  H62 UNL     1     -34.135  -8.952  10.685  1.00  0.00     0.156 HD
ATOM     27  H61 UNL     1     -35.098  -8.462   9.494  1.00  0.00     0.156 HD
ENDBRANCH  22  24
ENDBRANCH  20  22
ENDBRANCH  13  20
BRANCH  16  28
HETATM   28  N8  UNL     1     -38.956  -8.287  15.975  1.00  0.00    -0.234 N 
ATOM     29  H82 UNL     1     -38.808  -8.461  16.969  1.00  0.00     0.174 HD
ATOM     30  H81 UNL     1     -39.156  -7.344  15.644  1.00  0.00     0.174 HD
ENDBRANCH  16  28
ENDBRANCH   5  11
ENDBRANCH   4   5
ENDBRANCH   3   4
TORSDOF 11
ENDMDL
MODEL 3
REMARK VINA RESULT: -6.840566371      3.478      4.979
REMARK  11 active torsions:
REMARK  status: ('A' for Active; 'I' for Inactive)
REMARK    1  A    between atoms: C2_3  and  C3_4 
REMARK    2  A    between atoms: C3_4  and  N2_5 
REMARK    3  A    between atoms: N2_5  and  C4_6 
REMARK    4  A    between atoms: N2_5  and  C7_11 
REMARK    5  A    between atoms: C4_6  and  C5_7 
REMARK    6  A    between atoms: C5_7  and  C6_8 
REMARK    7  A    between atoms: C6_8  and  O1_9 
REMARK    8  A    between atoms: C8_14  and  N4_15 
REMARK    9  A    between atoms: N4_15  and  N5_17 
REMARK   10  A    between atoms: N5_17  and  C9_19 
REMARK   11  A    between atoms: C10_25  and  N8_26 
ROOT
HETATM    1  N1  UNL     1     -39.267  -6.849  16.540  1.00  0.00    -0.197 NA
HETATM    2  C1  UNL     1     -38.777  -7.562  15.770  1.00  0.00     0.060 C 
HETATM    3  C2  UNL     1     -38.165  -8.491  14.789  1.00  0.00     0.144 C 
ENDROOT
BRANCH   3   4
HETATM    4  C3  UNL     1     -38.426  -9.880  15.286  1.00  0.00     0.155 C 
BRANCH   4   5
HETATM    5  N2  UNL     1     -38.868 -10.795  14.246  1.00  0.00    -0.216 N 
BRANCH   5   6
HETATM    6  C4  UNL     1     -37.863 -11.413  13.421  1.00  0.00     0.143 C 
BRANCH   6   7
HETATM    7  C5  UNL     1     -37.762 -10.722  12.071  1.00  0.00     0.046 C 
BRANCH   7   8
HETATM    8  C6  UNL     1     -36.339 -10.200  11.914  1.00  0.00     0.165 C 
BRANCH   8   9
HETATM    9  O1  UNL     1     -35.644 -10.300  13.124  1.00  0.00    -0.401 OA
ATOM     10  H1  UNL     1     -34.792  -9.884  13.054  1.00  0.00     0.209 HD
ENDBRANCH   8   9
ENDBRANCH   7   8
ENDBRANCH   6   7
ENDBRANCH   5   6
BRANCH   5  11
HETATM   11  C7  UNL     1     -40.269 -11.057  14.088  1.00  0.00     0.709 A 
HETATM   12  N3  UNL     1     -40.665 -12.271  13.624  1.00  0.00    -0.020 N 
HETATM   13  C8  UNL     1     -41.975 -12.560  13.449  1.00  0.00     0.726 A 
ATOM     14  H3  UNL     1     -39.962 -12.976  13.404  1.00  0.00     0.203 HD
HETATM   15  N7  UNL     1     -42.930 -11.652  13.729  1.00  0.00    -0.020 N 
HETATM   16  C10 UNL     1     -42.548 -10.451  14.187  1.00  0.00     0.705 A 
ATOM     17  H7  UNL     1     -43.917 -11.872  13.596  1.00  0.00     0.203 HD
HETATM   18  N9  UNL     1     -41.236 -10.176  14.358  1.00  0.00    -0.022 N 
ATOM     19  H9  UNL     1     -40.973  -9.255  14.708  1.00  0.00     0.203 HD
BRANCH  13  20
HETATM   20  N4  UNL     1     -42.332 -13.717  13.006  1.00  0.00    -0.130 N 
ATOM     21  H4  UNL     1     -41.635 -14.461  13.037  1.00  0.00     0.205 HD
BRANCH  20  22
HETATM   22  N5  UNL     1     -43.561 -14.039  12.500  1.00  0.00    -0.282 N 
ATOM     23  H5  UNL     1     -44.354 -13.466  12.789  1.00  0.00     0.188 HD
BRANCH  22  24
HETATM   24  C9  UNL     1     -43.794 -15.012  11.684  1.00  0.00     0.191 C 
HETATM   25  N6  UNL     1     -43.840 -15.640  10.552  1.00  0.00    -0.394 N 
ATOM     26  H62 UNL     1     -43.458 -14.905   9.957  1.00  0.00     0.156 HD
ATOM     27  H61 UNL     1     -44.024 -16.409   9.907  1.00  0.00     0.156 HD
ENDBRANCH  22  24
ENDBRANCH  20  22
ENDBRANCH  13  20
BRANCH  16  28
HETATM   28  N8  UNL     1     -43.428  -9.561  14.468  1.00  0.00    -0.234 N 
ATOM     29  H82 UNL     1     -44.017  -9.179  13.729  1.00  0.00     0.174 HD
ATOM     30  H81 UNL     1     -43.535  -9.235  15.428  1.00  0.00     0.174 HD
ENDBRANCH  16  28
ENDBRANCH   5  11
ENDBRANCH   4   5
ENDBRANCH   3   4
TORSDOF 11
ENDMDL
MODEL 4
REMARK VINA RESULT: -6.827201169      3.350      4.499
REMARK  11 active torsions:
REMARK  status: ('A' for Active; 'I' for Inactive)
REMARK    1  A    between atoms: C2_3  and  C3_4 
REMARK    2  A    between atoms: C3_4  and  N2_5 
REMARK    3  A    between atoms: N2_5  and  C4_6 
REMARK    4  A    between atoms: N2_5  and  C7_11 
REMARK    5  A    between atoms: C4_6  and  C5_7 
REMARK    6  A    between atoms: C5_7  and  C6_8 
REMARK    7  A    between atoms: C6_8  and  O1_9 
REMARK    8  A    between atoms: C8_14  and  N4_15 
REMARK    9  A    between atoms: N4_15  and  N5_17 
REMARK   10  A    between atoms: N5_17  and  C9_19 
REMARK   11  A    between atoms: C10_25  and  N8_26 
ROOT
HETATM    1  N1  UNL     1     -35.380  -9.646  12.553  1.00  0.00    -0.197 NA
HETATM    2  C1  UNL     1     -36.431 -10.126  12.463  1.00  0.00     0.060 C 
HETATM    3  C2  UNL     1     -37.778 -10.739  12.372  1.00  0.00     0.144 C 
ENDROOT
BRANCH   3   4
HETATM    4  C3  UNL     1     -38.010 -11.471  13.657  1.00  0.00     0.155 C 
BRANCH   4   5
HETATM    5  N2  UNL     1     -38.992 -10.833  14.520  1.00  0.00    -0.216 N 
BRANCH   5   6
HETATM    6  C4  UNL     1     -38.509 -10.005  15.594  1.00  0.00     0.143 C 
BRANCH   6   7
HETATM    7  C5  UNL     1     -38.441  -8.547  15.171  1.00  0.00     0.046 C 
BRANCH   7   8
HETATM    8  C6  UNL     1     -38.772  -7.688  16.386  1.00  0.00     0.165 C 
BRANCH   8   9
HETATM    9  O1  UNL     1     -39.825  -6.813  16.095  1.00  0.00    -0.401 OA
ATOM     10  H1  UNL     1     -40.059  -6.867  15.176  1.00  0.00     0.209 HD
ENDBRANCH   8   9
ENDBRANCH   7   8
ENDBRANCH   6   7
ENDBRANCH   5   6
BRANCH   5  11
HETATM   11  C7  UNL     1     -40.388 -11.036  14.265  1.00  0.00     0.709 A 
HETATM   12  N3  UNL     1     -40.799 -12.218  13.738  1.00  0.00    -0.020 N 
HETATM   13  C8  UNL     1     -42.104 -12.449  13.470  1.00  0.00     0.726 A 
ATOM     14  H3  UNL     1     -40.110 -12.944  13.540  1.00  0.00     0.203 HD
HETATM   15  N7  UNL     1     -43.041 -11.514  13.717  1.00  0.00    -0.020 N 
HETATM   16  C10 UNL     1     -42.644 -10.343  14.237  1.00  0.00     0.705 A 
ATOM     17  H7  UNL     1     -44.025 -11.690  13.514  1.00  0.00     0.203 HD
HETATM   18  N9  UNL     1     -41.338 -10.125  14.500  1.00  0.00    -0.022 N 
ATOM     19  H9  UNL     1     -41.063  -9.226  14.896  1.00  0.00     0.203 HD
BRANCH  13  20
HETATM   20  N4  UNL     1     -42.476 -13.579  12.968  1.00  0.00    -0.130 N 
ATOM     21  H4  UNL     1     -41.759 -14.297  12.862  1.00  0.00     0.205 HD
BRANCH  20  22
HETATM   22  N5  UNL     1     -43.742 -13.900  12.566  1.00  0.00    -0.282 N 
ATOM     23  H5  UNL     1     -44.511 -13.345  12.941  1.00  0.00     0.188 HD
BRANCH  22  24
HETATM   24  C9  UNL     1     -44.038 -14.854  11.746  1.00  0.00     0.191 C 
HETATM   25  N6  UNL     1     -43.930 -15.611  10.701  1.00  0.00    -0.394 N 
ATOM     26  H62 UNL     1     -43.106 -15.176  10.287  1.00  0.00     0.156 HD
ATOM     27  H61 UNL     1     -44.164 -16.364  10.054  1.00  0.00     0.156 HD
ENDBRANCH  22  24
ENDBRANCH  20  22
ENDBRANCH  13  20
BRANCH  16  28
HETATM   28  N8  UNL     1     -43.507  -9.427  14.490  1.00  0.00    -0.234 N 
ATOM     29  H82 UNL     1     -43.967  -8.938  13.722  1.00  0.00     0.174 HD
ATOM     30  H81 UNL     1     -43.729  -9.188  15.455  1.00  0.00     0.174 HD
ENDBRANCH  16  28
ENDBRANCH   5  11
ENDBRANCH   4   5
ENDBRANCH   3   4
TORSDOF 11
ENDMDL
MODEL 5
REMARK VINA RESULT: -6.818507608      2.256      4.644
REMARK  11 active torsions:
REMARK  status: ('A' for Active; 'I' for Inactive)
REMARK    1  A    between atoms: C2_3  and  C3_4 
REMARK    2  A    between atoms: C3_4  and  N2_5 
REMARK    3  A    between atoms: N2_5  and  C4_6 
REMARK    4  A    between atoms: N2_5  and  C7_11 
REMARK    5  A    between atoms: C4_6  and  C5_7 
REMARK    6  A    between atoms: C5_7  and  C6_8 
REMARK    7  A    between atoms: C6_8  and  O1_9 
REMARK    8  A    between atoms: C8_14  and  N4_15 
REMARK    9  A    between atoms: N4_15  and  N5_17 
REMARK   10  A    between atoms: N5_17  and  C9_19 
REMARK   11  A    between atoms: C10_25  and  N8_26 
ROOT
HETATM    1  N1  UNL     1     -35.042  -8.760  10.053  1.00  0.00    -0.197 NA
HETATM    2  C1  UNL     1     -35.416  -8.484  11.115  1.00  0.00     0.060 C 
HETATM    3  C2  UNL     1     -35.887  -8.152  12.481  1.00  0.00     0.144 C 
ENDROOT
BRANCH   3   4
HETATM    4  C3  UNL     1     -36.195  -9.450  13.162  1.00  0.00     0.155 C 
BRANCH   4   5
HETATM    5  N2  UNL     1     -37.557  -9.532  13.665  1.00  0.00    -0.216 N 
BRANCH   5   6
HETATM    6  C4  UNL     1     -38.084  -8.395  14.372  1.00  0.00     0.143 C 
BRANCH   6   7
HETATM    7  C5  UNL     1     -38.607  -8.797  15.742  1.00  0.00     0.046 C 
BRANCH   7   8
HETATM    8  C6  UNL     1     -38.750  -7.533  16.582  1.00  0.00     0.165 C 
BRANCH   8   9
HETATM    9  O1  UNL     1     -39.838  -6.772  16.141  1.00  0.00    -0.401 OA
ATOM     10  H1  UNL     1     -40.050  -6.097  16.775  1.00  0.00     0.209 HD
ENDBRANCH   8   9
ENDBRANCH   7   8
ENDBRANCH   6   7
ENDBRANCH   5   6
BRANCH   5  11
HETATM   11  C7  UNL     1     -38.323 -10.721  13.430  1.00  0.00     0.709 A 
HETATM   12  N3  UNL     1     -39.674 -10.628  13.336  1.00  0.00    -0.020 N 
HETATM   13  C8  UNL     1     -40.439 -11.724  13.126  1.00  0.00     0.726 A 
ATOM     14  H3  UNL     1     -40.121  -9.715  13.424  1.00  0.00     0.203 HD
HETATM   15  N7  UNL     1     -39.884 -12.946  13.005  1.00  0.00    -0.020 N 
HETATM   16  C10 UNL     1     -38.550 -13.047  13.098  1.00  0.00     0.705 A 
ATOM     17  H7  UNL     1     -40.462 -13.771  12.847  1.00  0.00     0.203 HD
HETATM   18  N9  UNL     1     -37.798 -11.944  13.307  1.00  0.00    -0.022 N 
ATOM     19  H9  UNL     1     -36.786 -12.050  13.373  1.00  0.00     0.203 HD
BRANCH  13  20
HETATM   20  N4  UNL     1     -41.722 -11.616  13.039  1.00  0.00    -0.130 N 
ATOM     21  H4  UNL     1     -42.123 -11.602  12.102  1.00  0.00     0.205 HD
BRANCH  20  22
HETATM   22  N5  UNL     1     -42.591 -11.518  14.090  1.00  0.00    -0.282 N 
ATOM     23  H5  UNL     1     -42.833 -12.377  14.583  1.00  0.00     0.188 HD
BRANCH  22  24
HETATM   24  C9  UNL     1     -43.130 -10.419  14.504  1.00  0.00     0.191 C 
HETATM   25  N6  UNL     1     -43.361  -9.146  14.561  1.00  0.00    -0.394 N 
ATOM     26  H62 UNL     1     -42.721  -8.846  13.826  1.00  0.00     0.156 HD
ATOM     27  H61 UNL     1     -43.786  -8.278  14.888  1.00  0.00     0.156 HD
ENDBRANCH  22  24
ENDBRANCH  20  22
ENDBRANCH  13  20
BRANCH  16  28
HETATM   28  N8  UNL     1     -37.984 -14.193  12.985  1.00  0.00    -0.234 N 
ATOM     29  H82 UNL     1     -38.553 -15.030  12.864  1.00  0.00     0.174 HD
ATOM     30  H81 UNL     1     -36.968 -14.265  13.019  1.00  0.00     0.174 HD
ENDBRANCH  16  28
ENDBRANCH   5  11
ENDBRANCH   4   5
ENDBRANCH   3   4
TORSDOF 11
ENDMDL
