MODEL 1
REMARK VINA RESULT: -7.981613121      0.000      0.000
REMARK  8 active torsions:
REMARK  status: ('A' for Active; 'I' for Inactive)
REMARK    1  A    between atoms: N1_1  and  C1_5 
REMARK    2  A    between atoms: C1_5  and  C2_6 
REMARK    3  A    between atoms: C2_6  and  C3_7 
REMARK    4  A    between atoms: C3_7  and  C4_8 
REMARK    5  A    between atoms: C4_8  and  C5_9 
REMARK    6  A    between atoms: N2_11  and  C7_12 
REMARK    7  A    between atoms: C7_12  and  C8_13 
REMARK    8  A    between atoms: C10_20  and  N6_21 
REMARK       I    between atoms: N6_21  and  C11_23 
REMARK       I    between atoms: C11_23  and  N7_24 
REMARK       I    between atoms: C11_23  and  N8_28 
ROOT
HETATM    1  C8  UNL     1     -40.564 -11.903  13.443  1.00  0.00     0.049 A 
HETATM    2  C9  UNL     1     -41.865 -12.352  13.557  1.00  0.00     0.142 A 
HETATM    3  N3  UNL     1     -42.377 -13.605  13.148  1.00  0.00    -0.081 NA
HETATM    4  N4  UNL     1     -42.590 -11.353  14.148  1.00  0.00    -0.286 N 
ATOM      5  H4  UNL     1     -43.586 -11.400  14.360  1.00  0.00     0.188 HD
HETATM    6  N5  UNL     1     -41.810 -10.319  14.403  1.00  0.00    -0.284 N 
ATOM      7  H5  UNL     1     -42.098  -9.443  14.840  1.00  0.00     0.188 HD
HETATM    8  C10 UNL     1     -40.572 -10.624  13.987  1.00  0.00     0.130 A 
ENDROOT
BRANCH   1   9
HETATM    9  C7  UNL     1     -39.426 -12.639  12.866  1.00  0.00     0.192 C 
BRANCH   9  10
HETATM   10  N2  UNL     1     -38.281 -11.800  12.563  1.00  0.00    -0.281 N 
HETATM   11  C6  UNL     1     -38.066 -11.015  11.493  1.00  0.00     0.134 A 
HETATM   12  C5  UNL     1     -36.844 -10.385  11.608  1.00  0.00     0.040 A 
HETATM   13  N10 UNL     1     -36.351 -10.826  12.776  1.00  0.00    -0.287 N 
HETATM   14  N9  UNL     1     -37.212 -11.662  13.331  1.00  0.00    -0.020 NA
ATOM     15  H10 UNL     1     -35.451 -10.557  13.173  1.00  0.00     0.184 HD
BRANCH  12  16
HETATM   16  C4  UNL     1     -36.172  -9.438  10.702  1.00  0.00     0.059 C 
BRANCH  16  17
HETATM   17  C3  UNL     1     -34.703  -9.366  11.024  1.00  0.00     0.008 C 
BRANCH  17  18
HETATM   18  C2  UNL     1     -34.326  -8.165  11.843  1.00  0.00     0.027 C 
BRANCH  18  19
HETATM   19  C1  UNL     1     -35.522  -7.353  12.280  1.00  0.00     0.229 C 
BRANCH  19  20
HETATM   20  N1  UNL     1     -35.001  -6.067  12.765  1.00  0.00    -0.079 N 
ATOM     21  H13 UNL     1     -34.773  -6.073  13.760  1.00  0.00     0.274 HD
ATOM     22  H12 UNL     1     -34.065  -5.856  12.421  1.00  0.00     0.274 HD
ATOM     23  H11 UNL     1     -35.692  -5.360  12.515  1.00  0.00     0.274 HD
ENDBRANCH  19  20
ENDBRANCH  18  19
ENDBRANCH  17  18
ENDBRANCH  16  17
ENDBRANCH  12  16
ENDBRANCH   9  10
ENDBRANCH   1   9
BRANCH   8  24
HETATM   24  N6  UNL     1     -39.538  -9.889  14.057  1.00  0.00    -0.326 N 
HETATM   25  C11 UNL     1     -38.882  -9.483  15.261  1.00  0.00     0.481 C 
HETATM   26  N7  UNL     1     -38.431 -10.526  16.090  1.00  0.00    -0.033 N 
HETATM   27  N8  UNL     1     -37.726  -8.663  14.879  1.00  0.00    -0.033 N 
ATOM     28  H73 UNL     1     -39.203 -11.156  16.310  1.00  0.00     0.278 HD
ATOM     29  H72 UNL     1     -37.828 -11.156  15.560  1.00  0.00     0.278 HD
ATOM     30  H71 UNL     1     -37.963 -10.237  16.950  1.00  0.00     0.278 HD
ATOM     31  H83 UNL     1     -37.102  -9.137  14.226  1.00  0.00     0.278 HD
ATOM     32  H82 UNL     1     -37.976  -7.878  14.279  1.00  0.00     0.278 HD
ATOM     33  H81 UNL     1     -37.258  -8.374  15.738  1.00  0.00     0.278 HD
ATOM     34  H6  UNL     1     -39.141  -9.560  13.177  1.00  0.00     0.165 HD
ENDBRANCH   8  24
TORSDOF 8
ENDMDL
MODEL 2
REMARK VINA RESULT: -7.828425549      1.539      3.245
REMARK  8 active torsions:
REMARK  status: ('A' for Active; 'I' for Inactive)
REMARK    1  A    between atoms: N1_1  and  C1_5 
REMARK    2  A    between atoms: C1_5  and  C2_6 
REMARK    3  A    between atoms: C2_6  and  C3_7 
REMARK    4  A    between atoms: C3_7  and  C4_8 
REMARK    5  A    between atoms: C4_8  and  C5_9 
REMARK    6  A    between atoms: N2_11  and  C7_12 
REMARK    7  A    between atoms: C7_12  and  C8_13 
REMARK    8  A    between atoms: C10_20  and  N6_21 
REMARK       I    between atoms: N6_21  and  C11_23 
REMARK       I    between atoms: C11_23  and  N7_24 
REMARK       I    between atoms: C11_23  and  N8_28 
ROOT
HETATM    1  C8  UNL     1     -41.972 -11.048  14.131  1.00  0.00     0.049 A 
HETATM    2  C9  UNL     1     -43.254 -10.534  14.100  1.00  0.00     0.142 A 
HETATM    3  N3  UNL     1     -43.700  -9.314  14.660  1.00  0.00    -0.081 NA
HETATM    4  N4  UNL     1     -44.034 -11.427  13.418  1.00  0.00    -0.286 N 
ATOM      5  H4  UNL     1     -45.032 -11.313  13.237  1.00  0.00     0.188 HD
HETATM    6  N5  UNL     1     -43.308 -12.457  13.029  1.00  0.00    -0.284 N 
ATOM      7  H5  UNL     1     -43.644 -13.265  12.504  1.00  0.00     0.188 HD
HETATM    8  C10 UNL     1     -42.050 -12.256  13.447  1.00  0.00     0.130 A 
ENDROOT
BRANCH   1   9
HETATM    9  C7  UNL     1     -40.791 -10.432  14.760  1.00  0.00     0.192 C 
BRANCH   9  10
HETATM   10  N2  UNL     1     -39.546 -10.719  14.071  1.00  0.00    -0.281 N 
HETATM   11  C6  UNL     1     -39.014 -10.112  12.996  1.00  0.00     0.134 A 
HETATM   12  C5  UNL     1     -37.810 -10.701  12.670  1.00  0.00     0.040 A 
HETATM   13  N10 UNL     1     -37.654 -11.670  13.586  1.00  0.00    -0.287 N 
HETATM   14  N9  UNL     1     -38.689 -11.669  14.410  1.00  0.00    -0.020 NA
ATOM     15  H10 UNL     1     -36.860 -12.308  13.638  1.00  0.00     0.184 HD
BRANCH  12  16
HETATM   16  C4  UNL     1     -36.862 -10.392  11.587  1.00  0.00     0.059 C 
BRANCH  16  17
HETATM   17  C3  UNL     1     -35.583  -9.839  12.158  1.00  0.00     0.008 C 
BRANCH  17  18
HETATM   18  C2  UNL     1     -35.254  -8.459  11.666  1.00  0.00     0.027 C 
BRANCH  18  19
HETATM   19  C1  UNL     1     -35.736  -7.372  12.597  1.00  0.00     0.229 C 
BRANCH  19  20
HETATM   20  N1  UNL     1     -34.692  -6.338  12.611  1.00  0.00    -0.079 N 
ATOM     21  H13 UNL     1     -34.417  -6.055  13.552  1.00  0.00     0.274 HD
ATOM     22  H12 UNL     1     -33.780  -6.681  12.310  1.00  0.00     0.274 HD
ATOM     23  H11 UNL     1     -35.040  -5.565  12.044  1.00  0.00     0.274 HD
ENDBRANCH  19  20
ENDBRANCH  18  19
ENDBRANCH  17  18
ENDBRANCH  16  17
ENDBRANCH  12  16
ENDBRANCH   9  10
ENDBRANCH   1   9
BRANCH   8  24
HETATM   24  N6  UNL     1     -41.052 -13.021  13.269  1.00  0.00    -0.326 N 
HETATM   25  C11 UNL     1     -41.086 -14.451  13.268  1.00  0.00     0.481 C 
HETATM   26  N7  UNL     1     -41.947 -15.039  12.323  1.00  0.00    -0.033 N 
HETATM   27  N8  UNL     1     -39.721 -14.925  13.008  1.00  0.00    -0.033 N 
ATOM     28  H73 UNL     1     -42.890 -14.669  12.433  1.00  0.00     0.278 HD
ATOM     29  H72 UNL     1     -41.725 -14.695  11.388  1.00  0.00     0.278 HD
ATOM     30  H71 UNL     1     -41.971 -16.059  12.321  1.00  0.00     0.278 HD
ATOM     31  H83 UNL     1     -39.321 -14.536  12.153  1.00  0.00     0.278 HD
ATOM     32  H82 UNL     1     -39.037 -14.544  13.660  1.00  0.00     0.278 HD
ATOM     33  H81 UNL     1     -39.746 -15.945  13.006  1.00  0.00     0.278 HD
ATOM     34  H6  UNL     1     -40.146 -12.577  13.114  1.00  0.00     0.165 HD
ENDBRANCH   8  24
TORSDOF 8
ENDMDL
MODEL 3
REMARK VINA RESULT: -7.725165217      1.052      1.314
REMARK  8 active torsions:
REMARK  status: ('A' for Active; 'I' for Inactive)
REMARK    1  A    between atoms: N1_1  and  C1_5 
REMARK    2  A    between atoms: C1_5  and  C2_6 
REMARK    3  A    between atoms: C2_6  and  C3_7 
REMARK    4  A    between atoms: C3_7  and  C4_8 
REMARK    5  A    between atoms: C4_8  and  C5_9 
REMARK    6  A    between atoms: N2_11  and  C7_12 
REMARK    7  A    between atoms: C7_12  and  C8_13 
REMARK    8  A    between atoms: C10_20  and  N6_21 
REMARK       I    between atoms: N6_21  and  C11_23 
REMARK       I    between atoms: C11_23  and  N7_24 
REMARK       I    between atoms: C11_23  and  N8_28 
ROOT
HETATM    1  C8  UNL     1     -39.898 -12.108  13.490  1.00  0.00     0.049 A 
HETATM    2  C9  UNL     1     -41.002 -12.915  13.294  1.00  0.00     0.142 A 
HETATM    3  N3  UNL     1     -41.009 -14.283  12.933  1.00  0.00    -0.081 NA
HETATM    4  N4  UNL     1     -42.112 -12.146  13.514  1.00  0.00    -0.286 N 
ATOM      5  H4  UNL     1     -43.075 -12.475  13.441  1.00  0.00     0.188 HD
HETATM    6  N5  UNL     1     -41.755 -10.917  13.833  1.00  0.00    -0.284 N 
ATOM      7  H5  UNL     1     -42.386 -10.145  14.047  1.00  0.00     0.188 HD
HETATM    8  C10 UNL     1     -40.415 -10.863  13.828  1.00  0.00     0.130 A 
ENDROOT
BRANCH   1   9
HETATM    9  C7  UNL     1     -38.485 -12.503  13.362  1.00  0.00     0.192 C 
BRANCH   9  10
HETATM   10  N2  UNL     1     -37.688 -11.577  12.578  1.00  0.00    -0.281 N 
HETATM   11  C6  UNL     1     -36.538 -10.964  12.905  1.00  0.00     0.134 A 
HETATM   12  C5  UNL     1     -36.115 -10.167  11.861  1.00  0.00     0.040 A 
HETATM   13  N10 UNL     1     -37.053 -10.334  10.914  1.00  0.00    -0.287 N 
HETATM   14  N9  UNL     1     -37.978 -11.171  11.352  1.00  0.00    -0.020 NA
ATOM     15  H10 UNL     1     -37.052  -9.883   9.999  1.00  0.00     0.184 HD
BRANCH  12  16
HETATM   16  C4  UNL     1     -34.925  -9.309  11.739  1.00  0.00     0.059 C 
BRANCH  16  17
HETATM   17  C3  UNL     1     -35.338  -7.869  11.581  1.00  0.00     0.008 C 
BRANCH  17  18
HETATM   18  C2  UNL     1     -35.838  -7.245  12.852  1.00  0.00     0.027 C 
BRANCH  18  19
HETATM   19  C1  UNL     1     -35.472  -5.785  12.974  1.00  0.00     0.229 C 
BRANCH  19  20
HETATM   20  N1  UNL     1     -34.026  -5.693  12.728  1.00  0.00    -0.079 N 
ATOM     21  H13 UNL     1     -33.675  -4.735  12.738  1.00  0.00     0.274 HD
ATOM     22  H12 UNL     1     -33.462  -6.043  13.503  1.00  0.00     0.274 HD
ATOM     23  H11 UNL     1     -33.849  -6.178  11.849  1.00  0.00     0.274 HD
ENDBRANCH  19  20
ENDBRANCH  18  19
ENDBRANCH  17  18
ENDBRANCH  16  17
ENDBRANCH  12  16
ENDBRANCH   9  10
ENDBRANCH   1   9
BRANCH   8  24
HETATM   24  N6  UNL     1     -39.688  -9.853  14.084  1.00  0.00    -0.326 N 
HETATM   25  C11 UNL     1     -39.236  -9.457  15.383  1.00  0.00     0.481 C 
HETATM   26  N7  UNL     1     -38.483 -10.417  16.084  1.00  0.00    -0.033 N 
HETATM   27  N8  UNL     1     -38.412  -8.255  15.215  1.00  0.00    -0.033 N 
ATOM     28  H73 UNL     1     -39.005 -11.291  16.149  1.00  0.00     0.278 HD
ATOM     29  H72 UNL     1     -37.691 -10.720  15.517  1.00  0.00     0.278 HD
ATOM     30  H71 UNL     1     -38.160 -10.135  17.010  1.00  0.00     0.278 HD
ATOM     31  H83 UNL     1     -37.648  -8.386  14.551  1.00  0.00     0.278 HD
ATOM     32  H82 UNL     1     -38.895  -7.507  14.718  1.00  0.00     0.278 HD
ATOM     33  H81 UNL     1     -38.089  -7.973  16.141  1.00  0.00     0.278 HD
ATOM     34  H6  UNL     1     -39.402  -9.274  13.295  1.00  0.00     0.165 HD
ENDBRANCH   8  24
TORSDOF 8
ENDMDL
MODEL 4
REMARK VINA RESULT: -7.401766852      1.982      3.534
REMARK  8 active torsions:
REMARK  status: ('A' for Active; 'I' for Inactive)
REMARK    1  A    between atoms: N1_1  and  C1_5 
REMARK    2  A    between atoms: C1_5  and  C2_6 
REMARK    3  A    between atoms: C2_6  and  C3_7 
REMARK    4  A    between atoms: C3_7  and  C4_8 
REMARK    5  A    between atoms: C4_8  and  C5_9 
REMARK    6  A    between atoms: N2_11  and  C7_12 
REMARK    7  A    between atoms: C7_12  and  C8_13 
REMARK    8  A    between atoms: C10_20  and  N6_21 
REMARK       I    between atoms: N6_21  and  C11_23 
REMARK       I    between atoms: C11_23  and  N7_24 
REMARK       I    between atoms: C11_23  and  N8_28 
ROOT
HETATM    1  C8  UNL     1     -41.854 -12.595  13.937  1.00  0.00     0.049 A 
HETATM    2  C9  UNL     1     -43.133 -12.390  13.457  1.00  0.00     0.142 A 
HETATM    3  N3  UNL     1     -43.994 -11.307  13.753  1.00  0.00    -0.081 NA
HETATM    4  N4  UNL     1     -43.429 -13.437  12.628  1.00  0.00    -0.286 N 
ATOM      5  H4  UNL     1     -44.310 -13.555  12.127  1.00  0.00     0.188 HD
HETATM    6  N5  UNL     1     -42.408 -14.271  12.570  1.00  0.00    -0.284 N 
ATOM      7  H5  UNL     1     -42.367 -15.132  12.025  1.00  0.00     0.188 HD
HETATM    8  C10 UNL     1     -41.435 -13.786  13.355  1.00  0.00     0.130 A 
ENDROOT
BRANCH   1   9
HETATM    9  C7  UNL     1     -41.112 -11.726  14.866  1.00  0.00     0.192 C 
BRANCH   9  10
HETATM   10  N2  UNL     1     -40.142 -10.865  14.213  1.00  0.00    -0.281 N 
HETATM   11  C6  UNL     1     -38.982 -10.383  14.691  1.00  0.00     0.134 A 
HETATM   12  C5  UNL     1     -38.365  -9.605  13.733  1.00  0.00     0.040 A 
HETATM   13  N10 UNL     1     -39.200  -9.645  12.682  1.00  0.00    -0.287 N 
HETATM   14  N9  UNL     1     -40.248 -10.396  12.980  1.00  0.00    -0.020 NA
ATOM     15  H10 UNL     1     -39.050  -9.171  11.792  1.00  0.00     0.184 HD
BRANCH  12  16
HETATM   16  C4  UNL     1     -37.090  -8.870  13.779  1.00  0.00     0.059 C 
BRANCH  16  17
HETATM   17  C3  UNL     1     -36.167  -9.364  12.697  1.00  0.00     0.008 C 
BRANCH  17  18
HETATM   18  C2  UNL     1     -35.529  -8.261  11.902  1.00  0.00     0.027 C 
BRANCH  18  19
HETATM   19  C1  UNL     1     -35.281  -8.642  10.462  1.00  0.00     0.229 C 
BRANCH  19  20
HETATM   20  N1  UNL     1     -36.085  -9.844  10.201  1.00  0.00    -0.079 N 
ATOM     21  H13 UNL     1     -36.367 -10.333  11.051  1.00  0.00     0.274 HD
ATOM     22  H12 UNL     1     -37.022  -9.635   9.857  1.00  0.00     0.274 HD
ATOM     23  H11 UNL     1     -35.541 -10.425   9.564  1.00  0.00     0.274 HD
ENDBRANCH  19  20
ENDBRANCH  18  19
ENDBRANCH  17  18
ENDBRANCH  16  17
ENDBRANCH  12  16
ENDBRANCH   9  10
ENDBRANCH   1   9
BRANCH   8  24
HETATM   24  N6  UNL     1     -40.293 -14.301  13.565  1.00  0.00    -0.326 N 
HETATM   25  C11 UNL     1     -39.193 -14.293  12.651  1.00  0.00     0.481 C 
HETATM   26  N7  UNL     1     -38.755 -13.022  12.235  1.00  0.00    -0.033 N 
HETATM   27  N8  UNL     1     -38.071 -14.977  13.305  1.00  0.00    -0.033 N 
ATOM     28  H73 UNL     1     -39.536 -12.495  11.844  1.00  0.00     0.278 HD
ATOM     29  H72 UNL     1     -38.537 -12.446  13.048  1.00  0.00     0.278 HD
ATOM     30  H71 UNL     1     -37.970 -13.016  11.583  1.00  0.00     0.278 HD
ATOM     31  H83 UNL     1     -37.836 -14.576  14.213  1.00  0.00     0.278 HD
ATOM     32  H82 UNL     1     -38.310 -15.913  13.631  1.00  0.00     0.278 HD
ATOM     33  H81 UNL     1     -37.286 -14.971  12.653  1.00  0.00     0.278 HD
ATOM     34  H6  UNL     1     -40.148 -14.759  14.464  1.00  0.00     0.165 HD
ENDBRANCH   8  24
TORSDOF 8
ENDMDL
MODEL 5
REMARK VINA RESULT: -7.364835240      3.630      7.080
REMARK  8 active torsions:
REMARK  status: ('A' for Active; 'I' for Inactive)
REMARK    1  A    between atoms: N1_1  and  C1_5 
REMARK    2  A    between atoms: C1_5  and  C2_6 
REMARK    3  A    between atoms: C2_6  and  C3_7 
REMARK    4  A    between atoms: C3_7  and  C4_8 
REMARK    5  A    between atoms: C4_8  and  C5_9 
REMARK    6  A    between atoms: N2_11  and  C7_12 
REMARK    7  A    between atoms: C7_12  and  C8_13 
REMARK    8  A    between atoms: C10_20  and  N6_21 
REMARK       I    between atoms: N6_21  and  C11_23 
REMARK       I    between atoms: C11_23  and  N7_24 
REMARK       I    between atoms: C11_23  and  N8_28 
ROOT
HETATM    1  C8  UNL     1     -46.096 -14.245  13.442  1.00  0.00     0.049 A 
HETATM    2  C9  UNL     1     -46.657 -14.896  14.524  1.00  0.00     0.142 A 
HETATM    3  N3  UNL     1     -47.048 -14.324  15.758  1.00  0.00    -0.081 NA
HETATM    4  N4  UNL     1     -46.771 -16.217  14.190  1.00  0.00    -0.286 N 
ATOM      5  H4  UNL     1     -47.153 -16.943  14.796  1.00  0.00     0.188 HD
HETATM    6  N5  UNL     1     -46.315 -16.416  12.968  1.00  0.00    -0.284 N 
ATOM      7  H5  UNL     1     -46.284 -17.309  12.477  1.00  0.00     0.188 HD
HETATM    8  C10 UNL     1     -45.898 -15.236  12.487  1.00  0.00     0.130 A 
ENDROOT
BRANCH   1   9
HETATM    9  C7  UNL     1     -45.783 -12.810  13.343  1.00  0.00     0.192 C 
BRANCH   9  10
HETATM   10  N2  UNL     1     -44.367 -12.511  13.458  1.00  0.00    -0.281 N 
HETATM   11  C6  UNL     1     -43.769 -11.474  14.069  1.00  0.00     0.134 A 
HETATM   12  C5  UNL     1     -42.399 -11.579  13.942  1.00  0.00     0.040 A 
HETATM   13  N10 UNL     1     -42.215 -12.707  13.238  1.00  0.00    -0.287 N 
HETATM   14  N9  UNL     1     -43.389 -13.249  12.959  1.00  0.00    -0.020 NA
ATOM     15  H10 UNL     1     -41.310 -13.088  12.962  1.00  0.00     0.184 HD
BRANCH  12  16
HETATM   16  C4  UNL     1     -41.326 -10.700  14.437  1.00  0.00     0.059 C 
BRANCH  16  17
HETATM   17  C3  UNL     1     -40.264 -10.533  13.382  1.00  0.00     0.008 C 
BRANCH  17  18
HETATM   18  C2  UNL     1     -38.914 -10.184  13.940  1.00  0.00     0.027 C 
BRANCH  18  19
HETATM   19  C1  UNL     1     -38.989  -9.554  15.310  1.00  0.00     0.229 C 
BRANCH  19  20
HETATM   20  N1  UNL     1     -38.281 -10.459  16.227  1.00  0.00    -0.079 N 
ATOM     21  H13 UNL     1     -38.783 -10.624  17.099  1.00  0.00     0.274 HD
ATOM     22  H12 UNL     1     -38.262 -11.426  15.905  1.00  0.00     0.274 HD
ATOM     23  H11 UNL     1     -37.352 -10.062  16.367  1.00  0.00     0.274 HD
ENDBRANCH  19  20
ENDBRANCH  18  19
ENDBRANCH  17  18
ENDBRANCH  16  17
ENDBRANCH  12  16
ENDBRANCH   9  10
ENDBRANCH   1   9
BRANCH   8  24
HETATM   24  N6  UNL     1     -45.393 -15.010  11.343  1.00  0.00    -0.326 N 
HETATM   25  C11 UNL     1     -44.440 -15.839  10.672  1.00  0.00     0.481 C 
HETATM   26  N7  UNL     1     -44.842 -17.167  10.444  1.00  0.00    -0.033 N 
HETATM   27  N8  UNL     1     -44.147 -15.215   9.377  1.00  0.00    -0.033 N 
ATOM     28  H73 UNL     1     -45.124 -17.602  11.322  1.00  0.00     0.278 HD
ATOM     29  H72 UNL     1     -45.730 -17.181   9.941  1.00  0.00     0.278 HD
ATOM     30  H71 UNL     1     -44.162 -17.759   9.965  1.00  0.00     0.278 HD
ATOM     31  H83 UNL     1     -44.985 -15.042   8.820  1.00  0.00     0.278 HD
ATOM     32  H82 UNL     1     -43.841 -14.246   9.462  1.00  0.00     0.278 HD
ATOM     33  H81 UNL     1     -43.467 -15.806   8.898  1.00  0.00     0.278 HD
ATOM     34  H6  UNL     1     -45.695 -14.163  10.861  1.00  0.00     0.165 HD
ENDBRANCH   8  24
TORSDOF 8
ENDMDL
