MODEL 1
REMARK VINA RESULT: -7.917782811      0.000      0.000
REMARK  4 active torsions:
REMARK  status: ('A' for Active; 'I' for Inactive)
REMARK    1  A    between atoms: N1_1  and  C1_4 
REMARK    2  A    between atoms: C1_4  and  C2_5 
REMARK    3  A    between atoms: C2_5  and  N2_6 
REMARK    4  A    between atoms: C5_22  and  N9_23 
ROOT
HETATM    1  C1  UNL     1     -36.175 -18.456  -3.252  1.00  0.00     0.057 C 
HETATM    2  C4  UNL     1     -37.229 -19.434  -3.280  1.00  0.00     0.141 A 
HETATM    3  N7  UNL     1     -36.936 -20.780  -3.364  1.00  0.00    -0.280 N 
ATOM      4  H7  UNL     1     -35.956 -21.060  -3.405  1.00  0.00     0.188 HD
HETATM    5  N8  UNL     1     -37.848 -21.715  -3.395  1.00  0.00    -0.132 N 
ATOM      6  H8  UNL     1     -37.565 -22.692  -3.458  1.00  0.00     0.205 HD
HETATM    7  C5  UNL     1     -39.151 -21.407  -3.346  1.00  0.00     0.693 A 
HETATM    8  N10 UNL     1     -39.521 -20.139  -3.265  1.00  0.00    -0.153 N 
ATOM      9  H10 UNL     1     -40.510 -19.893  -3.227  1.00  0.00     0.187 HD
HETATM   10  C6  UNL     1     -38.573 -19.168  -3.233  1.00  0.00     0.289 A 
HETATM   11  O1  UNL     1     -38.965 -17.990  -3.157  1.00  0.00    -0.265 OA
ENDROOT
BRANCH   1  12
HETATM   12  N1  UNL     1     -36.320 -17.222  -3.178  1.00  0.00    -0.399 N 
ATOM     13  H12 UNL     1     -35.574 -16.527  -3.192  1.00  0.00     0.156 HD
ATOM     14  H11 UNL     1     -37.273 -16.866  -3.096  1.00  0.00     0.156 HD
ENDBRANCH   1  12
BRANCH   1  15
HETATM   15  C2  UNL     1     -34.775 -18.981  -3.315  1.00  0.00     0.228 C 
BRANCH  15  16
HETATM   16  N2  UNL     1     -34.420 -19.428  -4.643  1.00  0.00    -0.102 N 
HETATM   17  N3  UNL     1     -34.653 -18.722  -5.730  1.00  0.00    -0.211 N 
HETATM   18  N4  UNL     1     -34.206 -19.420  -6.761  1.00  0.00    -0.213 N 
ATOM     19  H3  UNL     1     -35.097 -17.804  -5.770  1.00  0.00     0.210 HD
HETATM   20  N5  UNL     1     -33.700 -20.548  -6.353  1.00  0.00    -0.115 N 
ATOM     21  H4  UNL     1     -34.252 -19.119  -7.734  1.00  0.00     0.210 HD
HETATM   22  C3  UNL     1     -33.825 -20.571  -5.019  1.00  0.00     0.710 A 
ATOM     23  H5  UNL     1     -33.287 -21.275  -6.937  1.00  0.00     0.207 HD
HETATM   24  N6  UNL     1     -33.457 -21.499  -4.196  1.00  0.00    -0.232 N 
ATOM     25  H62 UNL     1     -33.553 -21.517  -3.180  1.00  0.00     0.174 HD
ATOM     26  H61 UNL     1     -33.006 -22.368  -4.482  1.00  0.00     0.174 HD
ENDBRANCH  15  16
ENDBRANCH   1  15
BRANCH   7  27
HETATM   27  N9  UNL     1     -40.023 -22.371  -3.379  1.00  0.00    -0.233 N 
ATOM     28  H92 UNL     1     -40.968 -22.227  -3.736  1.00  0.00     0.174 HD
ATOM     29  H91 UNL     1     -39.749 -23.293  -3.039  1.00  0.00     0.174 HD
ENDBRANCH   7  27
TORSDOF 4
ENDMDL
MODEL 2
REMARK VINA RESULT: -7.899856832      2.074      3.135
REMARK  4 active torsions:
REMARK  status: ('A' for Active; 'I' for Inactive)
REMARK    1  A    between atoms: N1_1  and  C1_4 
REMARK    2  A    between atoms: C1_4  and  C2_5 
REMARK    3  A    between atoms: C2_5  and  N2_6 
REMARK    4  A    between atoms: C5_22  and  N9_23 
ROOT
HETATM    1  C1  UNL     1     -37.488 -21.336  -4.230  1.00  0.00     0.057 C 
HETATM    2  C4  UNL     1     -38.757 -21.050  -3.616  1.00  0.00     0.141 A 
HETATM    3  N7  UNL     1     -39.118 -19.751  -3.323  1.00  0.00    -0.280 N 
ATOM      4  H7  UNL     1     -38.464 -19.003  -3.554  1.00  0.00     0.188 HD
HETATM    5  N8  UNL     1     -40.254 -19.428  -2.765  1.00  0.00    -0.132 N 
ATOM      6  H8  UNL     1     -40.461 -18.448  -2.575  1.00  0.00     0.205 HD
HETATM    7  C5  UNL     1     -41.153 -20.367  -2.439  1.00  0.00     0.693 A 
HETATM    8  N10 UNL     1     -40.886 -21.640  -2.685  1.00  0.00    -0.153 N 
ATOM      9  H10 UNL     1     -41.562 -22.363  -2.441  1.00  0.00     0.187 HD
HETATM   10  C6  UNL     1     -39.705 -21.975  -3.265  1.00  0.00     0.289 A 
HETATM   11  O1  UNL     1     -39.496 -23.183  -3.478  1.00  0.00    -0.265 OA
ENDROOT
BRANCH   1  12
HETATM   12  N1  UNL     1     -37.059 -22.463  -4.538  1.00  0.00    -0.399 N 
ATOM     13  H12 UNL     1     -36.425 -22.675  -5.309  1.00  0.00     0.156 HD
ATOM     14  H11 UNL     1     -37.364 -23.252  -3.969  1.00  0.00     0.156 HD
ENDBRANCH   1  12
BRANCH   1  15
HETATM   15  C2  UNL     1     -36.609 -20.161  -4.525  1.00  0.00     0.228 C 
BRANCH  15  16
HETATM   16  N2  UNL     1     -35.216 -20.532  -4.620  1.00  0.00    -0.102 N 
HETATM   17  N3  UNL     1     -34.639 -21.391  -3.804  1.00  0.00    -0.211 N 
HETATM   18  N4  UNL     1     -33.372 -21.497  -4.169  1.00  0.00    -0.213 N 
ATOM     19  H3  UNL     1     -35.087 -21.885  -3.032  1.00  0.00     0.210 HD
HETATM   20  N5  UNL     1     -33.134 -20.727  -5.192  1.00  0.00    -0.115 N 
ATOM     21  H4  UNL     1     -32.682 -22.096  -3.716  1.00  0.00     0.210 HD
HETATM   22  C3  UNL     1     -34.286 -20.110  -5.490  1.00  0.00     0.710 A 
ATOM     23  H5  UNL     1     -32.242 -20.615  -5.673  1.00  0.00     0.207 HD
HETATM   24  N6  UNL     1     -34.515 -19.255  -6.435  1.00  0.00    -0.232 N 
ATOM     25  H62 UNL     1     -35.392 -18.785  -6.662  1.00  0.00     0.174 HD
ATOM     26  H61 UNL     1     -33.808 -18.934  -7.096  1.00  0.00     0.174 HD
ENDBRANCH  15  16
ENDBRANCH   1  15
BRANCH   7  27
HETATM   27  N9  UNL     1     -42.270 -19.999  -1.886  1.00  0.00    -0.233 N 
ATOM     28  H92 UNL     1     -42.835 -19.242  -2.272  1.00  0.00     0.174 HD
ATOM     29  H91 UNL     1     -42.585 -20.482  -1.045  1.00  0.00     0.174 HD
ENDBRANCH   7  27
TORSDOF 4
ENDMDL
MODEL 3
REMARK VINA RESULT: -7.328136164      1.998      3.169
REMARK  4 active torsions:
REMARK  status: ('A' for Active; 'I' for Inactive)
REMARK    1  A    between atoms: N1_1  and  C1_4 
REMARK    2  A    between atoms: C1_4  and  C2_5 
REMARK    3  A    between atoms: C2_5  and  N2_6 
REMARK    4  A    between atoms: C5_22  and  N9_23 
ROOT
HETATM    1  C1  UNL     1     -37.623 -20.716  -4.124  1.00  0.00     0.057 C 
HETATM    2  C4  UNL     1     -38.921 -20.895  -3.531  1.00  0.00     0.141 A 
HETATM    3  N7  UNL     1     -39.678 -19.804  -3.157  1.00  0.00    -0.280 N 
ATOM      4  H7  UNL     1     -39.294 -18.872  -3.312  1.00  0.00     0.188 HD
HETATM    5  N8  UNL     1     -40.862 -19.902  -2.613  1.00  0.00    -0.132 N 
ATOM      6  H8  UNL     1     -41.371 -19.056  -2.359  1.00  0.00     0.205 HD
HETATM    7  C5  UNL     1     -41.418 -21.100  -2.384  1.00  0.00     0.693 A 
HETATM    8  N10 UNL     1     -40.758 -22.199  -2.712  1.00  0.00    -0.153 N 
ATOM      9  H10 UNL     1     -41.171 -23.116  -2.542  1.00  0.00     0.187 HD
HETATM   10  C6  UNL     1     -39.528 -22.097  -3.277  1.00  0.00     0.289 A 
HETATM   11  O1  UNL     1     -38.945 -23.156  -3.570  1.00  0.00    -0.265 OA
ENDROOT
BRANCH   1  12
HETATM   12  N1  UNL     1     -36.855 -21.621  -4.499  1.00  0.00    -0.399 N 
ATOM     13  H12 UNL     1     -36.406 -21.690  -5.413  1.00  0.00     0.156 HD
ATOM     14  H11 UNL     1     -36.651 -22.368  -3.834  1.00  0.00     0.156 HD
ENDBRANCH   1  12
BRANCH   1  15
HETATM   15  C2  UNL     1     -37.161 -19.304  -4.306  1.00  0.00     0.228 C 
BRANCH  15  16
HETATM   16  N2  UNL     1     -35.767 -19.138  -3.964  1.00  0.00    -0.102 N 
HETATM   17  N3  UNL     1     -35.343 -18.945  -2.732  1.00  0.00    -0.211 N 
HETATM   18  N4  UNL     1     -34.026 -18.834  -2.777  1.00  0.00    -0.213 N 
ATOM     19  H3  UNL     1     -35.924 -18.892  -1.895  1.00  0.00     0.210 HD
HETATM   20  N5  UNL     1     -33.608 -18.949  -4.005  1.00  0.00    -0.115 N 
ATOM     21  H4  UNL     1     -33.424 -18.680  -1.968  1.00  0.00     0.210 HD
HETATM   22  C3  UNL     1     -34.693 -19.141  -4.768  1.00  0.00     0.710 A 
ATOM     23  H5  UNL     1     -32.641 -18.901  -4.325  1.00  0.00     0.207 HD
HETATM   24  N6  UNL     1     -34.751 -19.306  -6.051  1.00  0.00    -0.232 N 
ATOM     25  H62 UNL     1     -35.577 -19.453  -6.632  1.00  0.00     0.174 HD
ATOM     26  H61 UNL     1     -33.934 -19.308  -6.662  1.00  0.00     0.174 HD
ENDBRANCH  15  16
ENDBRANCH   1  15
BRANCH   7  27
HETATM   27  N9  UNL     1     -42.598 -21.148  -1.840  1.00  0.00    -0.233 N 
ATOM     28  H92 UNL     1     -42.734 -20.993  -0.842  1.00  0.00     0.174 HD
ATOM     29  H91 UNL     1     -43.404 -21.346  -2.434  1.00  0.00     0.174 HD
ENDBRANCH   7  27
TORSDOF 4
ENDMDL
MODEL 4
REMARK VINA RESULT: -7.313671888      2.260      3.315
REMARK  4 active torsions:
REMARK  status: ('A' for Active; 'I' for Inactive)
REMARK    1  A    between atoms: N1_1  and  C1_4 
REMARK    2  A    between atoms: C1_4  and  C2_5 
REMARK    3  A    between atoms: C2_5  and  N2_6 
REMARK    4  A    between atoms: C5_22  and  N9_23 
ROOT
HETATM    1  C1  UNL     1     -37.930 -21.585  -4.323  1.00  0.00     0.057 C 
HETATM    2  C4  UNL     1     -39.094 -21.175  -3.585  1.00  0.00     0.141 A 
HETATM    3  N7  UNL     1     -39.324 -19.839  -3.323  1.00  0.00    -0.280 N 
ATOM      4  H7  UNL     1     -38.650 -19.156  -3.666  1.00  0.00     0.188 HD
HETATM    5  N8  UNL     1     -40.362 -19.405  -2.657  1.00  0.00    -0.132 N 
ATOM      6  H8  UNL     1     -40.474 -18.405  -2.498  1.00  0.00     0.205 HD
HETATM    7  C5  UNL     1     -41.280 -20.256  -2.181  1.00  0.00     0.693 A 
HETATM    8  N10 UNL     1     -41.135 -21.556  -2.387  1.00  0.00    -0.153 N 
ATOM      9  H10 UNL     1     -41.828 -22.213  -2.029  1.00  0.00     0.187 HD
HETATM   10  C6  UNL     1     -40.058 -22.007  -3.078  1.00  0.00     0.289 A 
HETATM   11  O1  UNL     1     -39.962 -23.236  -3.249  1.00  0.00    -0.265 OA
ENDROOT
BRANCH   1  12
HETATM   12  N1  UNL     1     -37.621 -22.754  -4.617  1.00  0.00    -0.399 N 
ATOM     13  H12 UNL     1     -36.674 -23.128  -4.683  1.00  0.00     0.156 HD
ATOM     14  H11 UNL     1     -38.382 -23.406  -4.809  1.00  0.00     0.156 HD
ENDBRANCH   1  12
BRANCH   1  15
HETATM   15  C2  UNL     1     -37.010 -20.496  -4.779  1.00  0.00     0.228 C 
BRANCH  15  16
HETATM   16  N2  UNL     1     -35.619 -20.859  -4.631  1.00  0.00    -0.102 N 
HETATM   17  N3  UNL     1     -34.951 -21.546  -5.534  1.00  0.00    -0.211 N 
HETATM   18  N4  UNL     1     -33.717 -21.702  -5.084  1.00  0.00    -0.213 N 
ATOM     19  H3  UNL     1     -35.318 -21.896  -6.420  1.00  0.00     0.210 HD
HETATM   20  N5  UNL     1     -33.590 -21.132  -3.920  1.00  0.00    -0.115 N 
ATOM     21  H4  UNL     1     -32.973 -22.196  -5.577  1.00  0.00     0.210 HD
HETATM   22  C3  UNL     1     -34.780 -20.595  -3.618  1.00  0.00     0.710 A 
ATOM     23  H5  UNL     1     -32.746 -21.101  -3.348  1.00  0.00     0.207 HD
HETATM   24  N6  UNL     1     -35.113 -19.931  -2.557  1.00  0.00    -0.232 N 
ATOM     25  H62 UNL     1     -36.019 -19.522  -2.327  1.00  0.00     0.174 HD
ATOM     26  H61 UNL     1     -34.475 -19.731  -1.787  1.00  0.00     0.174 HD
ENDBRANCH  15  16
ENDBRANCH   1  15
BRANCH   7  27
HETATM   27  N9  UNL     1     -42.296 -19.778  -1.525  1.00  0.00    -0.233 N 
ATOM     28  H92 UNL     1     -42.172 -19.166  -0.719  1.00  0.00     0.174 HD
ATOM     29  H91 UNL     1     -43.238 -20.025  -1.830  1.00  0.00     0.174 HD
ENDBRANCH   7  27
TORSDOF 4
ENDMDL
MODEL 5
REMARK VINA RESULT: -7.307349025      1.977      2.989
REMARK  4 active torsions:
REMARK  status: ('A' for Active; 'I' for Inactive)
REMARK    1  A    between atoms: N1_1  and  C1_4 
REMARK    2  A    between atoms: C1_4  and  C2_5 
REMARK    3  A    between atoms: C2_5  and  N2_6 
REMARK    4  A    between atoms: C5_22  and  N9_23 
ROOT
HETATM    1  C1  UNL     1     -37.486 -20.902  -4.122  1.00  0.00     0.057 C 
HETATM    2  C4  UNL     1     -38.797 -21.204  -3.614  1.00  0.00     0.141 A 
HETATM    3  N7  UNL     1     -39.594 -20.205  -3.092  1.00  0.00    -0.280 N 
ATOM      4  H7  UNL     1     -39.230 -19.253  -3.078  1.00  0.00     0.188 HD
HETATM    5  N8  UNL     1     -40.792 -20.417  -2.615  1.00  0.00    -0.132 N 
ATOM      6  H8  UNL     1     -41.331 -19.634  -2.244  1.00  0.00     0.205 HD
HETATM    7  C5  UNL     1     -41.324 -21.646  -2.607  1.00  0.00     0.693 A 
HETATM    8  N10 UNL     1     -40.626 -22.662  -3.089  1.00  0.00    -0.153 N 
ATOM      9  H10 UNL     1     -41.020 -23.603  -3.088  1.00  0.00     0.187 HD
HETATM   10  C6  UNL     1     -39.381 -22.443  -3.584  1.00  0.00     0.289 A 
HETATM   11  O1  UNL     1     -38.761 -23.427  -4.027  1.00  0.00    -0.265 OA
ENDROOT
BRANCH   1  12
HETATM   12  N1  UNL     1     -36.683 -21.717  -4.613  1.00  0.00    -0.399 N 
ATOM     13  H12 UNL     1     -35.991 -21.518  -5.335  1.00  0.00     0.156 HD
ATOM     14  H11 UNL     1     -36.715 -22.674  -4.263  1.00  0.00     0.156 HD
ENDBRANCH   1  12
BRANCH   1  15
HETATM   15  C2  UNL     1     -37.055 -19.470  -4.051  1.00  0.00     0.228 C 
BRANCH  15  16
HETATM   16  N2  UNL     1     -35.646 -19.310  -4.326  1.00  0.00    -0.102 N 
HETATM   17  N3  UNL     1     -35.141 -19.311  -5.543  1.00  0.00    -0.211 N 
HETATM   18  N4  UNL     1     -33.834 -19.145  -5.432  1.00  0.00    -0.213 N 
ATOM     19  H3  UNL     1     -35.663 -19.420  -6.412  1.00  0.00     0.210 HD
HETATM   20  N5  UNL     1     -33.500 -19.041  -4.177  1.00  0.00    -0.115 N 
ATOM     21  H4  UNL     1     -33.181 -19.104  -6.214  1.00  0.00     0.210 HD
HETATM   22  C3  UNL     1     -34.630 -19.143  -3.464  1.00  0.00     0.710 A 
ATOM     23  H5  UNL     1     -32.559 -18.908  -3.808  1.00  0.00     0.207 HD
HETATM   24  N6  UNL     1     -34.774 -19.095  -2.179  1.00  0.00    -0.232 N 
ATOM     25  H62 UNL     1     -35.634 -19.172  -1.636  1.00  0.00     0.174 HD
ATOM     26  H61 UNL     1     -34.002 -18.968  -1.524  1.00  0.00     0.174 HD
ENDBRANCH  15  16
ENDBRANCH   1  15
BRANCH   7  27
HETATM   27  N9  UNL     1     -42.519 -21.808  -2.123  1.00  0.00    -0.233 N 
ATOM     28  H92 UNL     1     -42.816 -21.346  -1.263  1.00  0.00     0.174 HD
ATOM     29  H91 UNL     1     -43.173 -22.413  -2.620  1.00  0.00     0.174 HD
ENDBRANCH   7  27
TORSDOF 4
ENDMDL
