MODEL 1
REMARK VINA RESULT: -6.334478434      0.000      0.000
REMARK  8 active torsions:
REMARK  status: ('A' for Active; 'I' for Inactive)
REMARK    1  A    between atoms: N1_2  and  N2_3 
REMARK       I    between atoms: N1_2  and  C2_7 
REMARK    2  A    between atoms: N2_3  and  O1_5 
REMARK    3  A    between atoms: C2_7  and  C3_9 
REMARK    4  A    between atoms: C3_9  and  N3_10 
REMARK    5  A    between atoms: C4_11  and  N4_12 
REMARK    6  A    between atoms: C5_17  and  N6_18 
REMARK    7  A    between atoms: C6_23  and  N8_24 
REMARK    8  A    between atoms: N8_24  and  N9_26 
ROOT
HETATM    1  N3  UNL     1     -41.901 -21.816  -3.027  1.00  0.00    -0.003 N 
HETATM    2  C4  UNL     1     -42.587 -22.632  -3.830  1.00  0.00     0.707 A 
HETATM    3  N5  UNL     1     -43.766 -22.200  -4.323  1.00  0.00    -0.022 N 
ATOM      4  H5  UNL     1     -44.303 -22.809  -4.939  1.00  0.00     0.203 HD
HETATM    5  C5  UNL     1     -44.245 -20.985  -4.021  1.00  0.00     0.705 A 
HETATM    6  N7  UNL     1     -43.545 -20.163  -3.206  1.00  0.00    -0.020 N 
ATOM      7  H7  UNL     1     -43.901 -19.237  -2.970  1.00  0.00     0.203 HD
HETATM    8  C6  UNL     1     -42.369 -20.593  -2.714  1.00  0.00     0.728 A 
ENDROOT
BRANCH   1   9
HETATM    9  C3  UNL     1     -40.629 -22.195  -2.465  1.00  0.00     0.271 C 
BRANCH   9  10
HETATM   10  C2  UNL     1     -39.569 -22.360  -3.451  1.00  0.00     0.258 C 
HETATM   11  N1  UNL     1     -38.768 -21.258  -3.818  1.00  0.00    -0.245 N 
HETATM   12  C1  UNL     1     -37.691 -21.392  -4.809  1.00  0.00     0.183 C 
HETATM   13  O2  UNL     1     -39.363 -23.473  -3.972  1.00  0.00    -0.270 OA
BRANCH  11  14
HETATM   14  N2  UNL     1     -38.980 -19.984  -3.240  1.00  0.00    -0.206 N 
ATOM     15  H2  UNL     1     -38.739 -19.856  -2.258  1.00  0.00     0.216 HD
BRANCH  14  16
HETATM   16  O1  UNL     1     -39.435 -19.026  -3.853  1.00  0.00    -0.274 OA
ATOM     17  H1  UNL     1     -40.006 -18.374  -3.465  1.00  0.00     0.246 HD
ENDBRANCH  14  16
ENDBRANCH  11  14
ENDBRANCH   9  10
ENDBRANCH   1   9
BRANCH   2  18
HETATM   18  N4  UNL     1     -42.158 -23.833  -4.143  1.00  0.00    -0.233 N 
ATOM     19  H42 UNL     1     -41.345 -24.218  -3.659  1.00  0.00     0.174 HD
ATOM     20  H41 UNL     1     -42.604 -24.402  -4.863  1.00  0.00     0.174 HD
ENDBRANCH   2  18
BRANCH   8  21
HETATM   21  N8  UNL     1     -41.659 -19.830  -1.922  1.00  0.00    -0.137 N 
ATOM     22  H8  UNL     1     -40.667 -19.663  -2.092  1.00  0.00     0.205 HD
BRANCH  21  23
HETATM   23  N9  UNL     1     -42.316 -19.262  -0.845  1.00  0.00    -0.331 N 
ATOM     24  H92 UNL     1     -42.369 -18.248  -0.744  1.00  0.00     0.177 HD
ATOM     25  H91 UNL     1     -42.736 -19.902  -0.171  1.00  0.00     0.177 HD
ENDBRANCH  21  23
ENDBRANCH   8  21
BRANCH   5  26
HETATM   26  N6  UNL     1     -45.368 -20.537  -4.472  1.00  0.00    -0.234 N 
ATOM     27  H62 UNL     1     -46.154 -21.187  -4.474  1.00  0.00     0.174 HD
ATOM     28  H61 UNL     1     -45.492 -19.584  -4.816  1.00  0.00     0.174 HD
ENDBRANCH   5  26
TORSDOF 8
ENDMDL
MODEL 2
REMARK VINA RESULT: -6.222015068      3.193      5.369
REMARK  8 active torsions:
REMARK  status: ('A' for Active; 'I' for Inactive)
REMARK    1  A    between atoms: N1_2  and  N2_3 
REMARK       I    between atoms: N1_2  and  C2_7 
REMARK    2  A    between atoms: N2_3  and  O1_5 
REMARK    3  A    between atoms: C2_7  and  C3_9 
REMARK    4  A    between atoms: C3_9  and  N3_10 
REMARK    5  A    between atoms: C4_11  and  N4_12 
REMARK    6  A    between atoms: C5_17  and  N6_18 
REMARK    7  A    between atoms: C6_23  and  N8_24 
REMARK    8  A    between atoms: N8_24  and  N9_26 
ROOT
HETATM    1  N3  UNL     1     -37.828 -20.930  -4.238  1.00  0.00    -0.003 N 
HETATM    2  C4  UNL     1     -38.720 -20.133  -3.646  1.00  0.00     0.707 A 
HETATM    3  N5  UNL     1     -39.796 -20.703  -3.063  1.00  0.00    -0.022 N 
ATOM      4  H5  UNL     1     -40.488 -20.110  -2.605  1.00  0.00     0.203 HD
HETATM    5  C5  UNL     1     -39.974 -22.031  -3.074  1.00  0.00     0.705 A 
HETATM    6  N7  UNL     1     -39.066 -22.832  -3.677  1.00  0.00    -0.020 N 
ATOM      7  H7  UNL     1     -39.193 -23.844  -3.691  1.00  0.00     0.203 HD
HETATM    8  C6  UNL     1     -37.993 -22.266  -4.257  1.00  0.00     0.728 A 
ENDROOT
BRANCH   1   9
HETATM    9  C3  UNL     1     -36.646 -20.406  -4.875  1.00  0.00     0.271 C 
BRANCH   9  10
HETATM   10  C2  UNL     1     -35.620 -19.954  -3.944  1.00  0.00     0.258 C 
HETATM   11  N1  UNL     1     -34.569 -19.129  -4.397  1.00  0.00    -0.245 N 
HETATM   12  C1  UNL     1     -33.519 -18.658  -3.483  1.00  0.00     0.183 C 
HETATM   13  O2  UNL     1     -35.665 -20.293  -2.746  1.00  0.00    -0.270 OA
BRANCH  11  14
HETATM   14  N2  UNL     1     -34.494 -18.729  -5.752  1.00  0.00    -0.206 N 
ATOM     15  H2  UNL     1     -34.847 -17.806  -6.001  1.00  0.00     0.216 HD
BRANCH  14  16
HETATM   16  O1  UNL     1     -34.028 -19.429  -6.643  1.00  0.00    -0.274 OA
ATOM     17  H1  UNL     1     -33.513 -19.090  -7.366  1.00  0.00     0.246 HD
ENDBRANCH  14  16
ENDBRANCH  11  14
ENDBRANCH   9  10
ENDBRANCH   1   9
BRANCH   2  18
HETATM   18  N4  UNL     1     -38.588 -18.827  -3.621  1.00  0.00    -0.233 N 
ATOM     19  H42 UNL     1     -38.355 -18.363  -2.743  1.00  0.00     0.174 HD
ATOM     20  H41 UNL     1     -38.719 -18.250  -4.452  1.00  0.00     0.174 HD
ENDBRANCH   2  18
BRANCH   8  21
HETATM   21  N8  UNL     1     -37.090 -23.004  -4.851  1.00  0.00    -0.137 N 
ATOM     22  H8  UNL     1     -36.250 -22.593  -5.259  1.00  0.00     0.205 HD
BRANCH  21  23
HETATM   23  N9  UNL     1     -37.327 -24.367  -4.900  1.00  0.00    -0.331 N 
ATOM     24  H92 UNL     1     -36.555 -25.031  -4.848  1.00  0.00     0.177 HD
ATOM     25  H91 UNL     1     -38.299 -24.663  -4.989  1.00  0.00     0.177 HD
ENDBRANCH  21  23
ENDBRANCH   8  21
BRANCH   5  26
HETATM   26  N6  UNL     1     -40.990 -22.612  -2.529  1.00  0.00    -0.234 N 
ATOM     27  H62 UNL     1     -40.846 -23.014  -1.603  1.00  0.00     0.174 HD
ATOM     28  H61 UNL     1     -41.903 -22.680  -2.980  1.00  0.00     0.174 HD
ENDBRANCH   5  26
TORSDOF 8
ENDMDL
MODEL 3
REMARK VINA RESULT: -6.124300646      3.030      4.615
REMARK  8 active torsions:
REMARK  status: ('A' for Active; 'I' for Inactive)
REMARK    1  A    between atoms: N1_2  and  N2_3 
REMARK       I    between atoms: N1_2  and  C2_7 
REMARK    2  A    between atoms: N2_3  and  O1_5 
REMARK    3  A    between atoms: C2_7  and  C3_9 
REMARK    4  A    between atoms: C3_9  and  N3_10 
REMARK    5  A    between atoms: C4_11  and  N4_12 
REMARK    6  A    between atoms: C5_17  and  N6_18 
REMARK    7  A    between atoms: C6_23  and  N8_24 
REMARK    8  A    between atoms: N8_24  and  N9_26 
ROOT
HETATM    1  N3  UNL     1     -37.748 -21.383  -4.272  1.00  0.00    -0.003 N 
HETATM    2  C4  UNL     1     -38.139 -22.659  -4.246  1.00  0.00     0.707 A 
HETATM    3  N5  UNL     1     -39.324 -22.951  -3.669  1.00  0.00    -0.022 N 
ATOM      4  H5  UNL     1     -39.640 -23.920  -3.640  1.00  0.00     0.203 HD
HETATM    5  C5  UNL     1     -40.094 -21.994  -3.134  1.00  0.00     0.705 A 
HETATM    6  N7  UNL     1     -39.691 -20.703  -3.164  1.00  0.00    -0.020 N 
ATOM      7  H7  UNL     1     -40.270 -19.967  -2.759  1.00  0.00     0.203 HD
HETATM    8  C6  UNL     1     -38.511 -20.410  -3.739  1.00  0.00     0.728 A 
ENDROOT
BRANCH   1   9
HETATM    9  C3  UNL     1     -36.502 -20.983  -4.876  1.00  0.00     0.271 C 
BRANCH   9  10
HETATM   10  C2  UNL     1     -35.528 -20.450  -3.933  1.00  0.00     0.258 C 
HETATM   11  N1  UNL     1     -34.737 -19.336  -4.287  1.00  0.00    -0.245 N 
HETATM   12  C1  UNL     1     -33.746 -18.776  -3.358  1.00  0.00     0.183 C 
HETATM   13  O2  UNL     1     -35.389 -20.972  -2.810  1.00  0.00    -0.270 OA
BRANCH  11  14
HETATM   14  N2  UNL     1     -34.875 -18.723  -5.555  1.00  0.00    -0.206 N 
ATOM     15  H2  UNL     1     -35.536 -17.952  -5.647  1.00  0.00     0.216 HD
BRANCH  14  16
HETATM   16  O1  UNL     1     -34.246 -19.066  -6.549  1.00  0.00    -0.274 OA
ATOM     17  H1  UNL     1     -34.374 -19.895  -6.994  1.00  0.00     0.246 HD
ENDBRANCH  14  16
ENDBRANCH  11  14
ENDBRANCH   9  10
ENDBRANCH   1   9
BRANCH   2  18
HETATM   18  N4  UNL     1     -37.410 -23.628  -4.750  1.00  0.00    -0.233 N 
ATOM     19  H42 UNL     1     -37.149 -23.598  -5.736  1.00  0.00     0.174 HD
ATOM     20  H41 UNL     1     -37.097 -24.422  -4.192  1.00  0.00     0.174 HD
ENDBRANCH   2  18
BRANCH   8  21
HETATM   21  N8  UNL     1     -38.083 -19.174  -3.790  1.00  0.00    -0.137 N 
ATOM     22  H8  UNL     1     -37.299 -18.906  -4.385  1.00  0.00     0.205 HD
BRANCH  21  23
HETATM   23  N9  UNL     1     -38.742 -18.250  -2.999  1.00  0.00    -0.331 N 
ATOM     24  H92 UNL     1     -39.032 -17.350  -3.383  1.00  0.00     0.177 HD
ATOM     25  H91 UNL     1     -38.918 -18.513  -2.029  1.00  0.00     0.177 HD
ENDBRANCH  21  23
ENDBRANCH   8  21
BRANCH   5  26
HETATM   26  N6  UNL     1     -41.232 -22.234  -2.573  1.00  0.00    -0.234 N 
ATOM     27  H62 UNL     1     -41.687 -23.113  -2.819  1.00  0.00     0.174 HD
ATOM     28  H61 UNL     1     -41.676 -21.594  -1.915  1.00  0.00     0.174 HD
ENDBRANCH   5  26
TORSDOF 8
ENDMDL
MODEL 4
REMARK VINA RESULT: -6.054593543      2.377      6.001
REMARK  8 active torsions:
REMARK  status: ('A' for Active; 'I' for Inactive)
REMARK    1  A    between atoms: N1_2  and  N2_3 
REMARK       I    between atoms: N1_2  and  C2_7 
REMARK    2  A    between atoms: N2_3  and  O1_5 
REMARK    3  A    between atoms: C2_7  and  C3_9 
REMARK    4  A    between atoms: C3_9  and  N3_10 
REMARK    5  A    between atoms: C4_11  and  N4_12 
REMARK    6  A    between atoms: C5_17  and  N6_18 
REMARK    7  A    between atoms: C6_23  and  N8_24 
REMARK    8  A    between atoms: N8_24  and  N9_26 
ROOT
HETATM    1  N3  UNL     1     -38.070 -21.080  -4.163  1.00  0.00    -0.003 N 
HETATM    2  C4  UNL     1     -37.505 -19.949  -3.734  1.00  0.00     0.707 A 
HETATM    3  N5  UNL     1     -36.161 -19.908  -3.625  1.00  0.00    -0.022 N 
ATOM      4  H5  UNL     1     -35.712 -19.052  -3.300  1.00  0.00     0.203 HD
HETATM    5  C5  UNL     1     -35.403 -20.969  -3.934  1.00  0.00     0.705 A 
HETATM    6  N7  UNL     1     -35.982 -22.113  -4.367  1.00  0.00    -0.020 N 
ATOM      7  H7  UNL     1     -35.414 -22.926  -4.606  1.00  0.00     0.203 HD
HETATM    8  C6  UNL     1     -37.321 -22.154  -4.478  1.00  0.00     0.728 A 
ENDROOT
BRANCH   1   9
HETATM    9  C3  UNL     1     -39.497 -21.206  -4.317  1.00  0.00     0.271 C 
BRANCH   9  10
HETATM   10  C2  UNL     1     -40.160 -21.866  -3.200  1.00  0.00     0.258 C 
HETATM   11  N1  UNL     1     -41.015 -21.133  -2.352  1.00  0.00    -0.245 N 
HETATM   12  C1  UNL     1     -41.699 -21.770  -1.217  1.00  0.00     0.183 C 
HETATM   13  O2  UNL     1     -39.977 -23.081  -2.990  1.00  0.00    -0.270 OA
BRANCH  11  14
HETATM   14  N2  UNL     1     -41.241 -19.752  -2.569  1.00  0.00    -0.206 N 
ATOM     15  H2  UNL     1     -41.847 -19.480  -3.342  1.00  0.00     0.216 HD
BRANCH  14  16
HETATM   16  O1  UNL     1     -40.750 -18.866  -1.881  1.00  0.00    -0.274 OA
ATOM     17  H1  UNL     1     -40.988 -18.709  -0.974  1.00  0.00     0.246 HD
ENDBRANCH  14  16
ENDBRANCH  11  14
ENDBRANCH   9  10
ENDBRANCH   1   9
BRANCH   2  18
HETATM   18  N4  UNL     1     -38.211 -18.890  -3.411  1.00  0.00    -0.233 N 
ATOM     19  H42 UNL     1     -39.116 -18.735  -3.857  1.00  0.00     0.174 HD
ATOM     20  H41 UNL     1     -37.886 -18.204  -2.730  1.00  0.00     0.174 HD
ENDBRANCH   2  18
BRANCH   8  21
HETATM   21  N8  UNL     1     -37.923 -23.240  -4.893  1.00  0.00    -0.137 N 
ATOM     22  H8  UNL     1     -38.912 -23.240  -5.142  1.00  0.00     0.205 HD
BRANCH  21  23
HETATM   23  N9  UNL     1     -37.154 -24.388  -4.979  1.00  0.00    -0.331 N 
ATOM     24  H92 UNL     1     -36.137 -24.340  -4.906  1.00  0.00     0.177 HD
ATOM     25  H91 UNL     1     -37.652 -25.268  -5.116  1.00  0.00     0.177 HD
ENDBRANCH  21  23
ENDBRANCH   8  21
BRANCH   5  26
HETATM   26  N6  UNL     1     -34.116 -20.969  -3.841  1.00  0.00    -0.234 N 
ATOM     27  H62 UNL     1     -33.721 -21.252  -2.944  1.00  0.00     0.174 HD
ATOM     28  H61 UNL     1     -33.500 -20.704  -4.610  1.00  0.00     0.174 HD
ENDBRANCH   5  26
TORSDOF 8
ENDMDL
MODEL 5
REMARK VINA RESULT: -6.025887019      3.030      4.985
REMARK  8 active torsions:
REMARK  status: ('A' for Active; 'I' for Inactive)
REMARK    1  A    between atoms: N1_2  and  N2_3 
REMARK       I    between atoms: N1_2  and  C2_7 
REMARK    2  A    between atoms: N2_3  and  O1_5 
REMARK    3  A    between atoms: C2_7  and  C3_9 
REMARK    4  A    between atoms: C3_9  and  N3_10 
REMARK    5  A    between atoms: C4_11  and  N4_12 
REMARK    6  A    between atoms: C5_17  and  N6_18 
REMARK    7  A    between atoms: C6_23  and  N8_24 
REMARK    8  A    between atoms: N8_24  and  N9_26 
ROOT
HETATM    1  N3  UNL     1     -38.163 -20.482  -3.940  1.00  0.00    -0.003 N 
HETATM    2  C4  UNL     1     -38.654 -19.330  -3.477  1.00  0.00     0.707 A 
HETATM    3  N5  UNL     1     -39.830 -19.358  -2.815  1.00  0.00    -0.022 N 
ATOM      4  H5  UNL     1     -40.220 -18.488  -2.453  1.00  0.00     0.203 HD
HETATM    5  C5  UNL     1     -40.494 -20.505  -2.622  1.00  0.00     0.705 A 
HETATM    6  N7  UNL     1     -39.991 -21.668  -3.094  1.00  0.00    -0.020 N 
ATOM      7  H7  UNL     1     -40.490 -22.547  -2.952  1.00  0.00     0.203 HD
HETATM    8  C6  UNL     1     -38.820 -21.642  -3.754  1.00  0.00     0.728 A 
ENDROOT
BRANCH   1   9
HETATM    9  C3  UNL     1     -36.910 -20.543  -4.650  1.00  0.00     0.271 C 
BRANCH   9  10
HETATM   10  C2  UNL     1     -35.749 -20.211  -3.835  1.00  0.00     0.258 C 
HETATM   11  N1  UNL     1     -34.776 -19.312  -4.321  1.00  0.00    -0.245 N 
HETATM   12  C1  UNL     1     -33.594 -18.958  -3.523  1.00  0.00     0.183 C 
HETATM   13  O2  UNL     1     -35.608 -20.718  -2.705  1.00  0.00    -0.270 OA
BRANCH  11  14
HETATM   14  N2  UNL     1     -34.912 -18.722  -5.601  1.00  0.00    -0.206 N 
ATOM     15  H2  UNL     1     -35.467 -17.870  -5.680  1.00  0.00     0.216 HD
BRANCH  14  16
HETATM   16  O1  UNL     1     -34.400 -19.175  -6.617  1.00  0.00    -0.274 OA
ATOM     17  H1  UNL     1     -33.781 -19.894  -6.620  1.00  0.00     0.246 HD
ENDBRANCH  14  16
ENDBRANCH  11  14
ENDBRANCH   9  10
ENDBRANCH   1   9
BRANCH   2  18
HETATM   18  N4  UNL     1     -38.040 -18.183  -3.654  1.00  0.00    -0.233 N 
ATOM     19  H42 UNL     1     -37.021 -18.163  -3.707  1.00  0.00     0.174 HD
ATOM     20  H41 UNL     1     -38.544 -17.300  -3.733  1.00  0.00     0.174 HD
ENDBRANCH   2  18
BRANCH   8  21
HETATM   21  N8  UNL     1     -38.296 -22.745  -4.227  1.00  0.00    -0.137 N 
ATOM     22  H8  UNL     1     -37.477 -23.174  -3.796  1.00  0.00     0.205 HD
BRANCH  21  23
HETATM   23  N9  UNL     1     -38.906 -23.300  -5.339  1.00  0.00    -0.331 N 
ATOM     24  H92 UNL     1     -38.664 -24.242  -5.648  1.00  0.00     0.177 HD
ATOM     25  H91 UNL     1     -39.596 -22.726  -5.822  1.00  0.00     0.177 HD
ENDBRANCH  21  23
ENDBRANCH   8  21
BRANCH   5  26
HETATM   26  N6  UNL     1     -41.621 -20.572  -1.995  1.00  0.00    -0.234 N 
ATOM     27  H62 UNL     1     -41.579 -20.563  -0.976  1.00  0.00     0.174 HD
ATOM     28  H61 UNL     1     -42.522 -20.631  -2.469  1.00  0.00     0.174 HD
ENDBRANCH   5  26
TORSDOF 8
ENDMDL
