MODEL 1
REMARK VINA RESULT: -7.405017181      0.000      0.000
REMARK  5 active torsions:
REMARK  status: ('A' for Active; 'I' for Inactive)
REMARK    1  A    between atoms: N1_2  and  O1_3 
REMARK    2  A    between atoms: O1_3  and  C2_4 
REMARK       I    between atoms: C2_4  and  N2_6 
REMARK    3  A    between atoms: N2_6  and  N3_7 
REMARK    4  A    between atoms: N3_7  and  C3_9 
REMARK    5  A    between atoms: C6_15  and  N6_16 
ROOT
HETATM    1  C3  UNL     1     -38.322 -20.119  -3.707  1.00  0.00     0.141 C 
HETATM    2  C4  UNL     1     -36.944 -19.700  -3.735  1.00  0.00     0.092 A 
HETATM    3  C5  UNL     1     -36.537 -18.476  -3.264  1.00  0.00     0.149 A 
HETATM    4  N4  UNL     1     -37.465 -17.553  -2.715  1.00  0.00    -0.081 NA
HETATM    5  N5  UNL     1     -35.232 -18.097  -3.309  1.00  0.00    -0.178 N 
ATOM      6  H5  UNL     1     -34.963 -17.180  -2.950  1.00  0.00     0.185 HD
HETATM    7  C6  UNL     1     -34.286 -18.913  -3.819  1.00  0.00     0.680 A 
HETATM    8  N7  UNL     1     -34.684 -20.117  -4.283  1.00  0.00    -0.155 N 
ATOM      9  H7  UNL     1     -33.980 -20.743  -4.671  1.00  0.00     0.187 HD
HETATM   10  C7  UNL     1     -35.946 -20.525  -4.257  1.00  0.00     0.274 A 
HETATM   11  O3  UNL     1     -36.335 -21.653  -4.688  1.00  0.00    -0.267 OA
ENDROOT
BRANCH   1  12
HETATM   12  N3  UNL     1     -39.282 -19.403  -3.247  1.00  0.00    -0.240 N 
ATOM     13  H3  UNL     1     -39.146 -18.397  -3.147  1.00  0.00     0.201 HD
BRANCH  12  14
HETATM   14  N2  UNL     1     -40.447 -19.934  -2.898  1.00  0.00    -0.258 NA
HETATM   15  C2  UNL     1     -41.640 -20.478  -2.542  1.00  0.00     0.477 C 
HETATM   16  O2  UNL     1     -42.309 -20.262  -1.503  1.00  0.00    -0.217 OA
BRANCH  15  17
HETATM   17  O1  UNL     1     -42.302 -21.429  -3.397  1.00  0.00    -0.177 OA
BRANCH  17  18
HETATM   18  N1  UNL     1     -41.590 -22.452  -3.991  1.00  0.00    -0.093 NA
HETATM   19  C1  UNL     1     -42.285 -23.721  -3.876  1.00  0.00     0.168 C 
ENDBRANCH  17  18
ENDBRANCH  15  17
ENDBRANCH  12  14
ENDBRANCH   1  12
BRANCH   7  20
HETATM   20  N6  UNL     1     -33.044 -18.594  -3.878  1.00  0.00    -0.234 N 
ATOM     21  H62 UNL     1     -32.741 -17.693  -3.509  1.00  0.00     0.174 HD
ATOM     22  H61 UNL     1     -32.333 -19.203  -4.282  1.00  0.00     0.174 HD
ENDBRANCH   7  20
TORSDOF 5
ENDMDL
MODEL 2
REMARK VINA RESULT: -7.324615144      1.257      1.666
REMARK  5 active torsions:
REMARK  status: ('A' for Active; 'I' for Inactive)
REMARK    1  A    between atoms: N1_2  and  O1_3 
REMARK    2  A    between atoms: O1_3  and  C2_4 
REMARK       I    between atoms: C2_4  and  N2_6 
REMARK    3  A    between atoms: N2_6  and  N3_7 
REMARK    4  A    between atoms: N3_7  and  C3_9 
REMARK    5  A    between atoms: C6_15  and  N6_16 
ROOT
HETATM    1  C3  UNL     1     -38.258 -19.866  -3.875  1.00  0.00     0.141 C 
HETATM    2  C4  UNL     1     -36.856 -19.533  -3.870  1.00  0.00     0.092 A 
HETATM    3  C5  UNL     1     -36.369 -18.406  -3.255  1.00  0.00     0.149 A 
HETATM    4  N4  UNL     1     -37.234 -17.505  -2.579  1.00  0.00    -0.081 NA
HETATM    5  N5  UNL     1     -35.043 -18.105  -3.270  1.00  0.00    -0.178 N 
ATOM      6  H5  UNL     1     -34.715 -17.260  -2.803  1.00  0.00     0.185 HD
HETATM    7  C6  UNL     1     -34.155 -18.907  -3.894  1.00  0.00     0.680 A 
HETATM    8  N7  UNL     1     -34.631 -20.015  -4.500  1.00  0.00    -0.155 N 
ATOM      9  H7  UNL     1     -33.971 -20.629  -4.976  1.00  0.00     0.187 HD
HETATM   10  C7  UNL     1     -35.917 -20.344  -4.507  1.00  0.00     0.274 A 
HETATM   11  O3  UNL     1     -36.379 -21.382  -5.072  1.00  0.00    -0.267 OA
ENDROOT
BRANCH   1  12
HETATM   12  N3  UNL     1     -39.167 -19.156  -3.314  1.00  0.00    -0.240 N 
ATOM     13  H3  UNL     1     -39.001 -18.159  -3.171  1.00  0.00     0.201 HD
BRANCH  12  14
HETATM   14  N2  UNL     1     -40.319 -19.681  -2.913  1.00  0.00    -0.258 NA
HETATM   15  C2  UNL     1     -41.497 -20.219  -2.502  1.00  0.00     0.477 C 
HETATM   16  O2  UNL     1     -42.323 -20.878  -3.178  1.00  0.00    -0.217 OA
BRANCH  15  17
HETATM   17  O1  UNL     1     -41.940 -20.070  -1.140  1.00  0.00    -0.177 OA
BRANCH  17  18
HETATM   18  N1  UNL     1     -42.093 -21.176  -0.328  1.00  0.00    -0.093 NA
HETATM   19  C1  UNL     1     -43.495 -21.484  -0.107  1.00  0.00     0.168 C 
ENDBRANCH  17  18
ENDBRANCH  15  17
ENDBRANCH  12  14
ENDBRANCH   1  12
BRANCH   7  20
HETATM   20  N6  UNL     1     -32.895 -18.661  -3.931  1.00  0.00    -0.234 N 
ATOM     21  H62 UNL     1     -32.548 -17.774  -3.565  1.00  0.00     0.174 HD
ATOM     22  H61 UNL     1     -32.213 -19.314  -4.315  1.00  0.00     0.174 HD
ENDBRANCH   7  20
TORSDOF 5
ENDMDL
MODEL 3
REMARK VINA RESULT: -7.322656942      1.714      2.234
REMARK  5 active torsions:
REMARK  status: ('A' for Active; 'I' for Inactive)
REMARK    1  A    between atoms: N1_2  and  O1_3 
REMARK    2  A    between atoms: O1_3  and  C2_4 
REMARK       I    between atoms: C2_4  and  N2_6 
REMARK    3  A    between atoms: N2_6  and  N3_7 
REMARK    4  A    between atoms: N3_7  and  C3_9 
REMARK    5  A    between atoms: C6_15  and  N6_16 
ROOT
HETATM    1  C3  UNL     1     -37.810 -18.960  -3.560  1.00  0.00     0.141 C 
HETATM    2  C4  UNL     1     -36.571 -19.643  -3.834  1.00  0.00     0.092 A 
HETATM    3  C5  UNL     1     -36.507 -20.760  -4.631  1.00  0.00     0.149 A 
HETATM    4  N4  UNL     1     -37.673 -21.300  -5.235  1.00  0.00    -0.081 NA
HETATM    5  N5  UNL     1     -35.329 -21.395  -4.869  1.00  0.00    -0.178 N 
ATOM      6  H5  UNL     1     -35.316 -22.222  -5.466  1.00  0.00     0.185 HD
HETATM    7  C6  UNL     1     -34.175 -20.949  -4.329  1.00  0.00     0.680 A 
HETATM    8  N7  UNL     1     -34.236 -19.852  -3.546  1.00  0.00    -0.155 N 
ATOM      9  H7  UNL     1     -33.372 -19.504  -3.131  1.00  0.00     0.187 HD
HETATM   10  C7  UNL     1     -35.364 -19.203  -3.289  1.00  0.00     0.274 A 
HETATM   11  O3  UNL     1     -35.437 -18.170  -2.555  1.00  0.00    -0.267 OA
ENDROOT
BRANCH   1  12
HETATM   12  N3  UNL     1     -38.948 -19.322  -4.026  1.00  0.00    -0.240 N 
ATOM     13  H3  UNL     1     -39.059 -19.436  -5.033  1.00  0.00     0.201 HD
BRANCH  12  14
HETATM   14  N2  UNL     1     -39.988 -19.555  -3.233  1.00  0.00    -0.258 NA
HETATM   15  C2  UNL     1     -41.052 -19.792  -2.422  1.00  0.00     0.477 C 
HETATM   16  O2  UNL     1     -41.220 -19.417  -1.237  1.00  0.00    -0.217 OA
BRANCH  15  17
HETATM   17  O1  UNL     1     -42.178 -20.559  -2.889  1.00  0.00    -0.177 OA
BRANCH  17  18
HETATM   18  N1  UNL     1     -41.986 -21.715  -3.618  1.00  0.00    -0.093 NA
HETATM   19  C1  UNL     1     -42.547 -22.870  -2.942  1.00  0.00     0.168 C 
ENDBRANCH  17  18
ENDBRANCH  15  17
ENDBRANCH  12  14
ENDBRANCH   1  12
BRANCH   7  20
HETATM   20  N6  UNL     1     -33.042 -21.518  -4.530  1.00  0.00    -0.234 N 
ATOM     21  H62 UNL     1     -33.019 -22.482  -4.865  1.00  0.00     0.174 HD
ATOM     22  H61 UNL     1     -32.150 -21.051  -4.370  1.00  0.00     0.174 HD
ENDBRANCH   7  20
TORSDOF 5
ENDMDL
MODEL 4
REMARK VINA RESULT: -7.211516134      1.535      2.077
REMARK  5 active torsions:
REMARK  status: ('A' for Active; 'I' for Inactive)
REMARK    1  A    between atoms: N1_2  and  O1_3 
REMARK    2  A    between atoms: O1_3  and  C2_4 
REMARK       I    between atoms: C2_4  and  N2_6 
REMARK    3  A    between atoms: N2_6  and  N3_7 
REMARK    4  A    between atoms: N3_7  and  C3_9 
REMARK    5  A    between atoms: C6_15  and  N6_16 
ROOT
HETATM    1  C3  UNL     1     -38.458 -19.298  -3.486  1.00  0.00     0.141 C 
HETATM    2  C4  UNL     1     -37.035 -19.178  -3.678  1.00  0.00     0.092 A 
HETATM    3  C5  UNL     1     -36.302 -20.115  -4.364  1.00  0.00     0.149 A 
HETATM    4  N4  UNL     1     -36.920 -21.261  -4.930  1.00  0.00    -0.081 NA
HETATM    5  N5  UNL     1     -34.958 -19.987  -4.525  1.00  0.00    -0.178 N 
ATOM      6  H5  UNL     1     -34.445 -20.701  -5.041  1.00  0.00     0.185 HD
HETATM    7  C6  UNL     1     -34.294 -18.929  -4.014  1.00  0.00     0.680 A 
HETATM    8  N7  UNL     1     -35.011 -18.007  -3.339  1.00  0.00    -0.155 N 
ATOM      9  H7  UNL     1     -34.521 -17.204  -2.948  1.00  0.00     0.187 HD
HETATM   10  C7  UNL     1     -36.323 -18.095  -3.160  1.00  0.00     0.274 A 
HETATM   11  O3  UNL     1     -37.011 -17.236  -2.529  1.00  0.00    -0.267 OA
ENDROOT
BRANCH   1  12
HETATM   12  N3  UNL     1     -39.163 -20.273  -3.931  1.00  0.00    -0.240 N 
ATOM     13  H3  UNL     1     -38.905 -20.708  -4.817  1.00  0.00     0.201 HD
BRANCH  12  14
HETATM   14  N2  UNL     1     -40.218 -20.733  -3.270  1.00  0.00    -0.258 NA
HETATM   15  C2  UNL     1     -41.299 -21.203  -2.594  1.00  0.00     0.477 C 
HETATM   16  O2  UNL     1     -41.369 -21.545  -1.389  1.00  0.00    -0.217 OA
BRANCH  15  17
HETATM   17  O1  UNL     1     -42.569 -21.364  -3.254  1.00  0.00    -0.177 OA
BRANCH  17  18
HETATM   18  N1  UNL     1     -42.691 -22.197  -4.347  1.00  0.00    -0.093 NA
HETATM   19  C1  UNL     1     -42.404 -23.577  -4.000  1.00  0.00     0.168 C 
ENDBRANCH  17  18
ENDBRANCH  15  17
ENDBRANCH  12  14
ENDBRANCH   1  12
BRANCH   7  20
HETATM   20  N6  UNL     1     -33.026 -18.770  -4.146  1.00  0.00    -0.234 N 
ATOM     21  H62 UNL     1     -32.659 -17.846  -4.375  1.00  0.00     0.174 HD
ATOM     22  H61 UNL     1     -32.357 -19.531  -4.032  1.00  0.00     0.174 HD
ENDBRANCH   7  20
TORSDOF 5
ENDMDL
MODEL 5
REMARK VINA RESULT: -7.121349757      2.402      6.857
REMARK  5 active torsions:
REMARK  status: ('A' for Active; 'I' for Inactive)
REMARK    1  A    between atoms: N1_2  and  O1_3 
REMARK    2  A    between atoms: O1_3  and  C2_4 
REMARK       I    between atoms: C2_4  and  N2_6 
REMARK    3  A    between atoms: N2_6  and  N3_7 
REMARK    4  A    between atoms: N3_7  and  C3_9 
REMARK    5  A    between atoms: C6_15  and  N6_16 
ROOT
HETATM    1  C3  UNL     1     -37.493 -20.442  -4.099  1.00  0.00     0.141 C 
HETATM    2  C4  UNL     1     -38.821 -20.615  -3.568  1.00  0.00     0.092 A 
HETATM    3  C5  UNL     1     -39.429 -21.844  -3.491  1.00  0.00     0.149 A 
HETATM    4  N4  UNL     1     -38.766 -23.021  -3.930  1.00  0.00    -0.081 NA
HETATM    5  N5  UNL     1     -40.687 -21.985  -2.995  1.00  0.00    -0.178 N 
ATOM      6  H5  UNL     1     -41.108 -22.913  -2.951  1.00  0.00     0.185 HD
HETATM    7  C6  UNL     1     -41.387 -20.916  -2.560  1.00  0.00     0.680 A 
HETATM    8  N7  UNL     1     -40.792 -19.707  -2.635  1.00  0.00    -0.155 N 
ATOM      9  H7  UNL     1     -41.310 -18.891  -2.311  1.00  0.00     0.187 HD
HETATM   10  C7  UNL     1     -39.567 -19.527  -3.112  1.00  0.00     0.274 A 
HETATM   11  O3  UNL     1     -38.995 -18.397  -3.188  1.00  0.00    -0.267 OA
ENDROOT
BRANCH   1  12
HETATM   12  N3  UNL     1     -36.765 -21.401  -4.540  1.00  0.00    -0.240 N 
ATOM     13  H3  UNL     1     -37.155 -22.342  -4.579  1.00  0.00     0.201 HD
BRANCH  12  14
HETATM   14  N2  UNL     1     -35.517 -21.203  -4.947  1.00  0.00    -0.258 NA
HETATM   15  C2  UNL     1     -34.240 -20.999  -5.363  1.00  0.00     0.477 C 
HETATM   16  O2  UNL     1     -33.421 -21.847  -5.792  1.00  0.00    -0.217 OA
BRANCH  15  17
HETATM   17  O1  UNL     1     -33.662 -19.679  -5.352  1.00  0.00    -0.177 OA
BRANCH  17  18
HETATM   18  N1  UNL     1     -33.045 -19.194  -4.217  1.00  0.00    -0.093 NA
HETATM   19  C1  UNL     1     -34.009 -18.646  -3.280  1.00  0.00     0.168 C 
ENDBRANCH  17  18
ENDBRANCH  15  17
ENDBRANCH  12  14
ENDBRANCH   1  12
BRANCH   7  20
HETATM   20  N6  UNL     1     -42.576 -21.005  -2.083  1.00  0.00    -0.234 N 
ATOM     21  H62 UNL     1     -42.719 -20.930  -1.076  1.00  0.00     0.174 HD
ATOM     22  H61 UNL     1     -43.398 -21.152  -2.668  1.00  0.00     0.174 HD
ENDBRANCH   7  20
TORSDOF 5
ENDMDL
