MODEL 1
REMARK VINA RESULT: -8.052081977      0.000      0.000
REMARK  0 active torsions:
REMARK  status: ('A' for Active; 'I' for Inactive)
ROOT
HETATM    1  C1  UNL     1     -17.935  -1.689  -7.117  1.00  0.00     0.019 C 
HETATM    2  C2  UNL     1     -17.620  -1.301  -6.018  1.00  0.00    -0.059 C 
HETATM    3  C3  UNL     1     -17.246  -0.849  -4.689  1.00  0.00     0.097 A 
HETATM    4  N1  UNL     1     -16.924   0.437  -4.450  1.00  0.00    -0.358 N 
ATOM      5  H1  UNL     1     -16.942   1.109  -5.216  1.00  0.00     0.166 HD
HETATM    6  C4  UNL     1     -16.578   0.849  -3.217  1.00  0.00     0.090 A 
HETATM    7  C5  UNL     1     -16.534  -0.005  -2.138  1.00  0.00     0.029 A 
HETATM    8  C6  UNL     1     -16.857  -1.333  -2.341  1.00  0.00    -0.022 A 
HETATM    9  C7  UNL     1     -16.824  -2.220  -1.283  1.00  0.00     0.012 A 
HETATM   10  C8  UNL     1     -17.154  -3.536  -1.532  1.00  0.00     0.001 A 
HETATM   11  C9  UNL     1     -17.503  -3.916  -2.812  1.00  0.00     0.001 A 
HETATM   12  C10 UNL     1     -17.537  -3.033  -3.873  1.00  0.00     0.015 A 
HETATM   13  C11 UNL     1     -17.209  -1.722  -3.629  1.00  0.00     0.010 A 
ENDROOT
TORSDOF 0
ENDMDL
MODEL 2
REMARK VINA RESULT: -7.890180739      1.424      2.960
REMARK  0 active torsions:
REMARK  status: ('A' for Active; 'I' for Inactive)
ROOT
HETATM    1  C1  UNL     1     -17.649  -1.639  -7.071  1.00  0.00     0.019 C 
HETATM    2  C2  UNL     1     -17.584  -2.065  -5.943  1.00  0.00    -0.059 C 
HETATM    3  C3  UNL     1     -17.500  -2.561  -4.580  1.00  0.00     0.097 A 
HETATM    4  N1  UNL     1     -17.745  -3.853  -4.288  1.00  0.00    -0.358 N 
ATOM      5  H1  UNL     1     -17.995  -4.498  -5.036  1.00  0.00     0.166 HD
HETATM    6  C4  UNL     1     -17.665  -4.306  -3.023  1.00  0.00     0.090 A 
HETATM    7  C5  UNL     1     -17.332  -3.490  -1.965  1.00  0.00     0.029 A 
HETATM    8  C6  UNL     1     -17.072  -2.157  -2.223  1.00  0.00    -0.022 A 
HETATM    9  C7  UNL     1     -16.735  -1.307  -1.189  1.00  0.00     0.012 A 
HETATM   10  C8  UNL     1     -16.486   0.015  -1.493  1.00  0.00     0.001 A 
HETATM   11  C9  UNL     1     -16.579   0.437  -2.802  1.00  0.00     0.001 A 
HETATM   12  C10 UNL     1     -16.916  -0.408  -3.841  1.00  0.00     0.015 A 
HETATM   13  C11 UNL     1     -17.165  -1.725  -3.543  1.00  0.00     0.010 A 
ENDROOT
TORSDOF 0
ENDMDL
MODEL 3
REMARK VINA RESULT: -7.836228980      1.575      3.446
REMARK  0 active torsions:
REMARK  status: ('A' for Active; 'I' for Inactive)
ROOT
HETATM    1  C1  UNL     1     -18.025  -5.055  -3.800  1.00  0.00     0.019 C 
HETATM    2  C2  UNL     1     -17.696  -3.994  -3.327  1.00  0.00    -0.059 C 
HETATM    3  C3  UNL     1     -17.299  -2.710  -2.775  1.00  0.00     0.097 A 
HETATM    4  N1  UNL     1     -16.994  -2.572  -1.470  1.00  0.00    -0.358 N 
ATOM      5  H1  UNL     1     -17.042  -3.383  -0.855  1.00  0.00     0.166 HD
HETATM    6  C4  UNL     1     -16.627  -1.380  -0.964  1.00  0.00     0.090 A 
HETATM    7  C5  UNL     1     -16.541  -0.244  -1.738  1.00  0.00     0.029 A 
HETATM    8  C6  UNL     1     -16.846  -0.344  -3.082  1.00  0.00    -0.022 A 
HETATM    9  C7  UNL     1     -16.771   0.774  -3.891  1.00  0.00     0.012 A 
HETATM   10  C8  UNL     1     -17.085   0.628  -5.226  1.00  0.00     0.001 A 
HETATM   11  C9  UNL     1     -17.456  -0.612  -5.703  1.00  0.00     0.001 A 
HETATM   12  C10 UNL     1     -17.532  -1.733  -4.899  1.00  0.00     0.015 A 
HETATM   13  C11 UNL     1     -17.221  -1.592  -3.568  1.00  0.00     0.010 A 
ENDROOT
TORSDOF 0
ENDMDL
MODEL 4
REMARK VINA RESULT: -7.773942355      1.998      3.325
REMARK  0 active torsions:
REMARK  status: ('A' for Active; 'I' for Inactive)
ROOT
HETATM    1  C1  UNL     1     -20.892  -1.236  -6.041  1.00  0.00     0.019 C 
HETATM    2  C2  UNL     1     -20.105  -1.697  -5.251  1.00  0.00    -0.059 C 
HETATM    3  C3  UNL     1     -19.149  -2.236  -4.298  1.00  0.00     0.097 A 
HETATM    4  N1  UNL     1     -19.101  -3.553  -4.022  1.00  0.00    -0.358 N 
ATOM      5  H1  UNL     1     -19.748  -4.188  -4.489  1.00  0.00     0.166 HD
HETATM    6  C4  UNL     1     -18.214  -4.046  -3.138  1.00  0.00     0.090 A 
HETATM    7  C5  UNL     1     -17.313  -3.247  -2.473  1.00  0.00     0.029 A 
HETATM    8  C6  UNL     1     -17.329  -1.888  -2.728  1.00  0.00    -0.022 A 
HETATM    9  C7  UNL     1     -16.440  -1.054  -2.079  1.00  0.00     0.012 A 
HETATM   10  C8  UNL     1     -16.493   0.294  -2.365  1.00  0.00     0.001 A 
HETATM   11  C9  UNL     1     -17.418   0.757  -3.277  1.00  0.00     0.001 A 
HETATM   12  C10 UNL     1     -18.310  -0.073  -3.928  1.00  0.00     0.015 A 
HETATM   13  C11 UNL     1     -18.261  -1.416  -3.647  1.00  0.00     0.010 A 
ENDROOT
TORSDOF 0
ENDMDL
MODEL 5
REMARK VINA RESULT: -7.623482423      1.272      3.092
REMARK  0 active torsions:
REMARK  status: ('A' for Active; 'I' for Inactive)
ROOT
HETATM    1  C1  UNL     1     -17.952  -4.954  -3.645  1.00  0.00     0.019 C 
HETATM    2  C2  UNL     1     -17.781  -3.815  -4.007  1.00  0.00    -0.059 C 
HETATM    3  C3  UNL     1     -17.574  -2.439  -4.425  1.00  0.00     0.097 A 
HETATM    4  N1  UNL     1     -17.741  -2.063  -5.707  1.00  0.00    -0.358 N 
ATOM      5  H1  UNL     1     -18.019  -2.756  -6.401  1.00  0.00     0.166 HD
HETATM    6  C4  UNL     1     -17.547  -0.787  -6.088  1.00  0.00     0.090 A 
HETATM    7  C5  UNL     1     -17.172   0.199  -5.204  1.00  0.00     0.029 A 
HETATM    8  C6  UNL     1     -16.990  -0.146  -3.878  1.00  0.00    -0.022 A 
HETATM    9  C7  UNL     1     -16.613   0.815  -2.961  1.00  0.00     0.012 A 
HETATM   10  C8  UNL     1     -16.442   0.426  -1.649  1.00  0.00     0.001 A 
HETATM   11  C9  UNL     1     -16.652  -0.893  -1.302  1.00  0.00     0.001 A 
HETATM   12  C10 UNL     1     -17.028  -1.858  -2.215  1.00  0.00     0.015 A 
HETATM   13  C11 UNL     1     -17.199  -1.474  -3.522  1.00  0.00     0.010 A 
ENDROOT
TORSDOF 0
ENDMDL
