MODEL 1
REMARK VINA RESULT: -7.535190888      0.000      0.000
REMARK  1 active torsions:
REMARK  status: ('A' for Active; 'I' for Inactive)
REMARK    1  A    between atoms: O1_1  and  N1_3 
ROOT
HETATM    1  N1  UNL     1     -17.279  -0.650  -4.726  1.00  0.00    -0.235 N 
HETATM    2  C1  UNL     1     -16.921   0.567  -4.295  1.00  0.00     0.123 A 
HETATM    3  C2  UNL     1     -16.575   0.769  -2.978  1.00  0.00     0.021 A 
HETATM    4  C3  UNL     1     -16.598  -0.292  -2.096  1.00  0.00     0.015 A 
HETATM    5  C4  UNL     1     -16.968  -1.559  -2.525  1.00  0.00    -0.007 A 
HETATM    6  C5  UNL     1     -16.998  -2.638  -1.655  1.00  0.00     0.014 A 
HETATM    7  C6  UNL     1     -17.365  -3.887  -2.093  1.00  0.00     0.001 A 
HETATM    8  C7  UNL     1     -17.701  -4.023  -3.425  1.00  0.00     0.002 A 
HETATM    9  C8  UNL     1     -17.672  -2.954  -4.295  1.00  0.00     0.033 A 
HETATM   10  C9  UNL     1     -17.300  -1.682  -3.858  1.00  0.00     0.072 A 
ENDROOT
BRANCH   1  11
HETATM   11  O1  UNL     1     -17.614  -0.796  -6.047  1.00  0.00    -0.283 OA
ATOM     12  H1  UNL     1     -18.481  -1.119  -6.257  1.00  0.00     0.245 HD
ENDBRANCH   1  11
TORSDOF 1
ENDMDL
MODEL 2
REMARK VINA RESULT: -7.324480038      1.618      2.757
REMARK  1 active torsions:
REMARK  status: ('A' for Active; 'I' for Inactive)
REMARK    1  A    between atoms: O1_1  and  N1_3 
ROOT
HETATM    1  N1  UNL     1     -17.264  -2.646  -4.497  1.00  0.00    -0.235 N 
HETATM    2  C1  UNL     1     -17.386  -2.022  -5.676  1.00  0.00     0.123 A 
HETATM    3  C2  UNL     1     -17.304  -0.650  -5.754  1.00  0.00     0.021 A 
HETATM    4  C3  UNL     1     -17.094   0.087  -4.606  1.00  0.00     0.015 A 
HETATM    5  C4  UNL     1     -16.965  -0.543  -3.376  1.00  0.00    -0.007 A 
HETATM    6  C5  UNL     1     -16.753   0.179  -2.212  1.00  0.00     0.014 A 
HETATM    7  C6  UNL     1     -16.628  -0.457  -1.001  1.00  0.00     0.001 A 
HETATM    8  C7  UNL     1     -16.721  -1.834  -0.991  1.00  0.00     0.002 A 
HETATM    9  C8  UNL     1     -16.930  -2.558  -2.145  1.00  0.00     0.033 A 
HETATM   10  C9  UNL     1     -17.059  -1.919  -3.380  1.00  0.00     0.072 A 
ENDROOT
BRANCH   1  11
HETATM   11  O1  UNL     1     -17.354  -4.014  -4.476  1.00  0.00    -0.283 OA
ATOM     12  H1  UNL     1     -17.873  -4.419  -3.792  1.00  0.00     0.245 HD
ENDBRANCH   1  11
TORSDOF 1
ENDMDL
MODEL 3
REMARK VINA RESULT: -7.304524174      1.863      3.300
REMARK  1 active torsions:
REMARK  status: ('A' for Active; 'I' for Inactive)
REMARK    1  A    between atoms: O1_1  and  N1_3 
ROOT
HETATM    1  N1  UNL     1     -17.242  -2.981  -2.921  1.00  0.00    -0.235 N 
HETATM    2  C1  UNL     1     -16.967  -2.877  -1.614  1.00  0.00     0.123 A 
HETATM    3  C2  UNL     1     -16.655  -1.657  -1.058  1.00  0.00     0.021 A 
HETATM    4  C3  UNL     1     -16.625  -0.532  -1.857  1.00  0.00     0.015 A 
HETATM    5  C4  UNL     1     -16.906  -0.621  -3.213  1.00  0.00    -0.007 A 
HETATM    6  C5  UNL     1     -16.880   0.498  -4.032  1.00  0.00     0.014 A 
HETATM    7  C6  UNL     1     -17.161   0.396  -5.373  1.00  0.00     0.001 A 
HETATM    8  C7  UNL     1     -17.466  -0.855  -5.868  1.00  0.00     0.002 A 
HETATM    9  C8  UNL     1     -17.493  -1.971  -5.058  1.00  0.00     0.033 A 
HETATM   10  C9  UNL     1     -17.210  -1.877  -3.695  1.00  0.00     0.072 A 
ENDROOT
BRANCH   1  11
HETATM   11  O1  UNL     1     -17.547  -4.219  -3.423  1.00  0.00    -0.283 OA
ATOM     12  H1  UNL     1     -17.384  -4.383  -4.344  1.00  0.00     0.245 HD
ENDBRANCH   1  11
TORSDOF 1
ENDMDL
MODEL 4
REMARK VINA RESULT: -7.155899652      0.910      3.202
REMARK  1 active torsions:
REMARK  status: ('A' for Active; 'I' for Inactive)
REMARK    1  A    between atoms: O1_1  and  N1_3 
ROOT
HETATM    1  N1  UNL     1     -17.555  -2.510  -4.686  1.00  0.00    -0.235 N 
HETATM    2  C1  UNL     1     -17.769  -3.775  -4.301  1.00  0.00     0.123 A 
HETATM    3  C2  UNL     1     -17.623  -4.141  -2.982  1.00  0.00     0.021 A 
HETATM    4  C3  UNL     1     -17.251  -3.194  -2.050  1.00  0.00     0.015 A 
HETATM    5  C4  UNL     1     -17.024  -1.878  -2.430  1.00  0.00    -0.007 A 
HETATM    6  C5  UNL     1     -16.650  -0.912  -1.509  1.00  0.00     0.014 A 
HETATM    7  C6  UNL     1     -16.429   0.386  -1.900  1.00  0.00     0.001 A 
HETATM    8  C7  UNL     1     -16.592   0.687  -3.236  1.00  0.00     0.002 A 
HETATM    9  C8  UNL     1     -16.965  -0.269  -4.157  1.00  0.00     0.033 A 
HETATM   10  C9  UNL     1     -17.192  -1.590  -3.769  1.00  0.00     0.072 A 
ENDROOT
BRANCH   1  11
HETATM   11  O1  UNL     1     -17.716  -2.200  -6.011  1.00  0.00    -0.283 OA
ATOM     12  H1  UNL     1     -18.118  -1.369  -6.232  1.00  0.00     0.245 HD
ENDBRANCH   1  11
TORSDOF 1
ENDMDL
MODEL 5
REMARK VINA RESULT: -7.132530275      2.100      4.129
REMARK  1 active torsions:
REMARK  status: ('A' for Active; 'I' for Inactive)
REMARK    1  A    between atoms: O1_1  and  N1_3 
ROOT
HETATM    1  N1  UNL     1     -16.988  -2.290  -1.750  1.00  0.00    -0.235 N 
HETATM    2  C1  UNL     1     -17.301  -3.581  -1.923  1.00  0.00     0.123 A 
HETATM    3  C2  UNL     1     -17.651  -4.057  -3.167  1.00  0.00     0.021 A 
HETATM    4  C3  UNL     1     -17.679  -3.193  -4.243  1.00  0.00     0.015 A 
HETATM    5  C4  UNL     1     -17.359  -1.852  -4.082  1.00  0.00    -0.007 A 
HETATM    6  C5  UNL     1     -17.381  -0.970  -5.151  1.00  0.00     0.014 A 
HETATM    7  C6  UNL     1     -17.062   0.355  -4.977  1.00  0.00     0.001 A 
HETATM    8  C7  UNL     1     -16.720   0.768  -3.706  1.00  0.00     0.002 A 
HETATM    9  C8  UNL     1     -16.695  -0.106  -2.639  1.00  0.00     0.033 A 
HETATM   10  C9  UNL     1     -17.019  -1.453  -2.806  1.00  0.00     0.072 A 
ENDROOT
BRANCH   1  11
HETATM   11  O1  UNL     1     -16.646  -1.870  -0.491  1.00  0.00    -0.283 OA
ATOM     12  H1  UNL     1     -17.003  -1.047  -0.181  1.00  0.00     0.245 HD
ENDBRANCH   1  11
TORSDOF 1
ENDMDL
