MODEL 1
REMARK VINA RESULT: -8.601473113      0.000      0.000
REMARK  0 active torsions:
REMARK  status: ('A' for Active; 'I' for Inactive)
ROOT
HETATM    1  C1  UNL     1     -16.479  -0.112  -1.786  1.00  0.00     0.013 A 
HETATM    2  C2  UNL     1     -16.554   0.638  -2.895  1.00  0.00     0.013 A 
HETATM    3  C3  UNL     1     -16.978  -0.184  -4.023  1.00  0.00    -0.021 A 
HETATM    4  C4  UNL     1     -17.232  -0.011  -5.375  1.00  0.00     0.029 A 
HETATM    5  C5  UNL     1     -17.634  -1.058  -6.172  1.00  0.00     0.089 A 
HETATM    6  N1  UNL     1     -17.788  -2.300  -5.620  1.00  0.00    -0.365 N 
ATOM      7  H1  UNL     1     -18.085  -3.083  -6.203  1.00  0.00     0.165 HD
HETATM    8  C6  UNL     1     -17.543  -2.496  -4.287  1.00  0.00     0.043 A 
HETATM    9  C7  UNL     1     -17.680  -3.723  -3.672  1.00  0.00     0.030 A 
HETATM   10  C8  UNL     1     -17.403  -3.805  -2.299  1.00  0.00     0.003 A 
HETATM   11  C9  UNL     1     -17.001  -2.702  -1.562  1.00  0.00     0.012 A 
HETATM   12  C10 UNL     1     -16.866  -1.481  -2.178  1.00  0.00    -0.023 A 
HETATM   13  C11 UNL     1     -17.144  -1.431  -3.519  1.00  0.00     0.011 A 
ENDROOT
TORSDOF 0
ENDMDL
MODEL 2
REMARK VINA RESULT: -8.486577878      0.971      2.840
REMARK  0 active torsions:
REMARK  status: ('A' for Active; 'I' for Inactive)
ROOT
HETATM    1  C1  UNL     1     -17.500  -3.968  -2.493  1.00  0.00     0.013 A 
HETATM    2  C2  UNL     1     -17.754  -4.020  -3.809  1.00  0.00     0.013 A 
HETATM    3  C3  UNL     1     -17.569  -2.701  -4.403  1.00  0.00    -0.021 A 
HETATM    4  C4  UNL     1     -17.671  -2.122  -5.659  1.00  0.00     0.029 A 
HETATM    5  C5  UNL     1     -17.409  -0.787  -5.860  1.00  0.00     0.089 A 
HETATM    6  N1  UNL     1     -17.038  -0.009  -4.797  1.00  0.00    -0.365 N 
ATOM      7  H1  UNL     1     -16.842   0.982  -4.936  1.00  0.00     0.165 HD
HETATM    8  C6  UNL     1     -16.930  -0.558  -3.547  1.00  0.00     0.043 A 
HETATM    9  C7  UNL     1     -16.561   0.174  -2.438  1.00  0.00     0.030 A 
HETATM   10  C8  UNL     1     -16.483  -0.495  -1.206  1.00  0.00     0.003 A 
HETATM   11  C9  UNL     1     -16.764  -1.847  -1.083  1.00  0.00     0.012 A 
HETATM   12  C10 UNL     1     -17.131  -2.572  -2.192  1.00  0.00    -0.023 A 
HETATM   13  C11 UNL     1     -17.198  -1.893  -3.380  1.00  0.00     0.011 A 
ENDROOT
TORSDOF 0
ENDMDL
MODEL 3
REMARK VINA RESULT: -8.401526302      0.803      3.074
REMARK  0 active torsions:
REMARK  status: ('A' for Active; 'I' for Inactive)
ROOT
HETATM    1  C1  UNL     1     -16.523   0.059  -1.960  1.00  0.00     0.013 A 
HETATM    2  C2  UNL     1     -16.633  -1.085  -1.267  1.00  0.00     0.013 A 
HETATM    3  C3  UNL     1     -17.040  -2.167  -2.156  1.00  0.00    -0.021 A 
HETATM    4  C4  UNL     1     -17.312  -3.522  -2.059  1.00  0.00     0.029 A 
HETATM    5  C5  UNL     1     -17.686  -4.263  -3.156  1.00  0.00     0.089 A 
HETATM    6  N1  UNL     1     -17.791  -3.650  -4.374  1.00  0.00    -0.365 N 
ATOM      7  H1  UNL     1     -18.068  -4.191  -5.194  1.00  0.00     0.165 HD
HETATM    8  C6  UNL     1     -17.527  -2.312  -4.496  1.00  0.00     0.043 A 
HETATM    9  C7  UNL     1     -17.616  -1.638  -5.697  1.00  0.00     0.030 A 
HETATM   10  C8  UNL     1     -17.321  -0.265  -5.702  1.00  0.00     0.003 A 
HETATM   11  C9  UNL     1     -16.951   0.413  -4.552  1.00  0.00     0.012 A 
HETATM   12  C10 UNL     1     -16.864  -0.263  -3.358  1.00  0.00    -0.023 A 
HETATM   13  C11 UNL     1     -17.157  -1.601  -3.383  1.00  0.00     0.011 A 
ENDROOT
TORSDOF 0
ENDMDL
MODEL 4
REMARK VINA RESULT: -8.250210798      1.418      3.943
REMARK  0 active torsions:
REMARK  status: ('A' for Active; 'I' for Inactive)
ROOT
HETATM    1  C1  UNL     1     -17.734  -4.047  -3.848  1.00  0.00     0.013 A 
HETATM    2  C2  UNL     1     -17.495  -3.942  -2.532  1.00  0.00     0.013 A 
HETATM    3  C3  UNL     1     -17.148  -2.565  -2.199  1.00  0.00    -0.021 A 
HETATM    4  C4  UNL     1     -16.808  -1.843  -1.066  1.00  0.00     0.029 A 
HETATM    5  C5  UNL     1     -16.533  -0.496  -1.125  1.00  0.00     0.089 A 
HETATM    6  N1  UNL     1     -16.596   0.147  -2.330  1.00  0.00    -0.365 N 
ATOM      7  H1  UNL     1     -16.393   1.146  -2.385  1.00  0.00     0.165 HD
HETATM    8  C6  UNL     1     -16.930  -0.544  -3.464  1.00  0.00     0.043 A 
HETATM    9  C7  UNL     1     -17.010   0.049  -4.707  1.00  0.00     0.030 A 
HETATM   10  C8  UNL     1     -17.363  -0.760  -5.799  1.00  0.00     0.003 A 
HETATM   11  C9  UNL     1     -17.625  -2.113  -5.659  1.00  0.00     0.012 A 
HETATM   12  C10 UNL     1     -17.544  -2.700  -4.418  1.00  0.00    -0.023 A 
HETATM   13  C11 UNL     1     -17.199  -1.887  -3.371  1.00  0.00     0.011 A 
ENDROOT
TORSDOF 0
ENDMDL
MODEL 5
REMARK VINA RESULT: -8.165509260      1.244      3.479
REMARK  0 active torsions:
REMARK  status: ('A' for Active; 'I' for Inactive)
ROOT
HETATM    1  C1  UNL     1     -17.267  -0.508  -5.627  1.00  0.00     0.013 A 
HETATM    2  C2  UNL     1     -17.583  -1.793  -5.844  1.00  0.00     0.013 A 
HETATM    3  C3  UNL     1     -17.531  -2.536  -4.590  1.00  0.00    -0.021 A 
HETATM    4  C4  UNL     1     -17.740  -3.839  -4.164  1.00  0.00     0.029 A 
HETATM    5  C5  UNL     1     -17.595  -4.198  -2.845  1.00  0.00     0.089 A 
HETATM    6  N1  UNL     1     -17.234  -3.248  -1.928  1.00  0.00    -0.365 N 
ATOM      7  H1  UNL     1     -17.123  -3.505  -0.947  1.00  0.00     0.165 HD
HETATM    8  C6  UNL     1     -17.021  -1.954  -2.324  1.00  0.00     0.043 A 
HETATM    9  C7  UNL     1     -16.656  -0.954  -1.448  1.00  0.00     0.030 A 
HETATM   10  C8  UNL     1     -16.466   0.337  -1.967  1.00  0.00     0.003 A 
HETATM   11  C9  UNL     1     -16.632   0.621  -3.313  1.00  0.00     0.012 A 
HETATM   12  C10 UNL     1     -16.996  -0.380  -4.183  1.00  0.00    -0.023 A 
HETATM   13  C11 UNL     1     -17.175  -1.629  -3.648  1.00  0.00     0.011 A 
ENDROOT
TORSDOF 0
ENDMDL
