MODEL 1
REMARK VINA RESULT: -7.021012053      0.000      0.000
REMARK  5 active torsions:
REMARK  status: ('A' for Active; 'I' for Inactive)
REMARK    1  A    between atoms: N1_2  and  C2_3 
REMARK    2  A    between atoms: N1_2  and  C14_19 
REMARK    3  A    between atoms: C2_3  and  C3_4 
REMARK    4  A    between atoms: C3_4  and  N2_5 
REMARK       I    between atoms: N2_5  and  C4_7 
REMARK    5  A    between atoms: C4_7  and  C5_9 
ROOT
HETATM    1  N2  UNL     1     -22.283 -40.896  26.054  1.00  0.00    -0.359 N 
ATOM      2  H2  UNL     1     -23.258 -40.797  25.769  1.00  0.00     0.162 HD
HETATM    3  C4  UNL     1     -21.863 -42.173  26.475  1.00  0.00     0.221 C 
HETATM    4  O1  UNL     1     -20.672 -42.341  26.831  1.00  0.00    -0.273 OA
ENDROOT
BRANCH   3   5
HETATM    5  C5  UNL     1     -22.792 -43.347  26.513  1.00  0.00     0.078 C 
HETATM    6  C6  UNL     1     -22.146 -44.534  25.834  1.00  0.00     0.015 C 
HETATM    7  C7  UNL     1     -22.893 -45.765  26.293  1.00  0.00     0.012 C 
HETATM    8  C8  UNL     1     -22.558 -46.007  27.724  1.00  0.00    -0.017 C 
HETATM    9  C9  UNL     1     -23.267 -47.212  28.308  1.00  0.00     0.038 C 
HETATM   10  C11 UNL     1     -21.113 -46.464  27.803  1.00  0.00     0.177 C 
HETATM   11  C12 UNL     1     -22.701 -44.786  28.591  1.00  0.00     0.012 C 
HETATM   12  C10 UNL     1     -22.150 -47.877  29.076  1.00  0.00     0.168 C 
HETATM   13  O2  UNL     1     -21.085 -46.979  29.116  1.00  0.00    -0.390 OA
HETATM   14  C13 UNL     1     -23.299 -43.617  27.884  1.00  0.00     0.015 C 
ENDBRANCH   3   5
BRANCH   1  15
HETATM   15  C3  UNL     1     -21.453 -39.716  25.989  1.00  0.00     0.142 C 
BRANCH  15  16
HETATM   16  C2  UNL     1     -20.679 -39.590  24.726  1.00  0.00     0.138 C 
BRANCH  16  17
HETATM   17  N1  UNL     1     -21.420 -39.838  23.540  1.00  0.00    -0.395 N 
HETATM   18  C1  UNL     1     -22.210 -38.776  23.036  1.00  0.00     0.145 C 
BRANCH  17  19
HETATM   19  C14 UNL     1     -20.823 -40.694  22.573  1.00  0.00     0.098 C 
HETATM   20  C15 UNL     1     -21.501 -40.614  21.237  1.00  0.00     0.056 C 
HETATM   21  C16 UNL     1     -20.760 -42.144  22.979  1.00  0.00     0.056 C 
HETATM   22 CL1  UNL     1     -19.128 -40.155  22.346  1.00  0.00    -0.097 Cl
ENDBRANCH  17  19
ENDBRANCH  16  17
ENDBRANCH  15  16
ENDBRANCH   1  15
TORSDOF 5
ENDMDL
MODEL 2
REMARK VINA RESULT: -6.856605758      3.537      7.640
REMARK  5 active torsions:
REMARK  status: ('A' for Active; 'I' for Inactive)
REMARK    1  A    between atoms: N1_2  and  C2_3 
REMARK    2  A    between atoms: N1_2  and  C14_19 
REMARK    3  A    between atoms: C2_3  and  C3_4 
REMARK    4  A    between atoms: C3_4  and  N2_5 
REMARK       I    between atoms: N2_5  and  C4_7 
REMARK    5  A    between atoms: C4_7  and  C5_9 
ROOT
HETATM    1  N2  UNL     1     -21.349 -45.677  26.272  1.00  0.00    -0.359 N 
ATOM      2  H2  UNL     1     -20.425 -45.266  26.139  1.00  0.00     0.162 HD
HETATM    3  C4  UNL     1     -22.332 -44.870  26.879  1.00  0.00     0.221 C 
HETATM    4  O1  UNL     1     -23.482 -45.334  27.060  1.00  0.00    -0.273 OA
ENDROOT
BRANCH   3   5
HETATM    5  C5  UNL     1     -22.051 -43.466  27.319  1.00  0.00     0.078 C 
HETATM    6  C6  UNL     1     -20.684 -43.040  26.830  1.00  0.00     0.015 C 
HETATM    7  C7  UNL     1     -20.645 -41.530  26.889  1.00  0.00     0.012 C 
HETATM    8  C8  UNL     1     -21.537 -40.998  25.821  1.00  0.00    -0.017 C 
HETATM    9  C9  UNL     1     -21.598 -39.485  25.793  1.00  0.00     0.038 C 
HETATM   10  C11 UNL     1     -20.890 -41.280  24.478  1.00  0.00     0.177 C 
HETATM   11  C12 UNL     1     -22.905 -41.623  25.812  1.00  0.00     0.012 C 
HETATM   12  C10 UNL     1     -21.492 -39.205  24.313  1.00  0.00     0.168 C 
HETATM   13  O2  UNL     1     -21.647 -40.422  23.652  1.00  0.00    -0.390 OA
HETATM   14  C13 UNL     1     -23.155 -42.536  26.965  1.00  0.00     0.015 C 
ENDBRANCH   3   5
BRANCH   1  15
HETATM   15  C3  UNL     1     -21.538 -47.036  25.822  1.00  0.00     0.142 C 
BRANCH  15  16
HETATM   16  C2  UNL     1     -20.853 -48.052  26.664  1.00  0.00     0.138 C 
BRANCH  16  17
HETATM   17  N1  UNL     1     -21.714 -48.980  27.306  1.00  0.00    -0.395 N 
HETATM   18  C1  UNL     1     -21.625 -50.335  26.901  1.00  0.00     0.145 C 
BRANCH  17  19
HETATM   19  C14 UNL     1     -22.000 -48.751  28.681  1.00  0.00     0.098 C 
HETATM   20  C15 UNL     1     -21.654 -49.929  29.545  1.00  0.00     0.056 C 
HETATM   21  C16 UNL     1     -23.429 -48.367  28.965  1.00  0.00     0.056 C 
HETATM   22 CL1  UNL     1     -20.986 -47.375  29.223  1.00  0.00    -0.097 Cl
ENDBRANCH  17  19
ENDBRANCH  16  17
ENDBRANCH  15  16
ENDBRANCH   1  15
TORSDOF 5
ENDMDL
MODEL 3
REMARK VINA RESULT: -6.678093456      3.172      5.834
REMARK  5 active torsions:
REMARK  status: ('A' for Active; 'I' for Inactive)
REMARK    1  A    between atoms: N1_2  and  C2_3 
REMARK    2  A    between atoms: N1_2  and  C14_19 
REMARK    3  A    between atoms: C2_3  and  C3_4 
REMARK    4  A    between atoms: C3_4  and  N2_5 
REMARK       I    between atoms: N2_5  and  C4_7 
REMARK    5  A    between atoms: C4_7  and  C5_9 
ROOT
HETATM    1  N2  UNL     1     -21.479 -45.726  25.510  1.00  0.00    -0.359 N 
ATOM      2  H2  UNL     1     -20.593 -45.279  25.276  1.00  0.00     0.162 HD
HETATM    3  C4  UNL     1     -22.311 -45.064  26.434  1.00  0.00     0.221 C 
HETATM    4  O1  UNL     1     -23.411 -45.577  26.748  1.00  0.00    -0.273 OA
ENDROOT
BRANCH   3   5
HETATM    5  C5  UNL     1     -21.927 -43.758  27.058  1.00  0.00     0.078 C 
HETATM    6  C6  UNL     1     -20.613 -43.281  26.482  1.00  0.00     0.015 C 
HETATM    7  C7  UNL     1     -20.510 -41.802  26.782  1.00  0.00     0.012 C 
HETATM    8  C8  UNL     1     -21.500 -41.084  25.931  1.00  0.00    -0.017 C 
HETATM    9  C9  UNL     1     -21.506 -39.587  26.157  1.00  0.00     0.038 C 
HETATM   10  C11 UNL     1     -21.026 -41.151  24.491  1.00  0.00     0.177 C 
HETATM   11  C12 UNL     1     -22.882 -41.675  25.986  1.00  0.00     0.012 C 
HETATM   12  C10 UNL     1     -21.563 -39.067  24.741  1.00  0.00     0.168 C 
HETATM   13  O2  UNL     1     -21.840 -40.154  23.914  1.00  0.00    -0.390 OA
HETATM   14  C13 UNL     1     -23.029 -42.762  26.998  1.00  0.00     0.015 C 
ENDBRANCH   3   5
BRANCH   1  15
HETATM   15  C3  UNL     1     -21.774 -46.985  24.865  1.00  0.00     0.142 C 
BRANCH  15  16
HETATM   16  C2  UNL     1     -21.496 -46.995  23.404  1.00  0.00     0.138 C 
BRANCH  16  17
HETATM   17  N1  UNL     1     -20.336 -46.279  23.008  1.00  0.00    -0.395 N 
HETATM   18  C1  UNL     1     -19.133 -47.015  22.879  1.00  0.00     0.145 C 
BRANCH  17  19
HETATM   19  C14 UNL     1     -20.521 -45.206  22.091  1.00  0.00     0.098 C 
HETATM   20  C15 UNL     1     -20.345 -45.633  20.663  1.00  0.00     0.056 C 
HETATM   21  C16 UNL     1     -19.631 -44.016  22.337  1.00  0.00     0.056 C 
HETATM   22 CL1  UNL     1     -22.208 -44.626  22.271  1.00  0.00    -0.097 Cl
ENDBRANCH  17  19
ENDBRANCH  16  17
ENDBRANCH  15  16
ENDBRANCH   1  15
TORSDOF 5
ENDMDL
MODEL 4
REMARK VINA RESULT: -6.642891929      1.992      2.622
REMARK  5 active torsions:
REMARK  status: ('A' for Active; 'I' for Inactive)
REMARK    1  A    between atoms: N1_2  and  C2_3 
REMARK    2  A    between atoms: N1_2  and  C14_19 
REMARK    3  A    between atoms: C2_3  and  C3_4 
REMARK    4  A    between atoms: C3_4  and  N2_5 
REMARK       I    between atoms: N2_5  and  C4_7 
REMARK    5  A    between atoms: C4_7  and  C5_9 
ROOT
HETATM    1  N2  UNL     1     -21.318 -41.125  26.166  1.00  0.00    -0.359 N 
ATOM      2  H2  UNL     1     -20.323 -41.325  26.263  1.00  0.00     0.162 HD
HETATM    3  C4  UNL     1     -22.219 -42.148  26.520  1.00  0.00     0.221 C 
HETATM    4  O1  UNL     1     -23.452 -41.942  26.419  1.00  0.00    -0.273 OA
ENDROOT
BRANCH   3   5
HETATM    5  C5  UNL     1     -21.756 -43.481  27.020  1.00  0.00     0.078 C 
HETATM    6  C6  UNL     1     -22.889 -44.480  26.941  1.00  0.00     0.015 C 
HETATM    7  C7  UNL     1     -22.268 -45.857  27.007  1.00  0.00     0.012 C 
HETATM    8  C8  UNL     1     -21.547 -46.106  25.727  1.00  0.00    -0.017 C 
HETATM    9  C9  UNL     1     -20.861 -47.455  25.681  1.00  0.00     0.038 C 
HETATM   10  C11 UNL     1     -22.577 -46.273  24.626  1.00  0.00     0.177 C 
HETATM   11  C12 UNL     1     -20.626 -44.985  25.328  1.00  0.00     0.012 C 
HETATM   12  C10 UNL     1     -21.220 -47.929  24.293  1.00  0.00     0.168 C 
HETATM   13  O2  UNL     1     -21.772 -46.843  23.616  1.00  0.00    -0.390 OA
HETATM   14  C13 UNL     1     -20.495 -43.919  26.363  1.00  0.00     0.015 C 
ENDBRANCH   3   5
BRANCH   1  15
HETATM   15  C3  UNL     1     -21.682 -39.815  25.676  1.00  0.00     0.142 C 
BRANCH  15  16
HETATM   16  C2  UNL     1     -20.915 -39.384  24.477  1.00  0.00     0.138 C 
BRANCH  16  17
HETATM   17  N1  UNL     1     -21.497 -39.739  23.232  1.00  0.00    -0.395 N 
HETATM   18  C1  UNL     1     -22.294 -38.762  22.587  1.00  0.00     0.145 C 
BRANCH  17  19
HETATM   19  C14 UNL     1     -20.737 -40.593  22.384  1.00  0.00     0.098 C 
HETATM   20  C15 UNL     1     -19.283 -40.225  22.352  1.00  0.00     0.056 C 
HETATM   21  C16 UNL     1     -21.233 -40.664  20.964  1.00  0.00     0.056 C 
HETATM   22 CL1  UNL     1     -20.853 -42.255  23.048  1.00  0.00    -0.097 Cl
ENDBRANCH  17  19
ENDBRANCH  16  17
ENDBRANCH  15  16
ENDBRANCH   1  15
TORSDOF 5
ENDMDL
MODEL 5
REMARK VINA RESULT: -6.618679675      2.714      4.163
REMARK  5 active torsions:
REMARK  status: ('A' for Active; 'I' for Inactive)
REMARK    1  A    between atoms: N1_2  and  C2_3 
REMARK    2  A    between atoms: N1_2  and  C14_19 
REMARK    3  A    between atoms: C2_3  and  C3_4 
REMARK    4  A    between atoms: C3_4  and  N2_5 
REMARK       I    between atoms: N2_5  and  C4_7 
REMARK    5  A    between atoms: C4_7  and  C5_9 
ROOT
HETATM    1  N2  UNL     1     -21.828 -44.498  27.906  1.00  0.00    -0.359 N 
ATOM      2  H2  UNL     1     -21.182 -44.332  28.677  1.00  0.00     0.162 HD
HETATM    3  C4  UNL     1     -22.494 -45.739  27.878  1.00  0.00     0.221 C 
HETATM    4  O1  UNL     1     -23.300 -45.983  26.949  1.00  0.00    -0.273 OA
ENDROOT
BRANCH   3   5
HETATM    5  C5  UNL     1     -22.276 -46.784  28.929  1.00  0.00     0.078 C 
HETATM    6  C6  UNL     1     -23.324 -47.867  28.800  1.00  0.00     0.015 C 
HETATM    7  C7  UNL     1     -22.803 -49.077  29.541  1.00  0.00     0.012 C 
HETATM    8  C8  UNL     1     -21.669 -49.649  28.761  1.00  0.00    -0.017 C 
HETATM    9  C9  UNL     1     -21.046 -50.862  29.417  1.00  0.00     0.038 C 
HETATM   10  C11 UNL     1     -22.229 -50.269  27.494  1.00  0.00     0.177 C 
HETATM   11  C12 UNL     1     -20.641 -48.628  28.356  1.00  0.00     0.012 C 
HETATM   12  C10 UNL     1     -20.883 -51.793  28.240  1.00  0.00     0.168 C 
HETATM   13  O2  UNL     1     -21.125 -51.047  27.088  1.00  0.00    -0.390 OA
HETATM   14  C13 UNL     1     -20.873 -47.277  28.946  1.00  0.00     0.015 C 
ENDBRANCH   3   5
BRANCH   1  15
HETATM   15  C3  UNL     1     -21.981 -43.440  26.934  1.00  0.00     0.142 C 
BRANCH  15  16
HETATM   16  C2  UNL     1     -20.759 -43.177  26.129  1.00  0.00     0.138 C 
BRANCH  16  17
HETATM   17  N1  UNL     1     -20.976 -43.048  24.732  1.00  0.00    -0.395 N 
HETATM   18  C1  UNL     1     -20.792 -41.764  24.164  1.00  0.00     0.145 C 
BRANCH  17  19
HETATM   19  C14 UNL     1     -20.613 -44.157  23.917  1.00  0.00     0.098 C 
HETATM   20  C15 UNL     1     -19.948 -43.737  22.638  1.00  0.00     0.056 C 
HETATM   21  C16 UNL     1     -21.755 -45.076  23.570  1.00  0.00     0.056 C 
HETATM   22 CL1  UNL     1     -19.429 -45.140  24.837  1.00  0.00    -0.097 Cl
ENDBRANCH  17  19
ENDBRANCH  16  17
ENDBRANCH  15  16
ENDBRANCH   1  15
TORSDOF 5
ENDMDL
