MODEL 1
REMARK VINA RESULT: -7.510639406      0.000      0.000
REMARK  6 active torsions:
REMARK  status: ('A' for Active; 'I' for Inactive)
REMARK    1  A    between atoms: C4_4  and  C5_5 
REMARK       I    between atoms: C5_5  and  N1_7 
REMARK    2  A    between atoms: N1_7  and  N2_9 
REMARK    3  A    between atoms: N3_17  and  C13_18 
REMARK    4  A    between atoms: C13_18  and  C14_19 
REMARK    5  A    between atoms: C15_20  and  C16_21 
REMARK    6  A    between atoms: C16_21  and  C17_22 
ROOT
HETATM    1  C1  UNL     1     -24.163 -42.576  27.342  1.00  0.00     0.032 C 
HETATM    2  C2  UNL     1     -22.798 -43.223  27.623  1.00  0.00     0.081 C 
HETATM    3  C3  UNL     1     -23.026 -44.596  28.085  1.00  0.00     0.039 C 
HETATM    4  C4  UNL     1     -22.854 -45.655  27.023  1.00  0.00     0.086 C 
HETATM    5  C11 UNL     1     -21.557 -45.392  26.278  1.00  0.00     0.058 C 
HETATM    6  C12 UNL     1     -21.665 -44.043  25.615  1.00  0.00     0.060 C 
HETATM    7  N3  UNL     1     -21.904 -43.035  26.550  1.00  0.00    -0.379 N 
ENDROOT
BRANCH   4   8
HETATM    8  C5  UNL     1     -22.728 -46.974  27.690  1.00  0.00     0.240 C 
HETATM    9  O1  UNL     1     -23.607 -47.232  28.593  1.00  0.00    -0.271 OA
HETATM   10  N1  UNL     1     -21.719 -47.923  27.381  1.00  0.00    -0.272 N 
ATOM     11  H1  UNL     1     -21.053 -47.648  26.658  1.00  0.00     0.189 HD
BRANCH  10  12
HETATM   12  N2  UNL     1     -21.530 -49.154  27.929  1.00  0.00    -0.325 N 
HETATM   13  C6  UNL     1     -21.469 -50.204  26.989  1.00  0.00     0.142 C 
HETATM   14  C7  UNL     1     -21.392 -51.595  27.575  1.00  0.00     0.021 C 
HETATM   15  C8  UNL     1     -21.176 -51.632  29.051  1.00  0.00     0.003 C 
HETATM   16  C9  UNL     1     -20.192 -50.568  29.431  1.00  0.00     0.021 C 
HETATM   17  C10 UNL     1     -20.623 -49.181  29.020  1.00  0.00     0.142 C 
ENDBRANCH  10  12
ENDBRANCH   4   8
BRANCH   7  18
HETATM   18  C13 UNL     1     -21.000 -41.960  26.672  1.00  0.00     0.216 C 
BRANCH  18  19
HETATM   19  C14 UNL     1     -21.338 -40.850  25.780  1.00  0.00    -0.087 C 
HETATM   20  C15 UNL     1     -21.596 -39.965  25.008  1.00  0.00    -0.104 C 
BRANCH  20  21
HETATM   21  C16 UNL     1     -21.884 -38.911  24.019  1.00  0.00     0.109 C 
BRANCH  21  22
HETATM   22  C17 UNL     1     -21.561 -39.314  22.612  1.00  0.00     0.126 C 
HETATM   23 CL1  UNL     1     -19.995 -40.115  22.477  1.00  0.00    -0.130 Cl
ENDBRANCH  21  22
ENDBRANCH  20  21
ENDBRANCH  18  19
ENDBRANCH   7  18
TORSDOF 6
ENDMDL
MODEL 2
REMARK VINA RESULT: -7.433924903      1.293      1.532
REMARK  6 active torsions:
REMARK  status: ('A' for Active; 'I' for Inactive)
REMARK    1  A    between atoms: C4_4  and  C5_5 
REMARK       I    between atoms: C5_5  and  N1_7 
REMARK    2  A    between atoms: N1_7  and  N2_9 
REMARK    3  A    between atoms: N3_17  and  C13_18 
REMARK    4  A    between atoms: C13_18  and  C14_19 
REMARK    5  A    between atoms: C15_20  and  C16_21 
REMARK    6  A    between atoms: C16_21  and  C17_22 
ROOT
HETATM    1  C1  UNL     1     -24.164 -42.622  27.406  1.00  0.00     0.032 C 
HETATM    2  C2  UNL     1     -22.676 -43.005  27.433  1.00  0.00     0.081 C 
HETATM    3  C3  UNL     1     -22.578 -44.453  27.647  1.00  0.00     0.039 C 
HETATM    4  C4  UNL     1     -22.345 -45.261  26.394  1.00  0.00     0.086 C 
HETATM    5  C11 UNL     1     -21.229 -44.612  25.595  1.00  0.00     0.058 C 
HETATM    6  C12 UNL     1     -21.676 -43.224  25.210  1.00  0.00     0.060 C 
HETATM    7  N3  UNL     1     -21.980 -42.459  26.336  1.00  0.00    -0.379 N 
ENDROOT
BRANCH   4   8
HETATM    8  C5  UNL     1     -21.886 -46.616  26.787  1.00  0.00     0.240 C 
HETATM    9  O1  UNL     1     -21.502 -47.378  25.825  1.00  0.00    -0.271 OA
HETATM   10  N1  UNL     1     -21.853 -47.081  28.128  1.00  0.00    -0.272 N 
ATOM     11  H1  UNL     1     -22.178 -46.424  28.837  1.00  0.00     0.189 HD
BRANCH  10  12
HETATM   12  N2  UNL     1     -21.443 -48.295  28.583  1.00  0.00    -0.325 N 
HETATM   13  C6  UNL     1     -20.130 -48.307  29.101  1.00  0.00     0.142 C 
HETATM   14  C7  UNL     1     -19.599 -49.667  29.492  1.00  0.00     0.021 C 
HETATM   15  C8  UNL     1     -20.619 -50.756  29.472  1.00  0.00     0.003 C 
HETATM   16  C9  UNL     1     -21.909 -50.233  30.023  1.00  0.00     0.021 C 
HETATM   17  C10 UNL     1     -22.439 -49.036  29.271  1.00  0.00     0.142 C 
ENDBRANCH  10  12
ENDBRANCH   4   8
BRANCH   7  18
HETATM   18  C13 UNL     1     -21.289 -41.253  26.575  1.00  0.00     0.216 C 
BRANCH  18  19
HETATM   19  C14 UNL     1     -21.480 -40.284  25.495  1.00  0.00    -0.087 C 
HETATM   20  C15 UNL     1     -21.642 -39.526  24.575  1.00  0.00    -0.104 C 
BRANCH  20  21
HETATM   21  C16 UNL     1     -21.842 -38.645  23.411  1.00  0.00     0.109 C 
BRANCH  21  22
HETATM   22  C17 UNL     1     -21.911 -39.388  22.110  1.00  0.00     0.126 C 
HETATM   23 CL1  UNL     1     -20.637 -40.597  21.949  1.00  0.00    -0.130 Cl
ENDBRANCH  21  22
ENDBRANCH  20  21
ENDBRANCH  18  19
ENDBRANCH   7  18
TORSDOF 6
ENDMDL
MODEL 3
REMARK VINA RESULT: -7.374942670      0.954      1.016
REMARK  6 active torsions:
REMARK  status: ('A' for Active; 'I' for Inactive)
REMARK    1  A    between atoms: C4_4  and  C5_5 
REMARK       I    between atoms: C5_5  and  N1_7 
REMARK    2  A    between atoms: N1_7  and  N2_9 
REMARK    3  A    between atoms: N3_17  and  C13_18 
REMARK    4  A    between atoms: C13_18  and  C14_19 
REMARK    5  A    between atoms: C15_20  and  C16_21 
REMARK    6  A    between atoms: C16_21  and  C17_22 
ROOT
HETATM    1  C1  UNL     1     -24.233 -42.495  27.140  1.00  0.00     0.032 C 
HETATM    2  C2  UNL     1     -22.850 -43.130  27.349  1.00  0.00     0.081 C 
HETATM    3  C3  UNL     1     -23.040 -44.470  27.915  1.00  0.00     0.039 C 
HETATM    4  C4  UNL     1     -22.957 -45.595  26.912  1.00  0.00     0.086 C 
HETATM    5  C11 UNL     1     -21.725 -45.388  26.049  1.00  0.00     0.058 C 
HETATM    6  C12 UNL     1     -21.886 -44.083  25.312  1.00  0.00     0.060 C 
HETATM    7  N3  UNL     1     -22.047 -43.017  26.197  1.00  0.00    -0.379 N 
ENDROOT
BRANCH   4   8
HETATM    8  C5  UNL     1     -22.777 -46.870  27.650  1.00  0.00     0.240 C 
HETATM    9  O1  UNL     1     -23.598 -47.078  28.617  1.00  0.00    -0.271 OA
HETATM   10  N1  UNL     1     -21.777 -47.829  27.339  1.00  0.00    -0.272 N 
ATOM     11  H1  UNL     1     -21.158 -47.594  26.563  1.00  0.00     0.189 HD
BRANCH  10  12
HETATM   12  N2  UNL     1     -21.543 -49.022  27.949  1.00  0.00    -0.325 N 
HETATM   13  C6  UNL     1     -21.515 -50.126  27.071  1.00  0.00     0.142 C 
HETATM   14  C7  UNL     1     -21.389 -51.479  27.734  1.00  0.00     0.021 C 
HETATM   15  C8  UNL     1     -21.097 -51.424  29.196  1.00  0.00     0.003 C 
HETATM   16  C9  UNL     1     -20.111 -50.329  29.461  1.00  0.00     0.021 C 
HETATM   17  C10 UNL     1     -20.582 -48.974  28.992  1.00  0.00     0.142 C 
ENDBRANCH  10  12
ENDBRANCH   4   8
BRANCH   7  18
HETATM   18  C13 UNL     1     -21.135 -41.941  26.176  1.00  0.00     0.216 C 
BRANCH  18  19
HETATM   19  C14 UNL     1     -20.899 -41.443  24.820  1.00  0.00    -0.087 C 
HETATM   20  C15 UNL     1     -20.742 -41.065  23.690  1.00  0.00    -0.104 C 
BRANCH  20  21
HETATM   21  C16 UNL     1     -20.592 -40.640  22.286  1.00  0.00     0.109 C 
BRANCH  21  22
HETATM   22  C17 UNL     1     -21.784 -39.898  21.761  1.00  0.00     0.126 C 
HETATM   23 CL1  UNL     1     -22.231 -38.524  22.774  1.00  0.00    -0.130 Cl
ENDBRANCH  21  22
ENDBRANCH  20  21
ENDBRANCH  18  19
ENDBRANCH   7  18
TORSDOF 6
ENDMDL
MODEL 4
REMARK VINA RESULT: -7.180395045      1.192      1.552
REMARK  6 active torsions:
REMARK  status: ('A' for Active; 'I' for Inactive)
REMARK    1  A    between atoms: C4_4  and  C5_5 
REMARK       I    between atoms: C5_5  and  N1_7 
REMARK    2  A    between atoms: N1_7  and  N2_9 
REMARK    3  A    between atoms: N3_17  and  C13_18 
REMARK    4  A    between atoms: C13_18  and  C14_19 
REMARK    5  A    between atoms: C15_20  and  C16_21 
REMARK    6  A    between atoms: C16_21  and  C17_22 
ROOT
HETATM    1  C1  UNL     1     -24.123 -42.799  27.233  1.00  0.00     0.032 C 
HETATM    2  C2  UNL     1     -22.616 -43.074  27.345  1.00  0.00     0.081 C 
HETATM    3  C3  UNL     1     -22.427 -44.509  27.583  1.00  0.00     0.039 C 
HETATM    4  C4  UNL     1     -22.070 -45.310  26.355  1.00  0.00     0.086 C 
HETATM    5  C11 UNL     1     -20.961 -44.591  25.608  1.00  0.00     0.058 C 
HETATM    6  C12 UNL     1     -21.484 -43.242  25.182  1.00  0.00     0.060 C 
HETATM    7  N3  UNL     1     -21.902 -42.490  26.279  1.00  0.00    -0.379 N 
ENDROOT
BRANCH   4   8
HETATM    8  C5  UNL     1     -21.538 -46.625  26.790  1.00  0.00     0.240 C 
HETATM    9  O1  UNL     1     -20.361 -46.922  26.365  1.00  0.00    -0.271 OA
HETATM   10  N1  UNL     1     -22.247 -47.528  27.625  1.00  0.00    -0.272 N 
ATOM     11  H1  UNL     1     -23.177 -47.228  27.919  1.00  0.00     0.189 HD
BRANCH  10  12
HETATM   12  N2  UNL     1     -21.841 -48.743  28.081  1.00  0.00    -0.325 N 
HETATM   13  C6  UNL     1     -22.349 -49.085  29.352  1.00  0.00     0.142 C 
HETATM   14  C7  UNL     1     -21.809 -50.368  29.942  1.00  0.00     0.021 C 
HETATM   15  C8  UNL     1     -20.989 -51.184  28.999  1.00  0.00     0.003 C 
HETATM   16  C9  UNL     1     -21.622 -51.152  27.642  1.00  0.00     0.021 C 
HETATM   17  C10 UNL     1     -21.783 -49.757  27.090  1.00  0.00     0.142 C 
ENDBRANCH  10  12
ENDBRANCH   4   8
BRANCH   7  18
HETATM   18  C13 UNL     1     -21.312 -41.235  26.538  1.00  0.00     0.216 C 
BRANCH  18  19
HETATM   19  C14 UNL     1     -21.515 -40.292  25.438  1.00  0.00    -0.087 C 
HETATM   20  C15 UNL     1     -21.685 -39.557  24.502  1.00  0.00    -0.104 C 
BRANCH  20  21
HETATM   21  C16 UNL     1     -21.894 -38.703  23.319  1.00  0.00     0.109 C 
BRANCH  21  22
HETATM   22  C17 UNL     1     -21.911 -39.469  22.030  1.00  0.00     0.126 C 
HETATM   23 CL1  UNL     1     -20.579 -40.620  21.907  1.00  0.00    -0.130 Cl
ENDBRANCH  21  22
ENDBRANCH  20  21
ENDBRANCH  18  19
ENDBRANCH   7  18
TORSDOF 6
ENDMDL
MODEL 5
REMARK VINA RESULT: -7.163727119      2.635      3.499
REMARK  6 active torsions:
REMARK  status: ('A' for Active; 'I' for Inactive)
REMARK    1  A    between atoms: C4_4  and  C5_5 
REMARK       I    between atoms: C5_5  and  N1_7 
REMARK    2  A    between atoms: N1_7  and  N2_9 
REMARK    3  A    between atoms: N3_17  and  C13_18 
REMARK    4  A    between atoms: C13_18  and  C14_19 
REMARK    5  A    between atoms: C15_20  and  C16_21 
REMARK    6  A    between atoms: C16_21  and  C17_22 
ROOT
HETATM    1  C1  UNL     1     -22.506 -45.321  21.899  1.00  0.00     0.032 C 
HETATM    2  C2  UNL     1     -21.705 -44.802  23.102  1.00  0.00     0.081 C 
HETATM    3  C3  UNL     1     -21.695 -45.846  24.133  1.00  0.00     0.039 C 
HETATM    4  C4  UNL     1     -20.437 -46.680  24.171  1.00  0.00     0.086 C 
HETATM    5  C11 UNL     1     -19.235 -45.753  24.127  1.00  0.00     0.058 C 
HETATM    6  C12 UNL     1     -19.281 -44.992  22.826  1.00  0.00     0.060 C 
HETATM    7  N3  UNL     1     -20.465 -44.264  22.706  1.00  0.00    -0.379 N 
ENDROOT
BRANCH   4   8
HETATM    8  C5  UNL     1     -20.395 -47.407  25.464  1.00  0.00     0.240 C 
HETATM    9  O1  UNL     1     -19.229 -47.560  25.984  1.00  0.00    -0.271 OA
HETATM   10  N1  UNL     1     -21.546 -47.916  26.122  1.00  0.00    -0.272 N 
ATOM     11  H1  UNL     1     -22.436 -47.763  25.649  1.00  0.00     0.189 HD
BRANCH  10  12
HETATM   12  N2  UNL     1     -21.607 -48.582  27.306  1.00  0.00    -0.325 N 
HETATM   13  C6  UNL     1     -22.614 -48.121  28.181  1.00  0.00     0.142 C 
HETATM   14  C7  UNL     1     -22.619 -48.753  29.554  1.00  0.00     0.021 C 
HETATM   15  C8  UNL     1     -21.699 -49.918  29.701  1.00  0.00     0.003 C 
HETATM   16  C9  UNL     1     -21.756 -50.750  28.457  1.00  0.00     0.021 C 
HETATM   17  C10 UNL     1     -21.399 -49.983  27.207  1.00  0.00     0.142 C 
ENDBRANCH  10  12
ENDBRANCH   4   8
BRANCH   7  18
HETATM   18  C13 UNL     1     -20.416 -42.863  22.546  1.00  0.00     0.216 C 
BRANCH  18  19
HETATM   19  C14 UNL     1     -20.774 -42.154  23.775  1.00  0.00    -0.087 C 
HETATM   20  C15 UNL     1     -21.075 -41.616  24.807  1.00  0.00    -0.104 C 
BRANCH  20  21
HETATM   21  C16 UNL     1     -21.456 -41.010  26.096  1.00  0.00     0.109 C 
BRANCH  21  22
HETATM   22  C17 UNL     1     -21.495 -39.511  26.057  1.00  0.00     0.126 C 
HETATM   23 CL1  UNL     1     -21.933 -38.884  24.467  1.00  0.00    -0.130 Cl
ENDBRANCH  21  22
ENDBRANCH  20  21
ENDBRANCH  18  19
ENDBRANCH   7  18
TORSDOF 6
ENDMDL
