MODEL 1
REMARK VINA RESULT: -7.264209563      0.000      0.000
REMARK  4 active torsions:
REMARK  status: ('A' for Active; 'I' for Inactive)
REMARK    1  A    between atoms: C2_2  and  C4_4 
REMARK    2  A    between atoms: C4_4  and  N1_5 
REMARK       I    between atoms: N1_5  and  C5_7 
REMARK    3  A    between atoms: C5_7  and  C6_9 
REMARK    4  A    between atoms: N3_15  and  C11_16 
ROOT
HETATM    1  C6  UNL     1     -20.363 -44.534  24.860  1.00  0.00     0.342 C 
HETATM    2  C7  UNL     1     -20.275 -44.458  23.377  1.00  0.00     0.317 C 
HETATM    3  N2  UNL     1     -21.563 -44.582  22.719  1.00  0.00     0.088 N 
HETATM    4  C8  UNL     1     -21.328 -44.523  21.294  1.00  0.00     0.310 C 
HETATM    5  C9  UNL     1     -22.156 -45.875  23.020  1.00  0.00     0.302 C 
HETATM    6  C10 UNL     1     -21.555 -46.460  24.280  1.00  0.00     0.304 C 
HETATM    7  N3  UNL     1     -21.468 -45.416  25.274  1.00  0.00     0.111 N 
ENDROOT
BRANCH   1   8
HETATM    8  C5  UNL     1     -20.519 -43.172  25.444  1.00  0.00     0.253 C 
HETATM    9  N1  UNL     1     -21.185 -42.130  24.771  1.00  0.00    -0.359 N 
ATOM     10  H1  UNL     1     -21.578 -42.313  23.847  1.00  0.00     0.162 HD
HETATM   11  O1  UNL     1     -20.028 -42.970  26.580  1.00  0.00    -0.271 OA
BRANCH   9  12
HETATM   12  C4  UNL     1     -21.333 -40.801  25.345  1.00  0.00     0.126 C 
BRANCH  12  13
HETATM   13  C2  UNL     1     -20.888 -39.755  24.382  1.00  0.00    -0.005 C 
HETATM   14  C1  UNL     1     -22.114 -38.909  24.013  1.00  0.00     0.011 C 
HETATM   15  C3  UNL     1     -20.382 -40.424  23.141  1.00  0.00     0.011 C 
ENDBRANCH  12  13
ENDBRANCH   9  12
ENDBRANCH   1   8
BRANCH   7  16
HETATM   16  C11 UNL     1     -21.202 -45.941  26.598  1.00  0.00     0.242 C 
HETATM   17  C12 UNL     1     -20.873 -47.384  26.675  1.00  0.00     0.038 C 
HETATM   18  C13 UNL     1     -20.801 -47.795  28.136  1.00  0.00     0.006 C 
HETATM   19  C14 UNL     1     -22.022 -47.499  28.930  1.00  0.00    -0.017 C 
HETATM   20  C15 UNL     1     -22.645 -48.752  29.536  1.00  0.00     0.010 C 
HETATM   21  C16 UNL     1     -23.023 -46.765  28.094  1.00  0.00     0.026 C 
HETATM   22  C17 UNL     1     -22.292 -45.546  27.536  1.00  0.00     0.116 C 
HETATM   23 CL1  UNL     1     -23.496 -44.480  26.803  1.00  0.00    -0.123 Cl
ENDBRANCH   7  16
TORSDOF 4
ENDMDL
MODEL 2
REMARK VINA RESULT: -7.030004258      3.701      6.877
REMARK  4 active torsions:
REMARK  status: ('A' for Active; 'I' for Inactive)
REMARK    1  A    between atoms: C2_2  and  C4_4 
REMARK    2  A    between atoms: C4_4  and  N1_5 
REMARK       I    between atoms: N1_5  and  C5_7 
REMARK    3  A    between atoms: C5_7  and  C6_9 
REMARK    4  A    between atoms: N3_15  and  C11_16 
ROOT
HETATM    1  C6  UNL     1     -19.404 -44.842  23.051  1.00  0.00     0.342 C 
HETATM    2  C7  UNL     1     -19.840 -46.203  23.463  1.00  0.00     0.317 C 
HETATM    3  N2  UNL     1     -20.986 -46.689  22.718  1.00  0.00     0.088 N 
HETATM    4  C8  UNL     1     -21.318 -47.996  23.239  1.00  0.00     0.310 C 
HETATM    5  C9  UNL     1     -22.130 -45.819  22.935  1.00  0.00     0.302 C 
HETATM    6  C10 UNL     1     -21.683 -44.453  23.407  1.00  0.00     0.304 C 
HETATM    7  N3  UNL     1     -20.555 -44.037  22.605  1.00  0.00     0.111 N 
ENDROOT
BRANCH   1   8
HETATM    8  C5  UNL     1     -18.367 -44.927  21.984  1.00  0.00     0.253 C 
HETATM    9  N1  UNL     1     -16.987 -44.906  22.264  1.00  0.00    -0.359 N 
ATOM     10  H1  UNL     1     -16.684 -44.830  23.235  1.00  0.00     0.162 HD
HETATM   11  O1  UNL     1     -18.764 -45.019  20.799  1.00  0.00    -0.271 OA
BRANCH   9  12
HETATM   12  C4  UNL     1     -15.979 -44.988  21.218  1.00  0.00     0.126 C 
BRANCH  12  13
HETATM   13  C2  UNL     1     -15.958 -46.348  20.609  1.00  0.00    -0.005 C 
HETATM   14  C1  UNL     1     -14.709 -47.072  21.130  1.00  0.00     0.011 C 
HETATM   15  C3  UNL     1     -15.841 -46.210  19.122  1.00  0.00     0.011 C 
ENDBRANCH  12  13
ENDBRANCH   9  12
ENDBRANCH   1   8
BRANCH   7  16
HETATM   16  C11 UNL     1     -20.256 -42.629  22.768  1.00  0.00     0.242 C 
HETATM   17  C12 UNL     1     -20.837 -41.971  23.962  1.00  0.00     0.038 C 
HETATM   18  C13 UNL     1     -20.574 -40.477  23.878  1.00  0.00     0.006 C 
HETATM   19  C14 UNL     1     -21.065 -39.824  22.637  1.00  0.00    -0.017 C 
HETATM   20  C15 UNL     1     -22.081 -38.722  22.917  1.00  0.00     0.010 C 
HETATM   21  C16 UNL     1     -21.639 -40.844  21.703  1.00  0.00     0.026 C 
HETATM   22  C17 UNL     1     -20.547 -41.893  21.504  1.00  0.00     0.116 C 
HETATM   23 CL1  UNL     1     -21.045 -42.947  20.176  1.00  0.00    -0.123 Cl
ENDBRANCH   7  16
TORSDOF 4
ENDMDL
MODEL 3
REMARK VINA RESULT: -7.003431459      1.929      4.921
REMARK  4 active torsions:
REMARK  status: ('A' for Active; 'I' for Inactive)
REMARK    1  A    between atoms: C2_2  and  C4_4 
REMARK    2  A    between atoms: C4_4  and  N1_5 
REMARK       I    between atoms: N1_5  and  C5_7 
REMARK    3  A    between atoms: C5_7  and  C6_9 
REMARK    4  A    between atoms: N3_15  and  C11_16 
ROOT
HETATM    1  C6  UNL     1     -22.629 -45.476  26.316  1.00  0.00     0.342 C 
HETATM    2  C7  UNL     1     -22.796 -46.364  27.497  1.00  0.00     0.317 C 
HETATM    3  N2  UNL     1     -21.536 -46.810  28.063  1.00  0.00     0.088 N 
HETATM    4  C8  UNL     1     -21.845 -47.683  29.173  1.00  0.00     0.310 C 
HETATM    5  C9  UNL     1     -20.792 -47.583  27.082  1.00  0.00     0.302 C 
HETATM    6  C10 UNL     1     -21.264 -47.265  25.680  1.00  0.00     0.304 C 
HETATM    7  N3  UNL     1     -21.416 -45.833  25.561  1.00  0.00     0.111 N 
ENDROOT
BRANCH   1   8
HETATM    8  C5  UNL     1     -22.593 -44.048  26.739  1.00  0.00     0.253 C 
HETATM    9  N1  UNL     1     -21.436 -43.252  26.629  1.00  0.00    -0.359 N 
ATOM     10  H1  UNL     1     -20.588 -43.668  26.243  1.00  0.00     0.162 HD
HETATM   11  O1  UNL     1     -23.646 -43.558  27.210  1.00  0.00    -0.271 OA
BRANCH   9  12
HETATM   12  C4  UNL     1     -21.407 -41.858  27.045  1.00  0.00     0.126 C 
BRANCH  12  13
HETATM   13  C2  UNL     1     -21.804 -40.962  25.923  1.00  0.00    -0.005 C 
HETATM   14  C1  UNL     1     -21.050 -41.425  24.669  1.00  0.00     0.011 C 
HETATM   15  C3  UNL     1     -21.375 -39.563  26.246  1.00  0.00     0.011 C 
ENDBRANCH  12  13
ENDBRANCH   9  12
ENDBRANCH   1   8
BRANCH   7  16
HETATM   16  C11 UNL     1     -21.559 -45.410  24.183  1.00  0.00     0.242 C 
HETATM   17  C12 UNL     1     -22.209 -46.377  23.266  1.00  0.00     0.038 C 
HETATM   18  C13 UNL     1     -22.114 -45.848  21.845  1.00  0.00     0.006 C 
HETATM   19  C14 UNL     1     -20.736 -45.542  21.381  1.00  0.00    -0.017 C 
HETATM   20  C15 UNL     1     -20.337 -46.351  20.153  1.00  0.00     0.010 C 
HETATM   21  C16 UNL     1     -19.753 -45.752  22.491  1.00  0.00     0.026 C 
HETATM   22  C17 UNL     1     -20.255 -44.907  23.662  1.00  0.00     0.116 C 
HETATM   23 CL1  UNL     1     -18.980 -44.865  24.884  1.00  0.00    -0.123 Cl
ENDBRANCH   7  16
TORSDOF 4
ENDMDL
MODEL 4
REMARK VINA RESULT: -6.900593542      1.739      4.683
REMARK  4 active torsions:
REMARK  status: ('A' for Active; 'I' for Inactive)
REMARK    1  A    between atoms: C2_2  and  C4_4 
REMARK    2  A    between atoms: C4_4  and  N1_5 
REMARK       I    between atoms: N1_5  and  C5_7 
REMARK    3  A    between atoms: C5_7  and  C6_9 
REMARK    4  A    between atoms: N3_15  and  C11_16 
ROOT
HETATM    1  C6  UNL     1     -22.248 -44.300  25.910  1.00  0.00     0.342 C 
HETATM    2  C7  UNL     1     -22.782 -44.872  27.174  1.00  0.00     0.317 C 
HETATM    3  N2  UNL     1     -21.848 -45.758  27.843  1.00  0.00     0.088 N 
HETATM    4  C8  UNL     1     -22.503 -46.262  29.029  1.00  0.00     0.310 C 
HETATM    5  C9  UNL     1     -21.537 -46.893  26.990  1.00  0.00     0.302 C 
HETATM    6  C10 UNL     1     -21.830 -46.571  25.541  1.00  0.00     0.304 C 
HETATM    7  N3  UNL     1     -21.329 -45.246  25.255  1.00  0.00     0.111 N 
ENDROOT
BRANCH   1   8
HETATM    8  C5  UNL     1     -21.575 -42.996  26.171  1.00  0.00     0.253 C 
HETATM    9  N1  UNL     1     -22.113 -41.766  25.746  1.00  0.00    -0.359 N 
ATOM     10  H1  UNL     1     -22.999 -41.765  25.242  1.00  0.00     0.162 HD
HETATM   11  O1  UNL     1     -20.487 -43.022  26.793  1.00  0.00    -0.271 OA
BRANCH   9  12
HETATM   12  C4  UNL     1     -21.450 -40.496  26.003  1.00  0.00     0.126 C 
BRANCH  12  13
HETATM   13  C2  UNL     1     -20.941 -39.899  24.737  1.00  0.00    -0.005 C 
HETATM   14  C1  UNL     1     -22.008 -38.923  24.220  1.00  0.00     0.011 C 
HETATM   15  C3  UNL     1     -20.765 -40.989  23.724  1.00  0.00     0.011 C 
ENDBRANCH  12  13
ENDBRANCH   9  12
ENDBRANCH   1   8
BRANCH   7  16
HETATM   16  C11 UNL     1     -21.281 -44.974  23.833  1.00  0.00     0.242 C 
HETATM   17  C12 UNL     1     -22.165 -45.803  22.978  1.00  0.00     0.038 C 
HETATM   18  C13 UNL     1     -21.857 -45.507  21.520  1.00  0.00     0.006 C 
HETATM   19  C14 UNL     1     -20.435 -45.695  21.130  1.00  0.00    -0.017 C 
HETATM   20  C15 UNL     1     -20.262 -46.733  20.027  1.00  0.00     0.010 C 
HETATM   21  C16 UNL     1     -19.609 -46.055  22.326  1.00  0.00     0.026 C 
HETATM   22  C17 UNL     1     -19.867 -44.960  23.360  1.00  0.00     0.116 C 
HETATM   23 CL1  UNL     1     -18.689 -45.157  24.662  1.00  0.00    -0.123 Cl
ENDBRANCH   7  16
TORSDOF 4
ENDMDL
MODEL 5
REMARK VINA RESULT: -6.801123084      2.079      5.850
REMARK  4 active torsions:
REMARK  status: ('A' for Active; 'I' for Inactive)
REMARK    1  A    between atoms: C2_2  and  C4_4 
REMARK    2  A    between atoms: C4_4  and  N1_5 
REMARK       I    between atoms: N1_5  and  C5_7 
REMARK    3  A    between atoms: C5_7  and  C6_9 
REMARK    4  A    between atoms: N3_15  and  C11_16 
ROOT
HETATM    1  C6  UNL     1     -20.830 -43.711  26.261  1.00  0.00     0.342 C 
HETATM    2  C7  UNL     1     -20.828 -42.255  26.566  1.00  0.00     0.317 C 
HETATM    3  N2  UNL     1     -21.634 -41.474  25.646  1.00  0.00     0.088 N 
HETATM    4  C8  UNL     1     -21.516 -40.087  26.037  1.00  0.00     0.310 C 
HETATM    5  C9  UNL     1     -21.115 -41.601  24.294  1.00  0.00     0.302 C 
HETATM    6  C10 UNL     1     -20.274 -42.852  24.158  1.00  0.00     0.304 C 
HETATM    7  N3  UNL     1     -20.963 -43.941  24.812  1.00  0.00     0.111 N 
ENDROOT
BRANCH   1   8
HETATM    8  C5  UNL     1     -21.918 -44.399  27.012  1.00  0.00     0.253 C 
HETATM    9  N1  UNL     1     -21.671 -45.465  27.899  1.00  0.00    -0.359 N 
ATOM     10  H1  UNL     1     -20.710 -45.779  28.034  1.00  0.00     0.162 HD
HETATM   11  O1  UNL     1     -23.091 -43.995  26.830  1.00  0.00    -0.271 OA
BRANCH   9  12
HETATM   12  C4  UNL     1     -22.738 -46.134  28.629  1.00  0.00     0.126 C 
BRANCH  12  13
HETATM   13  C2  UNL     1     -22.331 -47.514  29.013  1.00  0.00    -0.005 C 
HETATM   14  C1  UNL     1     -21.358 -48.028  27.943  1.00  0.00     0.011 C 
HETATM   15  C3  UNL     1     -23.544 -48.394  29.014  1.00  0.00     0.011 C 
ENDBRANCH  12  13
ENDBRANCH   9  12
ENDBRANCH   1   8
BRANCH   7  16
HETATM   16  C11 UNL     1     -20.397 -45.231  24.471  1.00  0.00     0.242 C 
HETATM   17  C12 UNL     1     -18.917 -45.317  24.473  1.00  0.00     0.038 C 
HETATM   18  C13 UNL     1     -18.503 -46.672  23.926  1.00  0.00     0.006 C 
HETATM   19  C14 UNL     1     -19.038 -46.993  22.577  1.00  0.00    -0.017 C 
HETATM   20  C15 UNL     1     -17.936 -47.242  21.553  1.00  0.00     0.010 C 
HETATM   21  C16 UNL     1     -19.956 -45.907  22.108  1.00  0.00     0.026 C 
HETATM   22  C17 UNL     1     -21.004 -45.739  23.207  1.00  0.00     0.116 C 
HETATM   23 CL1  UNL     1     -22.287 -44.701  22.577  1.00  0.00    -0.123 Cl
ENDBRANCH   7  16
TORSDOF 4
ENDMDL
