MODEL 1
REMARK VINA RESULT: -7.060654483      0.000      0.000
REMARK  2 active torsions:
REMARK  status: ('A' for Active; 'I' for Inactive)
REMARK    1  A    between atoms: C1_2  and  N1_3 
REMARK    2  A    between atoms: N1_3  and  C2_5 
ROOT
HETATM    1  C2  UNL     1      -3.122  -4.287  17.518  1.00  0.00     0.088 C 
HETATM    2  C3  UNL     1      -2.046  -4.666  16.540  1.00  0.00     0.031 C 
HETATM    3  C4  UNL     1      -2.466  -3.934  15.283  1.00  0.00    -0.003 A 
HETATM    4  C5  UNL     1      -3.256  -2.699  15.340  1.00  0.00    -0.005 A 
HETATM    5  C6  UNL     1      -4.250  -2.393  16.407  1.00  0.00     0.012 C 
HETATM    6  C7  UNL     1      -4.332  -3.898  16.689  1.00  0.00     0.013 C 
HETATM    7  C8  UNL     1      -3.916  -4.107  15.280  1.00  0.00     0.001 A 
ENDROOT
BRANCH   1   8
HETATM    8  N1  UNL     1      -3.424  -5.342  18.453  1.00  0.00    -0.363 N 
ATOM      9  H1  UNL     1      -3.080  -5.272  19.410  1.00  0.00     0.162 HD
BRANCH   8  10
HETATM   10  C1  UNL     1      -4.189  -6.476  18.071  1.00  0.00     0.348 C 
HETATM   11  O1  UNL     1      -3.610  -7.567  17.836  1.00  0.00    -0.284 OA
ENDBRANCH   8  10
ENDBRANCH   1   8
TORSDOF 2
ENDMDL
MODEL 2
REMARK VINA RESULT: -6.751170571      2.664      4.092
REMARK  2 active torsions:
REMARK  status: ('A' for Active; 'I' for Inactive)
REMARK    1  A    between atoms: C1_2  and  N1_3 
REMARK    2  A    between atoms: N1_3  and  C2_5 
ROOT
HETATM    1  C2  UNL     1      -4.921  -4.701  16.516  1.00  0.00     0.088 C 
HETATM    2  C3  UNL     1      -3.555  -5.182  16.919  1.00  0.00     0.031 C 
HETATM    3  C4  UNL     1      -3.865  -6.438  17.706  1.00  0.00    -0.003 A 
HETATM    4  C5  UNL     1      -5.073  -7.229  17.450  1.00  0.00    -0.005 A 
HETATM    5  C6  UNL     1      -6.363  -6.651  16.976  1.00  0.00     0.012 C 
HETATM    6  C7  UNL     1      -5.894  -5.296  17.517  1.00  0.00     0.013 C 
HETATM    7  C8  UNL     1      -5.048  -6.056  18.471  1.00  0.00     0.001 A 
ENDROOT
BRANCH   1   8
HETATM    8  N1  UNL     1      -5.013  -3.264  16.460  1.00  0.00    -0.363 N 
ATOM      9  H1  UNL     1      -5.910  -2.815  16.641  1.00  0.00     0.162 HD
BRANCH   8  10
HETATM   10  C1  UNL     1      -3.882  -2.458  16.160  1.00  0.00     0.348 C 
HETATM   11  O1  UNL     1      -4.039  -1.242  15.887  1.00  0.00    -0.284 OA
ENDBRANCH   8  10
ENDBRANCH   1   8
TORSDOF 2
ENDMDL
MODEL 3
REMARK VINA RESULT: -6.671089880      2.758      4.051
REMARK  2 active torsions:
REMARK  status: ('A' for Active; 'I' for Inactive)
REMARK    1  A    between atoms: C1_2  and  N1_3 
REMARK    2  A    between atoms: N1_3  and  C2_5 
ROOT
HETATM    1  C2  UNL     1      -3.614  -3.825  17.067  1.00  0.00     0.088 C 
HETATM    2  C3  UNL     1      -4.988  -4.176  16.569  1.00  0.00     0.031 C 
HETATM    3  C4  UNL     1      -5.211  -5.555  17.155  1.00  0.00    -0.003 A 
HETATM    4  C5  UNL     1      -4.552  -5.980  18.394  1.00  0.00    -0.005 A 
HETATM    5  C6  UNL     1      -3.208  -5.505  18.829  1.00  0.00     0.012 C 
HETATM    6  C7  UNL     1      -2.922  -5.141  17.368  1.00  0.00     0.013 C 
HETATM    7  C8  UNL     1      -3.906  -6.188  16.995  1.00  0.00     0.001 A 
ENDROOT
BRANCH   1   8
HETATM    8  N1  UNL     1      -2.868  -3.023  16.130  1.00  0.00    -0.363 N 
ATOM      9  H1  UNL     1      -1.921  -3.304  15.878  1.00  0.00     0.162 HD
BRANCH   8  10
HETATM   10  C1  UNL     1      -3.424  -1.853  15.547  1.00  0.00     0.348 C 
HETATM   11  O1  UNL     1      -2.673  -1.033  14.961  1.00  0.00    -0.284 OA
ENDBRANCH   8  10
ENDBRANCH   1   8
TORSDOF 2
ENDMDL
MODEL 4
REMARK VINA RESULT: -6.593831966      2.402      3.686
REMARK  2 active torsions:
REMARK  status: ('A' for Active; 'I' for Inactive)
REMARK    1  A    between atoms: C1_2  and  N1_3 
REMARK    2  A    between atoms: N1_3  and  C2_5 
ROOT
HETATM    1  C2  UNL     1      -3.423  -3.958  17.066  1.00  0.00     0.088 C 
HETATM    2  C3  UNL     1      -4.820  -3.980  16.513  1.00  0.00     0.031 C 
HETATM    3  C4  UNL     1      -5.378  -5.272  17.073  1.00  0.00    -0.003 A 
HETATM    4  C5  UNL     1      -4.884  -5.843  18.330  1.00  0.00    -0.005 A 
HETATM    5  C6  UNL     1      -3.484  -5.694  18.820  1.00  0.00     0.012 C 
HETATM    6  C7  UNL     1      -3.066  -5.400  17.375  1.00  0.00     0.013 C 
HETATM    7  C8  UNL     1      -4.249  -6.189  16.953  1.00  0.00     0.001 A 
ENDROOT
BRANCH   1   8
HETATM    8  N1  UNL     1      -2.477  -3.347  16.167  1.00  0.00    -0.363 N 
ATOM      9  H1  UNL     1      -2.336  -2.338  16.203  1.00  0.00     0.162 HD
BRANCH   8  10
HETATM   10  C1  UNL     1      -1.735  -4.118  15.233  1.00  0.00     0.348 C 
HETATM   11  O1  UNL     1      -0.706  -3.631  14.701  1.00  0.00    -0.284 OA
ENDBRANCH   8  10
ENDBRANCH   1   8
TORSDOF 2
ENDMDL
MODEL 5
REMARK VINA RESULT: -6.463558489      2.441      3.431
REMARK  2 active torsions:
REMARK  status: ('A' for Active; 'I' for Inactive)
REMARK    1  A    between atoms: C1_2  and  N1_3 
REMARK    2  A    between atoms: N1_3  and  C2_5 
ROOT
HETATM    1  C2  UNL     1      -2.694  -4.214  17.091  1.00  0.00     0.088 C 
HETATM    2  C3  UNL     1      -3.552  -3.028  16.748  1.00  0.00     0.031 C 
HETATM    3  C4  UNL     1      -4.917  -3.651  16.548  1.00  0.00    -0.003 A 
HETATM    4  C5  UNL     1      -5.304  -4.891  17.229  1.00  0.00    -0.005 A 
HETATM    5  C6  UNL     1      -4.349  -5.977  17.591  1.00  0.00     0.012 C 
HETATM    6  C7  UNL     1      -3.401  -5.428  16.518  1.00  0.00     0.013 C 
HETATM    7  C8  UNL     1      -4.606  -4.888  15.839  1.00  0.00     0.001 A 
ENDROOT
BRANCH   1   8
HETATM    8  N1  UNL     1      -1.346  -4.090  16.598  1.00  0.00    -0.363 N 
ATOM      9  H1  UNL     1      -0.576  -4.038  17.264  1.00  0.00     0.162 HD
BRANCH   8  10
HETATM   10  C1  UNL     1      -1.066  -4.039  15.207  1.00  0.00     0.348 C 
HETATM   11  O1  UNL     1      -0.489  -3.032  14.724  1.00  0.00    -0.284 OA
ENDBRANCH   8  10
ENDBRANCH   1   8
TORSDOF 2
ENDMDL
