MODEL 1
REMARK VINA RESULT: -8.305079144      0.000      0.000
REMARK  11 active torsions:
REMARK  status: ('A' for Active; 'I' for Inactive)
REMARK    1  A    between atoms: C2_2  and  C3_4 
REMARK    2  A    between atoms: C3_4  and  O2_5 
REMARK    3  A    between atoms: C6_9  and  O3_10 
REMARK    4  A    between atoms: C12_18  and  C13_19 
REMARK    5  A    between atoms: C13_19  and  C14_20 
REMARK    6  A    between atoms: C14_20  and  C16_22 
REMARK    7  A    between atoms: C16_22  and  N1_23 
REMARK    8  A    between atoms: C16_22  and  C17_27 
REMARK    9  A    between atoms: C17_27  and  C18_29 
REMARK   10  A    between atoms: C18_29  and  O6_31 
REMARK   11  A    between atoms: O6_31  and  C20_32 
ROOT
HETATM    1  C3  UNL     1       3.724  16.936  87.144  1.00  0.00     0.141 C 
HETATM    2  C4  UNL     1       4.480  16.630  88.437  1.00  0.00     0.056 C 
HETATM    3  C5  UNL     1       5.608  15.658  88.297  1.00  0.00     0.075 C 
HETATM    4  C6  UNL     1       6.917  16.313  88.593  1.00  0.00     0.189 A 
HETATM    5  O4  UNL     1       7.978  15.629  87.809  1.00  0.00    -0.341 OA
HETATM    6  C7  UNL     1       7.624  17.054  87.693  1.00  0.00     0.195 A 
HETATM    7  C8  UNL     1       7.119  17.449  86.329  1.00  0.00    -0.012 C 
HETATM    8  C9  UNL     1       7.348  16.383  85.294  1.00  0.00     0.018 C 
HETATM    9  C10 UNL     1       8.119  18.531  85.827  1.00  0.00     0.018 C 
HETATM   10  C11 UNL     1       5.785  18.102  86.308  1.00  0.00     0.049 C 
HETATM   11  C12 UNL     1       4.588  17.221  85.997  1.00  0.00    -0.041 C 
ENDROOT
BRANCH  11  12
HETATM   12  C13 UNL     1       3.975  17.493  84.691  1.00  0.00    -0.014 C 
BRANCH  12  13
HETATM   13  C14 UNL     1       3.686  18.763  84.082  1.00  0.00     0.042 C 
HETATM   14  C15 UNL     1       3.956  20.079  84.665  1.00  0.00     0.016 C 
BRANCH  13  15
HETATM   15  C16 UNL     1       2.159  18.768  83.786  1.00  0.00     0.262 C 
BRANCH  15  16
HETATM   16  N1  UNL     1       1.427  17.848  84.568  1.00  0.00    -0.068 N 
ATOM     17  H13 UNL     1       0.568  17.574  84.092  1.00  0.00     0.275 HD
ATOM     18  H12 UNL     1       1.900  16.945  84.599  1.00  0.00     0.275 HD
ATOM     19  H11 UNL     1       1.225  18.181  85.511  1.00  0.00     0.275 HD
ENDBRANCH  15  16
BRANCH  15  20
HETATM   20  C17 UNL     1       1.834  18.650  82.361  1.00  0.00     0.186 C 
HETATM   21  O5  UNL     1       2.669  19.095  81.553  1.00  0.00    -0.293 OA
BRANCH  20  22
HETATM   22  C18 UNL     1       0.579  18.033  81.835  1.00  0.00     0.199 C 
HETATM   23  C19 UNL     1      -0.600  18.764  82.446  1.00  0.00     0.048 C 
BRANCH  22  24
HETATM   24  O6  UNL     1       0.566  16.674  82.157  1.00  0.00    -0.312 OA
BRANCH  24  25
HETATM   25  C20 UNL     1       0.104  15.664  81.347  1.00  0.00     0.225 C 
HETATM   26  N2  UNL     1       0.641  15.548  80.192  1.00  0.00    -0.368 N 
ATOM     27  H22 UNL     1       1.378  16.194  79.911  1.00  0.00     0.159 HD
ATOM     28  H21 UNL     1       0.299  14.798  79.592  1.00  0.00     0.159 HD
HETATM   29  N3  UNL     1      -0.921  14.765  81.739  1.00  0.00    -0.057 NA
ENDBRANCH  24  25
ENDBRANCH  22  24
ENDBRANCH  20  22
ENDBRANCH  15  20
ENDBRANCH  13  15
ENDBRANCH  12  13
ENDBRANCH  11  12
BRANCH   1  30
HETATM   30  C2  UNL     1       2.823  15.760  86.951  1.00  0.00     0.161 C 
HETATM   31  C1  UNL     1       3.240  14.388  86.667  1.00  0.00     0.094 C 
HETATM   32  O1  UNL     1       1.625  15.967  87.037  1.00  0.00    -0.295 OA
ENDBRANCH   1  30
BRANCH   1  33
HETATM   33  O2  UNL     1       2.850  17.952  87.560  1.00  0.00    -0.377 OA
ATOM     34  H2  UNL     1       3.409  18.532  88.063  1.00  0.00     0.211 HD
ENDBRANCH   1  33
BRANCH   4  35
HETATM   35  O3  UNL     1       7.197  16.397  89.963  1.00  0.00    -0.363 OA
ATOM     36  H3  UNL     1       7.831  15.754  90.257  1.00  0.00     0.213 HD
ENDBRANCH   4  35
TORSDOF 11
ENDMDL
MODEL 2
REMARK VINA RESULT: -8.174933653      0.973      1.146
REMARK  11 active torsions:
REMARK  status: ('A' for Active; 'I' for Inactive)
REMARK    1  A    between atoms: C2_2  and  C3_4 
REMARK    2  A    between atoms: C3_4  and  O2_5 
REMARK    3  A    between atoms: C6_9  and  O3_10 
REMARK    4  A    between atoms: C12_18  and  C13_19 
REMARK    5  A    between atoms: C13_19  and  C14_20 
REMARK    6  A    between atoms: C14_20  and  C16_22 
REMARK    7  A    between atoms: C16_22  and  N1_23 
REMARK    8  A    between atoms: C16_22  and  C17_27 
REMARK    9  A    between atoms: C17_27  and  C18_29 
REMARK   10  A    between atoms: C18_29  and  O6_31 
REMARK   11  A    between atoms: O6_31  and  C20_32 
ROOT
HETATM    1  C3  UNL     1       3.633  16.937  87.126  1.00  0.00     0.141 C 
HETATM    2  C4  UNL     1       4.407  16.675  88.417  1.00  0.00     0.056 C 
HETATM    3  C5  UNL     1       5.551  15.721  88.289  1.00  0.00     0.075 C 
HETATM    4  C6  UNL     1       6.851  16.406  88.557  1.00  0.00     0.189 A 
HETATM    5  O4  UNL     1       7.916  15.722  87.778  1.00  0.00    -0.341 OA
HETATM    6  C7  UNL     1       7.535  17.138  87.632  1.00  0.00     0.195 A 
HETATM    7  C8  UNL     1       7.010  17.491  86.264  1.00  0.00    -0.012 C 
HETATM    8  C9  UNL     1       7.248  16.404  85.252  1.00  0.00     0.018 C 
HETATM    9  C10 UNL     1       7.985  18.577  85.725  1.00  0.00     0.018 C 
HETATM   10  C11 UNL     1       5.664  18.119  86.241  1.00  0.00     0.049 C 
HETATM   11  C12 UNL     1       4.480  17.209  85.963  1.00  0.00    -0.041 C 
ENDROOT
BRANCH  11  12
HETATM   12  C13 UNL     1       3.850  17.439  84.658  1.00  0.00    -0.014 C 
BRANCH  12  13
HETATM   13  C14 UNL     1       3.893  18.617  83.834  1.00  0.00     0.042 C 
HETATM   14  C15 UNL     1       5.016  19.551  83.727  1.00  0.00     0.016 C 
BRANCH  13  15
HETATM   15  C16 UNL     1       2.687  19.498  84.268  1.00  0.00     0.262 C 
BRANCH  15  16
HETATM   16  N1  UNL     1       2.867  20.129  85.518  1.00  0.00    -0.068 N 
ATOM     17  H13 UNL     1       3.812  19.971  85.869  1.00  0.00     0.275 HD
ATOM     18  H12 UNL     1       2.892  21.143  85.410  1.00  0.00     0.275 HD
ATOM     19  H11 UNL     1       2.174  19.858  86.217  1.00  0.00     0.275 HD
ENDBRANCH  15  16
BRANCH  15  20
HETATM   20  C17 UNL     1       1.395  18.810  84.186  1.00  0.00     0.186 C 
HETATM   21  O5  UNL     1       0.851  18.501  85.262  1.00  0.00    -0.293 OA
BRANCH  20  22
HETATM   22  C18 UNL     1       0.706  18.470  82.905  1.00  0.00     0.199 C 
HETATM   23  C19 UNL     1      -0.736  18.923  83.008  1.00  0.00     0.048 C 
BRANCH  22  24
HETATM   24  O6  UNL     1       0.799  17.094  82.683  1.00  0.00    -0.312 OA
BRANCH  24  25
HETATM   25  C20 UNL     1       0.374  16.433  81.556  1.00  0.00     0.225 C 
HETATM   26  N2  UNL     1       0.782  16.878  80.428  1.00  0.00    -0.368 N 
ATOM     27  H22 UNL     1       1.397  17.691  80.398  1.00  0.00     0.159 HD
ATOM     28  H21 UNL     1       0.467  16.387  79.592  1.00  0.00     0.159 HD
HETATM   29  N3  UNL     1      -0.480  15.302  81.598  1.00  0.00    -0.057 NA
ENDBRANCH  24  25
ENDBRANCH  22  24
ENDBRANCH  20  22
ENDBRANCH  15  20
ENDBRANCH  13  15
ENDBRANCH  12  13
ENDBRANCH  11  12
BRANCH   1  30
HETATM   30  C2  UNL     1       2.752  15.741  86.971  1.00  0.00     0.161 C 
HETATM   31  C1  UNL     1       3.190  14.373  86.697  1.00  0.00     0.094 C 
HETATM   32  O1  UNL     1       1.552  15.925  87.081  1.00  0.00    -0.295 OA
ENDBRANCH   1  30
BRANCH   1  33
HETATM   33  O2  UNL     1       2.745  17.947  87.526  1.00  0.00    -0.377 OA
ATOM     34  H2  UNL     1       2.306  18.188  86.719  1.00  0.00     0.211 HD
ENDBRANCH   1  33
BRANCH   4  35
HETATM   35  O3  UNL     1       7.142  16.528  89.921  1.00  0.00    -0.363 OA
ATOM     36  H3  UNL     1       7.118  15.700  90.386  1.00  0.00     0.213 HD
ENDBRANCH   4  35
TORSDOF 11
ENDMDL
MODEL 3
REMARK VINA RESULT: -8.097938901      4.123      8.249
REMARK  11 active torsions:
REMARK  status: ('A' for Active; 'I' for Inactive)
REMARK    1  A    between atoms: C2_2  and  C3_4 
REMARK    2  A    between atoms: C3_4  and  O2_5 
REMARK    3  A    between atoms: C6_9  and  O3_10 
REMARK    4  A    between atoms: C12_18  and  C13_19 
REMARK    5  A    between atoms: C13_19  and  C14_20 
REMARK    6  A    between atoms: C14_20  and  C16_22 
REMARK    7  A    between atoms: C16_22  and  N1_23 
REMARK    8  A    between atoms: C16_22  and  C17_27 
REMARK    9  A    between atoms: C17_27  and  C18_29 
REMARK   10  A    between atoms: C18_29  and  O6_31 
REMARK   11  A    between atoms: O6_31  and  C20_32 
ROOT
HETATM    1  C3  UNL     1       4.053  15.621  86.515  1.00  0.00     0.141 C 
HETATM    2  C4  UNL     1       2.781  16.064  85.792  1.00  0.00     0.056 C 
HETATM    3  C5  UNL     1       2.462  17.521  85.904  1.00  0.00     0.075 C 
HETATM    4  C6  UNL     1       2.532  18.189  84.570  1.00  0.00     0.189 A 
HETATM    5  O4  UNL     1       2.915  19.610  84.771  1.00  0.00    -0.341 OA
HETATM    6  C7  UNL     1       3.687  18.626  83.992  1.00  0.00     0.195 A 
HETATM    7  C8  UNL     1       5.067  18.362  84.537  1.00  0.00    -0.012 C 
HETATM    8  C9  UNL     1       5.477  19.359  85.585  1.00  0.00     0.018 C 
HETATM    9  C10 UNL     1       6.037  18.765  83.389  1.00  0.00     0.018 C 
HETATM   10  C11 UNL     1       5.374  16.939  84.834  1.00  0.00     0.049 C 
HETATM   11  C12 UNL     1       5.212  16.483  86.274  1.00  0.00    -0.041 C 
ENDROOT
BRANCH  11  12
HETATM   12  C13 UNL     1       6.481  16.179  86.945  1.00  0.00    -0.014 C 
BRANCH  12  13
HETATM   13  C14 UNL     1       7.420  17.087  87.546  1.00  0.00     0.042 C 
HETATM   14  C15 UNL     1       8.438  17.865  86.837  1.00  0.00     0.016 C 
BRANCH  13  15
HETATM   15  C16 UNL     1       8.214  16.262  88.598  1.00  0.00     0.262 C 
BRANCH  15  16
HETATM   16  N1  UNL     1       7.849  14.899  88.643  1.00  0.00    -0.068 N 
ATOM     17  H13 UNL     1       7.131  14.695  87.948  1.00  0.00     0.275 HD
ATOM     18  H12 UNL     1       8.603  14.312  88.288  1.00  0.00     0.275 HD
ATOM     19  H11 UNL     1       7.553  14.585  89.568  1.00  0.00     0.275 HD
ENDBRANCH  15  16
BRANCH  15  20
HETATM   20  C17 UNL     1       8.227  16.867  89.934  1.00  0.00     0.186 C 
HETATM   21  O5  UNL     1       7.181  16.778  90.603  1.00  0.00    -0.293 OA
BRANCH  20  22
HETATM   22  C18 UNL     1       9.406  17.567  90.527  1.00  0.00     0.199 C 
HETATM   23  C19 UNL     1      10.559  17.460  89.550  1.00  0.00     0.048 C 
BRANCH  22  24
HETATM   24  O6  UNL     1       9.716  16.983  91.757  1.00  0.00    -0.312 OA
BRANCH  24  25
HETATM   25  C20 UNL     1       9.599  17.590  92.984  1.00  0.00     0.225 C 
HETATM   26  N2  UNL     1       8.416  17.799  93.423  1.00  0.00    -0.368 N 
ATOM     27  H22 UNL     1       7.612  17.516  92.863  1.00  0.00     0.159 HD
ATOM     28  H21 UNL     1       8.329  18.249  94.334  1.00  0.00     0.159 HD
HETATM   29  N3  UNL     1      10.717  17.984  93.764  1.00  0.00    -0.057 NA
ENDBRANCH  24  25
ENDBRANCH  22  24
ENDBRANCH  20  22
ENDBRANCH  15  20
ENDBRANCH  13  15
ENDBRANCH  12  13
ENDBRANCH  11  12
BRANCH   1  30
HETATM   30  C2  UNL     1       3.652  15.527  87.950  1.00  0.00     0.161 C 
HETATM   31  C1  UNL     1       3.061  14.363  88.610  1.00  0.00     0.094 C 
HETATM   32  O1  UNL     1       3.832  16.518  88.637  1.00  0.00    -0.295 OA
ENDBRANCH   1  30
BRANCH   1  33
HETATM   33  O2  UNL     1       4.154  14.280  86.116  1.00  0.00    -0.377 OA
ATOM     34  H2  UNL     1       3.301  14.096  85.739  1.00  0.00     0.211 HD
ENDBRANCH   1  33
BRANCH   4  35
HETATM   35  O3  UNL     1       1.370  18.022  83.806  1.00  0.00    -0.363 OA
ATOM     36  H3  UNL     1       1.030  18.837  83.457  1.00  0.00     0.213 HD
ENDBRANCH   4  35
TORSDOF 11
ENDMDL
MODEL 4
REMARK VINA RESULT: -7.992651538      1.353      1.685
REMARK  11 active torsions:
REMARK  status: ('A' for Active; 'I' for Inactive)
REMARK    1  A    between atoms: C2_2  and  C3_4 
REMARK    2  A    between atoms: C3_4  and  O2_5 
REMARK    3  A    between atoms: C6_9  and  O3_10 
REMARK    4  A    between atoms: C12_18  and  C13_19 
REMARK    5  A    between atoms: C13_19  and  C14_20 
REMARK    6  A    between atoms: C14_20  and  C16_22 
REMARK    7  A    between atoms: C16_22  and  N1_23 
REMARK    8  A    between atoms: C16_22  and  C17_27 
REMARK    9  A    between atoms: C17_27  and  C18_29 
REMARK   10  A    between atoms: C18_29  and  O6_31 
REMARK   11  A    between atoms: O6_31  and  C20_32 
ROOT
HETATM    1  C3  UNL     1       3.608  16.877  87.192  1.00  0.00     0.141 C 
HETATM    2  C4  UNL     1       4.408  16.587  88.461  1.00  0.00     0.056 C 
HETATM    3  C5  UNL     1       5.552  15.639  88.288  1.00  0.00     0.075 C 
HETATM    4  C6  UNL     1       6.856  16.320  88.545  1.00  0.00     0.189 A 
HETATM    5  O4  UNL     1       7.906  15.657  87.730  1.00  0.00    -0.341 OA
HETATM    6  C7  UNL     1       7.520  17.075  87.624  1.00  0.00     0.195 A 
HETATM    7  C8  UNL     1       6.966  17.459  86.276  1.00  0.00    -0.012 C 
HETATM    8  C9  UNL     1       7.186  16.398  85.235  1.00  0.00     0.018 C 
HETATM    9  C10 UNL     1       7.929  18.561  85.744  1.00  0.00     0.018 C 
HETATM   10  C11 UNL     1       5.619  18.085  86.295  1.00  0.00     0.049 C 
HETATM   11  C12 UNL     1       4.431  17.179  86.020  1.00  0.00    -0.041 C 
ENDROOT
BRANCH  11  12
HETATM   12  C13 UNL     1       3.775  17.438  84.733  1.00  0.00    -0.014 C 
BRANCH  12  13
HETATM   13  C14 UNL     1       3.543  18.698  84.080  1.00  0.00     0.042 C 
HETATM   14  C15 UNL     1       3.964  20.012  84.571  1.00  0.00     0.016 C 
BRANCH  13  15
HETATM   15  C16 UNL     1       2.003  18.819  83.898  1.00  0.00     0.262 C 
BRANCH  15  16
HETATM   16  N1  UNL     1       1.260  18.142  84.890  1.00  0.00    -0.068 N 
ATOM     17  H13 UNL     1       1.663  18.302  85.813  1.00  0.00     0.275 HD
ATOM     18  H12 UNL     1       0.350  18.583  85.021  1.00  0.00     0.275 HD
ATOM     19  H11 UNL     1       1.154  17.143  84.712  1.00  0.00     0.275 HD
ENDBRANCH  15  16
BRANCH  15  20
HETATM   20  C17 UNL     1       1.540  18.483  82.547  1.00  0.00     0.186 C 
HETATM   21  O5  UNL     1       2.244  18.871  81.598  1.00  0.00    -0.293 OA
BRANCH  20  22
HETATM   22  C18 UNL     1       0.295  17.711  82.255  1.00  0.00     0.199 C 
HETATM   23  C19 UNL     1       0.594  16.737  81.135  1.00  0.00     0.048 C 
BRANCH  22  24
HETATM   24  O6  UNL     1      -0.725  18.599  81.908  1.00  0.00    -0.312 OA
BRANCH  24  25
HETATM   25  C20 UNL     1      -1.812  18.916  82.687  1.00  0.00     0.225 C 
HETATM   26  N2  UNL     1      -1.709  19.941  83.445  1.00  0.00    -0.368 N 
ATOM     27  H22 UNL     1      -0.844  20.481  83.449  1.00  0.00     0.159 HD
ATOM     28  H21 UNL     1      -2.515  20.177  84.023  1.00  0.00     0.159 HD
HETATM   29  N3  UNL     1      -3.015  18.165  82.681  1.00  0.00    -0.057 NA
ENDBRANCH  24  25
ENDBRANCH  22  24
ENDBRANCH  20  22
ENDBRANCH  15  20
ENDBRANCH  13  15
ENDBRANCH  12  13
ENDBRANCH  11  12
BRANCH   1  30
HETATM   30  C2  UNL     1       2.727  15.683  87.026  1.00  0.00     0.161 C 
HETATM   31  C1  UNL     1       3.166  14.306  86.804  1.00  0.00     0.094 C 
HETATM   32  O1  UNL     1       1.525  15.877  87.079  1.00  0.00    -0.295 OA
ENDBRANCH   1  30
BRANCH   1  33
HETATM   33  O2  UNL     1       2.726  17.875  87.634  1.00  0.00    -0.377 OA
ATOM     34  H2  UNL     1       2.980  18.636  87.124  1.00  0.00     0.211 HD
ENDBRANCH   1  33
BRANCH   4  35
HETATM   35  O3  UNL     1       7.174  16.412  89.906  1.00  0.00    -0.363 OA
ATOM     36  H3  UNL     1       6.867  17.215  90.311  1.00  0.00     0.213 HD
ENDBRANCH   4  35
TORSDOF 11
ENDMDL
MODEL 5
REMARK VINA RESULT: -7.940710500      2.085      3.564
REMARK  11 active torsions:
REMARK  status: ('A' for Active; 'I' for Inactive)
REMARK    1  A    between atoms: C2_2  and  C3_4 
REMARK    2  A    between atoms: C3_4  and  O2_5 
REMARK    3  A    between atoms: C6_9  and  O3_10 
REMARK    4  A    between atoms: C12_18  and  C13_19 
REMARK    5  A    between atoms: C13_19  and  C14_20 
REMARK    6  A    between atoms: C14_20  and  C16_22 
REMARK    7  A    between atoms: C16_22  and  N1_23 
REMARK    8  A    between atoms: C16_22  and  C17_27 
REMARK    9  A    between atoms: C17_27  and  C18_29 
REMARK   10  A    between atoms: C18_29  and  O6_31 
REMARK   11  A    between atoms: O6_31  and  C20_32 
ROOT
HETATM    1  C3  UNL     1       3.666  16.823  87.234  1.00  0.00     0.141 C 
HETATM    2  C4  UNL     1       4.454  16.519  88.508  1.00  0.00     0.056 C 
HETATM    3  C5  UNL     1       5.598  15.571  88.335  1.00  0.00     0.075 C 
HETATM    4  C6  UNL     1       6.900  16.247  88.611  1.00  0.00     0.189 A 
HETATM    5  O4  UNL     1       7.957  15.591  87.799  1.00  0.00    -0.341 OA
HETATM    6  C7  UNL     1       7.574  17.011  87.704  1.00  0.00     0.195 A 
HETATM    7  C8  UNL     1       7.034  17.410  86.355  1.00  0.00    -0.012 C 
HETATM    8  C9  UNL     1       7.262  16.358  85.305  1.00  0.00     0.018 C 
HETATM    9  C10 UNL     1       8.002  18.515  85.843  1.00  0.00     0.018 C 
HETATM   10  C11 UNL     1       5.687  18.037  86.368  1.00  0.00     0.049 C 
HETATM   11  C12 UNL     1       4.501  17.136  86.072  1.00  0.00    -0.041 C 
ENDROOT
BRANCH  11  12
HETATM   12  C13 UNL     1       3.857  17.409  84.782  1.00  0.00    -0.014 C 
BRANCH  12  13
HETATM   13  C14 UNL     1       3.675  18.672  84.118  1.00  0.00     0.042 C 
HETATM   14  C15 UNL     1       4.587  19.816  84.179  1.00  0.00     0.016 C 
BRANCH  13  15
HETATM   15  C16 UNL     1       2.308  19.230  84.609  1.00  0.00     0.262 C 
BRANCH  15  16
HETATM   16  N1  UNL     1       1.377  18.227  84.955  1.00  0.00    -0.068 N 
ATOM     17  H13 UNL     1       1.612  17.813  85.857  1.00  0.00     0.275 HD
ATOM     18  H12 UNL     1       0.473  18.640  85.187  1.00  0.00     0.275 HD
ATOM     19  H11 UNL     1       1.271  17.504  84.244  1.00  0.00     0.275 HD
ENDBRANCH  15  16
BRANCH  15  20
HETATM   20  C17 UNL     1       1.723  20.230  83.710  1.00  0.00     0.186 C 
HETATM   21  O5  UNL     1       1.645  19.928  82.505  1.00  0.00    -0.293 OA
BRANCH  20  22
HETATM   22  C18 UNL     1       1.220  21.565  84.154  1.00  0.00     0.199 C 
HETATM   23  C19 UNL     1       2.167  22.625  83.630  1.00  0.00     0.048 C 
BRANCH  22  24
HETATM   24  O6  UNL     1       1.143  21.586  85.548  1.00  0.00    -0.312 OA
BRANCH  24  25
HETATM   25  C20 UNL     1       1.747  22.507  86.370  1.00  0.00     0.225 C 
HETATM   26  N2  UNL     1       1.054  23.524  86.719  1.00  0.00    -0.368 N 
ATOM     27  H22 UNL     1       0.095  23.620  86.386  1.00  0.00     0.159 HD
ATOM     28  H21 UNL     1       1.502  24.207  87.330  1.00  0.00     0.159 HD
HETATM   29  N3  UNL     1       3.080  22.373  86.834  1.00  0.00    -0.057 NA
ENDBRANCH  24  25
ENDBRANCH  22  24
ENDBRANCH  20  22
ENDBRANCH  15  20
ENDBRANCH  13  15
ENDBRANCH  12  13
ENDBRANCH  11  12
BRANCH   1  30
HETATM   30  C2  UNL     1       2.785  15.633  87.048  1.00  0.00     0.161 C 
HETATM   31  C1  UNL     1       3.224  14.261  86.793  1.00  0.00     0.094 C 
HETATM   32  O1  UNL     1       1.583  15.824  87.113  1.00  0.00    -0.295 OA
ENDBRANCH   1  30
BRANCH   1  33
HETATM   33  O2  UNL     1       2.782  17.818  87.678  1.00  0.00    -0.377 OA
ATOM     34  H2  UNL     1       3.019  17.933  88.591  1.00  0.00     0.211 HD
ENDBRANCH   1  33
BRANCH   4  35
HETATM   35  O3  UNL     1       7.206  16.324  89.975  1.00  0.00    -0.363 OA
ATOM     36  H3  UNL     1       7.436  17.201  90.261  1.00  0.00     0.213 HD
ENDBRANCH   4  35
TORSDOF 11
ENDMDL
