MODEL 1
REMARK VINA RESULT: -7.389885806      0.000      0.000
REMARK  9 active torsions:
REMARK  status: ('A' for Active; 'I' for Inactive)
REMARK    1  A    between atoms: C2_2  and  N1_3 
REMARK    2  A    between atoms: C2_2  and  C9_17 
REMARK    3  A    between atoms: N1_3  and  S1_5 
REMARK    4  A    between atoms: S1_5  and  C3_8 
REMARK    5  A    between atoms: C8_13  and  N2_14 
REMARK       I    between atoms: C9_17  and  N3_19 
REMARK    6  A    between atoms: N3_19  and  C10_21 
REMARK    7  A    between atoms: C13_24  and  O6_25 
REMARK    8  A    between atoms: C14_27  and  O7_28 
REMARK    9  A    between atoms: C16_31  and  O8_32 
ROOT
HETATM    1  C9  UNL     1       3.161  16.741  86.349  1.00  0.00     0.241 C 
HETATM    2  O5  UNL     1       1.974  16.934  86.662  1.00  0.00    -0.271 OA
HETATM    3  N3  UNL     1       3.721  17.535  85.334  1.00  0.00    -0.347 N 
ATOM      4  H3  UNL     1       4.696  17.356  85.095  1.00  0.00     0.163 HD
ENDROOT
BRANCH   1   5
HETATM    5  C2  UNL     1       3.951  15.718  87.017  1.00  0.00     0.180 C 
HETATM    6  C1  UNL     1       3.484  14.306  86.749  1.00  0.00     0.043 C 
BRANCH   5   7
HETATM    7  N1  UNL     1       5.367  15.764  86.705  1.00  0.00    -0.302 N 
ATOM      8  H1  UNL     1       5.755  15.507  85.797  1.00  0.00     0.173 HD
BRANCH   7   9
HETATM    9  S1  UNL     1       6.315  16.297  88.029  1.00  0.00     0.262 S 
HETATM   10  O1  UNL     1       6.567  15.182  89.005  1.00  0.00    -0.200 OA
HETATM   11  O2  UNL     1       5.503  17.363  88.786  1.00  0.00    -0.200 OA
BRANCH   9  12
HETATM   12  C3  UNL     1       7.826  17.015  87.602  1.00  0.00     0.112 A 
HETATM   13  C4  UNL     1       8.866  16.940  88.543  1.00  0.00     0.028 A 
HETATM   14  C5  UNL     1      10.087  17.514  88.297  1.00  0.00     0.002 A 
HETATM   15  C6  UNL     1      10.305  18.175  87.111  1.00  0.00     0.003 A 
HETATM   16  C7  UNL     1       9.293  18.246  86.197  1.00  0.00     0.038 A 
HETATM   17  C8  UNL     1       8.035  17.667  86.425  1.00  0.00     0.126 A 
BRANCH  17  18
HETATM   18  N2  UNL     1       7.069  17.798  85.426  1.00  0.00    -0.114 N 
HETATM   19  O3  UNL     1       6.727  17.034  84.541  1.00  0.00    -0.532 OA
HETATM   20  O4  UNL     1       6.394  19.038  85.406  1.00  0.00    -0.532 OA
ENDBRANCH  17  18
ENDBRANCH   9  12
ENDBRANCH   7   9
ENDBRANCH   5   7
ENDBRANCH   1   5
BRANCH   3  21
HETATM   21  C10 UNL     1       3.055  18.568  84.605  1.00  0.00     0.065 C 
HETATM   22  C11 UNL     1       2.761  19.764  85.486  1.00  0.00     0.036 C 
HETATM   23  C12 UNL     1       1.855  20.767  84.863  1.00  0.00     0.037 C 
HETATM   24  C13 UNL     1       1.728  20.669  83.376  1.00  0.00     0.155 C 
HETATM   25  C14 UNL     1       2.259  19.363  82.860  1.00  0.00     0.114 C 
HETATM   26  C15 UNL     1       3.686  19.097  83.361  1.00  0.00     0.077 C 
HETATM   27  C16 UNL     1       1.845  18.221  83.805  1.00  0.00     0.183 C 
BRANCH  24  28
HETATM   28  O6  UNL     1       0.370  20.713  83.064  1.00  0.00    -0.392 OA
ATOM     29  H6  UNL     1       0.269  21.258  82.292  1.00  0.00     0.210 HD
ENDBRANCH  24  28
BRANCH  25  30
HETATM   30  O7  UNL     1       2.042  19.086  81.541  1.00  0.00    -0.384 OA
ATOM     31  H7  UNL     1       2.290  18.220  81.237  1.00  0.00     0.210 HD
ENDBRANCH  25  30
BRANCH  27  32
HETATM   32  O8  UNL     1       0.629  18.456  84.445  1.00  0.00    -0.390 OA
ATOM     33  H8  UNL     1       0.126  19.182  84.097  1.00  0.00     0.210 HD
ENDBRANCH  27  32
ENDBRANCH   3  21
TORSDOF 9
ENDMDL
MODEL 2
REMARK VINA RESULT: -7.310200899      3.313      7.561
REMARK  9 active torsions:
REMARK  status: ('A' for Active; 'I' for Inactive)
REMARK    1  A    between atoms: C2_2  and  N1_3 
REMARK    2  A    between atoms: C2_2  and  C9_17 
REMARK    3  A    between atoms: N1_3  and  S1_5 
REMARK    4  A    between atoms: S1_5  and  C3_8 
REMARK    5  A    between atoms: C8_13  and  N2_14 
REMARK       I    between atoms: C9_17  and  N3_19 
REMARK    6  A    between atoms: N3_19  and  C10_21 
REMARK    7  A    between atoms: C13_24  and  O6_25 
REMARK    8  A    between atoms: C14_27  and  O7_28 
REMARK    9  A    between atoms: C16_31  and  O8_32 
ROOT
HETATM    1  C9  UNL     1       3.306  20.086  85.181  1.00  0.00     0.241 C 
HETATM    2  O5  UNL     1       3.028  20.420  86.346  1.00  0.00    -0.271 OA
HETATM    3  N3  UNL     1       3.731  18.767  84.950  1.00  0.00    -0.347 N 
ATOM      4  H3  UNL     1       3.955  18.518  83.987  1.00  0.00     0.163 HD
ENDROOT
BRANCH   1   5
HETATM    5  C2  UNL     1       3.196  21.036  84.086  1.00  0.00     0.180 C 
HETATM    6  C1  UNL     1       4.132  22.217  84.198  1.00  0.00     0.043 C 
BRANCH   5   7
HETATM    7  N1  UNL     1       3.400  20.455  82.773  1.00  0.00    -0.302 N 
ATOM      8  H1  UNL     1       4.289  20.069  82.457  1.00  0.00     0.173 HD
BRANCH   7   9
HETATM    9  S1  UNL     1       1.982  20.489  81.811  1.00  0.00     0.262 S 
HETATM   10  O1  UNL     1       2.118  21.462  80.673  1.00  0.00    -0.200 OA
HETATM   11  O2  UNL     1       0.832  21.008  82.692  1.00  0.00    -0.200 OA
BRANCH   9  12
HETATM   12  C3  UNL     1       1.491  18.959  81.180  1.00  0.00     0.112 A 
HETATM   13  C4  UNL     1       1.890  18.642  79.871  1.00  0.00     0.028 A 
HETATM   14  C5  UNL     1       1.514  17.462  79.282  1.00  0.00     0.002 A 
HETATM   15  C6  UNL     1       0.734  16.570  79.978  1.00  0.00     0.003 A 
HETATM   16  C7  UNL     1       0.348  16.879  81.251  1.00  0.00     0.038 A 
HETATM   17  C8  UNL     1       0.719  18.079  81.875  1.00  0.00     0.126 A 
BRANCH  17  18
HETATM   18  N2  UNL     1       0.271  18.299  83.179  1.00  0.00    -0.114 N 
HETATM   19  O3  UNL     1       0.830  18.156  84.251  1.00  0.00    -0.532 OA
HETATM   20  O4  UNL     1      -1.071  18.726  83.284  1.00  0.00    -0.532 OA
ENDBRANCH  17  18
ENDBRANCH   9  12
ENDBRANCH   7   9
ENDBRANCH   5   7
ENDBRANCH   1   5
BRANCH   3  21
HETATM   21  C10 UNL     1       3.880  17.741  85.935  1.00  0.00     0.065 C 
HETATM   22  C11 UNL     1       4.061  16.381  85.292  1.00  0.00     0.036 C 
HETATM   23  C12 UNL     1       3.972  15.245  86.248  1.00  0.00     0.037 C 
HETATM   24  C13 UNL     1       4.147  15.610  87.688  1.00  0.00     0.155 C 
HETATM   25  C14 UNL     1       4.024  17.091  87.901  1.00  0.00     0.114 C 
HETATM   26  C15 UNL     1       4.952  17.875  86.963  1.00  0.00     0.077 C 
HETATM   27  C16 UNL     1       2.879  17.649  87.037  1.00  0.00     0.183 C 
BRANCH  24  28
HETATM   28  O6  UNL     1       3.119  15.003  88.406  1.00  0.00    -0.392 OA
ATOM     29  H6  UNL     1       2.892  14.196  87.959  1.00  0.00     0.210 HD
ENDBRANCH  24  28
BRANCH  25  30
HETATM   30  O7  UNL     1       3.995  17.528  89.194  1.00  0.00    -0.384 OA
ATOM     31  H7  UNL     1       4.350  16.943  89.853  1.00  0.00     0.210 HD
ENDBRANCH  25  30
BRANCH  27  32
HETATM   32  O8  UNL     1       1.854  16.728  86.825  1.00  0.00    -0.390 OA
ATOM     33  H8  UNL     1       1.962  16.177  86.059  1.00  0.00     0.210 HD
ENDBRANCH  27  32
ENDBRANCH   3  21
TORSDOF 9
ENDMDL
MODEL 3
REMARK VINA RESULT: -7.248002015      1.226      1.837
REMARK  9 active torsions:
REMARK  status: ('A' for Active; 'I' for Inactive)
REMARK    1  A    between atoms: C2_2  and  N1_3 
REMARK    2  A    between atoms: C2_2  and  C9_17 
REMARK    3  A    between atoms: N1_3  and  S1_5 
REMARK    4  A    between atoms: S1_5  and  C3_8 
REMARK    5  A    between atoms: C8_13  and  N2_14 
REMARK       I    between atoms: C9_17  and  N3_19 
REMARK    6  A    between atoms: N3_19  and  C10_21 
REMARK    7  A    between atoms: C13_24  and  O6_25 
REMARK    8  A    between atoms: C14_27  and  O7_28 
REMARK    9  A    between atoms: C16_31  and  O8_32 
ROOT
HETATM    1  C9  UNL     1       3.497  16.679  85.930  1.00  0.00     0.241 C 
HETATM    2  O5  UNL     1       2.690  16.279  85.073  1.00  0.00    -0.271 OA
HETATM    3  N3  UNL     1       3.756  18.057  86.011  1.00  0.00    -0.347 N 
ATOM      4  H3  UNL     1       4.422  18.360  86.721  1.00  0.00     0.163 HD
ENDROOT
BRANCH   1   5
HETATM    5  C2  UNL     1       4.156  15.743  86.828  1.00  0.00     0.180 C 
HETATM    6  C1  UNL     1       3.627  14.330  86.741  1.00  0.00     0.043 C 
BRANCH   5   7
HETATM    7  N1  UNL     1       5.594  15.670  86.657  1.00  0.00    -0.302 N 
ATOM      8  H1  UNL     1       6.047  15.282  85.829  1.00  0.00     0.173 HD
BRANCH   7   9
HETATM    9  S1  UNL     1       6.449  16.307  87.999  1.00  0.00     0.262 S 
HETATM   10  O1  UNL     1       6.666  15.260  89.055  1.00  0.00    -0.200 OA
HETATM   11  O2  UNL     1       5.569  17.395  88.639  1.00  0.00    -0.200 OA
BRANCH   9  12
HETATM   12  C3  UNL     1       7.967  17.036  87.618  1.00  0.00     0.112 A 
HETATM   13  C4  UNL     1       8.975  16.978  88.593  1.00  0.00     0.028 A 
HETATM   14  C5  UNL     1      10.198  17.561  88.384  1.00  0.00     0.002 A 
HETATM   15  C6  UNL     1      10.449  18.217  87.203  1.00  0.00     0.003 A 
HETATM   16  C7  UNL     1       9.467  18.273  86.254  1.00  0.00     0.038 A 
HETATM   17  C8  UNL     1       8.208  17.684  86.444  1.00  0.00     0.126 A 
BRANCH  17  18
HETATM   18  N2  UNL     1       7.275  17.799  85.413  1.00  0.00    -0.114 N 
HETATM   19  O3  UNL     1       6.993  17.041  84.502  1.00  0.00    -0.532 OA
HETATM   20  O4  UNL     1       6.557  19.014  85.391  1.00  0.00    -0.532 OA
ENDBRANCH  17  18
ENDBRANCH   9  12
ENDBRANCH   7   9
ENDBRANCH   5   7
ENDBRANCH   1   5
BRANCH   3  21
HETATM   21  C10 UNL     1       3.175  19.076  85.192  1.00  0.00     0.065 C 
HETATM   22  C11 UNL     1       3.536  18.885  83.734  1.00  0.00     0.036 C 
HETATM   23  C12 UNL     1       3.177  20.039  82.866  1.00  0.00     0.037 C 
HETATM   24  C13 UNL     1       2.172  20.982  83.447  1.00  0.00     0.155 C 
HETATM   25  C14 UNL     1       1.999  20.765  84.922  1.00  0.00     0.114 C 
HETATM   26  C15 UNL     1       1.700  19.293  85.245  1.00  0.00     0.077 C 
HETATM   27  C16 UNL     1       3.367  20.505  85.576  1.00  0.00     0.183 C 
BRANCH  24  28
HETATM   28  O6  UNL     1       2.659  22.276  83.276  1.00  0.00    -0.392 OA
ATOM     29  H6  UNL     1       2.209  22.658  82.531  1.00  0.00     0.210 HD
ENDBRANCH  24  28
BRANCH  25  30
HETATM   30  O7  UNL     1       1.236  21.676  85.595  1.00  0.00    -0.384 OA
ATOM     31  H7  UNL     1       0.383  21.384  85.894  1.00  0.00     0.210 HD
ENDBRANCH  25  30
BRANCH  27  32
HETATM   32  O8  UNL     1       4.416  21.153  84.926  1.00  0.00    -0.390 OA
ATOM     33  H8  UNL     1       4.378  22.102  84.952  1.00  0.00     0.210 HD
ENDBRANCH  27  32
ENDBRANCH   3  21
TORSDOF 9
ENDMDL
MODEL 4
REMARK VINA RESULT: -7.244763364      3.108      7.681
REMARK  9 active torsions:
REMARK  status: ('A' for Active; 'I' for Inactive)
REMARK    1  A    between atoms: C2_2  and  N1_3 
REMARK    2  A    between atoms: C2_2  and  C9_17 
REMARK    3  A    between atoms: N1_3  and  S1_5 
REMARK    4  A    between atoms: S1_5  and  C3_8 
REMARK    5  A    between atoms: C8_13  and  N2_14 
REMARK       I    between atoms: C9_17  and  N3_19 
REMARK    6  A    between atoms: N3_19  and  C10_21 
REMARK    7  A    between atoms: C13_24  and  O6_25 
REMARK    8  A    between atoms: C14_27  and  O7_28 
REMARK    9  A    between atoms: C16_31  and  O8_32 
ROOT
HETATM    1  C9  UNL     1       4.237  19.327  84.935  1.00  0.00     0.241 C 
HETATM    2  O5  UNL     1       3.959  19.884  86.010  1.00  0.00    -0.271 OA
HETATM    3  N3  UNL     1       4.367  17.928  84.923  1.00  0.00    -0.347 N 
ATOM      4  H3  UNL     1       4.597  17.495  84.029  1.00  0.00     0.163 HD
ENDROOT
BRANCH   1   5
HETATM    5  C2  UNL     1       4.424  20.103  83.719  1.00  0.00     0.180 C 
HETATM    6  C1  UNL     1       5.806  19.984  83.118  1.00  0.00     0.043 C 
BRANCH   5   7
HETATM    7  N1  UNL     1       3.474  19.795  82.667  1.00  0.00    -0.302 N 
ATOM      8  H1  UNL     1       3.541  18.973  82.066  1.00  0.00     0.173 HD
BRANCH   7   9
HETATM    9  S1  UNL     1       2.228  20.965  82.542  1.00  0.00     0.262 S 
HETATM   10  O1  UNL     1       2.529  21.971  81.467  1.00  0.00    -0.200 OA
HETATM   11  O2  UNL     1       2.185  21.744  83.868  1.00  0.00    -0.200 OA
BRANCH   9  12
HETATM   12  C3  UNL     1       0.648  20.322  82.276  1.00  0.00     0.112 A 
HETATM   13  C4  UNL     1      -0.112  20.885  81.238  1.00  0.00     0.028 A 
HETATM   14  C5  UNL     1      -1.389  20.456  80.982  1.00  0.00     0.002 A 
HETATM   15  C6  UNL     1      -1.942  19.459  81.750  1.00  0.00     0.003 A 
HETATM   16  C7  UNL     1      -1.201  18.912  82.759  1.00  0.00     0.038 A 
HETATM   17  C8  UNL     1       0.108  19.333  83.041  1.00  0.00     0.126 A 
BRANCH  17  18
HETATM   18  N2  UNL     1       0.778  18.710  84.094  1.00  0.00    -0.114 N 
HETATM   19  O3  UNL     1       0.836  18.987  85.279  1.00  0.00    -0.532 OA
HETATM   20  O4  UNL     1       1.552  17.588  83.729  1.00  0.00    -0.532 OA
ENDBRANCH  17  18
ENDBRANCH   9  12
ENDBRANCH   7   9
ENDBRANCH   5   7
ENDBRANCH   1   5
BRANCH   3  21
HETATM   21  C10 UNL     1       4.209  17.054  86.044  1.00  0.00     0.065 C 
HETATM   22  C11 UNL     1       4.202  15.602  85.614  1.00  0.00     0.036 C 
HETATM   23  C12 UNL     1       3.794  14.656  86.688  1.00  0.00     0.037 C 
HETATM   24  C13 UNL     1       3.872  15.201  88.078  1.00  0.00     0.155 C 
HETATM   25  C14 UNL     1       4.006  16.697  88.078  1.00  0.00     0.114 C 
HETATM   26  C15 UNL     1       5.165  17.160  87.184  1.00  0.00     0.077 C 
HETATM   27  C16 UNL     1       3.091  17.303  87.000  1.00  0.00     0.183 C 
BRANCH  24  28
HETATM   28  O6  UNL     1       2.673  14.896  88.720  1.00  0.00    -0.392 OA
ATOM     29  H6  UNL     1       2.073  15.617  88.569  1.00  0.00     0.210 HD
ENDBRANCH  24  28
BRANCH  25  30
HETATM   30  O7  UNL     1       3.915  17.325  89.287  1.00  0.00    -0.384 OA
ATOM     31  H7  UNL     1       4.536  17.061  89.956  1.00  0.00     0.210 HD
ENDBRANCH  25  30
BRANCH  27  32
HETATM   32  O8  UNL     1       1.942  16.549  86.770  1.00  0.00    -0.390 OA
ATOM     33  H8  UNL     1       1.256  16.999  86.290  1.00  0.00     0.210 HD
ENDBRANCH  27  32
ENDBRANCH   3  21
TORSDOF 9
ENDMDL
MODEL 5
REMARK VINA RESULT: -7.216255542      0.829      1.313
REMARK  9 active torsions:
REMARK  status: ('A' for Active; 'I' for Inactive)
REMARK    1  A    between atoms: C2_2  and  N1_3 
REMARK    2  A    between atoms: C2_2  and  C9_17 
REMARK    3  A    between atoms: N1_3  and  S1_5 
REMARK    4  A    between atoms: S1_5  and  C3_8 
REMARK    5  A    between atoms: C8_13  and  N2_14 
REMARK       I    between atoms: C9_17  and  N3_19 
REMARK    6  A    between atoms: N3_19  and  C10_21 
REMARK    7  A    between atoms: C13_24  and  O6_25 
REMARK    8  A    between atoms: C14_27  and  O7_28 
REMARK    9  A    between atoms: C16_31  and  O8_32 
ROOT
HETATM    1  C9  UNL     1       3.060  16.620  86.338  1.00  0.00     0.241 C 
HETATM    2  O5  UNL     1       1.920  16.878  86.760  1.00  0.00    -0.271 OA
HETATM    3  N3  UNL     1       3.521  17.305  85.202  1.00  0.00    -0.347 N 
ATOM      4  H3  UNL     1       4.460  17.075  84.875  1.00  0.00     0.163 HD
ENDROOT
BRANCH   1   5
HETATM    5  C2  UNL     1       3.896  15.634  87.004  1.00  0.00     0.180 C 
HETATM    6  C1  UNL     1       3.477  14.203  86.756  1.00  0.00     0.043 C 
BRANCH   5   7
HETATM    7  N1  UNL     1       5.305  15.728  86.671  1.00  0.00    -0.302 N 
ATOM      8  H1  UNL     1       5.686  15.503  85.752  1.00  0.00     0.173 HD
BRANCH   7   9
HETATM    9  S1  UNL     1       6.259  16.257  87.992  1.00  0.00     0.262 S 
HETATM   10  O1  UNL     1       6.535  15.133  88.952  1.00  0.00    -0.200 OA
HETATM   11  O2  UNL     1       5.441  17.302  88.771  1.00  0.00    -0.200 OA
BRANCH   9  12
HETATM   12  C3  UNL     1       7.756  16.999  87.560  1.00  0.00     0.112 A 
HETATM   13  C4  UNL     1       8.815  16.901  88.478  1.00  0.00     0.028 A 
HETATM   14  C5  UNL     1      10.026  17.492  88.227  1.00  0.00     0.002 A 
HETATM   15  C6  UNL     1      10.216  18.194  87.060  1.00  0.00     0.003 A 
HETATM   16  C7  UNL     1       9.186  18.288  86.169  1.00  0.00     0.038 A 
HETATM   17  C8  UNL     1       7.937  17.692  86.402  1.00  0.00     0.126 A 
BRANCH  17  18
HETATM   18  N2  UNL     1       6.950  17.849  85.427  1.00  0.00    -0.114 N 
HETATM   19  O3  UNL     1       6.755  17.251  84.384  1.00  0.00    -0.532 OA
HETATM   20  O4  UNL     1       6.041  18.903  85.662  1.00  0.00    -0.532 OA
ENDBRANCH  17  18
ENDBRANCH   9  12
ENDBRANCH   7   9
ENDBRANCH   5   7
ENDBRANCH   1   5
BRANCH   3  21
HETATM   21  C10 UNL     1       2.802  18.294  84.460  1.00  0.00     0.065 C 
HETATM   22  C11 UNL     1       3.698  18.993  83.459  1.00  0.00     0.036 C 
HETATM   23  C12 UNL     1       3.083  20.195  82.834  1.00  0.00     0.037 C 
HETATM   24  C13 UNL     1       1.594  20.279  82.948  1.00  0.00     0.155 C 
HETATM   25  C14 UNL     1       1.064  19.318  83.973  1.00  0.00     0.114 C 
HETATM   26  C15 UNL     1       1.569  17.890  83.723  1.00  0.00     0.077 C 
HETATM   27  C16 UNL     1       1.990  19.302  85.202  1.00  0.00     0.183 C 
BRANCH  24  28
HETATM   28  O6  UNL     1       1.275  21.563  83.383  1.00  0.00    -0.392 OA
ATOM     29  H6  UNL     1       0.420  21.524  83.797  1.00  0.00     0.210 HD
ENDBRANCH  24  28
BRANCH  25  30
HETATM   30  O7  UNL     1      -0.261  19.422  84.289  1.00  0.00    -0.384 OA
ATOM     31  H7  UNL     1      -0.632  18.724  84.816  1.00  0.00     0.210 HD
ENDBRANCH  25  30
BRANCH  27  32
HETATM   32  O8  UNL     1       2.626  20.522  85.423  1.00  0.00    -0.390 OA
ATOM     33  H8  UNL     1       2.130  21.146  85.940  1.00  0.00     0.210 HD
ENDBRANCH  27  32
ENDBRANCH   3  21
TORSDOF 9
ENDMDL
