MODEL 1
REMARK VINA RESULT: -7.977753972      0.000      0.000
REMARK  8 active torsions:
REMARK  status: ('A' for Active; 'I' for Inactive)
REMARK    1  A    between atoms: N1_2  and  C2_5 
REMARK    2  A    between atoms: C2_5  and  C3_6 
REMARK    3  A    between atoms: C3_6  and  N2_7 
REMARK    4  A    between atoms: N2_7  and  C4_10 
REMARK    5  A    between atoms: C12_18  and  O1_19 
REMARK    6  A    between atoms: C20_28  and  O2_29 
REMARK    7  A    between atoms: C23_33  and  O3_34 
REMARK    8  A    between atoms: C25_37  and  O4_38 
ROOT
HETATM    1  C4  UNL     1      26.224  -7.923 -10.896  1.00  0.00     0.191 C 
HETATM    2  C5  UNL     1      26.726  -6.933 -11.915  1.00  0.00     0.068 C 
HETATM    3  C6  UNL     1      28.221  -7.120 -11.752  1.00  0.00    -0.066 C 
HETATM    4  C7  UNL     1      28.721  -8.482 -11.517  1.00  0.00    -0.068 C 
HETATM    5  C8  UNL     1      30.105  -8.642 -12.075  1.00  0.00     0.036 C 
HETATM    6  C9  UNL     1      30.883  -7.426 -11.534  1.00  0.00     0.010 C 
HETATM    7  C10 UNL     1      30.363  -6.152 -12.108  1.00  0.00     0.001 C 
HETATM    8  C11 UNL     1      31.337  -5.395 -12.948  1.00  0.00     0.037 C 
HETATM    9  C12 UNL     1      30.792  -3.962 -13.015  1.00  0.00     0.118 C 
HETATM   10  C13 UNL     1      29.367  -3.910 -13.419  1.00  0.00     0.033 C 
HETATM   11  C14 UNL     1      28.438  -4.805 -12.612  1.00  0.00     0.016 C 
HETATM   12  C15 UNL     1      28.979  -6.249 -12.718  1.00  0.00    -0.016 C 
HETATM   13  C16 UNL     1      28.894  -6.569 -14.140  1.00  0.00     0.020 C 
HETATM   14  C17 UNL     1      27.813  -9.691 -11.646  1.00  0.00    -0.010 C 
HETATM   15  C18 UNL     1      27.801 -10.453 -10.302  1.00  0.00     0.017 C 
HETATM   16  C19 UNL     1      28.915 -11.386 -10.117  1.00  0.00     0.034 C 
HETATM   17  C20 UNL     1      29.180 -12.329 -11.225  1.00  0.00     0.129 C 
HETATM   18  C21 UNL     1      28.464 -12.040 -12.504  1.00  0.00     0.013 C 
HETATM   19  C22 UNL     1      29.499 -12.457 -13.585  1.00  0.00     0.021 C 
HETATM   20  C23 UNL     1      27.370 -13.046 -12.722  1.00  0.00     0.131 C 
HETATM   21  C24 UNL     1      26.591 -12.869 -13.970  1.00  0.00     0.064 C 
HETATM   22  C25 UNL     1      26.028 -11.446 -13.925  1.00  0.00     0.121 C 
HETATM   23  C26 UNL     1      27.218 -10.549 -13.970  1.00  0.00     0.038 C 
HETATM   24  C27 UNL     1      28.122 -10.618 -12.774  1.00  0.00     0.014 C 
HETATM   25  C28 UNL     1      26.335  -9.236 -11.687  1.00  0.00     0.047 C 
ENDROOT
BRANCH   1  26
HETATM   26  N2  UNL     1      24.969  -7.740 -10.312  1.00  0.00    -0.069 N 
ATOM     27  H22 UNL     1      24.498  -6.925 -10.705  1.00  0.00     0.277 HD
ATOM     28  H21 UNL     1      25.059  -7.428  -9.345  1.00  0.00     0.277 HD
BRANCH  26  29
HETATM   29  C3  UNL     1      24.141  -8.908 -10.402  1.00  0.00     0.260 C 
BRANCH  29  30
HETATM   30  C2  UNL     1      23.885  -9.557  -9.057  1.00  0.00     0.259 C 
BRANCH  30  31
HETATM   31  N1  UNL     1      23.005 -10.705  -9.212  1.00  0.00    -0.077 N 
HETATM   32  C1  UNL     1      23.231 -11.260 -10.528  1.00  0.00     0.267 C 
ATOM     33  H12 UNL     1      22.025 -10.478  -9.041  1.00  0.00     0.276 HD
ATOM     34  H11 UNL     1      23.117 -11.393  -8.467  1.00  0.00     0.276 HD
ENDBRANCH  30  31
ENDBRANCH  29  30
ENDBRANCH  26  29
ENDBRANCH   1  26
BRANCH  17  35
HETATM   35  O2  UNL     1      30.589 -12.383 -11.379  1.00  0.00    -0.395 OA
ATOM     36  H2  UNL     1      30.755 -12.435 -12.313  1.00  0.00     0.210 HD
ENDBRANCH  17  35
BRANCH  20  37
HETATM   37  O3  UNL     1      26.497 -13.208 -11.668  1.00  0.00    -0.395 OA
ATOM     38  H3  UNL     1      25.611 -13.453 -11.907  1.00  0.00     0.210 HD
ENDBRANCH  20  37
BRANCH  22  39
HETATM   39  O4  UNL     1      25.290 -11.246 -15.074  1.00  0.00    -0.395 OA
ATOM     40  H4  UNL     1      24.686 -10.531 -14.912  1.00  0.00     0.210 HD
ENDBRANCH  22  39
BRANCH   9  41
HETATM   41  O1  UNL     1      31.536  -3.212 -13.909  1.00  0.00    -0.396 OA
ATOM     42  H1  UNL     1      32.150  -2.659 -13.440  1.00  0.00     0.210 HD
ENDBRANCH   9  41
TORSDOF 8
ENDMDL
MODEL 2
REMARK VINA RESULT: -7.480776619      2.784      5.193
REMARK  8 active torsions:
REMARK  status: ('A' for Active; 'I' for Inactive)
REMARK    1  A    between atoms: N1_2  and  C2_5 
REMARK    2  A    between atoms: C2_5  and  C3_6 
REMARK    3  A    between atoms: C3_6  and  N2_7 
REMARK    4  A    between atoms: N2_7  and  C4_10 
REMARK    5  A    between atoms: C12_18  and  O1_19 
REMARK    6  A    between atoms: C20_28  and  O2_29 
REMARK    7  A    between atoms: C23_33  and  O3_34 
REMARK    8  A    between atoms: C25_37  and  O4_38 
ROOT
HETATM    1  C4  UNL     1      29.233  -7.838 -11.852  1.00  0.00     0.191 C 
HETATM    2  C5  UNL     1      28.943  -7.720 -13.327  1.00  0.00     0.068 C 
HETATM    3  C6  UNL     1      29.140  -9.161 -13.752  1.00  0.00    -0.066 C 
HETATM    4  C7  UNL     1      28.677 -10.215 -12.840  1.00  0.00    -0.068 C 
HETATM    5  C8  UNL     1      28.267 -11.438 -13.607  1.00  0.00     0.036 C 
HETATM    6  C9  UNL     1      29.443 -11.704 -14.567  1.00  0.00     0.010 C 
HETATM    7  C10 UNL     1      29.570 -10.618 -15.581  1.00  0.00     0.001 C 
HETATM    8  C11 UNL     1      29.359 -11.046 -16.994  1.00  0.00     0.037 C 
HETATM    9  C12 UNL     1      29.996  -9.946 -17.855  1.00  0.00     0.118 C 
HETATM   10  C13 UNL     1      29.532  -8.589 -17.483  1.00  0.00     0.033 C 
HETATM   11  C14 UNL     1      29.648  -8.254 -16.003  1.00  0.00     0.016 C 
HETATM   12  C15 UNL     1      28.859  -9.329 -15.222  1.00  0.00    -0.016 C 
HETATM   13  C16 UNL     1      27.480  -9.175 -15.677  1.00  0.00     0.020 C 
HETATM   14  C17 UNL     1      27.840  -9.891 -11.616  1.00  0.00    -0.010 C 
HETATM   15  C18 UNL     1      28.576 -10.401 -10.357  1.00  0.00     0.017 C 
HETATM   16  C19 UNL     1      28.361 -11.818 -10.053  1.00  0.00     0.034 C 
HETATM   17  C20 UNL     1      26.957 -12.286 -10.037  1.00  0.00     0.129 C 
HETATM   18  C21 UNL     1      25.953 -11.334 -10.597  1.00  0.00     0.013 C 
HETATM   19  C22 UNL     1      24.929 -12.274 -11.291  1.00  0.00     0.021 C 
HETATM   20  C23 UNL     1      25.126 -10.744  -9.490  1.00  0.00     0.131 C 
HETATM   21  C24 UNL     1      24.082  -9.786  -9.923  1.00  0.00     0.064 C 
HETATM   22  C25 UNL     1      24.807  -8.691 -10.711  1.00  0.00     0.121 C 
HETATM   23  C26 UNL     1      25.363  -9.373 -11.914  1.00  0.00     0.038 C 
HETATM   24  C27 UNL     1      26.434 -10.389 -11.642  1.00  0.00     0.014 C 
HETATM   25  C28 UNL     1      27.888  -8.371 -11.333  1.00  0.00     0.047 C 
ENDROOT
BRANCH   1  26
HETATM   26  N2  UNL     1      29.691  -6.725 -11.145  1.00  0.00    -0.069 N 
ATOM     27  H22 UNL     1      30.081  -7.001 -10.243  1.00  0.00     0.277 HD
ATOM     28  H21 UNL     1      28.913  -6.153 -10.820  1.00  0.00     0.277 HD
BRANCH  26  29
HETATM   29  C3  UNL     1      30.630  -5.942 -11.895  1.00  0.00     0.260 C 
BRANCH  29  30
HETATM   30  C2  UNL     1      30.431  -4.450 -11.719  1.00  0.00     0.259 C 
BRANCH  30  31
HETATM   31  N1  UNL     1      29.019  -4.116 -11.813  1.00  0.00    -0.077 N 
HETATM   32  C1  UNL     1      28.699  -3.942 -13.213  1.00  0.00     0.267 C 
ATOM     33  H12 UNL     1      28.765  -3.308 -11.246  1.00  0.00     0.276 HD
ATOM     34  H11 UNL     1      28.418  -4.800 -11.352  1.00  0.00     0.276 HD
ENDBRANCH  30  31
ENDBRANCH  29  30
ENDBRANCH  26  29
ENDBRANCH   1  26
BRANCH  17  35
HETATM   35  O2  UNL     1      26.947 -13.547 -10.687  1.00  0.00    -0.395 OA
ATOM     36  H2  UNL     1      27.843 -13.721 -10.951  1.00  0.00     0.210 HD
ENDBRANCH  17  35
BRANCH  20  37
HETATM   37  O3  UNL     1      25.841 -10.188  -8.451  1.00  0.00    -0.395 OA
ATOM     38  H3  UNL     1      25.935 -10.736  -7.682  1.00  0.00     0.210 HD
ENDBRANCH  20  37
BRANCH  22  39
HETATM   39  O4  UNL     1      23.862  -7.775 -11.129  1.00  0.00    -0.395 OA
ATOM     40  H4  UNL     1      23.110  -7.850 -10.553  1.00  0.00     0.210 HD
ENDBRANCH  22  39
BRANCH   9  41
HETATM   41  O1  UNL     1      29.711 -10.164 -19.192  1.00  0.00    -0.396 OA
ATOM     42  H1  UNL     1      30.190  -9.546 -19.732  1.00  0.00     0.210 HD
ENDBRANCH   9  41
TORSDOF 8
ENDMDL
MODEL 3
REMARK VINA RESULT: -7.261816500      2.712      4.645
REMARK  8 active torsions:
REMARK  status: ('A' for Active; 'I' for Inactive)
REMARK    1  A    between atoms: N1_2  and  C2_5 
REMARK    2  A    between atoms: C2_5  and  C3_6 
REMARK    3  A    between atoms: C3_6  and  N2_7 
REMARK    4  A    between atoms: N2_7  and  C4_10 
REMARK    5  A    between atoms: C12_18  and  O1_19 
REMARK    6  A    between atoms: C20_28  and  O2_29 
REMARK    7  A    between atoms: C23_33  and  O3_34 
REMARK    8  A    between atoms: C25_37  and  O4_38 
ROOT
HETATM    1  C4  UNL     1      27.003  -9.757 -14.981  1.00  0.00     0.191 C 
HETATM    2  C5  UNL     1      28.093  -8.725 -14.842  1.00  0.00     0.068 C 
HETATM    3  C6  UNL     1      27.609  -7.994 -13.606  1.00  0.00    -0.066 C 
HETATM    4  C7  UNL     1      26.999  -8.789 -12.532  1.00  0.00    -0.068 C 
HETATM    5  C8  UNL     1      27.233  -8.144 -11.197  1.00  0.00     0.036 C 
HETATM    6  C9  UNL     1      26.823  -6.673 -11.401  1.00  0.00     0.010 C 
HETATM    7  C10 UNL     1      27.745  -5.981 -12.347  1.00  0.00     0.001 C 
HETATM    8  C11 UNL     1      28.522  -4.852 -11.759  1.00  0.00     0.037 C 
HETATM    9  C12 UNL     1      28.996  -4.014 -12.955  1.00  0.00     0.118 C 
HETATM   10  C13 UNL     1      29.668  -4.830 -13.994  1.00  0.00     0.033 C 
HETATM   11  C14 UNL     1      28.884  -6.046 -14.462  1.00  0.00     0.016 C 
HETATM   12  C15 UNL     1      28.575  -6.906 -13.216  1.00  0.00    -0.016 C 
HETATM   13  C16 UNL     1      29.885  -7.303 -12.709  1.00  0.00     0.020 C 
HETATM   14  C17 UNL     1      27.041 -10.306 -12.550  1.00  0.00    -0.010 C 
HETATM   15  C18 UNL     1      25.593 -10.846 -12.518  1.00  0.00     0.017 C 
HETATM   16  C19 UNL     1      25.003 -10.939 -11.180  1.00  0.00     0.034 C 
HETATM   17  C20 UNL     1      25.814 -11.617 -10.145  1.00  0.00     0.129 C 
HETATM   18  C21 UNL     1      27.237 -11.880 -10.509  1.00  0.00     0.013 C 
HETATM   19  C22 UNL     1      27.986 -11.680  -9.162  1.00  0.00     0.021 C 
HETATM   20  C23 UNL     1      27.444 -13.347 -10.760  1.00  0.00     0.131 C 
HETATM   21  C24 UNL     1      28.826 -13.737 -11.123  1.00  0.00     0.064 C 
HETATM   22  C25 UNL     1      29.194 -12.911 -12.359  1.00  0.00     0.121 C 
HETATM   23  C26 UNL     1      29.199 -11.493 -11.899  1.00  0.00     0.038 C 
HETATM   24  C27 UNL     1      27.864 -10.945 -11.483  1.00  0.00     0.014 C 
HETATM   25  C28 UNL     1      27.460 -10.804 -13.953  1.00  0.00     0.047 C 
ENDROOT
BRANCH   1  26
HETATM   26  N2  UNL     1      26.723 -10.305 -16.234  1.00  0.00    -0.069 N 
ATOM     27  H22 UNL     1      26.036  -9.741 -16.734  1.00  0.00     0.277 HD
ATOM     28  H21 UNL     1      26.192 -11.171 -16.144  1.00  0.00     0.277 HD
BRANCH  26  29
HETATM   29  C3  UNL     1      27.903 -10.504 -17.026  1.00  0.00     0.260 C 
BRANCH  29  30
HETATM   30  C2  UNL     1      27.802  -9.883 -18.404  1.00  0.00     0.259 C 
BRANCH  30  31
HETATM   31  N1  UNL     1      28.703  -8.746 -18.511  1.00  0.00    -0.077 N 
HETATM   32  C1  UNL     1      30.011  -9.177 -18.069  1.00  0.00     0.267 C 
ATOM     33  H12 UNL     1      28.366  -7.925 -18.008  1.00  0.00     0.276 HD
ATOM     34  H11 UNL     1      28.715  -8.337 -19.446  1.00  0.00     0.276 HD
ENDBRANCH  30  31
ENDBRANCH  29  30
ENDBRANCH  26  29
ENDBRANCH   1  26
BRANCH  17  35
HETATM   35  O2  UNL     1      25.679 -10.846  -8.961  1.00  0.00    -0.395 OA
ATOM     36  H2  UNL     1      25.942 -11.409  -8.243  1.00  0.00     0.210 HD
ENDBRANCH  17  35
BRANCH  20  37
HETATM   37  O3  UNL     1      26.567 -13.922 -11.655  1.00  0.00    -0.395 OA
ATOM     38  H3  UNL     1      26.584 -13.559 -12.532  1.00  0.00     0.210 HD
ENDBRANCH  20  37
BRANCH  22  39
HETATM   39  O4  UNL     1      30.479 -13.251 -12.728  1.00  0.00    -0.395 OA
ATOM     40  H4  UNL     1      30.447 -13.591 -13.615  1.00  0.00     0.210 HD
ENDBRANCH  22  39
BRANCH   9  41
HETATM   41  O1  UNL     1      29.869  -3.028 -12.529  1.00  0.00    -0.396 OA
ATOM     42  H1  UNL     1      30.563  -2.909 -13.167  1.00  0.00     0.210 HD
ENDBRANCH   9  41
TORSDOF 8
ENDMDL
MODEL 4
REMARK VINA RESULT: -7.203756819      2.573      6.648
REMARK  8 active torsions:
REMARK  status: ('A' for Active; 'I' for Inactive)
REMARK    1  A    between atoms: N1_2  and  C2_5 
REMARK    2  A    between atoms: C2_5  and  C3_6 
REMARK    3  A    between atoms: C3_6  and  N2_7 
REMARK    4  A    between atoms: N2_7  and  C4_10 
REMARK    5  A    between atoms: C12_18  and  O1_19 
REMARK    6  A    between atoms: C20_28  and  O2_29 
REMARK    7  A    between atoms: C23_33  and  O3_34 
REMARK    8  A    between atoms: C25_37  and  O4_38 
ROOT
HETATM    1  C4  UNL     1      27.872  -7.196 -12.297  1.00  0.00     0.191 C 
HETATM    2  C5  UNL     1      27.194  -8.019 -11.232  1.00  0.00     0.068 C 
HETATM    3  C6  UNL     1      26.711  -9.187 -12.067  1.00  0.00    -0.066 C 
HETATM    4  C7  UNL     1      27.589  -9.675 -13.139  1.00  0.00    -0.068 C 
HETATM    5  C8  UNL     1      27.381 -11.143 -13.368  1.00  0.00     0.036 C 
HETATM    6  C9  UNL     1      25.852 -11.303 -13.486  1.00  0.00     0.010 C 
HETATM    7  C10 UNL     1      25.176 -10.999 -12.192  1.00  0.00     0.001 C 
HETATM    8  C11 UNL     1      24.449 -12.146 -11.576  1.00  0.00     0.037 C 
HETATM    9  C12 UNL     1      23.468 -11.519 -10.576  1.00  0.00     0.118 C 
HETATM   10  C13 UNL     1      24.124 -10.560  -9.655  1.00  0.00     0.033 C 
HETATM   11  C14 UNL     1      24.962  -9.489 -10.335  1.00  0.00     0.016 C 
HETATM   12  C15 UNL     1      26.015 -10.209 -11.207  1.00  0.00    -0.016 C 
HETATM   13  C16 UNL     1      26.823 -10.967 -10.257  1.00  0.00     0.020 C 
HETATM   14  C17 UNL     1      29.018  -9.181 -13.278  1.00  0.00    -0.010 C 
HETATM   15  C18 UNL     1      29.195  -8.548 -14.676  1.00  0.00     0.017 C 
HETATM   16  C19 UNL     1      29.487  -9.504 -15.748  1.00  0.00     0.034 C 
HETATM   17  C20 UNL     1      30.576 -10.471 -15.494  1.00  0.00     0.129 C 
HETATM   18  C21 UNL     1      31.062 -10.541 -14.084  1.00  0.00     0.013 C 
HETATM   19  C22 UNL     1      31.394 -12.048 -13.902  1.00  0.00     0.021 C 
HETATM   20  C23 UNL     1      32.422  -9.912 -13.974  1.00  0.00     0.131 C 
HETATM   21  C24 UNL     1      33.018  -9.928 -12.618  1.00  0.00     0.064 C 
HETATM   22  C25 UNL     1      32.012  -9.226 -11.700  1.00  0.00     0.121 C 
HETATM   23  C26 UNL     1      30.801 -10.095 -11.704  1.00  0.00     0.038 C 
HETATM   24  C27 UNL     1      30.083 -10.193 -13.019  1.00  0.00     0.014 C 
HETATM   25  C28 UNL     1      29.224  -7.918 -12.407  1.00  0.00     0.047 C 
ENDROOT
BRANCH   1  26
HETATM   26  N2  UNL     1      28.001  -5.816 -12.130  1.00  0.00    -0.069 N 
ATOM     27  H22 UNL     1      28.410  -5.594 -11.223  1.00  0.00     0.277 HD
ATOM     28  H21 UNL     1      27.088  -5.376 -12.011  1.00  0.00     0.277 HD
BRANCH  26  29
HETATM   29  C3  UNL     1      28.737  -5.196 -13.194  1.00  0.00     0.260 C 
BRANCH  29  30
HETATM   30  C2  UNL     1      29.308  -3.846 -12.811  1.00  0.00     0.259 C 
BRANCH  30  31
HETATM   31  N1  UNL     1      29.778  -3.869 -11.435  1.00  0.00    -0.077 N 
HETATM   32  C1  UNL     1      31.178  -3.507 -11.442  1.00  0.00     0.267 C 
ATOM     33  H12 UNL     1      29.601  -4.760 -10.972  1.00  0.00     0.276 HD
ATOM     34  H11 UNL     1      29.219  -3.282 -10.816  1.00  0.00     0.276 HD
ENDBRANCH  30  31
ENDBRANCH  29  30
ENDBRANCH  26  29
ENDBRANCH   1  26
BRANCH  17  35
HETATM   35  O2  UNL     1      30.125 -11.723 -15.986  1.00  0.00    -0.395 OA
ATOM     36  H2  UNL     1      30.903 -12.232 -16.180  1.00  0.00     0.210 HD
ENDBRANCH  17  35
BRANCH  20  37
HETATM   37  O3  UNL     1      32.529  -8.640 -14.494  1.00  0.00    -0.395 OA
ATOM     38  H3  UNL     1      33.035  -8.028 -13.974  1.00  0.00     0.210 HD
ENDBRANCH  20  37
BRANCH  22  39
HETATM   39  O4  UNL     1      32.537  -9.220 -10.424  1.00  0.00    -0.395 OA
ATOM     40  H4  UNL     1      32.536  -8.322 -10.113  1.00  0.00     0.210 HD
ENDBRANCH  22  39
BRANCH   9  41
HETATM   41  O1  UNL     1      22.855 -12.508  -9.826  1.00  0.00    -0.396 OA
ATOM     42  H1  UNL     1      22.136 -12.141  -9.326  1.00  0.00     0.210 HD
ENDBRANCH   9  41
TORSDOF 8
ENDMDL
MODEL 5
REMARK VINA RESULT: -7.131247696      2.829      7.184
REMARK  8 active torsions:
REMARK  status: ('A' for Active; 'I' for Inactive)
REMARK    1  A    between atoms: N1_2  and  C2_5 
REMARK    2  A    between atoms: C2_5  and  C3_6 
REMARK    3  A    between atoms: C3_6  and  N2_7 
REMARK    4  A    between atoms: N2_7  and  C4_10 
REMARK    5  A    between atoms: C12_18  and  O1_19 
REMARK    6  A    between atoms: C20_28  and  O2_29 
REMARK    7  A    between atoms: C23_33  and  O3_34 
REMARK    8  A    between atoms: C25_37  and  O4_38 
ROOT
HETATM    1  C4  UNL     1      27.852  -8.405 -14.920  1.00  0.00     0.191 C 
HETATM    2  C5  UNL     1      27.287  -9.228 -13.790  1.00  0.00     0.068 C 
HETATM    3  C6  UNL     1      28.544  -9.930 -13.319  1.00  0.00    -0.066 C 
HETATM    4  C7  UNL     1      29.798  -9.166 -13.318  1.00  0.00    -0.068 C 
HETATM    5  C8  UNL     1      30.716  -9.656 -12.237  1.00  0.00     0.036 C 
HETATM    6  C9  UNL     1      30.741 -11.187 -12.415  1.00  0.00     0.010 C 
HETATM    7  C10 UNL     1      29.410 -11.788 -12.113  1.00  0.00     0.001 C 
HETATM    8  C11 UNL     1      29.388 -12.722 -10.951  1.00  0.00     0.037 C 
HETATM    9  C12 UNL     1      28.113 -13.560 -11.123  1.00  0.00     0.118 C 
HETATM   10  C13 UNL     1      26.907 -12.728 -11.345  1.00  0.00     0.033 C 
HETATM   11  C14 UNL     1      27.033 -11.699 -12.459  1.00  0.00     0.016 C 
HETATM   12  C15 UNL     1      28.253 -10.809 -12.130  1.00  0.00    -0.016 C 
HETATM   13  C16 UNL     1      27.905 -10.161 -10.869  1.00  0.00     0.020 C 
HETATM   14  C17 UNL     1      29.813  -7.670 -13.569  1.00  0.00    -0.010 C 
HETATM   15  C18 UNL     1      30.709  -7.377 -14.794  1.00  0.00     0.017 C 
HETATM   16  C19 UNL     1      32.141  -7.279 -14.496  1.00  0.00     0.034 C 
HETATM   17  C20 UNL     1      32.524  -6.397 -13.372  1.00  0.00     0.129 C 
HETATM   18  C21 UNL     1      31.402  -5.930 -12.506  1.00  0.00     0.013 C 
HETATM   19  C22 UNL     1      32.042  -5.896 -11.091  1.00  0.00     0.021 C 
HETATM   20  C23 UNL     1      31.129  -4.474 -12.754  1.00  0.00     0.131 C 
HETATM   21  C24 UNL     1      30.037  -3.889 -11.942  1.00  0.00     0.064 C 
HETATM   22  C25 UNL     1      28.793  -4.736 -12.224  1.00  0.00     0.121 C 
HETATM   23  C26 UNL     1      29.112  -6.093 -11.695  1.00  0.00     0.038 C 
HETATM   24  C27 UNL     1      30.213  -6.821 -12.410  1.00  0.00     0.014 C 
HETATM   25  C28 UNL     1      28.450  -7.220 -14.147  1.00  0.00     0.047 C 
ENDROOT
BRANCH   1  26
HETATM   26  N2  UNL     1      27.023  -8.011 -15.972  1.00  0.00    -0.069 N 
ATOM     27  H22 UNL     1      27.454  -7.263 -16.516  1.00  0.00     0.277 HD
ATOM     28  H21 UNL     1      26.204  -7.512 -15.625  1.00  0.00     0.277 HD
BRANCH  26  29
HETATM   29  C3  UNL     1      26.641  -9.108 -16.815  1.00  0.00     0.260 C 
BRANCH  29  30
HETATM   30  C2  UNL     1      27.827  -9.858 -17.385  1.00  0.00     0.259 C 
BRANCH  30  31
HETATM   31  N1  UNL     1      28.336  -9.175 -18.563  1.00  0.00    -0.077 N 
HETATM   32  C1  UNL     1      29.722  -8.843 -18.316  1.00  0.00     0.267 C 
ATOM     33  H12 UNL     1      27.775  -8.365 -18.825  1.00  0.00     0.276 HD
ATOM     34  H11 UNL     1      28.204  -9.713 -19.420  1.00  0.00     0.276 HD
ENDBRANCH  30  31
ENDBRANCH  29  30
ENDBRANCH  26  29
ENDBRANCH   1  26
BRANCH  17  35
HETATM   35  O2  UNL     1      33.533  -7.085 -12.649  1.00  0.00    -0.395 OA
ATOM     36  H2  UNL     1      34.165  -6.429 -12.381  1.00  0.00     0.210 HD
ENDBRANCH  17  35
BRANCH  20  37
HETATM   37  O3  UNL     1      30.942  -4.124 -14.074  1.00  0.00    -0.395 OA
ATOM     38  H3  UNL     1      30.318  -3.425 -14.225  1.00  0.00     0.210 HD
ENDBRANCH  20  37
BRANCH  22  39
HETATM   39  O4  UNL     1      27.750  -4.216 -11.483  1.00  0.00    -0.395 OA
ATOM     40  H4  UNL     1      26.998  -4.785 -11.601  1.00  0.00     0.210 HD
ENDBRANCH  22  39
BRANCH   9  41
HETATM   41  O1  UNL     1      27.909 -14.351 -10.005  1.00  0.00    -0.396 OA
ATOM     42  H1  UNL     1      27.393 -15.114 -10.235  1.00  0.00     0.210 HD
ENDBRANCH   9  41
TORSDOF 8
ENDMDL
