MODEL 1
REMARK VINA RESULT: -8.222127259      0.000      0.000
REMARK  11 active torsions:
REMARK  status: ('A' for Active; 'I' for Inactive)
REMARK    1  A    between atoms: C2_2  and  C4_4 
REMARK    2  A    between atoms: C4_4  and  C5_5 
REMARK    3  A    between atoms: C5_5  and  C6_6 
REMARK    4  A    between atoms: C6_6  and  C7_7 
REMARK    5  A    between atoms: C7_7  and  C9_9 
REMARK    6  A    between atoms: C15_15  and  O1_16 
REMARK    7  A    between atoms: C18_20  and  O2_21 
REMARK    8  A    between atoms: C19_23  and  O3_24 
REMARK    9  A    between atoms: C21_27  and  O4_28 
REMARK   10  A    between atoms: C23_31  and  O5_32 
REMARK   11  A    between atoms: C24_34  and  O6_35 
ROOT
HETATM    1  C9  UNL     1      29.538 -10.782 -14.445  1.00  0.00    -0.002 C 
HETATM    2  C10 UNL     1      28.197 -11.266 -15.052  1.00  0.00     0.006 C 
HETATM    3  C11 UNL     1      27.562 -12.082 -13.969  1.00  0.00     0.011 C 
HETATM    4  C12 UNL     1      28.229 -11.668 -12.668  1.00  0.00    -0.027 C 
HETATM    5  C13 UNL     1      29.133 -12.850 -12.312  1.00  0.00     0.016 C 
HETATM    6  C14 UNL     1      27.197 -11.532 -11.650  1.00  0.00     0.061 C 
HETATM    7  C15 UNL     1      27.626 -11.938 -10.239  1.00  0.00     0.127 C 
HETATM    8  C16 UNL     1      27.158 -10.867  -9.308  1.00  0.00     0.048 C 
HETATM    9  C17 UNL     1      25.923 -10.377 -10.104  1.00  0.00     0.031 C 
HETATM   10  C18 UNL     1      25.353  -9.242  -9.354  1.00  0.00     0.159 C 
HETATM   11  C19 UNL     1      23.980  -9.835  -8.912  1.00  0.00     0.154 C 
HETATM   12  C20 UNL     1      23.667 -10.486 -10.215  1.00  0.00     0.054 A 
HETATM   13  C21 UNL     1      23.742 -11.787 -10.733  1.00  0.00     0.130 A 
HETATM   14  C22 UNL     1      24.929 -11.436 -10.050  1.00  0.00     0.038 A 
HETATM   15  C23 UNL     1      26.597 -10.144 -11.414  1.00  0.00     0.101 C 
HETATM   16  C24 UNL     1      27.788  -9.240 -11.400  1.00  0.00     0.154 C 
HETATM   17  C25 UNL     1      28.278  -9.255 -12.866  1.00  0.00     0.045 C 
HETATM   18  C26 UNL     1      29.090 -10.493 -13.006  1.00  0.00    -0.030 C 
HETATM   19  C27 UNL     1      30.332 -10.350 -12.205  1.00  0.00     0.016 C 
ENDROOT
BRANCH  10  20
HETATM   20  O2  UNL     1      24.880  -8.184 -10.172  1.00  0.00    -0.392 OA
ATOM     21  H2  UNL     1      25.089  -7.316  -9.848  1.00  0.00     0.210 HD
ENDBRANCH  10  20
BRANCH  15  22
HETATM   22  O5  UNL     1      25.784  -9.700 -12.414  1.00  0.00    -0.386 OA
ATOM     23  H5  UNL     1      25.542  -8.784 -12.349  1.00  0.00     0.210 HD
ENDBRANCH  15  22
BRANCH   7  24
HETATM   24  O1  UNL     1      27.005 -13.153  -9.867  1.00  0.00    -0.395 OA
ATOM     25  H1  UNL     1      27.572 -13.888 -10.067  1.00  0.00     0.210 HD
ENDBRANCH   7  24
BRANCH  11  26
HETATM   26  O3  UNL     1      23.114  -8.827  -8.560  1.00  0.00    -0.392 OA
ATOM     27  H3  UNL     1      22.819  -8.942  -7.664  1.00  0.00     0.210 HD
ENDBRANCH  11  26
BRANCH  13  28
HETATM   28  O4  UNL     1      22.799 -12.706 -10.206  1.00  0.00    -0.395 OA
ATOM     29  H4  UNL     1      23.169 -13.488  -9.813  1.00  0.00     0.210 HD
ENDBRANCH  13  28
BRANCH  16  30
HETATM   30  O6  UNL     1      27.568  -7.928 -11.099  1.00  0.00    -0.392 OA
ATOM     31  H6  UNL     1      27.023  -7.743 -10.343  1.00  0.00     0.210 HD
ENDBRANCH  16  30
BRANCH   1  32
HETATM   32  C7  UNL     1      29.929  -9.607 -15.228  1.00  0.00    -0.014 C 
HETATM   33  C8  UNL     1      31.259  -9.571 -15.889  1.00  0.00     0.010 C 
BRANCH  32  34
HETATM   34  C6  UNL     1      28.899  -9.179 -16.210  1.00  0.00     0.005 C 
BRANCH  34  35
HETATM   35  C5  UNL     1      29.279  -8.550 -17.470  1.00  0.00     0.001 C 
BRANCH  35  36
HETATM   36  C4  UNL     1      28.955  -9.197 -18.762  1.00  0.00     0.004 C 
BRANCH  36  37
HETATM   37  C2  UNL     1      28.498 -10.663 -18.530  1.00  0.00    -0.023 C 
HETATM   38  C1  UNL     1      27.179 -10.921 -19.189  1.00  0.00     0.009 C 
HETATM   39  C3  UNL     1      29.538 -11.543 -19.192  1.00  0.00     0.009 C 
ENDBRANCH  36  37
ENDBRANCH  35  36
ENDBRANCH  34  35
ENDBRANCH  32  34
ENDBRANCH   1  32
TORSDOF 11
ENDMDL
MODEL 2
REMARK VINA RESULT: -7.812416442      0.740      1.076
REMARK  11 active torsions:
REMARK  status: ('A' for Active; 'I' for Inactive)
REMARK    1  A    between atoms: C2_2  and  C4_4 
REMARK    2  A    between atoms: C4_4  and  C5_5 
REMARK    3  A    between atoms: C5_5  and  C6_6 
REMARK    4  A    between atoms: C6_6  and  C7_7 
REMARK    5  A    between atoms: C7_7  and  C9_9 
REMARK    6  A    between atoms: C15_15  and  O1_16 
REMARK    7  A    between atoms: C18_20  and  O2_21 
REMARK    8  A    between atoms: C19_23  and  O3_24 
REMARK    9  A    between atoms: C21_27  and  O4_28 
REMARK   10  A    between atoms: C23_31  and  O5_32 
REMARK   11  A    between atoms: C24_34  and  O6_35 
ROOT
HETATM    1  C9  UNL     1      28.891 -10.403 -14.876  1.00  0.00    -0.002 C 
HETATM    2  C10 UNL     1      27.520 -10.953 -15.343  1.00  0.00     0.006 C 
HETATM    3  C11 UNL     1      27.048 -11.808 -14.207  1.00  0.00     0.011 C 
HETATM    4  C12 UNL     1      27.828 -11.368 -12.980  1.00  0.00    -0.027 C 
HETATM    5  C13 UNL     1      28.825 -12.503 -12.737  1.00  0.00     0.016 C 
HETATM    6  C14 UNL     1      26.905 -11.292 -11.857  1.00  0.00     0.061 C 
HETATM    7  C15 UNL     1      27.503 -11.684 -10.504  1.00  0.00     0.127 C 
HETATM    8  C16 UNL     1      27.082 -10.646  -9.516  1.00  0.00     0.048 C 
HETATM    9  C17 UNL     1      25.745 -10.216 -10.170  1.00  0.00     0.031 C 
HETATM   10  C18 UNL     1      25.201  -9.117  -9.351  1.00  0.00     0.159 C 
HETATM   11  C19 UNL     1      23.915  -9.785  -8.771  1.00  0.00     0.154 C 
HETATM   12  C20 UNL     1      23.500 -10.444 -10.041  1.00  0.00     0.054 A 
HETATM   13  C21 UNL     1      23.586 -11.736 -10.580  1.00  0.00     0.130 A 
HETATM   14  C22 UNL     1      24.819 -11.327 -10.023  1.00  0.00     0.038 A 
HETATM   15  C23 UNL     1      26.263  -9.940 -11.542  1.00  0.00     0.101 C 
HETATM   16  C24 UNL     1      27.400  -8.974 -11.644  1.00  0.00     0.154 C 
HETATM   17  C25 UNL     1      27.730  -8.954 -13.154  1.00  0.00     0.045 C 
HETATM   18  C26 UNL     1      28.585 -10.147 -13.394  1.00  0.00    -0.030 C 
HETATM   19  C27 UNL     1      29.897  -9.943 -12.728  1.00  0.00     0.016 C 
ENDROOT
BRANCH  10  20
HETATM   20  O2  UNL     1      24.588  -8.081 -10.101  1.00  0.00    -0.392 OA
ATOM     21  H2  UNL     1      23.872  -7.646  -9.653  1.00  0.00     0.210 HD
ENDBRANCH  10  20
BRANCH  15  22
HETATM   22  O5  UNL     1      25.325  -9.533 -12.444  1.00  0.00    -0.386 OA
ATOM     23  H5  UNL     1      24.555  -9.131 -12.060  1.00  0.00     0.210 HD
ENDBRANCH  15  22
BRANCH   7  24
HETATM   24  O1  UNL     1      26.989 -12.933 -10.083  1.00  0.00    -0.395 OA
ATOM     25  H1  UNL     1      27.643 -13.407  -9.582  1.00  0.00     0.210 HD
ENDBRANCH   7  24
BRANCH  11  26
HETATM   26  O3  UNL     1      23.042  -8.826  -8.317  1.00  0.00    -0.392 OA
ATOM     27  H3  UNL     1      22.183  -9.205  -8.168  1.00  0.00     0.210 HD
ENDBRANCH  11  26
BRANCH  13  28
HETATM   28  O4  UNL     1      22.754 -12.707  -9.966  1.00  0.00    -0.395 OA
ATOM     29  H4  UNL     1      22.098 -13.096 -10.532  1.00  0.00     0.210 HD
ENDBRANCH  13  28
BRANCH  16  30
HETATM   30  O6  UNL     1      27.146  -7.677 -11.305  1.00  0.00    -0.392 OA
ATOM     31  H6  UNL     1      27.893  -7.130 -11.097  1.00  0.00     0.210 HD
ENDBRANCH  16  30
BRANCH   1  32
HETATM   32  C7  UNL     1      29.135  -9.204 -15.682  1.00  0.00    -0.014 C 
HETATM   33  C8  UNL     1      30.529  -8.796 -15.994  1.00  0.00     0.010 C 
BRANCH  32  34
HETATM   34  C6  UNL     1      28.335  -9.158 -16.934  1.00  0.00     0.005 C 
BRANCH  34  35
HETATM   35  C5  UNL     1      28.950  -9.437 -18.227  1.00  0.00     0.001 C 
BRANCH  35  36
HETATM   36  C4  UNL     1      28.873 -10.791 -18.821  1.00  0.00     0.004 C 
BRANCH  36  37
HETATM   37  C2  UNL     1      30.299 -11.378 -19.006  1.00  0.00    -0.023 C 
HETATM   38  C1  UNL     1      31.306 -10.285 -19.192  1.00  0.00     0.009 C 
HETATM   39  C3  UNL     1      30.629 -12.110 -17.721  1.00  0.00     0.009 C 
ENDBRANCH  36  37
ENDBRANCH  35  36
ENDBRANCH  34  35
ENDBRANCH  32  34
ENDBRANCH   1  32
TORSDOF 11
ENDMDL
MODEL 3
REMARK VINA RESULT: -7.721461965      1.521      2.597
REMARK  11 active torsions:
REMARK  status: ('A' for Active; 'I' for Inactive)
REMARK    1  A    between atoms: C2_2  and  C4_4 
REMARK    2  A    between atoms: C4_4  and  C5_5 
REMARK    3  A    between atoms: C5_5  and  C6_6 
REMARK    4  A    between atoms: C6_6  and  C7_7 
REMARK    5  A    between atoms: C7_7  and  C9_9 
REMARK    6  A    between atoms: C15_15  and  O1_16 
REMARK    7  A    between atoms: C18_20  and  O2_21 
REMARK    8  A    between atoms: C19_23  and  O3_24 
REMARK    9  A    between atoms: C21_27  and  O4_28 
REMARK   10  A    between atoms: C23_31  and  O5_32 
REMARK   11  A    between atoms: C24_34  and  O6_35 
ROOT
HETATM    1  C9  UNL     1      29.123 -10.410 -14.636  1.00  0.00    -0.002 C 
HETATM    2  C10 UNL     1      27.754 -10.881 -15.189  1.00  0.00     0.006 C 
HETATM    3  C11 UNL     1      27.198 -11.769 -14.119  1.00  0.00     0.011 C 
HETATM    4  C12 UNL     1      27.937 -11.419 -12.838  1.00  0.00    -0.027 C 
HETATM    5  C13 UNL     1      28.876 -12.604 -12.607  1.00  0.00     0.016 C 
HETATM    6  C14 UNL     1      26.966 -11.359 -11.754  1.00  0.00     0.061 C 
HETATM    7  C15 UNL     1      27.485 -11.838 -10.397  1.00  0.00     0.127 C 
HETATM    8  C16 UNL     1      27.060 -10.831  -9.380  1.00  0.00     0.048 C 
HETATM    9  C17 UNL     1      25.773 -10.317 -10.070  1.00  0.00     0.031 C 
HETATM   10  C18 UNL     1      25.234  -9.236  -9.223  1.00  0.00     0.159 C 
HETATM   11  C19 UNL     1      23.898  -9.877  -8.734  1.00  0.00     0.154 C 
HETATM   12  C20 UNL     1      23.516 -10.458 -10.052  1.00  0.00     0.054 A 
HETATM   13  C21 UNL     1      23.577 -11.726 -10.649  1.00  0.00     0.130 A 
HETATM   14  C22 UNL     1      24.799 -11.394 -10.018  1.00  0.00     0.038 A 
HETATM   15  C23 UNL     1      26.363  -9.997 -11.402  1.00  0.00     0.101 C 
HETATM   16  C24 UNL     1      27.540  -9.075 -11.407  1.00  0.00     0.154 C 
HETATM   17  C25 UNL     1      27.941  -8.998 -12.898  1.00  0.00     0.045 C 
HETATM   18  C26 UNL     1      28.759 -10.212 -13.157  1.00  0.00    -0.030 C 
HETATM   19  C27 UNL     1      30.046 -10.094 -12.426  1.00  0.00     0.016 C 
ENDROOT
BRANCH  10  20
HETATM   20  O2  UNL     1      24.697  -8.142  -9.947  1.00  0.00    -0.392 OA
ATOM     21  H2  UNL     1      24.993  -7.291  -9.645  1.00  0.00     0.210 HD
ENDBRANCH  10  20
BRANCH  15  22
HETATM   22  O5  UNL     1      25.485  -9.511 -12.324  1.00  0.00    -0.386 OA
ATOM     23  H5  UNL     1      24.570  -9.621 -12.094  1.00  0.00     0.210 HD
ENDBRANCH  15  22
BRANCH   7  24
HETATM   24  O1  UNL     1      26.904 -13.083 -10.060  1.00  0.00    -0.395 OA
ATOM     25  H1  UNL     1      26.198 -12.960  -9.438  1.00  0.00     0.210 HD
ENDBRANCH   7  24
BRANCH  11  26
HETATM   26  O3  UNL     1      23.042  -8.906  -8.273  1.00  0.00    -0.392 OA
ATOM     27  H3  UNL     1      22.390  -8.698  -8.932  1.00  0.00     0.210 HD
ENDBRANCH  11  26
BRANCH  13  28
HETATM   28  O4  UNL     1      22.681 -12.689 -10.120  1.00  0.00    -0.395 OA
ATOM     29  H4  UNL     1      21.930 -12.888 -10.667  1.00  0.00     0.210 HD
ENDBRANCH  13  28
BRANCH  16  30
HETATM   30  O6  UNL     1      27.321  -7.787 -11.016  1.00  0.00    -0.392 OA
ATOM     31  H6  UNL     1      26.419  -7.525 -10.874  1.00  0.00     0.210 HD
ENDBRANCH  16  30
BRANCH   1  32
HETATM   32  C7  UNL     1      29.450  -9.186 -15.371  1.00  0.00    -0.014 C 
HETATM   33  C8  UNL     1      30.603  -9.174 -16.308  1.00  0.00     0.010 C 
BRANCH  32  34
HETATM   34  C6  UNL     1      28.279  -8.571 -16.049  1.00  0.00     0.005 C 
BRANCH  34  35
HETATM   35  C5  UNL     1      27.826  -7.231 -15.695  1.00  0.00     0.001 C 
BRANCH  35  36
HETATM   36  C4  UNL     1      28.795  -6.120 -15.557  1.00  0.00     0.004 C 
BRANCH  36  37
HETATM   37  C2  UNL     1      28.883  -5.665 -14.075  1.00  0.00    -0.023 C 
HETATM   38  C1  UNL     1      30.165  -6.122 -13.452  1.00  0.00     0.009 C 
HETATM   39  C3  UNL     1      28.880  -4.150 -14.093  1.00  0.00     0.009 C 
ENDBRANCH  36  37
ENDBRANCH  35  36
ENDBRANCH  34  35
ENDBRANCH  32  34
ENDBRANCH   1  32
TORSDOF 11
ENDMDL
MODEL 4
REMARK VINA RESULT: -7.362535459      0.820      1.223
REMARK  11 active torsions:
REMARK  status: ('A' for Active; 'I' for Inactive)
REMARK    1  A    between atoms: C2_2  and  C4_4 
REMARK    2  A    between atoms: C4_4  and  C5_5 
REMARK    3  A    between atoms: C5_5  and  C6_6 
REMARK    4  A    between atoms: C6_6  and  C7_7 
REMARK    5  A    between atoms: C7_7  and  C9_9 
REMARK    6  A    between atoms: C15_15  and  O1_16 
REMARK    7  A    between atoms: C18_20  and  O2_21 
REMARK    8  A    between atoms: C19_23  and  O3_24 
REMARK    9  A    between atoms: C21_27  and  O4_28 
REMARK   10  A    between atoms: C23_31  and  O5_32 
REMARK   11  A    between atoms: C24_34  and  O6_35 
ROOT
HETATM    1  C9  UNL     1      29.519 -11.144 -14.300  1.00  0.00    -0.002 C 
HETATM    2  C10 UNL     1      28.170 -11.625 -14.890  1.00  0.00     0.006 C 
HETATM    3  C11 UNL     1      27.506 -12.362 -13.767  1.00  0.00     0.011 C 
HETATM    4  C12 UNL     1      28.176 -11.893 -12.486  1.00  0.00    -0.027 C 
HETATM    5  C13 UNL     1      29.045 -13.076 -12.057  1.00  0.00     0.016 C 
HETATM    6  C14 UNL     1      27.140 -11.671 -11.486  1.00  0.00     0.061 C 
HETATM    7  C15 UNL     1      27.549 -12.008 -10.051  1.00  0.00     0.127 C 
HETATM    8  C16 UNL     1      27.104 -10.874  -9.186  1.00  0.00     0.048 C 
HETATM    9  C17 UNL     1      25.888 -10.397 -10.018  1.00  0.00     0.031 C 
HETATM   10  C18 UNL     1      25.343  -9.207  -9.339  1.00  0.00     0.159 C 
HETATM   11  C19 UNL     1      23.952  -9.737  -8.875  1.00  0.00     0.154 C 
HETATM   12  C20 UNL     1      23.631 -10.453 -10.141  1.00  0.00     0.054 A 
HETATM   13  C21 UNL     1      23.674 -11.783 -10.584  1.00  0.00     0.130 A 
HETATM   14  C22 UNL     1      24.866 -11.425  -9.912  1.00  0.00     0.038 A 
HETATM   15  C23 UNL     1      26.577 -10.257 -11.334  1.00  0.00     0.101 C 
HETATM   16  C24 UNL     1      27.791  -9.385 -11.361  1.00  0.00     0.154 C 
HETATM   17  C25 UNL     1      28.290  -9.497 -12.820  1.00  0.00     0.045 C 
HETATM   18  C26 UNL     1      29.069 -10.761 -12.883  1.00  0.00    -0.030 C 
HETATM   19  C27 UNL     1      30.310 -10.606 -12.082  1.00  0.00     0.016 C 
ENDROOT
BRANCH  10  20
HETATM   20  O2  UNL     1      24.904  -8.185 -10.219  1.00  0.00    -0.392 OA
ATOM     21  H2  UNL     1      25.280  -8.232 -11.090  1.00  0.00     0.210 HD
ENDBRANCH  10  20
BRANCH  15  22
HETATM   22  O5  UNL     1      25.782  -9.849 -12.364  1.00  0.00    -0.386 OA
ATOM     23  H5  UNL     1      25.400  -8.987 -12.251  1.00  0.00     0.210 HD
ENDBRANCH  15  22
BRANCH   7  24
HETATM   24  O1  UNL     1      26.893 -13.183  -9.616  1.00  0.00    -0.395 OA
ATOM     25  H1  UNL     1      27.510 -13.766  -9.188  1.00  0.00     0.210 HD
ENDBRANCH   7  24
BRANCH  11  26
HETATM   26  O3  UNL     1      23.111  -8.688  -8.587  1.00  0.00    -0.392 OA
ATOM     27  H3  UNL     1      22.368  -8.990  -8.078  1.00  0.00     0.210 HD
ENDBRANCH  11  26
BRANCH  13  28
HETATM   28  O4  UNL     1      22.704 -12.645 -10.013  1.00  0.00    -0.395 OA
ATOM     29  H4  UNL     1      22.256 -13.216 -10.626  1.00  0.00     0.210 HD
ENDBRANCH  13  28
BRANCH  16  30
HETATM   30  O6  UNL     1      27.604  -8.053 -11.137  1.00  0.00    -0.392 OA
ATOM     31  H6  UNL     1      28.340  -7.566 -10.784  1.00  0.00     0.210 HD
ENDBRANCH  16  30
BRANCH   1  32
HETATM   32  C7  UNL     1      29.947 -10.026 -15.145  1.00  0.00    -0.014 C 
HETATM   33  C8  UNL     1      31.393  -9.811 -15.408  1.00  0.00     0.010 C 
BRANCH  32  34
HETATM   34  C6  UNL     1      29.212  -9.942 -16.435  1.00  0.00     0.005 C 
BRANCH  34  35
HETATM   35  C5  UNL     1      29.373  -8.792 -17.316  1.00  0.00     0.001 C 
BRANCH  35  36
HETATM   36  C4  UNL     1      29.511  -8.977 -18.779  1.00  0.00     0.004 C 
BRANCH  36  37
HETATM   37  C2  UNL     1      31.006  -8.897 -19.192  1.00  0.00    -0.023 C 
HETATM   38  C1  UNL     1      31.743  -7.912 -18.339  1.00  0.00     0.009 C 
HETATM   39  C3  UNL     1      31.592 -10.271 -18.941  1.00  0.00     0.009 C 
ENDBRANCH  36  37
ENDBRANCH  35  36
ENDBRANCH  34  35
ENDBRANCH  32  34
ENDBRANCH   1  32
TORSDOF 11
ENDMDL
MODEL 5
REMARK VINA RESULT: -7.138764500      5.650     10.080
REMARK  11 active torsions:
REMARK  status: ('A' for Active; 'I' for Inactive)
REMARK    1  A    between atoms: C2_2  and  C4_4 
REMARK    2  A    between atoms: C4_4  and  C5_5 
REMARK    3  A    between atoms: C5_5  and  C6_6 
REMARK    4  A    between atoms: C6_6  and  C7_7 
REMARK    5  A    between atoms: C7_7  and  C9_9 
REMARK    6  A    between atoms: C15_15  and  O1_16 
REMARK    7  A    between atoms: C18_20  and  O2_21 
REMARK    8  A    between atoms: C19_23  and  O3_24 
REMARK    9  A    between atoms: C21_27  and  O4_28 
REMARK   10  A    between atoms: C23_31  and  O5_32 
REMARK   11  A    between atoms: C24_34  and  O6_35 
ROOT
HETATM    1  C9  UNL     1      26.478 -14.553  -4.570  1.00  0.00    -0.002 C 
HETATM    2  C10 UNL     1      25.483 -15.193  -5.571  1.00  0.00     0.006 C 
HETATM    3  C11 UNL     1      25.096 -14.074  -6.488  1.00  0.00     0.011 C 
HETATM    4  C12 UNL     1      26.175 -13.013  -6.356  1.00  0.00    -0.027 C 
HETATM    5  C13 UNL     1      25.510 -11.892  -5.556  1.00  0.00     0.016 C 
HETATM    6  C14 UNL     1      26.496 -12.523  -7.690  1.00  0.00     0.061 C 
HETATM    7  C15 UNL     1      26.854 -11.037  -7.761  1.00  0.00     0.127 C 
HETATM    8  C16 UNL     1      28.082 -10.917  -8.603  1.00  0.00     0.048 C 
HETATM    9  C17 UNL     1      27.878 -12.157  -9.508  1.00  0.00     0.031 C 
HETATM   10  C18 UNL     1      29.059 -12.247 -10.386  1.00  0.00     0.159 C 
HETATM   11  C19 UNL     1      28.417 -11.973 -11.781  1.00  0.00     0.154 C 
HETATM   12  C20 UNL     1      27.212 -12.822 -11.564  1.00  0.00     0.054 A 
HETATM   13  C21 UNL     1      25.872 -12.597 -11.218  1.00  0.00     0.130 A 
HETATM   14  C22 UNL     1      26.748 -11.873 -10.378  1.00  0.00     0.038 A 
HETATM   15  C23 UNL     1      27.668 -13.169  -8.431  1.00  0.00     0.101 C 
HETATM   16  C24 UNL     1      28.737 -13.267  -7.391  1.00  0.00     0.154 C 
HETATM   17  C25 UNL     1      28.201 -14.338  -6.414  1.00  0.00     0.045 C 
HETATM   18  C26 UNL     1      27.251 -13.626  -5.519  1.00  0.00    -0.030 C 
HETATM   19  C27 UNL     1      28.011 -12.688  -4.654  1.00  0.00     0.016 C 
ENDROOT
BRANCH  10  20
HETATM   20  O2  UNL     1      29.516 -13.571 -10.613  1.00  0.00    -0.392 OA
ATOM     21  H2  UNL     1      28.980 -14.070 -11.218  1.00  0.00     0.210 HD
ENDBRANCH  10  20
BRANCH  15  22
HETATM   22  O5  UNL     1      27.432 -14.439  -8.867  1.00  0.00    -0.386 OA
ATOM     23  H5  UNL     1      28.107 -14.794  -9.434  1.00  0.00     0.210 HD
ENDBRANCH  15  22
BRANCH   7  24
HETATM   24  O1  UNL     1      25.814 -10.310  -8.385  1.00  0.00    -0.395 OA
ATOM     25  H1  UNL     1      26.002  -9.379  -8.361  1.00  0.00     0.210 HD
ENDBRANCH   7  24
BRANCH  11  26
HETATM   26  O3  UNL     1      29.247 -12.412 -12.785  1.00  0.00    -0.392 OA
ATOM     27  H3  UNL     1      28.768 -12.485 -13.602  1.00  0.00     0.210 HD
ENDBRANCH  11  26
BRANCH  13  28
HETATM   28  O4  UNL     1      25.082 -11.975 -12.218  1.00  0.00    -0.395 OA
ATOM     29  H4  UNL     1      25.463 -11.199 -12.613  1.00  0.00     0.210 HD
ENDBRANCH  13  28
BRANCH  16  30
HETATM   30  O6  UNL     1      29.960 -13.717  -7.796  1.00  0.00    -0.392 OA
ATOM     31  H6  UNL     1      30.593 -13.920  -7.118  1.00  0.00     0.210 HD
ENDBRANCH  16  30
BRANCH   1  32
HETATM   32  C7  UNL     1      27.252 -15.665  -4.012  1.00  0.00    -0.014 C 
HETATM   33  C8  UNL     1      27.960 -15.494  -2.717  1.00  0.00     0.010 C 
BRANCH  32  34
HETATM   34  C6  UNL     1      26.505 -16.950  -3.979  1.00  0.00     0.005 C 
BRANCH  34  35
HETATM   35  C5  UNL     1      26.878 -18.010  -3.049  1.00  0.00     0.001 C 
BRANCH  35  36
HETATM   36  C4  UNL     1      26.360 -19.386  -3.229  1.00  0.00     0.004 C 
BRANCH  36  37
HETATM   37  C2  UNL     1      27.249 -20.400  -2.460  1.00  0.00    -0.023 C 
HETATM   38  C1  UNL     1      27.977 -21.299  -3.411  1.00  0.00     0.009 C 
HETATM   39  C3  UNL     1      28.276 -19.581  -1.705  1.00  0.00     0.009 C 
ENDBRANCH  36  37
ENDBRANCH  35  36
ENDBRANCH  34  35
ENDBRANCH  32  34
ENDBRANCH   1  32
TORSDOF 11
ENDMDL
