MODEL 1
REMARK VINA RESULT: -8.110575261      0.000      0.000
REMARK  10 active torsions:
REMARK  status: ('A' for Active; 'I' for Inactive)
REMARK    1  A    between atoms: C3_3  and  N1_4 
REMARK    2  A    between atoms: N1_4  and  C4_7 
REMARK    3  A    between atoms: C9_12  and  C10_13 
REMARK    4  A    between atoms: C10_13  and  C11_14 
REMARK    5  A    between atoms: C11_14  and  O1_15 
REMARK    6  A    between atoms: C11_14  and  C12_17 
REMARK    7  A    between atoms: C12_17  and  O2_18 
REMARK    8  A    between atoms: C17_24  and  O3_25 
REMARK    9  A    between atoms: C19_28  and  O4_29 
REMARK   10  A    between atoms: C21_32  and  O5_33 
ROOT
HETATM    1  C1  UNL     1      26.403 -12.362 -12.900  1.00  0.00     0.012 C 
HETATM    2  C2  UNL     1      27.664 -11.731 -12.468  1.00  0.00     0.017 C 
HETATM    3  C3  UNL     1      27.545 -11.746 -10.899  1.00  0.00     0.195 C 
HETATM    4  C9  UNL     1      26.366 -10.744 -10.796  1.00  0.00     0.023 C 
HETATM    5  C13 UNL     1      26.796  -9.707 -11.770  1.00  0.00    -0.004 C 
HETATM    6  C14 UNL     1      27.457  -8.479 -11.233  1.00  0.00     0.006 C 
HETATM    7  C15 UNL     1      27.423  -7.497 -12.400  1.00  0.00     0.008 C 
HETATM    8  C16 UNL     1      27.441  -8.158 -13.751  1.00  0.00     0.020 C 
HETATM    9  C17 UNL     1      28.169  -7.170 -14.631  1.00  0.00     0.125 C 
HETATM   10  C18 UNL     1      28.575  -7.655 -15.947  1.00  0.00     0.071 C 
HETATM   11  C19 UNL     1      28.888  -9.089 -16.089  1.00  0.00     0.070 C 
HETATM   12  C20 UNL     1      28.820  -9.469 -17.524  1.00  0.00     0.070 C 
HETATM   13  C21 UNL     1      27.444  -9.706 -18.065  1.00  0.00     0.121 C 
HETATM   14  C22 UNL     1      26.379  -9.679 -17.006  1.00  0.00     0.032 C 
HETATM   15  C23 UNL     1      26.772 -10.318 -15.716  1.00  0.00     0.015 C 
HETATM   16  C24 UNL     1      28.104 -10.037 -15.177  1.00  0.00    -0.008 C 
HETATM   17  C25 UNL     1      28.966 -11.315 -15.198  1.00  0.00     0.019 C 
HETATM   18  C26 UNL     1      28.170  -9.516 -13.769  1.00  0.00     0.008 C 
HETATM   19  C27 UNL     1      27.936 -10.338 -12.620  1.00  0.00     0.001 C 
ENDROOT
BRANCH   3  20
HETATM   20  N1  UNL     1      27.213 -13.018 -10.395  1.00  0.00    -0.066 N 
ATOM     21  H12 UNL     1      26.314 -12.995  -9.913  1.00  0.00     0.278 HD
ATOM     22  H11 UNL     1      26.980 -13.659 -11.154  1.00  0.00     0.278 HD
BRANCH  20  23
HETATM   23  C4  UNL     1      28.220 -13.571  -9.559  1.00  0.00     0.186 C 
HETATM   24  C5  UNL     1      29.501 -12.765  -9.523  1.00  0.00     0.033 C 
HETATM   25  C6  UNL     1      30.186 -13.307  -8.270  1.00  0.00     0.002 C 
HETATM   26  C7  UNL     1      29.083 -13.873  -7.401  1.00  0.00     0.002 C 
HETATM   27  C8  UNL     1      27.781 -13.473  -8.090  1.00  0.00     0.033 C 
ENDBRANCH  20  23
ENDBRANCH   3  20
BRANCH   4  28
HETATM   28  C10 UNL     1      26.200 -10.357  -9.388  1.00  0.00     0.041 C 
BRANCH  28  29
HETATM   29  C11 UNL     1      24.924 -10.703  -8.716  1.00  0.00     0.142 C 
BRANCH  29  30
HETATM   30  O1  UNL     1      24.588 -12.065  -8.922  1.00  0.00    -0.393 OA
ATOM     31  H1  UNL     1      23.686 -12.237  -8.679  1.00  0.00     0.210 HD
ENDBRANCH  29  30
BRANCH  29  32
HETATM   32  C12 UNL     1      23.739  -9.942  -9.314  1.00  0.00     0.195 C 
BRANCH  32  33
HETATM   33  O2  UNL     1      22.641 -10.251  -8.482  1.00  0.00    -0.398 OA
ATOM     34  H2  UNL     1      22.854 -11.088  -8.088  1.00  0.00     0.209 HD
ENDBRANCH  32  33
ENDBRANCH  29  32
ENDBRANCH  28  29
ENDBRANCH   4  28
BRANCH   9  35
HETATM   35  O3  UNL     1      29.327  -6.790 -13.912  1.00  0.00    -0.395 OA
ATOM     36  H3  UNL     1      29.134  -5.937 -13.539  1.00  0.00     0.210 HD
ENDBRANCH   9  35
BRANCH  11  37
HETATM   37  O4  UNL     1      30.240  -9.257 -15.695  1.00  0.00    -0.389 OA
ATOM     38  H4  UNL     1      30.264  -9.993 -15.095  1.00  0.00     0.210 HD
ENDBRANCH  11  37
BRANCH  13  39
HETATM   39  O5  UNL     1      27.387 -10.960 -18.719  1.00  0.00    -0.395 OA
ATOM     40  H5  UNL     1      26.988 -10.864 -19.575  1.00  0.00     0.210 HD
ENDBRANCH  13  39
TORSDOF 10
ENDMDL
MODEL 2
REMARK VINA RESULT: -7.627998396      2.550      3.384
REMARK  10 active torsions:
REMARK  status: ('A' for Active; 'I' for Inactive)
REMARK    1  A    between atoms: C3_3  and  N1_4 
REMARK    2  A    between atoms: N1_4  and  C4_7 
REMARK    3  A    between atoms: C9_12  and  C10_13 
REMARK    4  A    between atoms: C10_13  and  C11_14 
REMARK    5  A    between atoms: C11_14  and  O1_15 
REMARK    6  A    between atoms: C11_14  and  C12_17 
REMARK    7  A    between atoms: C12_17  and  O2_18 
REMARK    8  A    between atoms: C17_24  and  O3_25 
REMARK    9  A    between atoms: C19_28  and  O4_29 
REMARK   10  A    between atoms: C21_32  and  O5_33 
ROOT
HETATM    1  C1  UNL     1      28.300 -11.133 -12.725  1.00  0.00     0.012 C 
HETATM    2  C2  UNL     1      28.185 -10.473 -11.411  1.00  0.00     0.017 C 
HETATM    3  C3  UNL     1      26.927 -11.172 -10.776  1.00  0.00     0.195 C 
HETATM    4  C9  UNL     1      25.881 -10.605 -11.769  1.00  0.00     0.023 C 
HETATM    5  C13 UNL     1      26.317  -9.187 -11.852  1.00  0.00    -0.004 C 
HETATM    6  C14 UNL     1      25.586  -8.183 -11.020  1.00  0.00     0.006 C 
HETATM    7  C15 UNL     1      26.006  -6.838 -11.604  1.00  0.00     0.008 C 
HETATM    8  C16 UNL     1      27.376  -6.846 -12.224  1.00  0.00     0.020 C 
HETATM    9  C17 UNL     1      27.887  -5.443 -12.000  1.00  0.00     0.125 C 
HETATM   10  C18 UNL     1      29.306  -5.222 -12.262  1.00  0.00     0.071 C 
HETATM   11  C19 UNL     1      30.231  -6.350 -12.049  1.00  0.00     0.070 C 
HETATM   12  C20 UNL     1      31.497  -6.096 -12.786  1.00  0.00     0.070 C 
HETATM   13  C21 UNL     1      31.461  -6.390 -14.253  1.00  0.00     0.121 C 
HETATM   14  C22 UNL     1      30.187  -7.055 -14.692  1.00  0.00     0.032 C 
HETATM   15  C23 UNL     1      29.656  -8.069 -13.735  1.00  0.00     0.015 C 
HETATM   16  C24 UNL     1      29.655  -7.746 -12.306  1.00  0.00    -0.008 C 
HETATM   17  C25 UNL     1      30.638  -8.662 -11.554  1.00  0.00     0.019 C 
HETATM   18  C26 UNL     1      28.342  -7.865 -11.586  1.00  0.00     0.008 C 
HETATM   19  C27 UNL     1      27.748  -9.123 -11.247  1.00  0.00     0.001 C 
ENDROOT
BRANCH   3  20
HETATM   20  N1  UNL     1      27.008 -12.578 -10.827  1.00  0.00    -0.066 N 
ATOM     21  H12 UNL     1      26.095 -12.987 -11.023  1.00  0.00     0.278 HD
ATOM     22  H11 UNL     1      27.511 -12.882 -11.660  1.00  0.00     0.278 HD
BRANCH  20  23
HETATM   23  C4  UNL     1      27.577 -13.150  -9.657  1.00  0.00     0.186 C 
HETATM   24  C5  UNL     1      29.028 -13.553  -9.811  1.00  0.00     0.033 C 
HETATM   25  C6  UNL     1      29.477 -13.697  -8.359  1.00  0.00     0.002 C 
HETATM   26  C7  UNL     1      28.536 -12.837  -7.541  1.00  0.00     0.002 C 
HETATM   27  C8  UNL     1      27.694 -12.078  -8.563  1.00  0.00     0.033 C 
ENDBRANCH  20  23
ENDBRANCH   3  20
BRANCH   4  28
HETATM   28  C10 UNL     1      24.536 -10.896 -11.251  1.00  0.00     0.041 C 
BRANCH  28  29
HETATM   29  C11 UNL     1      24.407 -11.292  -9.828  1.00  0.00     0.142 C 
BRANCH  29  30
HETATM   30  O1  UNL     1      23.453 -12.329  -9.668  1.00  0.00    -0.393 OA
ATOM     31  H1  UNL     1      23.388 -12.599  -8.760  1.00  0.00     0.210 HD
ENDBRANCH  29  30
BRANCH  29  32
HETATM   32  C12 UNL     1      23.856 -10.155  -8.965  1.00  0.00     0.195 C 
BRANCH  32  33
HETATM   33  O2  UNL     1      22.506 -10.490  -8.725  1.00  0.00    -0.398 OA
ATOM     34  H2  UNL     1      22.009 -10.009  -9.376  1.00  0.00     0.209 HD
ENDBRANCH  32  33
ENDBRANCH  29  32
ENDBRANCH  28  29
ENDBRANCH   4  28
BRANCH   9  35
HETATM   35  O3  UNL     1      27.626  -5.147 -10.641  1.00  0.00    -0.395 OA
ATOM     36  H3  UNL     1      28.380  -5.463 -10.156  1.00  0.00     0.210 HD
ENDBRANCH   9  35
BRANCH  11  37
HETATM   37  O4  UNL     1      30.566  -6.355 -10.670  1.00  0.00    -0.389 OA
ATOM     38  H4  UNL     1      29.748  -6.397 -10.188  1.00  0.00     0.210 HD
ENDBRANCH  11  37
BRANCH  13  39
HETATM   39  O5  UNL     1      32.544  -7.230 -14.608  1.00  0.00    -0.395 OA
ATOM     40  H5  UNL     1      32.223  -8.010 -15.044  1.00  0.00     0.210 HD
ENDBRANCH  13  39
TORSDOF 10
ENDMDL
MODEL 3
REMARK VINA RESULT: -7.589151336      2.408      7.186
REMARK  10 active torsions:
REMARK  status: ('A' for Active; 'I' for Inactive)
REMARK    1  A    between atoms: C3_3  and  N1_4 
REMARK    2  A    between atoms: N1_4  and  C4_7 
REMARK    3  A    between atoms: C9_12  and  C10_13 
REMARK    4  A    between atoms: C10_13  and  C11_14 
REMARK    5  A    between atoms: C11_14  and  O1_15 
REMARK    6  A    between atoms: C11_14  and  C12_17 
REMARK    7  A    between atoms: C12_17  and  O2_18 
REMARK    8  A    between atoms: C17_24  and  O3_25 
REMARK    9  A    between atoms: C19_28  and  O4_29 
REMARK   10  A    between atoms: C21_32  and  O5_33 
ROOT
HETATM    1  C1  UNL     1      29.694 -10.149 -14.582  1.00  0.00     0.012 C 
HETATM    2  C2  UNL     1      28.222 -10.044 -14.578  1.00  0.00     0.017 C 
HETATM    3  C3  UNL     1      27.962  -8.737 -15.415  1.00  0.00     0.195 C 
HETATM    4  C9  UNL     1      28.586  -7.744 -14.402  1.00  0.00     0.023 C 
HETATM    5  C13 UNL     1      28.025  -8.258 -13.126  1.00  0.00    -0.004 C 
HETATM    6  C14 UNL     1      26.825  -7.567 -12.564  1.00  0.00     0.006 C 
HETATM    7  C15 UNL     1      26.744  -8.071 -11.126  1.00  0.00     0.008 C 
HETATM    8  C16 UNL     1      27.311  -9.451 -10.933  1.00  0.00     0.020 C 
HETATM    9  C17 UNL     1      26.482 -10.032  -9.813  1.00  0.00     0.125 C 
HETATM   10  C18 UNL     1      26.627 -11.467  -9.580  1.00  0.00     0.071 C 
HETATM   11  C19 UNL     1      26.951 -12.325 -10.735  1.00  0.00     0.070 C 
HETATM   12  C20 UNL     1      27.503 -13.617 -10.250  1.00  0.00     0.070 C 
HETATM   13  C21 UNL     1      28.945 -13.594  -9.850  1.00  0.00     0.121 C 
HETATM   14  C22 UNL     1      29.628 -12.294 -10.172  1.00  0.00     0.032 C 
HETATM   15  C23 UNL     1      29.226 -11.690 -11.475  1.00  0.00     0.015 C 
HETATM   16  C24 UNL     1      27.805 -11.678 -11.830  1.00  0.00    -0.008 C 
HETATM   17  C25 UNL     1      27.552 -12.595 -13.042  1.00  0.00     0.019 C 
HETATM   18  C26 UNL     1      27.206 -10.347 -12.184  1.00  0.00     0.008 C 
HETATM   19  C27 UNL     1      27.466  -9.678 -13.424  1.00  0.00     0.001 C 
ENDROOT
BRANCH   3  20
HETATM   20  N1  UNL     1      28.640  -8.743 -16.649  1.00  0.00    -0.066 N 
ATOM     21  H12 UNL     1      29.027  -7.822 -16.855  1.00  0.00     0.278 HD
ATOM     22  H11 UNL     1      29.506  -9.278 -16.584  1.00  0.00     0.278 HD
BRANCH  20  23
HETATM   23  C4  UNL     1      27.839  -9.207 -17.728  1.00  0.00     0.186 C 
HETATM   24  C5  UNL     1      28.398 -10.427 -18.429  1.00  0.00     0.033 C 
HETATM   25  C6  UNL     1      27.180 -10.944 -19.192  1.00  0.00     0.002 C 
HETATM   26  C7  UNL     1      25.968 -10.416 -18.453  1.00  0.00     0.002 C 
HETATM   27  C8  UNL     1      26.518  -9.770 -17.184  1.00  0.00     0.033 C 
ENDBRANCH  20  23
ENDBRANCH   3  20
BRANCH   4  28
HETATM   28  C10 UNL     1      28.245  -6.375 -14.817  1.00  0.00     0.041 C 
BRANCH  28  29
HETATM   29  C11 UNL     1      29.241  -5.304 -14.571  1.00  0.00     0.142 C 
BRANCH  29  30
HETATM   30  O1  UNL     1      30.561  -5.770 -14.794  1.00  0.00    -0.393 OA
ATOM     31  H1  UNL     1      30.995  -5.265 -15.472  1.00  0.00     0.210 HD
ENDBRANCH  29  30
BRANCH  29  32
HETATM   32  C12 UNL     1      29.255  -4.861 -13.106  1.00  0.00     0.195 C 
BRANCH  32  33
HETATM   33  O2  UNL     1      28.304  -3.821 -13.023  1.00  0.00    -0.398 OA
ATOM     34  H2  UNL     1      28.595  -3.166 -13.646  1.00  0.00     0.209 HD
ENDBRANCH  32  33
ENDBRANCH  29  32
ENDBRANCH  28  29
ENDBRANCH   4  28
BRANCH   9  35
HETATM   35  O3  UNL     1      25.134  -9.762 -10.145  1.00  0.00    -0.395 OA
ATOM     36  H3  UNL     1      25.114  -9.660 -11.090  1.00  0.00     0.210 HD
ENDBRANCH   9  35
BRANCH  11  37
HETATM   37  O4  UNL     1      25.724 -12.631 -11.378  1.00  0.00    -0.389 OA
ATOM     38  H4  UNL     1      25.392 -13.425 -10.977  1.00  0.00     0.210 HD
ENDBRANCH  11  37
BRANCH  13  39
HETATM   39  O5  UNL     1      29.648 -14.636 -10.501  1.00  0.00    -0.395 OA
ATOM     40  H5  UNL     1      30.326 -14.274 -11.058  1.00  0.00     0.210 HD
ENDBRANCH  13  39
TORSDOF 10
ENDMDL
MODEL 4
REMARK VINA RESULT: -7.411144157      2.590      3.477
REMARK  10 active torsions:
REMARK  status: ('A' for Active; 'I' for Inactive)
REMARK    1  A    between atoms: C3_3  and  N1_4 
REMARK    2  A    between atoms: N1_4  and  C4_7 
REMARK    3  A    between atoms: C9_12  and  C10_13 
REMARK    4  A    between atoms: C10_13  and  C11_14 
REMARK    5  A    between atoms: C11_14  and  O1_15 
REMARK    6  A    between atoms: C11_14  and  C12_17 
REMARK    7  A    between atoms: C12_17  and  O2_18 
REMARK    8  A    between atoms: C17_24  and  O3_25 
REMARK    9  A    between atoms: C19_28  and  O4_29 
REMARK   10  A    between atoms: C21_32  and  O5_33 
ROOT
HETATM    1  C1  UNL     1      27.744 -13.140  -9.935  1.00  0.00     0.012 C 
HETATM    2  C2  UNL     1      28.246 -11.834  -9.469  1.00  0.00     0.017 C 
HETATM    3  C3  UNL     1      27.140 -11.377  -8.448  1.00  0.00     0.195 C 
HETATM    4  C9  UNL     1      26.002 -11.188  -9.482  1.00  0.00     0.023 C 
HETATM    5  C13 UNL     1      26.729 -10.485 -10.571  1.00  0.00    -0.004 C 
HETATM    6  C14 UNL     1      26.599  -8.998 -10.648  1.00  0.00     0.006 C 
HETATM    7  C15 UNL     1      27.125  -8.649 -12.036  1.00  0.00     0.008 C 
HETATM    8  C16 UNL     1      28.159  -9.611 -12.554  1.00  0.00     0.020 C 
HETATM    9  C17 UNL     1      29.052  -8.756 -13.420  1.00  0.00     0.125 C 
HETATM   10  C18 UNL     1      30.308  -9.364 -13.850  1.00  0.00     0.071 C 
HETATM   11  C19 UNL     1      30.934 -10.360 -12.961  1.00  0.00     0.070 C 
HETATM   12  C20 UNL     1      31.900 -11.178 -13.739  1.00  0.00     0.070 C 
HETATM   13  C21 UNL     1      31.301 -12.275 -14.563  1.00  0.00     0.121 C 
HETATM   14  C22 UNL     1      29.829 -12.460 -14.322  1.00  0.00     0.032 C 
HETATM   15  C23 UNL     1      29.412 -12.311 -12.898  1.00  0.00     0.015 C 
HETATM   16  C24 UNL     1      29.971 -11.203 -12.120  1.00  0.00    -0.008 C 
HETATM   17  C25 UNL     1      30.884 -11.746 -11.004  1.00  0.00     0.019 C 
HETATM   18  C26 UNL     1      28.991 -10.286 -11.445  1.00  0.00     0.008 C 
HETATM   19  C27 UNL     1      28.246 -10.659 -10.280  1.00  0.00     0.001 C 
ENDROOT
BRANCH   3  20
HETATM   20  N1  UNL     1      26.842 -12.371  -7.495  1.00  0.00    -0.066 N 
ATOM     21  H12 UNL     1      25.859 -12.329  -7.223  1.00  0.00     0.278 HD
ATOM     22  H11 UNL     1      26.859 -13.297  -7.921  1.00  0.00     0.278 HD
BRANCH  20  23
HETATM   23  C4  UNL     1      27.684 -12.324  -6.351  1.00  0.00     0.186 C 
HETATM   24  C5  UNL     1      27.521 -11.071  -5.517  1.00  0.00     0.033 C 
HETATM   25  C6  UNL     1      28.167 -11.479  -4.196  1.00  0.00     0.002 C 
HETATM   26  C7  UNL     1      28.095 -12.992  -4.143  1.00  0.00     0.002 C 
HETATM   27  C8  UNL     1      27.245 -13.396  -5.344  1.00  0.00     0.033 C 
ENDBRANCH  20  23
ENDBRANCH   3  20
BRANCH   4  28
HETATM   28  C10 UNL     1      24.881 -10.498  -8.827  1.00  0.00     0.041 C 
BRANCH  28  29
HETATM   29  C11 UNL     1      23.608 -10.370  -9.576  1.00  0.00     0.142 C 
BRANCH  29  30
HETATM   30  O1  UNL     1      22.490 -10.492  -8.713  1.00  0.00    -0.393 OA
ATOM     31  H1  UNL     1      22.668 -10.107  -7.863  1.00  0.00     0.210 HD
ENDBRANCH  29  30
BRANCH  29  32
HETATM   32  C12 UNL     1      23.418 -11.509 -10.581  1.00  0.00     0.195 C 
BRANCH  32  33
HETATM   33  O2  UNL     1      22.860 -12.571  -9.837  1.00  0.00    -0.398 OA
ATOM     34  H2  UNL     1      23.180 -12.451  -8.951  1.00  0.00     0.209 HD
ENDBRANCH  32  33
ENDBRANCH  29  32
ENDBRANCH  28  29
ENDBRANCH   4  28
BRANCH   9  35
HETATM   35  O3  UNL     1      29.346  -7.603 -12.655  1.00  0.00    -0.395 OA
ATOM     36  H3  UNL     1      28.915  -7.728 -11.818  1.00  0.00     0.210 HD
ENDBRANCH   9  35
BRANCH  11  37
HETATM   37  O4  UNL     1      31.698  -9.639 -12.007  1.00  0.00    -0.389 OA
ATOM     38  H4  UNL     1      32.440 -10.186 -11.777  1.00  0.00     0.210 HD
ENDBRANCH  11  37
BRANCH  13  39
HETATM   39  O5  UNL     1      31.952 -13.502 -14.289  1.00  0.00    -0.395 OA
ATOM     40  H5  UNL     1      32.263 -13.894 -15.095  1.00  0.00     0.210 HD
ENDBRANCH  13  39
TORSDOF 10
ENDMDL
MODEL 5
REMARK VINA RESULT: -7.404267187      1.856      2.356
REMARK  10 active torsions:
REMARK  status: ('A' for Active; 'I' for Inactive)
REMARK    1  A    between atoms: C3_3  and  N1_4 
REMARK    2  A    between atoms: N1_4  and  C4_7 
REMARK    3  A    between atoms: C9_12  and  C10_13 
REMARK    4  A    between atoms: C10_13  and  C11_14 
REMARK    5  A    between atoms: C11_14  and  O1_15 
REMARK    6  A    between atoms: C11_14  and  C12_17 
REMARK    7  A    between atoms: C12_17  and  O2_18 
REMARK    8  A    between atoms: C17_24  and  O3_25 
REMARK    9  A    between atoms: C19_28  and  O4_29 
REMARK   10  A    between atoms: C21_32  and  O5_33 
ROOT
HETATM    1  C1  UNL     1      27.418 -12.988 -11.415  1.00  0.00     0.012 C 
HETATM    2  C2  UNL     1      28.094 -11.873 -10.725  1.00  0.00     0.017 C 
HETATM    3  C3  UNL     1      27.185 -11.639  -9.462  1.00  0.00     0.195 C 
HETATM    4  C9  UNL     1      25.935 -11.135 -10.227  1.00  0.00     0.023 C 
HETATM    5  C13 UNL     1      26.562 -10.212 -11.208  1.00  0.00    -0.004 C 
HETATM    6  C14 UNL     1      26.554  -8.751 -10.894  1.00  0.00     0.006 C 
HETATM    7  C15 UNL     1      26.910  -8.083 -12.219  1.00  0.00     0.008 C 
HETATM    8  C16 UNL     1      27.773  -8.930 -13.113  1.00  0.00     0.020 C 
HETATM    9  C17 UNL     1      28.610  -7.926 -13.870  1.00  0.00     0.125 C 
HETATM   10  C18 UNL     1      29.735  -8.464 -14.629  1.00  0.00     0.071 C 
HETATM   11  C19 UNL     1      30.389  -9.685 -14.122  1.00  0.00     0.070 C 
HETATM   12  C20 UNL     1      31.162 -10.323 -15.220  1.00  0.00     0.070 C 
HETATM   13  C21 UNL     1      30.360 -11.140 -16.185  1.00  0.00     0.121 C 
HETATM   14  C22 UNL     1      28.926 -11.307 -15.769  1.00  0.00     0.032 C 
HETATM   15  C23 UNL     1      28.725 -11.509 -14.304  1.00  0.00     0.015 C 
HETATM   16  C24 UNL     1      29.482 -10.668 -13.375  1.00  0.00    -0.008 C 
HETATM   17  C25 UNL     1      30.490 -11.524 -12.584  1.00  0.00     0.019 C 
HETATM   18  C26 UNL     1      28.689  -9.908 -12.350  1.00  0.00     0.008 C 
HETATM   19  C27 UNL     1      28.084 -10.530 -11.210  1.00  0.00     0.001 C 
ENDROOT
BRANCH   3  20
HETATM   20  N1  UNL     1      26.935 -12.828  -8.750  1.00  0.00    -0.066 N 
ATOM     21  H12 UNL     1      25.939 -12.935  -8.560  1.00  0.00     0.278 HD
ATOM     22  H11 UNL     1      27.081 -13.644  -9.344  1.00  0.00     0.278 HD
BRANCH  20  23
HETATM   23  C4  UNL     1      27.692 -12.935  -7.551  1.00  0.00     0.186 C 
HETATM   24  C5  UNL     1      27.366 -11.873  -6.522  1.00  0.00     0.033 C 
HETATM   25  C6  UNL     1      27.955 -12.472  -5.247  1.00  0.00     0.002 C 
HETATM   26  C7  UNL     1      28.009 -13.969  -5.472  1.00  0.00     0.002 C 
HETATM   27  C8  UNL     1      27.279 -14.204  -6.792  1.00  0.00     0.033 C 
ENDBRANCH  20  23
ENDBRANCH   3  20
BRANCH   4  28
HETATM   28  C10 UNL     1      24.981 -10.581  -9.254  1.00  0.00     0.041 C 
BRANCH  28  29
HETATM   29  C11 UNL     1      23.584 -10.358  -9.698  1.00  0.00     0.142 C 
BRANCH  29  30
HETATM   30  O1  UNL     1      22.679 -10.452  -8.611  1.00  0.00    -0.393 OA
ATOM     31  H1  UNL     1      22.363 -11.342  -8.502  1.00  0.00     0.210 HD
ENDBRANCH  29  30
BRANCH  29  32
HETATM   32  C12 UNL     1      23.109 -11.448 -10.662  1.00  0.00     0.195 C 
BRANCH  32  33
HETATM   33  O2  UNL     1      22.812 -12.561  -9.846  1.00  0.00    -0.398 OA
ATOM     34  H2  UNL     1      22.697 -13.288 -10.448  1.00  0.00     0.209 HD
ENDBRANCH  32  33
ENDBRANCH  29  32
ENDBRANCH  28  29
ENDBRANCH   4  28
BRANCH   9  35
HETATM   35  O3  UNL     1      29.107  -7.024 -12.901  1.00  0.00    -0.395 OA
ATOM     36  H3  UNL     1      28.905  -7.411 -12.057  1.00  0.00     0.210 HD
ENDBRANCH   9  35
BRANCH  11  37
HETATM   37  O4  UNL     1      31.338  -9.273 -13.152  1.00  0.00    -0.389 OA
ATOM     38  H4  UNL     1      31.130  -9.735 -12.348  1.00  0.00     0.210 HD
ENDBRANCH  11  37
BRANCH  13  39
HETATM   39  O5  UNL     1      30.933 -12.427 -16.327  1.00  0.00    -0.395 OA
ATOM     40  H5  UNL     1      31.187 -12.573 -17.230  1.00  0.00     0.210 HD
ENDBRANCH  13  39
TORSDOF 10
ENDMDL
