MODEL 1
REMARK VINA RESULT: -8.617085183      0.000      0.000
REMARK  3 active torsions:
REMARK  status: ('A' for Active; 'I' for Inactive)
REMARK    1  A    between atoms: N1_4  and  N2_6 
REMARK       I    between atoms: N2_6  and  C4_8 
REMARK       I    between atoms: C4_8  and  N4_12 
REMARK       I    between atoms: N4_12  and  C5_14 
REMARK    2  A    between atoms: C5_14  and  C6_16 
REMARK    3  A    between atoms: C8_21  and  N6_22 
ROOT
HETATM    1  N2  UNL     1      18.956  31.816  44.074  1.00  0.00    -0.133 N 
ATOM      2  H2  UNL     1      18.991  30.800  44.153  1.00  0.00     0.205 HD
HETATM    3  C4  UNL     1      19.077  32.651  45.215  1.00  0.00     0.693 C 
HETATM    4  N3  UNL     1      17.977  33.131  45.715  1.00  0.00    -0.233 N 
ATOM      5  H31 UNL     1      18.064  33.732  46.535  1.00  0.00     0.174 HD
ATOM      6  H32 UNL     1      17.067  32.916  45.307  1.00  0.00     0.174 HD
HETATM    7  N4  UNL     1      20.342  32.950  45.782  1.00  0.00    -0.152 N 
ATOM      8  H4  UNL     1      20.397  33.554  46.602  1.00  0.00     0.188 HD
HETATM    9  C5  UNL     1      21.526  32.419  45.223  1.00  0.00     0.305 C 
HETATM   10  O1  UNL     1      21.432  31.679  44.215  1.00  0.00    -0.263 OA
ENDROOT
BRANCH   9  11
HETATM   11  C6  UNL     1      22.834  32.716  45.793  1.00  0.00     0.195 A 
HETATM   12  N5  UNL     1      23.746  31.849  46.263  1.00  0.00    -0.299 N 
HETATM   13  C7  UNL     1      24.827  32.529  46.705  1.00  0.00     0.270 A 
ATOM     14  H5  UNL     1      23.640  30.835  46.283  1.00  0.00     0.171 HD
HETATM   15  O2  UNL     1      26.007  32.400  47.247  1.00  0.00    -0.243 OA
HETATM   16  N8  UNL     1      24.579  33.830  46.507  1.00  0.00    -0.150 N 
HETATM   17  C8  UNL     1      26.543  33.584  47.410  1.00  0.00     0.241 A 
HETATM   18  N7  UNL     1      25.649  34.470  46.948  1.00  0.00    -0.240 N 
ATOM     19  H7  UNL     1      25.776  35.482  46.937  1.00  0.00     0.193 HD
HETATM   20  N9  UNL     1      23.383  33.931  45.960  1.00  0.00    -0.256 N 
ATOM     21  H9  UNL     1      22.936  34.811  45.700  1.00  0.00     0.191 HD
BRANCH  17  22
HETATM   22  N6  UNL     1      27.723  33.836  47.926  1.00  0.00    -0.364 N 
ATOM     23  H62 UNL     1      27.960  33.933  48.913  1.00  0.00     0.159 HD
ATOM     24  H61 UNL     1      28.590  33.975  47.407  1.00  0.00     0.159 HD
ENDBRANCH  17  22
ENDBRANCH   9  11
BRANCH   1  25
HETATM   25  N1  UNL     1      18.787  32.445  42.838  1.00  0.00    -0.295 N 
HETATM   26  C2  UNL     1      18.927  31.783  41.741  1.00  0.00    -0.004 C 
HETATM   27  C1  UNL     1      19.270  30.342  41.797  1.00  0.00     0.064 C 
HETATM   28  C3  UNL     1      18.731  32.521  40.472  1.00  0.00     0.064 C 
ATOM     29  H1  UNL     1      18.551  33.437  42.805  1.00  0.00     0.186 HD
ENDBRANCH   1  25
TORSDOF 3
ENDMDL
MODEL 2
REMARK VINA RESULT: -8.591095968      2.069      2.836
REMARK  3 active torsions:
REMARK  status: ('A' for Active; 'I' for Inactive)
REMARK    1  A    between atoms: N1_4  and  N2_6 
REMARK       I    between atoms: N2_6  and  C4_8 
REMARK       I    between atoms: C4_8  and  N4_12 
REMARK       I    between atoms: N4_12  and  C5_14 
REMARK    2  A    between atoms: C5_14  and  C6_16 
REMARK    3  A    between atoms: C8_21  and  N6_22 
ROOT
HETATM    1  N2  UNL     1      19.841  29.991  43.380  1.00  0.00    -0.133 N 
ATOM      2  H2  UNL     1      19.896  30.531  42.517  1.00  0.00     0.205 HD
HETATM    3  C4  UNL     1      20.917  29.170  43.809  1.00  0.00     0.693 C 
HETATM    4  N3  UNL     1      20.819  27.896  43.567  1.00  0.00    -0.233 N 
ATOM      5  H31 UNL     1      21.593  27.305  43.876  1.00  0.00     0.174 HD
ATOM      6  H32 UNL     1      20.007  27.503  43.091  1.00  0.00     0.174 HD
HETATM    7  N4  UNL     1      22.046  29.715  44.470  1.00  0.00    -0.152 N 
ATOM      8  H4  UNL     1      22.804  29.099  44.767  1.00  0.00     0.188 HD
HETATM    9  C5  UNL     1      22.132  31.103  44.724  1.00  0.00     0.305 C 
HETATM   10  O1  UNL     1      21.189  31.839  44.349  1.00  0.00    -0.263 OA
ENDROOT
BRANCH   9  11
HETATM   11  C6  UNL     1      23.286  31.680  45.402  1.00  0.00     0.195 A 
HETATM   12  N5  UNL     1      23.420  32.924  45.892  1.00  0.00    -0.299 N 
HETATM   13  C7  UNL     1      24.644  33.059  46.446  1.00  0.00     0.270 A 
ATOM     14  H5  UNL     1      22.708  33.653  45.851  1.00  0.00     0.171 HD
HETATM   15  O2  UNL     1      25.438  33.891  47.064  1.00  0.00    -0.243 OA
HETATM   16  N8  UNL     1      25.274  31.887  46.297  1.00  0.00    -0.150 N 
HETATM   17  C8  UNL     1      26.574  33.295  47.326  1.00  0.00     0.241 A 
HETATM   18  N7  UNL     1      26.466  32.047  46.846  1.00  0.00    -0.240 N 
ATOM     19  H7  UNL     1      27.192  31.332  46.897  1.00  0.00     0.193 HD
HETATM   20  N9  UNL     1      24.452  31.067  45.671  1.00  0.00    -0.256 N 
ATOM     21  H9  UNL     1      24.671  30.102  45.424  1.00  0.00     0.191 HD
BRANCH  17  22
HETATM   22  N6  UNL     1      27.605  33.827  47.939  1.00  0.00    -0.364 N 
ATOM     23  H62 UNL     1      27.649  34.732  48.407  1.00  0.00     0.159 HD
ATOM     24  H61 UNL     1      28.529  33.408  48.038  1.00  0.00     0.159 HD
ENDBRANCH  17  22
ENDBRANCH   9  11
BRANCH   1  25
HETATM   25  N1  UNL     1      18.705  30.027  44.192  1.00  0.00    -0.295 N 
HETATM   26  C2  UNL     1      17.782  30.905  43.989  1.00  0.00    -0.004 C 
HETATM   27  C1  UNL     1      17.935  31.883  42.886  1.00  0.00     0.064 C 
HETATM   28  C3  UNL     1      16.608  30.878  44.892  1.00  0.00     0.064 C 
ATOM     29  H1  UNL     1      18.604  29.352  44.950  1.00  0.00     0.186 HD
ENDBRANCH   1  25
TORSDOF 3
ENDMDL
MODEL 3
REMARK VINA RESULT: -8.428542776      1.298      1.593
REMARK  3 active torsions:
REMARK  status: ('A' for Active; 'I' for Inactive)
REMARK    1  A    between atoms: N1_4  and  N2_6 
REMARK       I    between atoms: N2_6  and  C4_8 
REMARK       I    between atoms: C4_8  and  N4_12 
REMARK       I    between atoms: N4_12  and  C5_14 
REMARK    2  A    between atoms: C5_14  and  C6_16 
REMARK    3  A    between atoms: C8_21  and  N6_22 
ROOT
HETATM    1  N2  UNL     1      19.112  30.875  44.068  1.00  0.00    -0.133 N 
ATOM      2  H2  UNL     1      18.919  30.105  44.708  1.00  0.00     0.205 HD
HETATM    3  C4  UNL     1      19.293  32.202  44.540  1.00  0.00     0.693 C 
HETATM    4  N3  UNL     1      18.275  33.007  44.444  1.00  0.00    -0.233 N 
ATOM      5  H31 UNL     1      18.405  33.960  44.782  1.00  0.00     0.174 HD
ATOM      6  H32 UNL     1      17.387  32.699  44.047  1.00  0.00     0.174 HD
HETATM    7  N4  UNL     1      20.527  32.630  45.091  1.00  0.00    -0.152 N 
ATOM      8  H4  UNL     1      20.627  33.590  45.421  1.00  0.00     0.188 HD
HETATM    9  C5  UNL     1      21.621  31.739  45.186  1.00  0.00     0.305 C 
HETATM   10  O1  UNL     1      21.473  30.565  44.773  1.00  0.00    -0.263 OA
ENDROOT
BRANCH   9  11
HETATM   11  C6  UNL     1      22.896  32.162  45.750  1.00  0.00     0.195 A 
HETATM   12  N5  UNL     1      23.322  33.415  45.982  1.00  0.00    -0.299 N 
HETATM   13  C7  UNL     1      24.564  33.376  46.513  1.00  0.00     0.270 A 
ATOM     14  H5  UNL     1      22.791  34.263  45.787  1.00  0.00     0.171 HD
HETATM   15  O2  UNL     1      25.544  34.112  46.962  1.00  0.00    -0.243 OA
HETATM   16  N8  UNL     1      24.909  32.086  46.610  1.00  0.00    -0.150 N 
HETATM   17  C8  UNL     1      26.526  33.338  47.352  1.00  0.00     0.241 A 
HETATM   18  N7  UNL     1      26.124  32.078  47.131  1.00  0.00    -0.240 N 
ATOM     19  H7  UNL     1      26.673  31.241  47.333  1.00  0.00     0.193 HD
HETATM   20  N9  UNL     1      23.903  31.367  46.150  1.00  0.00    -0.256 N 
ATOM     21  H9  UNL     1      23.891  30.348  46.105  1.00  0.00     0.191 HD
BRANCH  17  22
HETATM   22  N6  UNL     1      27.670  33.733  47.859  1.00  0.00    -0.364 N 
ATOM     23  H62 UNL     1      28.286  34.464  47.502  1.00  0.00     0.159 HD
ATOM     24  H61 UNL     1      28.118  33.362  48.696  1.00  0.00     0.159 HD
ENDBRANCH  17  22
ENDBRANCH   9  11
BRANCH   1  25
HETATM   25  N1  UNL     1      19.209  30.671  42.690  1.00  0.00    -0.295 N 
HETATM   26  C2  UNL     1      18.194  30.245  42.017  1.00  0.00    -0.004 C 
HETATM   27  C1  UNL     1      16.917  29.972  42.718  1.00  0.00     0.064 C 
HETATM   28  C3  UNL     1      18.376  30.054  40.560  1.00  0.00     0.064 C 
ATOM     29  H1  UNL     1      20.090  30.859  42.212  1.00  0.00     0.186 HD
ENDBRANCH   1  25
TORSDOF 3
ENDMDL
MODEL 4
REMARK VINA RESULT: -8.426543678      0.839      1.103
REMARK  3 active torsions:
REMARK  status: ('A' for Active; 'I' for Inactive)
REMARK    1  A    between atoms: N1_4  and  N2_6 
REMARK       I    between atoms: N2_6  and  C4_8 
REMARK       I    between atoms: C4_8  and  N4_12 
REMARK       I    between atoms: N4_12  and  C5_14 
REMARK    2  A    between atoms: C5_14  and  C6_16 
REMARK    3  A    between atoms: C8_21  and  N6_22 
ROOT
HETATM    1  N2  UNL     1      18.722  31.820  44.002  1.00  0.00    -0.133 N 
ATOM      2  H2  UNL     1      18.724  30.804  44.085  1.00  0.00     0.205 HD
HETATM    3  C4  UNL     1      18.881  32.655  45.139  1.00  0.00     0.693 C 
HETATM    4  N3  UNL     1      17.801  33.171  45.648  1.00  0.00    -0.233 N 
ATOM      5  H31 UNL     1      17.914  33.772  46.465  1.00  0.00     0.174 HD
ATOM      6  H32 UNL     1      16.880  32.985  45.249  1.00  0.00     0.174 HD
HETATM    7  N4  UNL     1      20.159  32.915  45.695  1.00  0.00    -0.152 N 
ATOM      8  H4  UNL     1      20.241  33.519  46.512  1.00  0.00     0.188 HD
HETATM    9  C5  UNL     1      21.321  32.344  45.126  1.00  0.00     0.305 C 
HETATM   10  O1  UNL     1      21.193  31.604  44.122  1.00  0.00    -0.263 OA
ENDROOT
BRANCH   9  11
HETATM   11  C6  UNL     1      22.642  32.600  45.685  1.00  0.00     0.195 A 
HETATM   12  N5  UNL     1      23.211  33.787  45.950  1.00  0.00    -0.299 N 
HETATM   13  C7  UNL     1      24.446  33.590  46.462  1.00  0.00     0.270 A 
ATOM     14  H5  UNL     1      22.779  34.696  45.789  1.00  0.00     0.171 HD
HETATM   15  O2  UNL     1      25.509  34.193  46.919  1.00  0.00    -0.243 OA
HETATM   16  N8  UNL     1      24.642  32.266  46.513  1.00  0.00    -0.150 N 
HETATM   17  C8  UNL     1      26.399  33.300  47.271  1.00  0.00     0.241 A 
HETATM   18  N7  UNL     1      25.854  32.102  47.016  1.00  0.00    -0.240 N 
ATOM     19  H7  UNL     1      26.305  31.202  47.184  1.00  0.00     0.193 HD
HETATM   20  N9  UNL     1      23.556  31.682  46.046  1.00  0.00    -0.256 N 
ATOM     21  H9  UNL     1      23.427  30.673  45.968  1.00  0.00     0.191 HD
BRANCH  17  22
HETATM   22  N6  UNL     1      27.587  33.545  47.773  1.00  0.00    -0.364 N 
ATOM     23  H62 UNL     1      27.953  34.443  48.088  1.00  0.00     0.159 HD
ATOM     24  H61 UNL     1      28.329  32.862  47.924  1.00  0.00     0.159 HD
ENDBRANCH  17  22
ENDBRANCH   9  11
BRANCH   1  25
HETATM   25  N1  UNL     1      18.563  32.451  42.767  1.00  0.00    -0.295 N 
HETATM   26  C2  UNL     1      18.697  31.786  41.669  1.00  0.00    -0.004 C 
HETATM   27  C1  UNL     1      19.025  30.342  41.726  1.00  0.00     0.064 C 
HETATM   28  C3  UNL     1      18.512  32.526  40.400  1.00  0.00     0.064 C 
ATOM     29  H1  UNL     1      18.337  33.445  42.732  1.00  0.00     0.186 HD
ENDBRANCH   1  25
TORSDOF 3
ENDMDL
MODEL 5
REMARK VINA RESULT: -8.384653139      1.583      2.246
REMARK  3 active torsions:
REMARK  status: ('A' for Active; 'I' for Inactive)
REMARK    1  A    between atoms: N1_4  and  N2_6 
REMARK       I    between atoms: N2_6  and  C4_8 
REMARK       I    between atoms: C4_8  and  N4_12 
REMARK       I    between atoms: N4_12  and  C5_14 
REMARK    2  A    between atoms: C5_14  and  C6_16 
REMARK    3  A    between atoms: C8_21  and  N6_22 
ROOT
HETATM    1  N2  UNL     1      18.953  31.826  43.890  1.00  0.00    -0.133 N 
ATOM      2  H2  UNL     1      19.043  32.407  43.057  1.00  0.00     0.205 HD
HETATM    3  C4  UNL     1      19.888  30.797  44.177  1.00  0.00     0.693 C 
HETATM    4  N3  UNL     1      19.539  29.581  43.875  1.00  0.00    -0.233 N 
ATOM      5  H31 UNL     1      20.211  28.841  44.082  1.00  0.00     0.174 HD
ATOM      6  H32 UNL     1      18.635  29.375  43.449  1.00  0.00     0.174 HD
HETATM    7  N4  UNL     1      21.144  31.082  44.769  1.00  0.00    -0.152 N 
ATOM      8  H4  UNL     1      21.795  30.321  44.965  1.00  0.00     0.188 HD
HETATM    9  C5  UNL     1      21.504  32.410  45.091  1.00  0.00     0.305 C 
HETATM   10  O1  UNL     1      20.687  33.328  44.841  1.00  0.00    -0.263 OA
ENDROOT
BRANCH   9  11
HETATM   11  C6  UNL     1      22.791  32.721  45.699  1.00  0.00     0.195 A 
HETATM   12  N5  UNL     1      23.716  31.863  46.161  1.00  0.00    -0.299 N 
HETATM   13  C7  UNL     1      24.769  32.556  46.647  1.00  0.00     0.270 A 
ATOM     14  H5  UNL     1      23.636  30.847  46.146  1.00  0.00     0.171 HD
HETATM   15  O2  UNL     1      25.941  32.439  47.211  1.00  0.00    -0.243 OA
HETATM   16  N8  UNL     1      24.491  33.856  46.486  1.00  0.00    -0.150 N 
HETATM   17  C8  UNL     1      26.442  33.630  47.423  1.00  0.00     0.241 A 
HETATM   18  N7  UNL     1      25.535  34.508  46.970  1.00  0.00    -0.240 N 
ATOM     19  H7  UNL     1      25.636  35.523  46.994  1.00  0.00     0.193 HD
HETATM   20  N9  UNL     1      23.305  33.945  45.917  1.00  0.00    -0.256 N 
ATOM     21  H9  UNL     1      22.841  34.821  45.675  1.00  0.00     0.191 HD
BRANCH  17  22
HETATM   22  N6  UNL     1      27.604  33.896  47.972  1.00  0.00    -0.364 N 
ATOM     23  H62 UNL     1      28.493  34.049  47.497  1.00  0.00     0.159 HD
ATOM     24  H61 UNL     1      27.791  33.989  48.970  1.00  0.00     0.159 HD
ENDBRANCH  17  22
ENDBRANCH   9  11
BRANCH   1  25
HETATM   25  N1  UNL     1      17.907  32.008  44.797  1.00  0.00    -0.295 N 
HETATM   26  C2  UNL     1      16.693  32.138  44.380  1.00  0.00    -0.004 C 
HETATM   27  C1  UNL     1      16.413  32.096  42.925  1.00  0.00     0.064 C 
HETATM   28  C3  UNL     1      15.640  32.326  45.403  1.00  0.00     0.064 C 
ATOM     29  H1  UNL     1      18.104  32.037  45.797  1.00  0.00     0.186 HD
ENDBRANCH   1  25
TORSDOF 3
ENDMDL
