MODEL 1
REMARK VINA RESULT: -7.248787714      0.000      0.000
REMARK  6 active torsions:
REMARK  status: ('A' for Active; 'I' for Inactive)
REMARK    1  A    between atoms: C2_2  and  O1_3 
REMARK    2  A    between atoms: O1_3  and  C3_4 
REMARK    3  A    between atoms: C3_4  and  N3_10 
REMARK    4  A    between atoms: N1_5  and  N2_7 
REMARK    5  A    between atoms: N3_10  and  N4_12 
REMARK    6  A    between atoms: C7_19  and  C8_20 
ROOT
HETATM    1  C1  UNL     1      19.735  32.848  46.171  1.00  0.00     0.082 C 
HETATM    2  C2  UNL     1      20.463  32.672  44.880  1.00  0.00     0.191 C 
HETATM    3  C4  UNL     1      20.382  31.175  44.537  1.00  0.00     0.236 C 
HETATM    4  O2  UNL     1      21.547  30.875  43.820  1.00  0.00    -0.386 OA
HETATM    5  C5  UNL     1      22.411  30.274  44.725  1.00  0.00     0.170 C 
HETATM    6  C6  UNL     1      23.147  31.185  45.604  1.00  0.00     0.066 C 
HETATM    7  C7  UNL     1      22.541  32.515  45.892  1.00  0.00     0.197 C 
HETATM    8  O3  UNL     1      21.780  33.055  44.903  1.00  0.00    -0.340 OA
ENDROOT
BRANCH   2   9
HETATM    9  O1  UNL     1      19.836  33.319  43.791  1.00  0.00    -0.280 OA
BRANCH   9  10
HETATM   10  C3  UNL     1      18.809  32.812  43.064  1.00  0.00     0.255 C 
HETATM   11  N1  UNL     1      17.633  32.775  43.565  1.00  0.00    -0.271 N 
ATOM     12  H1  UNL     1      17.478  33.128  44.510  1.00  0.00     0.190 HD
BRANCH  11  13
HETATM   13  N2  UNL     1      16.560  32.259  42.840  1.00  0.00    -0.342 N 
ATOM     14  H22 UNL     1      16.308  32.707  41.959  1.00  0.00     0.176 HD
ATOM     15  H21 UNL     1      16.036  31.453  43.180  1.00  0.00     0.176 HD
ENDBRANCH  11  13
BRANCH  10  16
HETATM   16  N3  UNL     1      19.031  32.329  41.765  1.00  0.00    -0.271 N 
ATOM     17  H3  UNL     1      18.993  31.327  41.578  1.00  0.00     0.190 HD
BRANCH  16  18
HETATM   18  N4  UNL     1      19.302  33.223  40.736  1.00  0.00    -0.342 N 
ATOM     19  H42 UNL     1      18.595  33.908  40.472  1.00  0.00     0.176 HD
ATOM     20  H41 UNL     1      20.203  33.184  40.258  1.00  0.00     0.176 HD
ENDBRANCH  16  18
ENDBRANCH  10  16
ENDBRANCH   9  10
ENDBRANCH   2   9
BRANCH   7  21
HETATM   21  C8  UNL     1      23.646  33.479  46.202  1.00  0.00     0.139 A 
HETATM   22  N5  UNL     1      23.624  34.816  46.045  1.00  0.00    -0.273 N 
HETATM   23  N6  UNL     1      24.777  35.313  46.426  1.00  0.00    -0.225 N 
ATOM     24  H5  UNL     1      22.837  35.357  45.686  1.00  0.00     0.189 HD
HETATM   25  N7  UNL     1      25.564  34.332  46.834  1.00  0.00    -0.005 NA
ATOM     26  H6  UNL     1      25.027  36.302  46.410  1.00  0.00     0.205 HD
HETATM   27  N8  UNL     1      24.872  33.211  46.696  1.00  0.00    -0.268 N 
ATOM     28  H8  UNL     1      25.216  32.280  46.930  1.00  0.00     0.185 HD
ENDBRANCH   7  21
TORSDOF 6
ENDMDL
MODEL 2
REMARK VINA RESULT: -7.027050739      0.451      1.405
REMARK  6 active torsions:
REMARK  status: ('A' for Active; 'I' for Inactive)
REMARK    1  A    between atoms: C2_2  and  O1_3 
REMARK    2  A    between atoms: O1_3  and  C3_4 
REMARK    3  A    between atoms: C3_4  and  N3_10 
REMARK    4  A    between atoms: N1_5  and  N2_7 
REMARK    5  A    between atoms: N3_10  and  N4_12 
REMARK    6  A    between atoms: C7_19  and  C8_20 
ROOT
HETATM    1  C1  UNL     1      19.751  32.750  46.274  1.00  0.00     0.082 C 
HETATM    2  C2  UNL     1      20.409  32.742  44.933  1.00  0.00     0.191 C 
HETATM    3  C4  UNL     1      20.347  31.292  44.429  1.00  0.00     0.236 C 
HETATM    4  O2  UNL     1      21.477  31.110  43.621  1.00  0.00    -0.386 OA
HETATM    5  C5  UNL     1      22.406  30.440  44.405  1.00  0.00     0.170 C 
HETATM    6  C6  UNL     1      23.168  31.271  45.342  1.00  0.00     0.066 C 
HETATM    7  C7  UNL     1      22.544  32.541  45.809  1.00  0.00     0.197 C 
HETATM    8  O3  UNL     1      21.715  33.162  44.930  1.00  0.00    -0.340 OA
ENDROOT
BRANCH   2   9
HETATM    9  O1  UNL     1      19.705  33.487  43.960  1.00  0.00    -0.280 OA
BRANCH   9  10
HETATM   10  C3  UNL     1      18.808  32.975  43.080  1.00  0.00     0.255 C 
HETATM   11  N1  UNL     1      19.149  32.792  41.861  1.00  0.00    -0.271 N 
ATOM     12  H1  UNL     1      20.094  33.034  41.561  1.00  0.00     0.190 HD
BRANCH  11  13
HETATM   13  N2  UNL     1      18.248  32.267  40.935  1.00  0.00    -0.342 N 
ATOM     14  H22 UNL     1      17.411  31.800  41.282  1.00  0.00     0.176 HD
ATOM     15  H21 UNL     1      18.420  32.347  39.933  1.00  0.00     0.176 HD
ENDBRANCH  11  13
BRANCH  10  16
HETATM   16  N3  UNL     1      17.511  32.645  43.500  1.00  0.00    -0.271 N 
ATOM     17  H3  UNL     1      17.024  31.851  43.084  1.00  0.00     0.190 HD
BRANCH  16  18
HETATM   18  N4  UNL     1      16.893  33.405  44.486  1.00  0.00    -0.342 N 
ATOM     19  H42 UNL     1      17.183  34.373  44.623  1.00  0.00     0.176 HD
ATOM     20  H41 UNL     1      16.159  32.989  45.060  1.00  0.00     0.176 HD
ENDBRANCH  16  18
ENDBRANCH  10  16
ENDBRANCH   9  10
ENDBRANCH   2   9
BRANCH   7  21
HETATM   21  C8  UNL     1      23.640  33.499  46.166  1.00  0.00     0.139 A 
HETATM   22  N5  UNL     1      23.614  34.841  46.053  1.00  0.00    -0.273 N 
HETATM   23  N6  UNL     1      24.759  35.330  46.467  1.00  0.00    -0.225 N 
ATOM     24  H5  UNL     1      22.829  35.389  45.702  1.00  0.00     0.189 HD
HETATM   25  N7  UNL     1      25.545  34.340  46.853  1.00  0.00    -0.005 NA
ATOM     26  H6  UNL     1      25.004  36.321  46.487  1.00  0.00     0.205 HD
HETATM   27  N8  UNL     1      24.860  33.220  46.668  1.00  0.00    -0.268 N 
ATOM     28  H8  UNL     1      25.206  32.284  46.877  1.00  0.00     0.185 HD
ENDBRANCH   7  21
TORSDOF 6
ENDMDL
MODEL 3
REMARK VINA RESULT: -6.894327150      3.438      5.460
REMARK  6 active torsions:
REMARK  status: ('A' for Active; 'I' for Inactive)
REMARK    1  A    between atoms: C2_2  and  O1_3 
REMARK    2  A    between atoms: O1_3  and  C3_4 
REMARK    3  A    between atoms: C3_4  and  N3_10 
REMARK    4  A    between atoms: N1_5  and  N2_7 
REMARK    5  A    between atoms: N3_10  and  N4_12 
REMARK    6  A    between atoms: C7_19  and  C8_20 
ROOT
HETATM    1  C1  UNL     1      19.271  32.690  41.021  1.00  0.00     0.082 C 
HETATM    2  C2  UNL     1      19.473  31.556  41.971  1.00  0.00     0.191 C 
HETATM    3  C4  UNL     1      18.697  30.362  41.393  1.00  0.00     0.236 C 
HETATM    4  O2  UNL     1      18.283  29.596  42.490  1.00  0.00    -0.386 OA
HETATM    5  C5  UNL     1      16.952  29.923  42.706  1.00  0.00     0.170 C 
HETATM    6  C6  UNL     1      16.712  31.167  43.442  1.00  0.00     0.066 C 
HETATM    7  C7  UNL     1      17.759  32.224  43.379  1.00  0.00     0.197 C 
HETATM    8  O3  UNL     1      19.042  31.793  43.252  1.00  0.00    -0.340 OA
ENDROOT
BRANCH   2   9
HETATM    9  O1  UNL     1      20.813  31.111  42.034  1.00  0.00    -0.280 OA
BRANCH   9  10
HETATM   10  C3  UNL     1      21.402  30.548  43.119  1.00  0.00     0.255 C 
HETATM   11  N1  UNL     1      21.608  31.252  44.166  1.00  0.00    -0.271 N 
ATOM     12  H1  UNL     1      21.328  32.233  44.176  1.00  0.00     0.190 HD
BRANCH  11  13
HETATM   13  N2  UNL     1      22.210  30.698  45.295  1.00  0.00    -0.342 N 
ATOM     14  H22 UNL     1      21.680  30.026  45.850  1.00  0.00     0.176 HD
ATOM     15  H21 UNL     1      23.160  30.957  45.563  1.00  0.00     0.176 HD
ENDBRANCH  11  13
BRANCH  10  16
HETATM   16  N3  UNL     1      21.784  29.198  43.097  1.00  0.00    -0.271 N 
ATOM     17  H3  UNL     1      22.744  28.941  42.867  1.00  0.00     0.190 HD
BRANCH  16  18
HETATM   18  N4  UNL     1      20.848  28.213  43.391  1.00  0.00    -0.342 N 
ATOM     19  H42 UNL     1      20.733  27.908  44.357  1.00  0.00     0.176 HD
ATOM     20  H41 UNL     1      20.289  27.808  42.639  1.00  0.00     0.176 HD
ENDBRANCH  16  18
ENDBRANCH  10  16
ENDBRANCH   9  10
ENDBRANCH   2   9
BRANCH   7  21
HETATM   21  C8  UNL     1      17.671  33.048  44.628  1.00  0.00     0.139 A 
HETATM   22  N5  UNL     1      16.700  33.921  44.958  1.00  0.00    -0.273 N 
HETATM   23  N6  UNL     1      16.974  34.446  46.129  1.00  0.00    -0.225 N 
ATOM     24  H5  UNL     1      15.882  34.138  44.389  1.00  0.00     0.189 HD
HETATM   25  N7  UNL     1      18.108  33.940  46.583  1.00  0.00    -0.005 NA
ATOM     26  H6  UNL     1      16.401  35.138  46.614  1.00  0.00     0.205 HD
HETATM   27  N8  UNL     1      18.534  33.085  45.664  1.00  0.00    -0.268 N 
ATOM     28  H8  UNL     1      19.390  32.535  45.731  1.00  0.00     0.185 HD
ENDBRANCH   7  21
TORSDOF 6
ENDMDL
MODEL 4
REMARK VINA RESULT: -6.893491413      2.458      6.547
REMARK  6 active torsions:
REMARK  status: ('A' for Active; 'I' for Inactive)
REMARK    1  A    between atoms: C2_2  and  O1_3 
REMARK    2  A    between atoms: O1_3  and  C3_4 
REMARK    3  A    between atoms: C3_4  and  N3_10 
REMARK    4  A    between atoms: N1_5  and  N2_7 
REMARK    5  A    between atoms: N3_10  and  N4_12 
REMARK    6  A    between atoms: C7_19  and  C8_20 
ROOT
HETATM    1  C1  UNL     1      23.741  30.637  47.050  1.00  0.00     0.082 C 
HETATM    2  C2  UNL     1      23.726  31.567  45.882  1.00  0.00     0.191 C 
HETATM    3  C4  UNL     1      23.203  32.913  46.406  1.00  0.00     0.236 C 
HETATM    4  O2  UNL     1      22.538  33.520  45.332  1.00  0.00    -0.386 OA
HETATM    5  C5  UNL     1      21.185  33.297  45.543  1.00  0.00     0.170 C 
HETATM    6  C6  UNL     1      20.687  31.976  45.149  1.00  0.00     0.066 C 
HETATM    7  C7  UNL     1      21.656  30.845  45.133  1.00  0.00     0.197 C 
HETATM    8  O3  UNL     1      22.943  31.160  44.831  1.00  0.00    -0.340 OA
ENDROOT
BRANCH   2   9
HETATM    9  O1  UNL     1      25.016  31.857  45.382  1.00  0.00    -0.280 OA
BRANCH   9  10
HETATM   10  C3  UNL     1      25.871  32.773  45.904  1.00  0.00     0.255 C 
HETATM   11  N1  UNL     1      26.673  32.431  46.840  1.00  0.00    -0.271 N 
ATOM     12  H1  UNL     1      26.663  31.471  47.185  1.00  0.00     0.190 HD
BRANCH  11  13
HETATM   13  N2  UNL     1      27.562  33.352  47.394  1.00  0.00    -0.342 N 
ATOM     14  H22 UNL     1      27.788  34.191  46.861  1.00  0.00     0.176 HD
ATOM     15  H21 UNL     1      27.977  33.192  48.312  1.00  0.00     0.176 HD
ENDBRANCH  11  13
BRANCH  10  16
HETATM   16  N3  UNL     1      25.878  34.091  45.423  1.00  0.00    -0.271 N 
ATOM     17  H3  UNL     1      26.422  34.332  44.595  1.00  0.00     0.190 HD
BRANCH  16  18
HETATM   18  N4  UNL     1      25.139  35.067  46.082  1.00  0.00    -0.342 N 
ATOM     19  H42 UNL     1      25.563  35.977  46.261  1.00  0.00     0.176 HD
ATOM     20  H41 UNL     1      24.184  34.863  46.379  1.00  0.00     0.176 HD
ENDBRANCH  16  18
ENDBRANCH  10  16
ENDBRANCH   9  10
ENDBRANCH   2   9
BRANCH   7  21
HETATM   21  C8  UNL     1      21.182  29.833  44.134  1.00  0.00     0.139 A 
HETATM   22  N5  UNL     1      21.308  28.495  44.212  1.00  0.00    -0.273 N 
HETATM   23  N6  UNL     1      20.769  27.950  43.147  1.00  0.00    -0.225 N 
ATOM     24  H5  UNL     1      21.752  27.986  44.976  1.00  0.00     0.189 HD
HETATM   25  N7  UNL     1      20.287  28.899  42.364  1.00  0.00    -0.005 NA
ATOM     26  H6  UNL     1      20.728  26.948  42.954  1.00  0.00     0.205 HD
HETATM   27  N8  UNL     1      20.541  30.052  42.968  1.00  0.00    -0.268 N 
ATOM     28  H8  UNL     1      20.287  30.970  42.604  1.00  0.00     0.185 HD
ENDBRANCH   7  21
TORSDOF 6
ENDMDL
MODEL 5
REMARK VINA RESULT: -6.852636333      3.426      4.321
REMARK  6 active torsions:
REMARK  status: ('A' for Active; 'I' for Inactive)
REMARK    1  A    between atoms: C2_2  and  O1_3 
REMARK    2  A    between atoms: O1_3  and  C3_4 
REMARK    3  A    between atoms: C3_4  and  N3_10 
REMARK    4  A    between atoms: N1_5  and  N2_7 
REMARK    5  A    between atoms: N3_10  and  N4_12 
REMARK    6  A    between atoms: C7_19  and  C8_20 
ROOT
HETATM    1  C1  UNL     1      20.073  31.005  41.759  1.00  0.00     0.082 C 
HETATM    2  C2  UNL     1      19.397  30.616  43.032  1.00  0.00     0.191 C 
HETATM    3  C4  UNL     1      18.442  31.768  43.385  1.00  0.00     0.236 C 
HETATM    4  O2  UNL     1      18.358  31.792  44.783  1.00  0.00    -0.386 OA
HETATM    5  C5  UNL     1      19.200  32.813  45.200  1.00  0.00     0.170 C 
HETATM    6  C6  UNL     1      20.625  32.481  45.258  1.00  0.00     0.066 C 
HETATM    7  C7  UNL     1      21.122  31.395  44.368  1.00  0.00     0.197 C 
HETATM    8  O3  UNL     1      20.243  30.397  44.089  1.00  0.00    -0.340 OA
ENDROOT
BRANCH   2   9
HETATM    9  O1  UNL     1      18.558  29.487  42.897  1.00  0.00    -0.280 OA
BRANCH   9  10
HETATM   10  C3  UNL     1      18.663  28.343  43.620  1.00  0.00     0.255 C 
HETATM   11  N1  UNL     1      17.904  28.161  44.633  1.00  0.00    -0.271 N 
ATOM     12  H1  UNL     1      17.226  28.879  44.890  1.00  0.00     0.190 HD
BRANCH  11  13
HETATM   13  N2  UNL     1      17.990  26.995  45.393  1.00  0.00    -0.342 N 
ATOM     14  H22 UNL     1      18.912  26.673  45.687  1.00  0.00     0.176 HD
ATOM     15  H21 UNL     1      17.152  26.473  45.649  1.00  0.00     0.176 HD
ENDBRANCH  11  13
BRANCH  10  16
HETATM   16  N3  UNL     1      19.598  27.361  43.261  1.00  0.00    -0.271 N 
ATOM     17  H3  UNL     1      19.283  26.469  42.878  1.00  0.00     0.190 HD
BRANCH  16  18
HETATM   18  N4  UNL     1      20.955  27.610  43.428  1.00  0.00    -0.342 N 
ATOM     19  H42 UNL     1      21.553  27.683  42.606  1.00  0.00     0.176 HD
ATOM     20  H41 UNL     1      21.337  27.715  44.369  1.00  0.00     0.176 HD
ENDBRANCH  16  18
ENDBRANCH  10  16
ENDBRANCH   9  10
ENDBRANCH   2   9
BRANCH   7  21
HETATM   21  C8  UNL     1      22.332  30.780  45.005  1.00  0.00     0.139 A 
HETATM   22  N5  UNL     1      23.359  30.173  44.380  1.00  0.00    -0.273 N 
HETATM   23  N6  UNL     1      24.226  29.765  45.276  1.00  0.00    -0.225 N 
ATOM     24  H5  UNL     1      23.448  30.051  43.372  1.00  0.00     0.189 HD
HETATM   25  N7  UNL     1      23.796  30.088  46.483  1.00  0.00    -0.005 NA
ATOM     26  H6  UNL     1      25.097  29.274  45.072  1.00  0.00     0.205 HD
HETATM   27  N8  UNL     1      22.637  30.709  46.317  1.00  0.00    -0.268 N 
ATOM     28  H8  UNL     1      22.059  31.080  47.072  1.00  0.00     0.185 HD
ENDBRANCH   7  21
TORSDOF 6
ENDMDL
