MODEL 1
REMARK VINA RESULT: -7.172058346      0.000      0.000
REMARK  3 active torsions:
REMARK  status: ('A' for Active; 'I' for Inactive)
REMARK    1  A    between atoms: C3_5  and  N2_6 
REMARK    2  A    between atoms: C9_13  and  N3_14 
REMARK    3  A    between atoms: N3_14  and  N4_16 
ROOT
HETATM    1  C1  UNL     1      38.255 -11.297  -0.962  1.00  0.00     0.118 A 
HETATM    2  N1  UNL     1      38.177 -12.483  -1.603  1.00  0.00    -0.371 N 
ATOM      3  H1  UNL     1      38.986 -12.819  -2.125  1.00  0.00     0.164 HD
HETATM    4  C2  UNL     1      37.046 -13.244  -1.571  1.00  0.00     0.117 A 
HETATM    5  C3  UNL     1      35.942 -12.814  -0.875  1.00  0.00     0.048 A 
HETATM    6  C8  UNL     1      36.044 -11.602  -0.229  1.00  0.00     0.063 A 
HETATM    7  C9  UNL     1      37.178 -10.816  -0.248  1.00  0.00     0.066 A 
ENDROOT
BRANCH   7   8
HETATM    8  N3  UNL     1      37.226  -9.571   0.438  1.00  0.00    -0.294 N 
ATOM      9  H3  UNL     1      36.474  -8.905   0.266  1.00  0.00     0.187 HD
BRANCH   8  10
HETATM   10  N4  UNL     1      38.211  -9.207   1.312  1.00  0.00    -0.283 N 
HETATM   11  C10 UNL     1      39.241  -8.401   0.812  1.00  0.00     0.115 C 
HETATM   12  C11 UNL     1      40.034  -7.656   1.815  1.00  0.00     0.279 C 
HETATM   13  N5  UNL     1      39.312  -7.334   3.032  1.00  0.00    -0.066 N 
HETATM   14  C12 UNL     1      38.898  -8.636   3.581  1.00  0.00     0.279 C 
ATOM     15  H52 UNL     1      39.842  -6.758   3.688  1.00  0.00     0.277 HD
ATOM     16  H51 UNL     1      38.543  -6.679   2.896  1.00  0.00     0.277 HD
HETATM   17  C13 UNL     1      37.870  -9.192   2.672  1.00  0.00     0.115 C 
ENDBRANCH   8  10
ENDBRANCH   7   8
BRANCH   5  18
HETATM   18  N2  UNL     1      34.747 -13.596  -0.824  1.00  0.00    -0.376 N 
HETATM   19  C4  UNL     1      34.451 -14.559   0.192  1.00  0.00     0.149 C 
HETATM   20  C5  UNL     1      32.936 -14.476   0.436  1.00  0.00     0.187 C 
HETATM   21  O1  UNL     1      32.223 -14.848  -0.683  1.00  0.00    -0.388 OA
HETATM   22  C6  UNL     1      32.870 -14.637  -1.874  1.00  0.00     0.187 C 
HETATM   23  C7  UNL     1      33.767 -13.407  -1.875  1.00  0.00     0.149 C 
ENDBRANCH   5  18
TORSDOF 3
ENDMDL
MODEL 2
REMARK VINA RESULT: -7.072708326      3.422      6.989
REMARK  3 active torsions:
REMARK  status: ('A' for Active; 'I' for Inactive)
REMARK    1  A    between atoms: C3_5  and  N2_6 
REMARK    2  A    between atoms: C9_13  and  N3_14 
REMARK    3  A    between atoms: N3_14  and  N4_16 
ROOT
HETATM    1  C1  UNL     1      37.519 -11.910  -1.583  1.00  0.00     0.118 A 
HETATM    2  N1  UNL     1      38.510 -12.242  -0.728  1.00  0.00    -0.371 N 
ATOM      3  H1  UNL     1      38.933 -13.167  -0.795  1.00  0.00     0.164 HD
HETATM    4  C2  UNL     1      38.961 -11.373   0.221  1.00  0.00     0.117 A 
HETATM    5  C3  UNL     1      38.408 -10.120   0.331  1.00  0.00     0.048 A 
HETATM    6  C8  UNL     1      37.398  -9.804  -0.550  1.00  0.00     0.063 A 
HETATM    7  C9  UNL     1      36.926 -10.667  -1.518  1.00  0.00     0.066 A 
ENDROOT
BRANCH   7   8
HETATM    8  N3  UNL     1      35.879 -10.285  -2.402  1.00  0.00    -0.294 N 
ATOM      9  H3  UNL     1      36.107  -9.640  -3.157  1.00  0.00     0.187 HD
BRANCH   8  10
HETATM   10  N4  UNL     1      34.590 -10.725  -2.309  1.00  0.00    -0.283 N 
HETATM   11  C10 UNL     1      33.972 -10.626  -1.056  1.00  0.00     0.115 C 
HETATM   12  C11 UNL     1      32.492 -10.671  -1.051  1.00  0.00     0.279 C 
HETATM   13  N5  UNL     1      31.872 -10.180  -2.268  1.00  0.00    -0.066 N 
HETATM   14  C12 UNL     1      32.401 -11.044  -3.337  1.00  0.00     0.279 C 
ATOM     15  H52 UNL     1      30.853 -10.147  -2.229  1.00  0.00     0.277 HD
ATOM     16  H51 UNL     1      32.016  -9.184  -2.432  1.00  0.00     0.277 HD
HETATM   17  C13 UNL     1      33.839 -10.724  -3.492  1.00  0.00     0.115 C 
ENDBRANCH   8  10
ENDBRANCH   7   8
BRANCH   5  18
HETATM   18  N2  UNL     1      38.866  -9.191   1.316  1.00  0.00    -0.376 N 
HETATM   19  C4  UNL     1      38.035  -8.596   2.317  1.00  0.00     0.149 C 
HETATM   20  C5  UNL     1      38.904  -8.469   3.578  1.00  0.00     0.187 C 
HETATM   21  O1  UNL     1      39.962  -7.609   3.379  1.00  0.00    -0.388 OA
HETATM   22  C6  UNL     1      40.393  -7.520   2.078  1.00  0.00     0.187 C 
HETATM   23  C7  UNL     1      40.267  -8.821   1.300  1.00  0.00     0.149 C 
ENDBRANCH   5  18
TORSDOF 3
ENDMDL
MODEL 3
REMARK VINA RESULT: -7.059907941      0.973      1.446
REMARK  3 active torsions:
REMARK  status: ('A' for Active; 'I' for Inactive)
REMARK    1  A    between atoms: C3_5  and  N2_6 
REMARK    2  A    between atoms: C9_13  and  N3_14 
REMARK    3  A    between atoms: N3_14  and  N4_16 
ROOT
HETATM    1  C1  UNL     1      37.873 -11.272  -1.636  1.00  0.00     0.118 A 
HETATM    2  N1  UNL     1      37.729 -12.455  -2.272  1.00  0.00    -0.371 N 
ATOM      3  H1  UNL     1      38.467 -12.773  -2.900  1.00  0.00     0.164 HD
HETATM    4  C2  UNL     1      36.625 -13.235  -2.098  1.00  0.00     0.117 A 
HETATM    5  C3  UNL     1      35.616 -12.829  -1.258  1.00  0.00     0.048 A 
HETATM    6  C8  UNL     1      35.784 -11.620  -0.619  1.00  0.00     0.063 A 
HETATM    7  C9  UNL     1      36.892 -10.815  -0.781  1.00  0.00     0.066 A 
ENDROOT
BRANCH   7   8
HETATM    8  N3  UNL     1      37.011  -9.574  -0.095  1.00  0.00    -0.294 N 
ATOM      9  H3  UNL     1      36.461  -8.787  -0.439  1.00  0.00     0.187 HD
BRANCH   8  10
HETATM   10  N4  UNL     1      37.812  -9.364   0.991  1.00  0.00    -0.283 N 
HETATM   11  C10 UNL     1      37.512 -10.088   2.152  1.00  0.00     0.115 C 
HETATM   12  C11 UNL     1      38.602 -10.207   3.147  1.00  0.00     0.279 C 
HETATM   13  N5  UNL     1      39.938 -10.152   2.585  1.00  0.00    -0.066 N 
HETATM   14  C12 UNL     1      40.011  -8.846   1.909  1.00  0.00     0.279 C 
ATOM     15  H52 UNL     1      40.681 -10.307   3.267  1.00  0.00     0.277 HD
ATOM     16  H51 UNL     1      40.166 -10.943   1.982  1.00  0.00     0.277 HD
HETATM   17  C13 UNL     1      39.111  -8.906   0.734  1.00  0.00     0.115 C 
ENDBRANCH   8  10
ENDBRANCH   7   8
BRANCH   5  18
HETATM   18  N2  UNL     1      34.451 -13.631  -1.057  1.00  0.00    -0.376 N 
HETATM   19  C4  UNL     1      34.298 -14.589  -0.005  1.00  0.00     0.149 C 
HETATM   20  C5  UNL     1      32.823 -14.530   0.421  1.00  0.00     0.187 C 
HETATM   21  O1  UNL     1      31.986 -14.927  -0.601  1.00  0.00    -0.388 OA
HETATM   22  C6  UNL     1      32.481 -14.715  -1.864  1.00  0.00     0.187 C 
HETATM   23  C7  UNL     1      33.347 -13.470  -1.982  1.00  0.00     0.149 C 
ENDBRANCH   5  18
TORSDOF 3
ENDMDL
MODEL 4
REMARK VINA RESULT: -7.047658445      1.185      1.384
REMARK  3 active torsions:
REMARK  status: ('A' for Active; 'I' for Inactive)
REMARK    1  A    between atoms: C3_5  and  N2_6 
REMARK    2  A    between atoms: C9_13  and  N3_14 
REMARK    3  A    between atoms: N3_14  and  N4_16 
ROOT
HETATM    1  C1  UNL     1      37.223 -10.034  -0.896  1.00  0.00     0.118 A 
HETATM    2  N1  UNL     1      36.097  -9.950  -1.637  1.00  0.00    -0.371 N 
ATOM      3  H1  UNL     1      35.962  -9.142  -2.243  1.00  0.00     0.164 HD
HETATM    4  C2  UNL     1      35.136 -10.917  -1.596  1.00  0.00     0.117 A 
HETATM    5  C3  UNL     1      35.294 -12.016  -0.787  1.00  0.00     0.048 A 
HETATM    6  C8  UNL     1      36.450 -12.080  -0.039  1.00  0.00     0.063 A 
HETATM    7  C9  UNL     1      37.434 -11.114  -0.065  1.00  0.00     0.066 A 
ENDROOT
BRANCH   7   8
HETATM    8  N3  UNL     1      38.608 -11.234   0.729  1.00  0.00    -0.294 N 
ATOM      9  H3  UNL     1      39.162 -12.084   0.632  1.00  0.00     0.187 HD
BRANCH   8  10
HETATM   10  N4  UNL     1      39.044 -10.288   1.613  1.00  0.00    -0.283 N 
HETATM   11  C10 UNL     1      40.022  -9.394   1.159  1.00  0.00     0.115 C 
HETATM   12  C11 UNL     1      40.162  -8.135   1.924  1.00  0.00     0.279 C 
HETATM   13  N5  UNL     1      38.947  -7.694   2.583  1.00  0.00    -0.066 N 
HETATM   14  C12 UNL     1      38.585  -8.797   3.487  1.00  0.00     0.279 C 
ATOM     15  H52 UNL     1      39.033  -6.789   3.047  1.00  0.00     0.277 HD
ATOM     16  H51 UNL     1      38.202  -7.424   1.939  1.00  0.00     0.277 HD
HETATM   17  C13 UNL     1      38.161  -9.938   2.644  1.00  0.00     0.115 C 
ENDBRANCH   8  10
ENDBRANCH   7   8
BRANCH   5  18
HETATM   18  N2  UNL     1      34.302 -13.043  -0.730  1.00  0.00    -0.376 N 
HETATM   19  C4  UNL     1      34.461 -14.285  -0.038  1.00  0.00     0.149 C 
HETATM   20  C5  UNL     1      33.083 -14.633   0.545  1.00  0.00     0.187 C 
HETATM   21  O1  UNL     1      32.153 -14.850  -0.450  1.00  0.00    -0.388 OA
HETATM   22  C6  UNL     1      32.398 -14.178  -1.621  1.00  0.00     0.187 C 
HETATM   23  C7  UNL     1      33.049 -12.817  -1.423  1.00  0.00     0.149 C 
ENDBRANCH   5  18
TORSDOF 3
ENDMDL
MODEL 5
REMARK VINA RESULT: -7.026232885      1.332      2.072
REMARK  3 active torsions:
REMARK  status: ('A' for Active; 'I' for Inactive)
REMARK    1  A    between atoms: C3_5  and  N2_6 
REMARK    2  A    between atoms: C9_13  and  N3_14 
REMARK    3  A    between atoms: N3_14  and  N4_16 
ROOT
HETATM    1  C1  UNL     1      36.980  -9.966  -1.766  1.00  0.00     0.118 A 
HETATM    2  N1  UNL     1      35.928 -10.086  -2.604  1.00  0.00    -0.371 N 
ATOM      3  H1  UNL     1      35.879  -9.487  -3.428  1.00  0.00     0.164 HD
HETATM    4  C2  UNL     1      34.930 -10.987  -2.379  1.00  0.00     0.117 A 
HETATM    5  C3  UNL     1      34.972 -11.806  -1.277  1.00  0.00     0.048 A 
HETATM    6  C8  UNL     1      36.054 -11.665  -0.435  1.00  0.00     0.063 A 
HETATM    7  C9  UNL     1      37.074 -10.761  -0.643  1.00  0.00     0.066 A 
ENDROOT
BRANCH   7   8
HETATM    8  N3  UNL     1      38.168 -10.659   0.261  1.00  0.00    -0.294 N 
ATOM      9  H3  UNL     1      38.899 -11.367   0.202  1.00  0.00     0.187 HD
BRANCH   8  10
HETATM   10  N4  UNL     1      38.305  -9.679   1.201  1.00  0.00    -0.283 N 
HETATM   11  C10 UNL     1      37.824  -9.957   2.487  1.00  0.00     0.115 C 
HETATM   12  C11 UNL     1      38.358  -9.115   3.581  1.00  0.00     0.279 C 
HETATM   13  N5  UNL     1      39.690  -8.593   3.342  1.00  0.00    -0.066 N 
HETATM   14  C12 UNL     1      39.571  -7.801   2.107  1.00  0.00     0.279 C 
ATOM     15  H52 UNL     1      40.079  -8.074   4.130  1.00  0.00     0.277 HD
ATOM     16  H51 UNL     1      40.415  -9.310   3.305  1.00  0.00     0.277 HD
HETATM   17  C13 UNL     1      39.335  -8.750   0.995  1.00  0.00     0.115 C 
ENDBRANCH   8  10
ENDBRANCH   7   8
BRANCH   5  18
HETATM   18  N2  UNL     1      33.939 -12.760  -1.022  1.00  0.00    -0.376 N 
HETATM   19  C4  UNL     1      32.590 -12.637  -1.484  1.00  0.00     0.149 C 
HETATM   20  C5  UNL     1      32.120 -14.060  -1.823  1.00  0.00     0.187 C 
HETATM   21  O1  UNL     1      32.083 -14.861  -0.702  1.00  0.00    -0.388 OA
HETATM   22  C6  UNL     1      32.968 -14.507   0.287  1.00  0.00     0.187 C 
HETATM   23  C7  UNL     1      34.275 -13.933  -0.239  1.00  0.00     0.149 C 
ENDBRANCH   5  18
TORSDOF 3
ENDMDL
