MODEL 1
REMARK VINA RESULT: -6.547085642      0.000      0.000
REMARK  6 active torsions:
REMARK  status: ('A' for Active; 'I' for Inactive)
REMARK    1  A    between atoms: C5_7  and  S1_8 
REMARK    2  A    between atoms: S1_8  and  C6_10 
REMARK    3  A    between atoms: C6_10  and  O2_11 
REMARK    4  A    between atoms: C6_10  and  C7_13 
REMARK    5  A    between atoms: C7_13  and  N2_15 
REMARK    6  A    between atoms: C7_13  and  O3_19 
ROOT
HETATM    1  C1  UNL     1      33.878 -12.854  -1.791  1.00  0.00     0.089 C 
HETATM    2  C2  UNL     1      35.126 -12.167  -1.320  1.00  0.00     0.078 A 
HETATM    3  N1  UNL     1      35.679 -11.212  -2.051  1.00  0.00    -0.349 N 
ATOM      4  H1  UNL     1      35.237 -10.959  -2.935  1.00  0.00     0.167 HD
HETATM    5  C3  UNL     1      36.806 -10.553  -1.682  1.00  0.00     0.029 A 
HETATM    6  C4  UNL     1      37.358  -9.492  -2.566  1.00  0.00     0.070 C 
HETATM    7  C5  UNL     1      37.417 -10.889  -0.481  1.00  0.00     0.093 A 
HETATM    8  C9  UNL     1      36.818 -11.885   0.252  1.00  0.00     0.136 A 
HETATM    9  C10 UNL     1      37.377 -12.306   1.503  1.00  0.00     0.119 C 
HETATM   10  N3  UNL     1      37.831 -12.658   2.490  1.00  0.00    -0.190 NA
HETATM   11  N4  UNL     1      35.688 -12.515  -0.163  1.00  0.00    -0.336 N 
ATOM     12  H4  UNL     1      35.271 -13.250   0.408  1.00  0.00     0.168 HD
ENDROOT
BRANCH   7  13
HETATM   13  S1  UNL     1      38.830 -10.081   0.001  1.00  0.00     0.089 S 
HETATM   14  O1  UNL     1      40.227 -10.919   0.060  1.00  0.00    -0.250 OA
BRANCH  13  15
HETATM   15  C6  UNL     1      38.711  -8.774   1.116  1.00  0.00     0.278 C 
BRANCH  15  16
HETATM   16  O2  UNL     1      37.389  -8.766   1.626  1.00  0.00    -0.378 OA
ATOM     17  H2  UNL     1      37.169  -7.866   1.839  1.00  0.00     0.211 HD
ENDBRANCH  15  16
BRANCH  15  18
HETATM   18  C7  UNL     1      39.687  -8.857   2.270  1.00  0.00     0.256 C 
HETATM   19  C8  UNL     1      39.273  -7.754   3.255  1.00  0.00     0.082 C 
BRANCH  18  20
HETATM   20  N2  UNL     1      39.642 -10.101   2.970  1.00  0.00    -0.044 N 
ATOM     21  H23 UNL     1      39.173 -10.813   2.410  1.00  0.00     0.278 HD
ATOM     22  H22 UNL     1      40.572 -10.515   3.029  1.00  0.00     0.278 HD
ATOM     23  H21 UNL     1      39.219 -10.035   3.897  1.00  0.00     0.278 HD
ENDBRANCH  18  20
BRANCH  18  24
HETATM   24  O3  UNL     1      40.959  -8.528   1.830  1.00  0.00    -0.363 OA
ATOM     25  H3  UNL     1      41.492  -8.253   2.568  1.00  0.00     0.212 HD
ENDBRANCH  18  24
ENDBRANCH  15  18
ENDBRANCH  13  15
ENDBRANCH   7  13
TORSDOF 6
ENDMDL
MODEL 2
REMARK VINA RESULT: -6.290763953      4.399      7.092
REMARK  6 active torsions:
REMARK  status: ('A' for Active; 'I' for Inactive)
REMARK    1  A    between atoms: C5_7  and  S1_8 
REMARK    2  A    between atoms: S1_8  and  C6_10 
REMARK    3  A    between atoms: C6_10  and  O2_11 
REMARK    4  A    between atoms: C6_10  and  C7_13 
REMARK    5  A    between atoms: C7_13  and  N2_15 
REMARK    6  A    between atoms: C7_13  and  O3_19 
ROOT
HETATM    1  C1  UNL     1      37.906  -9.571  -0.925  1.00  0.00     0.089 C 
HETATM    2  C2  UNL     1      36.784 -10.567  -0.893  1.00  0.00     0.078 A 
HETATM    3  N1  UNL     1      35.530 -10.166  -1.020  1.00  0.00    -0.349 N 
ATOM      4  H1  UNL     1      35.349  -9.170  -1.139  1.00  0.00     0.167 HD
HETATM    5  C3  UNL     1      34.473 -11.015  -0.999  1.00  0.00     0.029 A 
HETATM    6  C4  UNL     1      33.095 -10.476  -1.149  1.00  0.00     0.070 C 
HETATM    7  C5  UNL     1      34.707 -12.375  -0.837  1.00  0.00     0.093 A 
HETATM    8  C9  UNL     1      36.020 -12.758  -0.707  1.00  0.00     0.136 A 
HETATM    9  C10 UNL     1      36.363 -14.138  -0.530  1.00  0.00     0.119 C 
HETATM   10  N3  UNL     1      36.639 -15.234  -0.369  1.00  0.00    -0.190 NA
HETATM   11  N4  UNL     1      37.045 -11.865  -0.735  1.00  0.00    -0.336 N 
ATOM     12  H4  UNL     1      38.007 -12.186  -0.635  1.00  0.00     0.168 HD
ENDROOT
BRANCH   7  13
HETATM   13  S1  UNL     1      33.400 -13.458  -0.804  1.00  0.00     0.089 S 
HETATM   14  O1  UNL     1      32.971 -14.120   0.622  1.00  0.00    -0.250 OA
BRANCH  13  15
HETATM   15  C6  UNL     1      33.079 -14.428  -2.190  1.00  0.00     0.278 C 
BRANCH  15  16
HETATM   16  O2  UNL     1      33.724 -15.675  -1.998  1.00  0.00    -0.378 OA
ATOM     17  H2  UNL     1      33.662 -16.159  -2.814  1.00  0.00     0.211 HD
ENDBRANCH  15  16
BRANCH  15  18
HETATM   18  C7  UNL     1      31.607 -14.667  -2.447  1.00  0.00     0.256 C 
HETATM   19  C8  UNL     1      31.000 -13.290  -2.749  1.00  0.00     0.082 C 
BRANCH  18  20
HETATM   20  N2  UNL     1      31.350 -15.509  -3.572  1.00  0.00    -0.044 N 
ATOM     21  H23 UNL     1      31.959 -15.261  -4.353  1.00  0.00     0.278 HD
ATOM     22  H22 UNL     1      31.679 -16.458  -3.395  1.00  0.00     0.278 HD
ATOM     23  H21 UNL     1      30.373 -15.515  -3.865  1.00  0.00     0.278 HD
ENDBRANCH  18  20
BRANCH  18  24
HETATM   24  O3  UNL     1      30.996 -15.115  -1.286  1.00  0.00    -0.363 OA
ATOM     25  H3  UNL     1      30.264 -15.679  -1.506  1.00  0.00     0.212 HD
ENDBRANCH  18  24
ENDBRANCH  15  18
ENDBRANCH  13  15
ENDBRANCH   7  13
TORSDOF 6
ENDMDL
MODEL 3
REMARK VINA RESULT: -6.289421259      1.880      2.414
REMARK  6 active torsions:
REMARK  status: ('A' for Active; 'I' for Inactive)
REMARK    1  A    between atoms: C5_7  and  S1_8 
REMARK    2  A    between atoms: S1_8  and  C6_10 
REMARK    3  A    between atoms: C6_10  and  O2_11 
REMARK    4  A    between atoms: C6_10  and  C7_13 
REMARK    5  A    between atoms: C7_13  and  N2_15 
REMARK    6  A    between atoms: C7_13  and  O3_19 
ROOT
HETATM    1  C1  UNL     1      34.628 -15.116  -3.523  1.00  0.00     0.089 C 
HETATM    2  C2  UNL     1      35.307 -14.149  -2.598  1.00  0.00     0.078 A 
HETATM    3  N1  UNL     1      35.611 -12.930  -3.012  1.00  0.00    -0.349 N 
ATOM      4  H1  UNL     1      35.373 -12.669  -3.969  1.00  0.00     0.167 HD
HETATM    5  C3  UNL     1      36.224 -12.010  -2.227  1.00  0.00     0.029 A 
HETATM    6  C4  UNL     1      36.528 -10.662  -2.776  1.00  0.00     0.070 C 
HETATM    7  C5  UNL     1      36.553 -12.354  -0.922  1.00  0.00     0.093 A 
HETATM    8  C9  UNL     1      36.224 -13.627  -0.524  1.00  0.00     0.136 A 
HETATM    9  C10 UNL     1      36.527 -14.078   0.802  1.00  0.00     0.119 C 
HETATM   10  N3  UNL     1      36.786 -14.447   1.851  1.00  0.00    -0.190 NA
HETATM   11  N4  UNL     1      35.609 -14.512  -1.352  1.00  0.00    -0.336 N 
ATOM     12  H4  UNL     1      35.380 -15.450  -1.021  1.00  0.00     0.168 HD
ENDROOT
BRANCH   7  13
HETATM   13  S1  UNL     1      37.324 -11.221   0.080  1.00  0.00     0.089 S 
HETATM   14  O1  UNL     1      36.733  -9.704   0.143  1.00  0.00    -0.250 OA
BRANCH  13  15
HETATM   15  C6  UNL     1      39.019 -11.361   0.356  1.00  0.00     0.278 C 
BRANCH  15  16
HETATM   16  O2  UNL     1      39.681 -10.712  -0.715  1.00  0.00    -0.378 OA
ATOM     17  H2  UNL     1      39.112 -10.756  -1.474  1.00  0.00     0.211 HD
ENDBRANCH  15  16
BRANCH  15  18
HETATM   18  C7  UNL     1      39.482 -10.758   1.664  1.00  0.00     0.256 C 
HETATM   19  C8  UNL     1      39.953  -9.335   1.331  1.00  0.00     0.082 C 
BRANCH  18  20
HETATM   20  N2  UNL     1      38.449 -10.652   2.645  1.00  0.00    -0.044 N 
ATOM     21  H23 UNL     1      37.541 -10.520   2.199  1.00  0.00     0.278 HD
ATOM     22  H22 UNL     1      38.287 -11.552   3.096  1.00  0.00     0.278 HD
ATOM     23  H21 UNL     1      38.617  -9.926   3.342  1.00  0.00     0.278 HD
ENDBRANCH  18  20
BRANCH  18  24
HETATM   24  O3  UNL     1      40.598 -11.439   2.124  1.00  0.00    -0.363 OA
ATOM     25  H3  UNL     1      41.085 -11.790   1.388  1.00  0.00     0.212 HD
ENDBRANCH  18  24
ENDBRANCH  15  18
ENDBRANCH  13  15
ENDBRANCH   7  13
TORSDOF 6
ENDMDL
MODEL 4
REMARK VINA RESULT: -6.172414416      1.782      2.913
REMARK  6 active torsions:
REMARK  status: ('A' for Active; 'I' for Inactive)
REMARK    1  A    between atoms: C5_7  and  S1_8 
REMARK    2  A    between atoms: S1_8  and  C6_10 
REMARK    3  A    between atoms: C6_10  and  O2_11 
REMARK    4  A    between atoms: C6_10  and  C7_13 
REMARK    5  A    between atoms: C7_13  and  N2_15 
REMARK    6  A    between atoms: C7_13  and  O3_19 
ROOT
HETATM    1  C1  UNL     1      35.345 -14.403  -0.787  1.00  0.00     0.089 C 
HETATM    2  C2  UNL     1      36.352 -13.387  -0.334  1.00  0.00     0.078 A 
HETATM    3  N1  UNL     1      36.603 -13.223   0.955  1.00  0.00    -0.349 N 
ATOM      4  H1  UNL     1      36.096 -13.801   1.625  1.00  0.00     0.167 HD
HETATM    5  C3  UNL     1      37.500 -12.323   1.429  1.00  0.00     0.029 A 
HETATM    6  C4  UNL     1      37.718 -12.207   2.895  1.00  0.00     0.070 C 
HETATM    7  C5  UNL     1      38.195 -11.530   0.525  1.00  0.00     0.093 A 
HETATM    8  C9  UNL     1      37.911 -11.724  -0.805  1.00  0.00     0.136 A 
HETATM    9  C10 UNL     1      38.572 -10.951  -1.813  1.00  0.00     0.119 C 
HETATM   10  N3  UNL     1      39.083 -10.321  -2.618  1.00  0.00    -0.190 NA
HETATM   11  N4  UNL     1      37.001 -12.641  -1.228  1.00  0.00    -0.336 N 
ATOM     12  H4  UNL     1      36.815 -12.758  -2.224  1.00  0.00     0.168 HD
ENDROOT
BRANCH   7  13
HETATM   13  S1  UNL     1      39.321 -10.393   1.093  1.00  0.00     0.089 S 
HETATM   14  O1  UNL     1      40.367 -10.845   2.258  1.00  0.00    -0.250 OA
BRANCH  13  15
HETATM   15  C6  UNL     1      38.901  -8.722   1.090  1.00  0.00     0.278 C 
BRANCH  15  16
HETATM   16  O2  UNL     1      37.676  -8.588   1.791  1.00  0.00    -0.378 OA
ATOM     17  H2  UNL     1      37.600  -7.681   2.064  1.00  0.00     0.211 HD
ENDBRANCH  15  16
BRANCH  15  18
HETATM   18  C7  UNL     1      39.938  -7.825   1.730  1.00  0.00     0.256 C 
HETATM   19  C8  UNL     1      40.128  -6.643   0.769  1.00  0.00     0.082 C 
BRANCH  18  20
HETATM   20  N2  UNL     1      39.536  -7.295   2.994  1.00  0.00    -0.044 N 
ATOM     21  H23 UNL     1      38.977  -6.450   2.869  1.00  0.00     0.278 HD
ATOM     22  H22 UNL     1      38.839  -7.897   3.432  1.00  0.00     0.278 HD
ATOM     23  H21 UNL     1      40.313  -7.121   3.632  1.00  0.00     0.278 HD
ENDBRANCH  18  20
BRANCH  18  24
HETATM   24  O3  UNL     1      41.157  -8.483   1.782  1.00  0.00    -0.363 OA
ATOM     25  H3  UNL     1      41.415  -8.750   0.908  1.00  0.00     0.212 HD
ENDBRANCH  18  24
ENDBRANCH  15  18
ENDBRANCH  13  15
ENDBRANCH   7  13
TORSDOF 6
ENDMDL
MODEL 5
REMARK VINA RESULT: -6.141616054      2.042      2.825
REMARK  6 active torsions:
REMARK  status: ('A' for Active; 'I' for Inactive)
REMARK    1  A    between atoms: C5_7  and  S1_8 
REMARK    2  A    between atoms: S1_8  and  C6_10 
REMARK    3  A    between atoms: C6_10  and  O2_11 
REMARK    4  A    between atoms: C6_10  and  C7_13 
REMARK    5  A    between atoms: C7_13  and  N2_15 
REMARK    6  A    between atoms: C7_13  and  O3_19 
ROOT
HETATM    1  C1  UNL     1      32.246 -10.610  -3.120  1.00  0.00     0.089 C 
HETATM    2  C2  UNL     1      33.539 -11.041  -2.493  1.00  0.00     0.078 A 
HETATM    3  N1  UNL     1      34.644 -10.340  -2.691  1.00  0.00    -0.349 N 
ATOM      4  H1  UNL     1      34.592  -9.506  -3.277  1.00  0.00     0.167 HD
HETATM    5  C3  UNL     1      35.843 -10.675  -2.154  1.00  0.00     0.029 A 
HETATM    6  C4  UNL     1      37.034  -9.828  -2.430  1.00  0.00     0.070 C 
HETATM    7  C5  UNL     1      35.927 -11.809  -1.355  1.00  0.00     0.093 A 
HETATM    8  C9  UNL     1      34.763 -12.514  -1.171  1.00  0.00     0.136 A 
HETATM    9  C10 UNL     1      34.748 -13.700  -0.367  1.00  0.00     0.119 C 
HETATM   10  N3  UNL     1      34.738 -14.657   0.256  1.00  0.00    -0.190 NA
HETATM   11  N4  UNL     1      33.585 -12.134  -1.732  1.00  0.00    -0.336 N 
ATOM     12  H4  UNL     1      32.740 -12.683  -1.573  1.00  0.00     0.168 HD
ENDROOT
BRANCH   7  13
HETATM   13  S1  UNL     1      37.418 -12.252  -0.674  1.00  0.00     0.089 S 
HETATM   14  O1  UNL     1      38.033 -13.719  -1.030  1.00  0.00    -0.250 OA
BRANCH  13  15
HETATM   15  C6  UNL     1      37.854 -11.627   0.871  1.00  0.00     0.278 C 
BRANCH  15  16
HETATM   16  O2  UNL     1      37.791 -12.698   1.798  1.00  0.00    -0.378 OA
ATOM     17  H2  UNL     1      38.580 -13.217   1.689  1.00  0.00     0.211 HD
ENDBRANCH  15  16
BRANCH  15  18
HETATM   18  C7  UNL     1      39.235 -11.011   0.919  1.00  0.00     0.256 C 
HETATM   19  C8  UNL     1      39.029  -9.498   0.758  1.00  0.00     0.082 C 
BRANCH  18  20
HETATM   20  N2  UNL     1      39.916 -11.225   2.156  1.00  0.00    -0.044 N 
ATOM     21  H23 UNL     1      40.576 -10.469   2.339  1.00  0.00     0.278 HD
ATOM     22  H22 UNL     1      39.282 -11.094   2.943  1.00  0.00     0.278 HD
ATOM     23  H21 UNL     1      40.381 -12.131   2.216  1.00  0.00     0.278 HD
ENDBRANCH  18  20
BRANCH  18  24
HETATM   24  O3  UNL     1      39.969 -11.423  -0.182  1.00  0.00    -0.363 OA
ATOM     25  H3  UNL     1      39.978 -12.372  -0.224  1.00  0.00     0.212 HD
ENDBRANCH  18  24
ENDBRANCH  15  18
ENDBRANCH  13  15
ENDBRANCH   7  13
TORSDOF 6
ENDMDL
