MODEL 1
REMARK VINA RESULT: -6.851867806      0.000      0.000
REMARK  11 active torsions:
REMARK  status: ('A' for Active; 'I' for Inactive)
REMARK    1  A    between atoms: O1_2  and  C2_3 
REMARK    2  A    between atoms: C2_3  and  O2_4 
REMARK    3  A    between atoms: C2_3  and  C3_6 
REMARK    4  A    between atoms: C3_6  and  O3_7 
REMARK    5  A    between atoms: C3_6  and  C4_9 
REMARK    6  A    between atoms: C4_9  and  O4_10 
REMARK    7  A    between atoms: C4_9  and  C5_12 
REMARK    8  A    between atoms: C6_13  and  O5_14 
REMARK    9  A    between atoms: C7_16  and  C8_17 
REMARK   10  A    between atoms: C10_21  and  N2_22 
REMARK   11  A    between atoms: C13_34  and  N7_35 
REMARK       I    between atoms: N7_35  and  C14_37 
ROOT
HETATM    1  C5  UNL     1      -1.481  42.732  29.136  1.00  0.00     0.075 A 
HETATM    2  C6  UNL     1      -2.292  41.645  29.460  1.00  0.00     0.098 A 
HETATM    3  C7  UNL     1      -2.870  40.920  28.443  1.00  0.00     0.088 A 
HETATM    4  C13 UNL     1      -2.654  41.256  27.093  1.00  0.00     0.130 A 
HETATM    5  N8  UNL     1      -1.879  42.294  26.845  1.00  0.00    -0.308 N 
ATOM      6  H8  UNL     1      -1.707  42.558  25.875  1.00  0.00     0.170 HD
HETATM    7  C15 UNL     1      -1.303  43.022  27.830  1.00  0.00     0.258 A 
HETATM    8  O9  UNL     1      -0.577  44.004  27.431  1.00  0.00    -0.267 OA
ENDROOT
BRANCH   3   9
HETATM    9  C8  UNL     1      -3.715  39.778  28.791  1.00  0.00     0.140 A 
HETATM   10  N1  UNL     1      -3.267  38.531  29.051  1.00  0.00    -0.321 N 
HETATM   11  C9  UNL     1      -4.325  37.722  29.330  1.00  0.00     0.191 A 
ATOM     12  H1  UNL     1      -2.289  38.240  29.040  1.00  0.00     0.169 HD
HETATM   13  C10 UNL     1      -4.465  36.401  29.654  1.00  0.00     0.153 A 
HETATM   14  N5  UNL     1      -5.408  38.479  29.239  1.00  0.00    -0.170 N 
HETATM   15  N3  UNL     1      -5.700  35.897  29.874  1.00  0.00    -0.286 N 
HETATM   16  C11 UNL     1      -5.837  34.491  30.219  1.00  0.00     0.163 C 
HETATM   17  C12 UNL     1      -6.768  36.701  29.771  1.00  0.00     0.344 A 
HETATM   18  O6  UNL     1      -7.909  36.199  29.984  1.00  0.00    -0.245 OA
HETATM   19  N4  UNL     1      -6.629  37.982  29.456  1.00  0.00    -0.228 N 
ATOM     20  H4  UNL     1      -7.449  38.584  29.381  1.00  0.00     0.194 HD
HETATM   21  N6  UNL     1      -5.038  39.729  28.912  1.00  0.00    -0.261 N 
ATOM     22  H6  UNL     1      -5.673  40.516  28.777  1.00  0.00     0.191 HD
BRANCH  13  23
HETATM   23  N2  UNL     1      -3.415  35.661  29.743  1.00  0.00    -0.382 N 
ATOM     24  H22 UNL     1      -3.360  34.761  29.266  1.00  0.00     0.157 HD
ATOM     25  H21 UNL     1      -2.624  35.985  30.299  1.00  0.00     0.157 HD
ENDBRANCH  13  23
ENDBRANCH   3   9
BRANCH   2  26
HETATM   26  O5  UNL     1      -2.542  41.263  30.786  1.00  0.00    -0.359 OA
ATOM     27  H5  UNL     1      -2.295  40.411  31.126  1.00  0.00     0.217 HD
ENDBRANCH   2  26
BRANCH   4  28
HETATM   28  N7  UNL     1      -3.300  40.426  26.157  1.00  0.00    -0.286 N 
HETATM   29  C14 UNL     1      -4.122  40.880  25.120  1.00  0.00     0.289 C 
HETATM   30  O7  UNL     1      -4.441  42.048  24.825  1.00  0.00    -0.629 OA
HETATM   31  O8  UNL     1      -4.692  39.898  24.258  1.00  0.00    -0.629 OA
ATOM     32  H7  UNL     1      -3.158  39.420  26.242  1.00  0.00     0.173 HD
ENDBRANCH   4  28
BRANCH   1  33
HETATM   33  C4  UNL     1      -0.898  43.493  30.253  1.00  0.00     0.193 C 
BRANCH  33  34
HETATM   34  C3  UNL     1      -1.819  44.238  31.144  1.00  0.00     0.206 C 
BRANCH  34  35
HETATM   35  C2  UNL     1      -1.158  45.613  31.382  1.00  0.00     0.287 C 
BRANCH  35  36
HETATM   36  O1  UNL     1      -2.024  46.502  31.964  1.00  0.00    -0.364 OA
HETATM   37  C1  UNL     1      -2.086  46.390  33.353  1.00  0.00     0.204 C 
ENDBRANCH  35  36
BRANCH  35  38
HETATM   38  O2  UNL     1      -0.065  45.388  32.228  1.00  0.00    -0.369 OA
ATOM     39  H2  UNL     1       0.311  44.534  32.050  1.00  0.00     0.212 HD
ENDBRANCH  35  38
ENDBRANCH  34  35
BRANCH  34  40
HETATM   40  O3  UNL     1      -3.020  44.576  30.467  1.00  0.00    -0.388 OA
ATOM     41  H3  UNL     1      -3.615  43.885  30.734  1.00  0.00     0.210 HD
ENDBRANCH  34  40
ENDBRANCH  33  34
BRANCH  33  42
HETATM   42  O4  UNL     1      -0.116  42.566  30.966  1.00  0.00    -0.388 OA
ATOM     43  H4  UNL     1       0.287  41.927  30.390  1.00  0.00     0.210 HD
ENDBRANCH  33  42
ENDBRANCH   1  33
TORSDOF 11
ENDMDL
MODEL 2
REMARK VINA RESULT: -6.803086591      5.639      8.219
REMARK  11 active torsions:
REMARK  status: ('A' for Active; 'I' for Inactive)
REMARK    1  A    between atoms: O1_2  and  C2_3 
REMARK    2  A    between atoms: C2_3  and  O2_4 
REMARK    3  A    between atoms: C2_3  and  C3_6 
REMARK    4  A    between atoms: C3_6  and  O3_7 
REMARK    5  A    between atoms: C3_6  and  C4_9 
REMARK    6  A    between atoms: C4_9  and  O4_10 
REMARK    7  A    between atoms: C4_9  and  C5_12 
REMARK    8  A    between atoms: C6_13  and  O5_14 
REMARK    9  A    between atoms: C7_16  and  C8_17 
REMARK   10  A    between atoms: C10_21  and  N2_22 
REMARK   11  A    between atoms: C13_34  and  N7_35 
REMARK       I    between atoms: N7_35  and  C14_37 
ROOT
HETATM    1  C5  UNL     1      -5.743  37.932  28.107  1.00  0.00     0.075 A 
HETATM    2  C6  UNL     1      -6.582  39.035  27.951  1.00  0.00     0.098 A 
HETATM    3  C7  UNL     1      -6.857  39.488  26.681  1.00  0.00     0.088 A 
HETATM    4  C13 UNL     1      -6.309  38.859  25.548  1.00  0.00     0.130 A 
HETATM    5  N8  UNL     1      -5.521  37.822  25.754  1.00  0.00    -0.308 N 
ATOM      6  H8  UNL     1      -5.112  37.348  24.948  1.00  0.00     0.170 HD
HETATM    7  C15 UNL     1      -5.237  37.361  26.994  1.00  0.00     0.258 A 
HETATM    8  O9  UNL     1      -4.452  36.343  27.032  1.00  0.00    -0.267 OA
ENDROOT
BRANCH   3   9
HETATM    9  C8  UNL     1      -7.743  40.642  26.527  1.00  0.00     0.140 A 
HETATM   10  N1  UNL     1      -7.824  41.417  25.425  1.00  0.00    -0.321 N 
HETATM   11  C9  UNL     1      -8.742  42.400  25.632  1.00  0.00     0.191 A 
ATOM     12  H1  UNL     1      -7.283  41.287  24.570  1.00  0.00     0.169 HD
HETATM   13  C10 UNL     1      -9.222  43.440  24.886  1.00  0.00     0.153 A 
HETATM   14  N5  UNL     1      -9.213  42.218  26.856  1.00  0.00    -0.170 N 
HETATM   15  N3  UNL     1     -10.162  44.258  25.409  1.00  0.00    -0.286 N 
HETATM   16  C11 UNL     1     -10.665  45.361  24.606  1.00  0.00     0.163 C 
HETATM   17  C12 UNL     1     -10.610  44.035  26.653  1.00  0.00     0.344 A 
HETATM   18  O6  UNL     1     -11.490  44.817  27.114  1.00  0.00    -0.245 OA
HETATM   19  N4  UNL     1     -10.143  43.025  27.375  1.00  0.00    -0.228 N 
ATOM     20  H4  UNL     1     -10.492  42.866  28.321  1.00  0.00     0.194 HD
HETATM   21  N6  UNL     1      -8.607  41.149  27.401  1.00  0.00    -0.261 N 
ATOM     22  H6  UNL     1      -8.782  40.785  28.338  1.00  0.00     0.191 HD
BRANCH  13  23
HETATM   23  N2  UNL     1      -8.765  43.621  23.695  1.00  0.00    -0.382 N 
ATOM     24  H22 UNL     1      -7.783  43.844  23.532  1.00  0.00     0.157 HD
ATOM     25  H21 UNL     1      -9.400  43.538  22.901  1.00  0.00     0.157 HD
ENDBRANCH  13  23
ENDBRANCH   3   9
BRANCH   2  26
HETATM   26  O5  UNL     1      -7.158  39.701  29.043  1.00  0.00    -0.359 OA
ATOM     27  H5  UNL     1      -7.904  40.282  28.950  1.00  0.00     0.217 HD
ENDBRANCH   2  26
BRANCH   4  28
HETATM   28  N7  UNL     1      -6.679  39.422  24.311  1.00  0.00    -0.286 N 
HETATM   29  C14 UNL     1      -7.015  38.689  23.169  1.00  0.00     0.289 C 
HETATM   30  O7  UNL     1      -7.052  37.453  23.011  1.00  0.00    -0.629 OA
HETATM   31  O8  UNL     1      -7.372  39.423  22.000  1.00  0.00    -0.629 OA
ATOM     32  H7  UNL     1      -6.703  40.440  24.244  1.00  0.00     0.173 HD
ENDBRANCH   4  28
BRANCH   1  33
HETATM   33  C4  UNL     1      -5.459  37.491  29.482  1.00  0.00     0.193 C 
BRANCH  33  34
HETATM   34  C3  UNL     1      -6.332  36.449  30.073  1.00  0.00     0.206 C 
BRANCH  34  35
HETATM   35  C2  UNL     1      -5.428  35.218  30.300  1.00  0.00     0.287 C 
BRANCH  35  36
HETATM   36  O1  UNL     1      -5.893  34.421  31.313  1.00  0.00    -0.364 OA
HETATM   37  C1  UNL     1      -5.269  33.176  31.373  1.00  0.00     0.204 C 
ENDBRANCH  35  36
BRANCH  35  38
HETATM   38  O2  UNL     1      -5.421  34.503  29.096  1.00  0.00    -0.369 OA
ATOM     39  H2  UNL     1      -5.532  35.099  28.365  1.00  0.00     0.212 HD
ENDBRANCH  35  38
ENDBRANCH  34  35
BRANCH  34  40
HETATM   40  O3  UNL     1      -6.724  36.802  31.391  1.00  0.00    -0.388 OA
ATOM     41  H3  UNL     1      -6.629  37.746  31.396  1.00  0.00     0.210 HD
ENDBRANCH  34  40
ENDBRANCH  33  34
BRANCH  33  42
HETATM   42  O4  UNL     1      -4.108  37.098  29.473  1.00  0.00    -0.388 OA
ATOM     43  H4  UNL     1      -3.592  37.591  30.101  1.00  0.00     0.210 HD
ENDBRANCH  33  42
ENDBRANCH   1  33
TORSDOF 11
ENDMDL
MODEL 3
REMARK VINA RESULT: -6.675081054      2.913      8.084
REMARK  11 active torsions:
REMARK  status: ('A' for Active; 'I' for Inactive)
REMARK    1  A    between atoms: O1_2  and  C2_3 
REMARK    2  A    between atoms: C2_3  and  O2_4 
REMARK    3  A    between atoms: C2_3  and  C3_6 
REMARK    4  A    between atoms: C3_6  and  O3_7 
REMARK    5  A    between atoms: C3_6  and  C4_9 
REMARK    6  A    between atoms: C4_9  and  O4_10 
REMARK    7  A    between atoms: C4_9  and  C5_12 
REMARK    8  A    between atoms: C6_13  and  O5_14 
REMARK    9  A    between atoms: C7_16  and  C8_17 
REMARK   10  A    between atoms: C10_21  and  N2_22 
REMARK   11  A    between atoms: C13_34  and  N7_35 
REMARK       I    between atoms: N7_35  and  C14_37 
ROOT
HETATM    1  C5  UNL     1      -4.260  38.004  29.024  1.00  0.00     0.075 A 
HETATM    2  C6  UNL     1      -4.046  39.302  29.485  1.00  0.00     0.098 A 
HETATM    3  C7  UNL     1      -2.764  39.694  29.798  1.00  0.00     0.088 A 
HETATM    4  C13 UNL     1      -1.677  38.810  29.659  1.00  0.00     0.130 A 
HETATM    5  N8  UNL     1      -1.938  37.595  29.219  1.00  0.00    -0.308 N 
ATOM      6  H8  UNL     1      -1.167  36.936  29.110  1.00  0.00     0.170 HD
HETATM    7  C15 UNL     1      -3.190  37.188  28.908  1.00  0.00     0.258 A 
HETATM    8  O9  UNL     1      -3.285  35.975  28.495  1.00  0.00    -0.267 OA
ENDROOT
BRANCH   3   9
HETATM    9  C8  UNL     1      -2.547  41.059  30.275  1.00  0.00     0.140 A 
HETATM   10  N1  UNL     1      -3.385  41.741  31.085  1.00  0.00    -0.321 N 
HETATM   11  C9  UNL     1      -2.875  42.981  31.320  1.00  0.00     0.191 A 
ATOM     12  H1  UNL     1      -4.263  41.383  31.462  1.00  0.00     0.169 HD
HETATM   13  C10 UNL     1      -3.283  44.066  32.044  1.00  0.00     0.153 A 
HETATM   14  N5  UNL     1      -1.733  43.046  30.653  1.00  0.00    -0.170 N 
HETATM   15  N3  UNL     1      -2.516  45.179  32.065  1.00  0.00    -0.286 N 
HETATM   16  C11 UNL     1      -2.959  46.327  32.839  1.00  0.00     0.163 C 
HETATM   17  C12 UNL     1      -1.367  45.200  31.375  1.00  0.00     0.344 A 
HETATM   18  O6  UNL     1      -0.672  46.256  31.415  1.00  0.00    -0.245 OA
HETATM   19  N4  UNL     1      -0.973  44.145  30.673  1.00  0.00    -0.228 N 
ATOM     20  H4  UNL     1      -0.097  44.173  30.152  1.00  0.00     0.194 HD
HETATM   21  N6  UNL     1      -1.532  41.879  30.018  1.00  0.00    -0.261 N 
ATOM     22  H6  UNL     1      -0.728  41.657  29.431  1.00  0.00     0.191 HD
BRANCH  13  23
HETATM   23  N2  UNL     1      -4.393  44.007  32.693  1.00  0.00    -0.382 N 
ATOM     24  H22 UNL     1      -4.723  43.131  33.101  1.00  0.00     0.157 HD
ATOM     25  H21 UNL     1      -4.952  44.853  32.801  1.00  0.00     0.157 HD
ENDBRANCH  13  23
ENDBRANCH   3   9
BRANCH   2  26
HETATM   26  O5  UNL     1      -5.090  40.225  29.643  1.00  0.00    -0.359 OA
ATOM     27  H5  UNL     1      -5.059  40.924  30.286  1.00  0.00     0.217 HD
ENDBRANCH   2  26
BRANCH   4  28
HETATM   28  N7  UNL     1      -0.422  39.344  30.007  1.00  0.00    -0.286 N 
HETATM   29  C14 UNL     1       0.742  39.214  29.243  1.00  0.00     0.289 C 
HETATM   30  O7  UNL     1       0.906  38.627  28.155  1.00  0.00    -0.629 OA
HETATM   31  O8  UNL     1       1.928  39.825  29.745  1.00  0.00    -0.629 OA
ATOM     32  H7  UNL     1      -0.357  39.864  30.883  1.00  0.00     0.173 HD
ENDBRANCH   4  28
BRANCH   1  33
HETATM   33  C4  UNL     1      -5.648  37.618  28.719  1.00  0.00     0.193 C 
BRANCH  33  34
HETATM   34  C3  UNL     1      -6.597  37.484  29.848  1.00  0.00     0.206 C 
BRANCH  34  35
HETATM   35  C2  UNL     1      -7.000  35.994  29.889  1.00  0.00     0.287 C 
BRANCH  35  36
HETATM   36  O1  UNL     1      -6.400  35.330  30.927  1.00  0.00    -0.364 OA
HETATM   37  C1  UNL     1      -5.660  34.219  30.522  1.00  0.00     0.204 C 
ENDBRANCH  35  36
BRANCH  35  38
HETATM   38  O2  UNL     1      -8.392  35.963  30.044  1.00  0.00    -0.369 OA
ATOM     39  H2  UNL     1      -8.631  36.325  30.889  1.00  0.00     0.212 HD
ENDBRANCH  35  38
ENDBRANCH  34  35
BRANCH  34  40
HETATM   40  O3  UNL     1      -5.938  37.668  31.093  1.00  0.00    -0.388 OA
ATOM     41  H3  UNL     1      -6.536  37.264  31.711  1.00  0.00     0.210 HD
ENDBRANCH  34  40
ENDBRANCH  33  34
BRANCH  33  42
HETATM   42  O4  UNL     1      -6.093  38.556  27.770  1.00  0.00    -0.388 OA
ATOM     43  H4  UNL     1      -5.551  38.554  26.990  1.00  0.00     0.210 HD
ENDBRANCH  33  42
ENDBRANCH   1  33
TORSDOF 11
ENDMDL
MODEL 4
REMARK VINA RESULT: -6.638885059      2.966      7.844
REMARK  11 active torsions:
REMARK  status: ('A' for Active; 'I' for Inactive)
REMARK    1  A    between atoms: O1_2  and  C2_3 
REMARK    2  A    between atoms: C2_3  and  O2_4 
REMARK    3  A    between atoms: C2_3  and  C3_6 
REMARK    4  A    between atoms: C3_6  and  O3_7 
REMARK    5  A    between atoms: C3_6  and  C4_9 
REMARK    6  A    between atoms: C4_9  and  O4_10 
REMARK    7  A    between atoms: C4_9  and  C5_12 
REMARK    8  A    between atoms: C6_13  and  O5_14 
REMARK    9  A    between atoms: C7_16  and  C8_17 
REMARK   10  A    between atoms: C10_21  and  N2_22 
REMARK   11  A    between atoms: C13_34  and  N7_35 
REMARK       I    between atoms: N7_35  and  C14_37 
ROOT
HETATM    1  C5  UNL     1      -4.267  39.557  27.052  1.00  0.00     0.075 A 
HETATM    2  C6  UNL     1      -3.912  40.698  27.771  1.00  0.00     0.098 A 
HETATM    3  C7  UNL     1      -3.141  40.558  28.902  1.00  0.00     0.088 A 
HETATM    4  C13 UNL     1      -2.708  39.292  29.338  1.00  0.00     0.130 A 
HETATM    5  N8  UNL     1      -3.073  38.248  28.620  1.00  0.00    -0.308 N 
ATOM      6  H8  UNL     1      -2.772  37.319  28.915  1.00  0.00     0.170 HD
HETATM    7  C15 UNL     1      -3.832  38.362  27.506  1.00  0.00     0.258 A 
HETATM    8  O9  UNL     1      -4.108  37.254  26.916  1.00  0.00    -0.267 OA
ENDROOT
BRANCH   3   9
HETATM    9  C8  UNL     1      -2.769  41.761  29.647  1.00  0.00     0.140 A 
HETATM   10  N1  UNL     1      -3.536  42.365  30.580  1.00  0.00    -0.321 N 
HETATM   11  C9  UNL     1      -2.882  43.457  31.061  1.00  0.00     0.191 A 
ATOM     12  H1  UNL     1      -4.460  42.052  30.877  1.00  0.00     0.169 HD
HETATM   13  C10 UNL     1      -3.171  44.416  31.991  1.00  0.00     0.153 A 
HETATM   14  N5  UNL     1      -1.725  43.512  30.421  1.00  0.00    -0.170 N 
HETATM   15  N3  UNL     1      -2.273  45.397  32.237  1.00  0.00    -0.286 N 
HETATM   16  C11 UNL     1      -2.590  46.412  33.230  1.00  0.00     0.163 C 
HETATM   17  C12 UNL     1      -1.114  45.412  31.565  1.00  0.00     0.344 A 
HETATM   18  O6  UNL     1      -0.294  46.342  31.819  1.00  0.00    -0.245 OA
HETATM   19  N4  UNL     1      -0.836  44.480  30.663  1.00  0.00    -0.228 N 
ATOM     20  H4  UNL     1       0.050  44.502  30.158  1.00  0.00     0.194 HD
HETATM   21  N6  UNL     1      -1.654  42.481  29.561  1.00  0.00    -0.261 N 
ATOM     22  H6  UNL     1      -0.869  42.283  28.940  1.00  0.00     0.191 HD
BRANCH  13  23
HETATM   23  N2  UNL     1      -4.296  44.368  32.615  1.00  0.00    -0.382 N 
ATOM     24  H22 UNL     1      -4.641  43.496  33.019  1.00  0.00     0.157 HD
ATOM     25  H21 UNL     1      -4.851  45.219  32.709  1.00  0.00     0.157 HD
ENDBRANCH  13  23
ENDBRANCH   3   9
BRANCH   2  26
HETATM   26  O5  UNL     1      -4.314  41.985  27.384  1.00  0.00    -0.359 OA
ATOM     27  H5  UNL     1      -4.207  42.742  27.947  1.00  0.00     0.217 HD
ENDBRANCH   2  26
BRANCH   4  28
HETATM   28  N7  UNL     1      -1.920  39.296  30.505  1.00  0.00    -0.286 N 
HETATM   29  C14 UNL     1      -1.947  38.304  31.490  1.00  0.00     0.289 C 
HETATM   30  O7  UNL     1      -2.638  37.269  31.544  1.00  0.00    -0.629 OA
HETATM   31  O8  UNL     1      -1.075  38.465  32.607  1.00  0.00    -0.629 OA
ATOM     32  H7  UNL     1      -1.282  40.081  30.641  1.00  0.00     0.173 HD
ENDBRANCH   4  28
BRANCH   1  33
HETATM   33  C4  UNL     1      -5.109  39.747  25.859  1.00  0.00     0.193 C 
BRANCH  33  34
HETATM   34  C3  UNL     1      -6.512  40.177  26.060  1.00  0.00     0.206 C 
BRANCH  34  35
HETATM   35  C2  UNL     1      -6.736  41.358  25.090  1.00  0.00     0.287 C 
BRANCH  35  36
HETATM   36  O1  UNL     1      -7.985  41.328  24.527  1.00  0.00    -0.364 OA
HETATM   37  C1  UNL     1      -8.545  42.593  24.346  1.00  0.00     0.204 C 
ENDBRANCH  35  36
BRANCH  35  38
HETATM   38  O2  UNL     1      -6.581  42.527  25.845  1.00  0.00    -0.369 OA
ATOM     39  H2  UNL     1      -7.430  42.922  26.007  1.00  0.00     0.212 HD
ENDBRANCH  35  38
ENDBRANCH  34  35
BRANCH  34  40
HETATM   40  O3  UNL     1      -7.419  39.196  25.579  1.00  0.00    -0.388 OA
ATOM     41  H3  UNL     1      -8.140  39.255  26.194  1.00  0.00     0.210 HD
ENDBRANCH  34  40
ENDBRANCH  33  34
BRANCH  33  42
HETATM   42  O4  UNL     1      -4.398  40.646  25.043  1.00  0.00    -0.388 OA
ATOM     43  H4  UNL     1      -3.649  40.232  24.631  1.00  0.00     0.210 HD
ENDBRANCH  33  42
ENDBRANCH   1  33
TORSDOF 11
ENDMDL
MODEL 5
REMARK VINA RESULT: -6.632607301      3.041      8.090
REMARK  11 active torsions:
REMARK  status: ('A' for Active; 'I' for Inactive)
REMARK    1  A    between atoms: O1_2  and  C2_3 
REMARK    2  A    between atoms: C2_3  and  O2_4 
REMARK    3  A    between atoms: C2_3  and  C3_6 
REMARK    4  A    between atoms: C3_6  and  O3_7 
REMARK    5  A    between atoms: C3_6  and  C4_9 
REMARK    6  A    between atoms: C4_9  and  O4_10 
REMARK    7  A    between atoms: C4_9  and  C5_12 
REMARK    8  A    between atoms: C6_13  and  O5_14 
REMARK    9  A    between atoms: C7_16  and  C8_17 
REMARK   10  A    between atoms: C10_21  and  N2_22 
REMARK   11  A    between atoms: C13_34  and  N7_35 
REMARK       I    between atoms: N7_35  and  C14_37 
ROOT
HETATM    1  C5  UNL     1      -4.132  38.702  27.724  1.00  0.00     0.075 A 
HETATM    2  C6  UNL     1      -3.801  39.940  28.272  1.00  0.00     0.098 A 
HETATM    3  C7  UNL     1      -3.027  39.979  29.410  1.00  0.00     0.088 A 
HETATM    4  C13 UNL     1      -2.569  38.796  30.020  1.00  0.00     0.130 A 
HETATM    5  N8  UNL     1      -2.913  37.653  29.459  1.00  0.00    -0.308 N 
ATOM      6  H8  UNL     1      -2.593  36.783  29.883  1.00  0.00     0.170 HD
HETATM    7  C15 UNL     1      -3.674  37.593  28.342  1.00  0.00     0.258 A 
HETATM    8  O9  UNL     1      -3.927  36.407  27.916  1.00  0.00    -0.267 OA
ENDROOT
BRANCH   3   9
HETATM    9  C8  UNL     1      -2.680  41.282  29.975  1.00  0.00     0.140 A 
HETATM   10  N1  UNL     1      -3.452  41.990  30.827  1.00  0.00    -0.321 N 
HETATM   11  C9  UNL     1      -2.823  43.155  31.142  1.00  0.00     0.191 A 
ATOM     12  H1  UNL     1      -4.364  41.698  31.179  1.00  0.00     0.169 HD
HETATM   13  C10 UNL     1      -3.127  44.227  31.934  1.00  0.00     0.153 A 
HETATM   14  N5  UNL     1      -1.675  43.150  30.482  1.00  0.00    -0.170 N 
HETATM   15  N3  UNL     1      -2.254  45.254  32.028  1.00  0.00    -0.286 N 
HETATM   16  C11 UNL     1      -2.587  46.389  32.875  1.00  0.00     0.163 C 
HETATM   17  C12 UNL     1      -1.103  45.205  31.342  1.00  0.00     0.344 A 
HETATM   18  O6  UNL     1      -0.307  46.182  31.452  1.00  0.00    -0.245 OA
HETATM   19  N4  UNL     1      -0.810  44.165  30.574  1.00  0.00    -0.228 N 
ATOM     20  H4  UNL     1       0.068  44.139  30.057  1.00  0.00     0.194 HD
HETATM   21  N6  UNL     1      -1.587  42.011  29.773  1.00  0.00    -0.261 N 
ATOM     22  H6  UNL     1      -0.803  41.749  29.173  1.00  0.00     0.191 HD
BRANCH  13  23
HETATM   23  N2  UNL     1      -4.243  44.237  32.577  1.00  0.00    -0.382 N 
ATOM     24  H22 UNL     1      -4.784  43.382  32.712  1.00  0.00     0.157 HD
ATOM     25  H21 UNL     1      -4.590  45.117  32.958  1.00  0.00     0.157 HD
ENDBRANCH  13  23
ENDBRANCH   3   9
BRANCH   2  26
HETATM   26  O5  UNL     1      -4.228  41.151  27.707  1.00  0.00    -0.359 OA
ATOM     27  H5  UNL     1      -4.123  41.985  28.150  1.00  0.00     0.217 HD
ENDBRANCH   2  26
BRANCH   4  28
HETATM   28  N7  UNL     1      -1.782  38.982  31.173  1.00  0.00    -0.286 N 
HETATM   29  C14 UNL     1      -1.687  38.072  32.230  1.00  0.00     0.289 C 
HETATM   30  O7  UNL     1      -2.250  36.969  32.371  1.00  0.00    -0.629 OA
HETATM   31  O8  UNL     1      -0.835  38.419  33.320  1.00  0.00    -0.629 OA
ATOM     32  H7  UNL     1      -1.241  39.844  31.241  1.00  0.00     0.173 HD
ENDBRANCH   4  28
BRANCH   1  33
HETATM   33  C4  UNL     1      -4.977  38.703  26.518  1.00  0.00     0.193 C 
BRANCH  33  34
HETATM   34  C3  UNL     1      -6.366  39.205  26.643  1.00  0.00     0.206 C 
BRANCH  34  35
HETATM   35  C2  UNL     1      -7.044  38.914  25.286  1.00  0.00     0.287 C 
BRANCH  35  36
HETATM   36  O1  UNL     1      -6.974  39.988  24.438  1.00  0.00    -0.364 OA
HETATM   37  C1  UNL     1      -7.258  41.205  25.057  1.00  0.00     0.204 C 
ENDBRANCH  35  36
BRANCH  35  38
HETATM   38  O2  UNL     1      -6.367  37.822  24.730  1.00  0.00    -0.369 OA
ATOM     39  H2  UNL     1      -6.982  37.124  24.536  1.00  0.00     0.212 HD
ENDBRANCH  35  38
ENDBRANCH  34  35
BRANCH  34  40
HETATM   40  O3  UNL     1      -7.116  38.410  27.549  1.00  0.00    -0.388 OA
ATOM     41  H3  UNL     1      -6.609  38.468  28.351  1.00  0.00     0.210 HD
ENDBRANCH  34  40
ENDBRANCH  33  34
BRANCH  33  42
HETATM   42  O4  UNL     1      -4.246  39.422  25.554  1.00  0.00    -0.388 OA
ATOM     43  H4  UNL     1      -3.884  38.850  24.888  1.00  0.00     0.210 HD
ENDBRANCH  33  42
ENDBRANCH   1  33
TORSDOF 11
ENDMDL
