MODEL 1
REMARK VINA RESULT: -5.806854668      0.000      0.000
REMARK  12 active torsions:
REMARK  status: ('A' for Active; 'I' for Inactive)
REMARK    1  A    between atoms: N1_2  and  N2_3 
REMARK    2  A    between atoms: N1_2  and  C2_6 
REMARK    3  A    between atoms: N5_12  and  C5_14 
REMARK    4  A    between atoms: C5_14  and  N6_15 
REMARK    5  A    between atoms: C5_14  and  C7_20 
REMARK    6  A    between atoms: C7_20  and  O1_21 
REMARK    7  A    between atoms: C7_20  and  C8_23 
REMARK    8  A    between atoms: C8_23  and  O2_24 
REMARK    9  A    between atoms: C8_23  and  C9_26 
REMARK   10  A    between atoms: C9_26  and  O3_27 
REMARK   11  A    between atoms: C11_30  and  O4_31 
REMARK   12  A    between atoms: O4_31  and  N9_32 
ROOT
HETATM    1  C2  UNL     1      -7.228  40.970  25.256  1.00  0.00     0.151 A 
HETATM    2  N3  UNL     1      -6.939  40.721  23.973  1.00  0.00    -0.326 N 
ATOM      3  H3  UNL     1      -6.290  39.960  23.770  1.00  0.00     0.168 HD
HETATM    4  C3  UNL     1      -7.451  41.411  22.926  1.00  0.00     0.145 A 
HETATM    5  N4  UNL     1      -7.001  40.967  21.664  1.00  0.00    -0.080 NA
HETATM    6  C4  UNL     1      -8.333  42.457  23.023  1.00  0.00     0.087 A 
HETATM    7  N5  UNL     1      -8.866  43.140  22.125  1.00  0.00    -0.363 N 
ATOM      8  H5  UNL     1      -9.492  43.867  22.471  1.00  0.00     0.162 HD
HETATM    9  C10 UNL     1      -8.685  42.775  24.353  1.00  0.00     0.064 A 
HETATM   10  C11 UNL     1      -9.582  43.832  24.432  1.00  0.00     0.159 C 
HETATM   11  C12 UNL     1     -10.461  44.063  25.478  1.00  0.00     0.166 A 
HETATM   12  N10 UNL     1     -11.544  44.842  25.355  1.00  0.00    -0.334 N 
ATOM     13  H10 UNL     1     -11.846  45.338  24.516  1.00  0.00     0.168 HD
HETATM   14  C13 UNL     1     -12.158  44.841  26.550  1.00  0.00     0.199 A 
HETATM   15  N11 UNL     1     -11.427  44.060  27.365  1.00  0.00    -0.287 N 
ATOM     16  H11 UNL     1     -11.654  43.873  28.342  1.00  0.00     0.188 HD
HETATM   17  N12 UNL     1     -10.378  43.566  26.734  1.00  0.00    -0.232 N 
HETATM   18  C14 UNL     1      -9.480  42.753  27.319  1.00  0.00     0.209 C 
HETATM   19  N13 UNL     1      -8.358  42.199  26.766  1.00  0.00    -0.347 N 
ATOM     20  H13 UNL     1      -7.630  41.899  27.414  1.00  0.00     0.167 HD
HETATM   21  C15 UNL     1      -8.113  42.010  25.454  1.00  0.00     0.095 A 
ENDROOT
BRANCH   7  22
HETATM   22  C5  UNL     1      -8.763  43.092  20.730  1.00  0.00     0.215 C 
BRANCH  22  23
HETATM   23  N6  UNL     1      -8.686  44.392  20.059  1.00  0.00    -0.343 N 
HETATM   24  C6  UNL     1      -7.756  45.243  20.307  1.00  0.00     0.198 C 
HETATM   25  N7  UNL     1      -6.718  45.067  21.221  1.00  0.00    -0.067 NA
HETATM   26  N8  UNL     1      -7.810  46.470  19.575  1.00  0.00    -0.067 NA
ATOM     27  H6  UNL     1      -9.398  44.630  19.368  1.00  0.00     0.164 HD
ENDBRANCH  22  23
BRANCH  22  28
HETATM   28  C7  UNL     1     -10.035  42.462  20.117  1.00  0.00     0.191 C 
BRANCH  28  29
HETATM   29  O1  UNL     1     -10.420  43.343  19.079  1.00  0.00    -0.389 OA
ATOM     30  H1  UNL     1     -11.359  43.442  19.173  1.00  0.00     0.210 HD
ENDBRANCH  28  29
BRANCH  28  31
HETATM   31  C8  UNL     1      -9.703  41.154  19.433  1.00  0.00     0.174 C 
BRANCH  31  32
HETATM   32  O2  UNL     1      -8.370  41.300  18.987  1.00  0.00    -0.391 OA
ATOM     33  H2  UNL     1      -8.417  41.917  18.266  1.00  0.00     0.210 HD
ENDBRANCH  31  32
BRANCH  31  34
HETATM   34  C9  UNL     1     -10.602  40.896  18.241  1.00  0.00     0.198 C 
BRANCH  34  35
HETATM   35  O3  UNL     1     -11.920  40.774  18.738  1.00  0.00    -0.398 OA
ATOM     36  H3  UNL     1     -12.497  40.739  17.985  1.00  0.00     0.209 HD
ENDBRANCH  34  35
ENDBRANCH  31  34
ENDBRANCH  28  31
ENDBRANCH  22  28
ENDBRANCH   7  22
BRANCH  10  37
HETATM   37  O4  UNL     1      -9.573  44.705  23.368  1.00  0.00    -0.240 OA
BRANCH  37  38
HETATM   38  N9  UNL     1      -9.032  45.948  23.385  1.00  0.00    -0.305 N 
ATOM     39  H92 UNL     1      -9.678  46.725  23.253  1.00  0.00     0.184 HD
ATOM     40  H91 UNL     1      -8.042  46.154  23.517  1.00  0.00     0.184 HD
ENDBRANCH  37  38
ENDBRANCH  10  37
BRANCH   1  41
HETATM   41  N1  UNL     1      -6.686  40.241  26.349  1.00  0.00    -0.286 N 
HETATM   42  C1  UNL     1      -5.434  40.565  26.991  1.00  0.00     0.179 C 
BRANCH  41  43
HETATM   43  N2  UNL     1      -7.419  39.147  26.823  1.00  0.00    -0.342 N 
ATOM     44  H22 UNL     1      -7.116  38.216  26.535  1.00  0.00     0.177 HD
ATOM     45  H21 UNL     1      -8.220  39.321  27.431  1.00  0.00     0.177 HD
ENDBRANCH  41  43
ENDBRANCH   1  41
TORSDOF 12
ENDMDL
MODEL 2
REMARK VINA RESULT: -5.800280732     10.636     14.149
REMARK  12 active torsions:
REMARK  status: ('A' for Active; 'I' for Inactive)
REMARK    1  A    between atoms: N1_2  and  N2_3 
REMARK    2  A    between atoms: N1_2  and  C2_6 
REMARK    3  A    between atoms: N5_12  and  C5_14 
REMARK    4  A    between atoms: C5_14  and  N6_15 
REMARK    5  A    between atoms: C5_14  and  C7_20 
REMARK    6  A    between atoms: C7_20  and  O1_21 
REMARK    7  A    between atoms: C7_20  and  C8_23 
REMARK    8  A    between atoms: C8_23  and  O2_24 
REMARK    9  A    between atoms: C8_23  and  C9_26 
REMARK   10  A    between atoms: C9_26  and  O3_27 
REMARK   11  A    between atoms: C11_30  and  O4_31 
REMARK   12  A    between atoms: O4_31  and  N9_32 
ROOT
HETATM    1  C2  UNL     1      -1.995  31.202  33.626  1.00  0.00     0.151 A 
HETATM    2  N3  UNL     1      -2.765  30.857  32.588  1.00  0.00    -0.326 N 
ATOM      3  H3  UNL     1      -2.950  29.864  32.441  1.00  0.00     0.168 HD
HETATM    4  C3  UNL     1      -3.318  31.737  31.720  1.00  0.00     0.145 A 
HETATM    5  N4  UNL     1      -4.094  31.140  30.704  1.00  0.00    -0.080 NA
HETATM    6  C4  UNL     1      -3.171  33.101  31.774  1.00  0.00     0.087 A 
HETATM    7  N5  UNL     1      -3.647  33.986  31.035  1.00  0.00    -0.363 N 
ATOM      8  H5  UNL     1      -3.380  34.934  31.298  1.00  0.00     0.162 HD
HETATM    9  C10 UNL     1      -2.367  33.537  32.850  1.00  0.00     0.064 A 
HETATM   10  C11 UNL     1      -2.235  34.919  32.893  1.00  0.00     0.159 C 
HETATM   11  C12 UNL     1      -1.950  35.663  34.026  1.00  0.00     0.166 A 
HETATM   12  N10 UNL     1      -2.199  36.977  34.111  1.00  0.00    -0.334 N 
ATOM     13  H10 UNL     1      -2.612  37.567  33.388  1.00  0.00     0.168 HD
HETATM   14  C13 UNL     1      -1.801  37.367  35.333  1.00  0.00     0.199 A 
HETATM   15  N11 UNL     1      -1.321  36.276  35.956  1.00  0.00    -0.287 N 
ATOM     16  H11 UNL     1      -0.946  36.271  36.905  1.00  0.00     0.188 HD
HETATM   17  N12 UNL     1      -1.400  35.213  35.177  1.00  0.00    -0.232 N 
HETATM   18  C14 UNL     1      -0.987  33.989  35.555  1.00  0.00     0.209 C 
HETATM   19  N13 UNL     1      -1.010  32.831  34.829  1.00  0.00    -0.347 N 
ATOM     20  H13 UNL     1      -0.368  32.094  35.124  1.00  0.00     0.167 HD
HETATM   21  C15 UNL     1      -1.790  32.559  33.764  1.00  0.00     0.095 A 
ENDROOT
BRANCH   7  22
HETATM   22  C5  UNL     1      -4.480  33.918  29.913  1.00  0.00     0.215 C 
BRANCH  22  23
HETATM   23  N6  UNL     1      -3.968  34.573  28.708  1.00  0.00    -0.343 N 
HETATM   24  C6  UNL     1      -3.012  34.079  28.006  1.00  0.00     0.198 C 
HETATM   25  N7  UNL     1      -2.340  32.888  28.277  1.00  0.00    -0.067 NA
HETATM   26  N8  UNL     1      -2.618  34.830  26.855  1.00  0.00    -0.067 NA
ATOM     27  H6  UNL     1      -4.387  35.456  28.414  1.00  0.00     0.164 HD
ENDBRANCH  22  23
BRANCH  22  28
HETATM   28  C7  UNL     1      -5.805  34.670  30.179  1.00  0.00     0.191 C 
BRANCH  28  29
HETATM   29  O1  UNL     1      -5.920  34.727  31.588  1.00  0.00    -0.389 OA
ATOM     30  H1  UNL     1      -5.691  33.857  31.891  1.00  0.00     0.210 HD
ENDBRANCH  28  29
BRANCH  28  31
HETATM   31  C8  UNL     1      -5.700  36.109  29.724  1.00  0.00     0.174 C 
BRANCH  31  32
HETATM   32  O2  UNL     1      -4.560  36.621  30.384  1.00  0.00    -0.391 OA
ATOM     33  H2  UNL     1      -4.418  37.479  30.002  1.00  0.00     0.210 HD
ENDBRANCH  31  32
BRANCH  31  34
HETATM   34  C9  UNL     1      -6.916  36.918  30.130  1.00  0.00     0.198 C 
BRANCH  34  35
HETATM   35  O3  UNL     1      -8.048  36.107  29.893  1.00  0.00    -0.398 OA
ATOM     36  H3  UNL     1      -7.761  35.385  29.346  1.00  0.00     0.209 HD
ENDBRANCH  34  35
ENDBRANCH  31  34
ENDBRANCH  28  31
ENDBRANCH  22  28
ENDBRANCH   7  22
BRANCH  10  37
HETATM   37  O4  UNL     1      -2.407  35.573  31.694  1.00  0.00    -0.240 OA
BRANCH  37  38
HETATM   38  N9  UNL     1      -1.435  36.242  31.026  1.00  0.00    -0.305 N 
ATOM     39  H92 UNL     1      -1.052  35.781  30.202  1.00  0.00     0.184 HD
ATOM     40  H91 UNL     1      -1.069  37.157  31.287  1.00  0.00     0.184 HD
ENDBRANCH  37  38
ENDBRANCH  10  37
BRANCH   1  41
HETATM   41  N1  UNL     1      -1.418  30.271  34.533  1.00  0.00    -0.286 N 
HETATM   42  C1  UNL     1      -2.060  29.828  35.748  1.00  0.00     0.179 C 
BRANCH  41  43
HETATM   43  N2  UNL     1      -0.154  29.760  34.217  1.00  0.00    -0.342 N 
ATOM     44  H22 UNL     1       0.541  29.730  34.963  1.00  0.00     0.177 HD
ATOM     45  H21 UNL     1       0.020  29.442  33.264  1.00  0.00     0.177 HD
ENDBRANCH  41  43
ENDBRANCH   1  41
TORSDOF 12
ENDMDL
MODEL 3
REMARK VINA RESULT: -5.603603587      0.862      1.036
REMARK  12 active torsions:
REMARK  status: ('A' for Active; 'I' for Inactive)
REMARK    1  A    between atoms: N1_2  and  N2_3 
REMARK    2  A    between atoms: N1_2  and  C2_6 
REMARK    3  A    between atoms: N5_12  and  C5_14 
REMARK    4  A    between atoms: C5_14  and  N6_15 
REMARK    5  A    between atoms: C5_14  and  C7_20 
REMARK    6  A    between atoms: C7_20  and  O1_21 
REMARK    7  A    between atoms: C7_20  and  C8_23 
REMARK    8  A    between atoms: C8_23  and  O2_24 
REMARK    9  A    between atoms: C8_23  and  C9_26 
REMARK   10  A    between atoms: C9_26  and  O3_27 
REMARK   11  A    between atoms: C11_30  and  O4_31 
REMARK   12  A    between atoms: O4_31  and  N9_32 
ROOT
HETATM    1  C2  UNL     1      -7.005  40.731  25.348  1.00  0.00     0.151 A 
HETATM    2  N3  UNL     1      -6.608  40.454  24.101  1.00  0.00    -0.326 N 
ATOM      3  H3  UNL     1      -5.972  39.668  23.966  1.00  0.00     0.168 HD
HETATM    4  C3  UNL     1      -6.993  41.149  23.004  1.00  0.00     0.145 A 
HETATM    5  N4  UNL     1      -6.446  40.671  21.794  1.00  0.00    -0.080 NA
HETATM    6  C4  UNL     1      -7.841  42.228  23.008  1.00  0.00     0.087 A 
HETATM    7  N5  UNL     1      -8.261  42.918  22.057  1.00  0.00    -0.363 N 
ATOM      8  H5  UNL     1      -8.889  43.672  22.337  1.00  0.00     0.162 HD
HETATM    9  C10 UNL     1      -8.302  42.577  24.297  1.00  0.00     0.064 A 
HETATM   10  C11 UNL     1      -9.162  43.666  24.281  1.00  0.00     0.159 C 
HETATM   11  C12 UNL     1     -10.124  43.944  25.238  1.00  0.00     0.166 A 
HETATM   12  N10 UNL     1     -11.161  44.760  25.007  1.00  0.00    -0.334 N 
ATOM     13  H10 UNL     1     -11.364  45.257  24.139  1.00  0.00     0.168 HD
HETATM   14  C13 UNL     1     -11.882  44.799  26.140  1.00  0.00     0.199 A 
HETATM   15  N11 UNL     1     -11.261  44.002  27.027  1.00  0.00    -0.287 N 
ATOM     16  H11 UNL     1     -11.584  43.836  27.981  1.00  0.00     0.188 HD
HETATM   17  N12 UNL     1     -10.177  43.461  26.501  1.00  0.00    -0.232 N 
HETATM   18  C14 UNL     1      -9.369  42.623  27.175  1.00  0.00     0.209 C 
HETATM   19  N13 UNL     1      -8.223  42.021  26.735  1.00  0.00    -0.347 N 
ATOM     20  H13 UNL     1      -7.570  41.703  27.451  1.00  0.00     0.167 HD
HETATM   21  C15 UNL     1      -7.864  41.805  25.453  1.00  0.00     0.095 A 
ENDROOT
BRANCH   7  22
HETATM   22  C5  UNL     1      -8.032  42.848  20.679  1.00  0.00     0.215 C 
BRANCH  22  23
HETATM   23  N6  UNL     1      -8.045  44.130  19.971  1.00  0.00    -0.343 N 
HETATM   24  C6  UNL     1      -7.197  45.064  20.218  1.00  0.00     0.198 C 
HETATM   25  N7  UNL     1      -6.174  45.000  21.164  1.00  0.00    -0.067 NA
HETATM   26  N8  UNL     1      -7.332  46.261  19.449  1.00  0.00    -0.067 NA
ATOM     27  H6  UNL     1      -8.754  44.288  19.255  1.00  0.00     0.164 HD
ENDBRANCH  22  23
BRANCH  22  28
HETATM   28  C7  UNL     1      -9.165  42.058  19.983  1.00  0.00     0.191 C 
BRANCH  28  29
HETATM   29  O1  UNL     1      -8.531  40.927  19.416  1.00  0.00    -0.389 OA
ATOM     30  H1  UNL     1      -8.907  40.181  19.867  1.00  0.00     0.210 HD
ENDBRANCH  28  29
BRANCH  28  31
HETATM   31  C8  UNL     1     -10.134  41.507  21.005  1.00  0.00     0.174 C 
BRANCH  31  32
HETATM   32  O2  UNL     1      -9.717  40.175  21.226  1.00  0.00    -0.391 OA
ATOM     33  H2  UNL     1     -10.158  39.663  20.558  1.00  0.00     0.210 HD
ENDBRANCH  31  32
BRANCH  31  34
HETATM   34  C9  UNL     1     -11.558  41.503  20.487  1.00  0.00     0.198 C 
BRANCH  34  35
HETATM   35  O3  UNL     1     -11.558  40.758  19.287  1.00  0.00    -0.398 OA
ATOM     36  H3  UNL     1     -12.061  41.255  18.653  1.00  0.00     0.209 HD
ENDBRANCH  34  35
ENDBRANCH  31  34
ENDBRANCH  28  31
ENDBRANCH  22  28
ENDBRANCH   7  22
BRANCH  10  37
HETATM   37  O4  UNL     1      -9.021  44.524  23.214  1.00  0.00    -0.240 OA
BRANCH  37  38
HETATM   38  N9  UNL     1      -8.535  45.787  23.288  1.00  0.00    -0.305 N 
ATOM     39  H92 UNL     1      -9.117  46.522  22.886  1.00  0.00     0.184 HD
ATOM     40  H91 UNL     1      -7.644  46.048  23.712  1.00  0.00     0.184 HD
ENDBRANCH  37  38
ENDBRANCH  10  37
BRANCH   1  41
HETATM   41  N1  UNL     1      -6.595  39.997  26.494  1.00  0.00    -0.286 N 
HETATM   42  C1  UNL     1      -5.433  40.324  27.287  1.00  0.00     0.179 C 
BRANCH  41  43
HETATM   43  N2  UNL     1      -7.372  38.894  26.868  1.00  0.00    -0.342 N 
ATOM     44  H22 UNL     1      -7.758  38.888  27.812  1.00  0.00     0.177 HD
ATOM     45  H21 UNL     1      -7.518  38.147  26.189  1.00  0.00     0.177 HD
ENDBRANCH  41  43
ENDBRANCH   1  41
TORSDOF 12
ENDMDL
MODEL 4
REMARK VINA RESULT: -5.594643382      6.395     10.567
REMARK  12 active torsions:
REMARK  status: ('A' for Active; 'I' for Inactive)
REMARK    1  A    between atoms: N1_2  and  N2_3 
REMARK    2  A    between atoms: N1_2  and  C2_6 
REMARK    3  A    between atoms: N5_12  and  C5_14 
REMARK    4  A    between atoms: C5_14  and  N6_15 
REMARK    5  A    between atoms: C5_14  and  C7_20 
REMARK    6  A    between atoms: C7_20  and  O1_21 
REMARK    7  A    between atoms: C7_20  and  C8_23 
REMARK    8  A    between atoms: C8_23  and  O2_24 
REMARK    9  A    between atoms: C8_23  and  C9_26 
REMARK   10  A    between atoms: C9_26  and  O3_27 
REMARK   11  A    between atoms: C11_30  and  O4_31 
REMARK   12  A    between atoms: O4_31  and  N9_32 
ROOT
HETATM    1  C2  UNL     1      -2.288  40.215  30.178  1.00  0.00     0.151 A 
HETATM    2  N3  UNL     1      -2.222  39.140  30.971  1.00  0.00    -0.326 N 
ATOM      3  H3  UNL     1      -1.731  39.233  31.861  1.00  0.00     0.168 HD
HETATM    4  C3  UNL     1      -2.764  37.935  30.672  1.00  0.00     0.145 A 
HETATM    5  N4  UNL     1      -2.569  36.950  31.664  1.00  0.00    -0.080 NA
HETATM    6  C4  UNL     1      -3.455  37.641  29.524  1.00  0.00     0.087 A 
HETATM    7  N5  UNL     1      -3.998  36.575  29.168  1.00  0.00    -0.363 N 
ATOM      8  H5  UNL     1      -4.452  36.624  28.256  1.00  0.00     0.162 HD
HETATM    9  C10 UNL     1      -3.565  38.735  28.637  1.00  0.00     0.064 A 
HETATM   10  C11 UNL     1      -4.271  38.421  27.484  1.00  0.00     0.159 C 
HETATM   11  C12 UNL     1      -4.950  39.327  26.686  1.00  0.00     0.166 A 
HETATM   12  N10 UNL     1      -5.908  38.959  25.825  1.00  0.00    -0.334 N 
ATOM     13  H10 UNL     1      -6.245  38.011  25.657  1.00  0.00     0.168 HD
HETATM   14  C13 UNL     1      -6.341  40.081  25.226  1.00  0.00     0.199 A 
HETATM   15  N11 UNL     1      -5.631  41.100  25.743  1.00  0.00    -0.287 N 
ATOM     16  H11 UNL     1      -5.744  42.078  25.474  1.00  0.00     0.188 HD
HETATM   17  N12 UNL     1      -4.768  40.667  26.644  1.00  0.00    -0.232 N 
HETATM   18  C14 UNL     1      -3.931  41.481  27.313  1.00  0.00     0.209 C 
HETATM   19  N13 UNL     1      -2.995  41.140  28.251  1.00  0.00    -0.347 N 
ATOM     20  H13 UNL     1      -2.238  41.806  28.403  1.00  0.00     0.167 HD
HETATM   21  C15 UNL     1      -2.968  40.016  28.994  1.00  0.00     0.095 A 
ENDROOT
BRANCH   7  22
HETATM   22  C5  UNL     1      -4.100  35.326  29.790  1.00  0.00     0.215 C 
BRANCH  22  23
HETATM   23  N6  UNL     1      -3.802  34.172  28.938  1.00  0.00    -0.343 N 
HETATM   24  C6  UNL     1      -2.705  34.066  28.278  1.00  0.00     0.198 C 
HETATM   25  N7  UNL     1      -1.670  35.001  28.270  1.00  0.00    -0.067 NA
HETATM   26  N8  UNL     1      -2.553  32.884  27.489  1.00  0.00    -0.067 NA
ATOM     27  H6  UNL     1      -4.492  33.424  28.867  1.00  0.00     0.164 HD
ENDBRANCH  22  23
BRANCH  22  28
HETATM   28  C7  UNL     1      -5.558  35.061  30.232  1.00  0.00     0.191 C 
BRANCH  28  29
HETATM   29  O1  UNL     1      -5.450  34.304  31.423  1.00  0.00    -0.389 OA
ATOM     30  H1  UNL     1      -6.233  33.767  31.447  1.00  0.00     0.210 HD
ENDBRANCH  28  29
BRANCH  28  31
HETATM   31  C8  UNL     1      -6.234  36.353  30.636  1.00  0.00     0.174 C 
BRANCH  31  32
HETATM   32  O2  UNL     1      -6.803  36.091  31.903  1.00  0.00    -0.391 OA
ATOM     33  H2  UNL     1      -7.034  35.169  31.884  1.00  0.00     0.210 HD
ENDBRANCH  31  32
BRANCH  31  34
HETATM   34  C9  UNL     1      -7.332  36.742  29.667  1.00  0.00     0.198 C 
BRANCH  34  35
HETATM   35  O3  UNL     1      -8.467  35.968  30.000  1.00  0.00    -0.398 OA
ATOM     36  H3  UNL     1      -8.714  36.207  30.885  1.00  0.00     0.209 HD
ENDBRANCH  34  35
ENDBRANCH  31  34
ENDBRANCH  28  31
ENDBRANCH  22  28
ENDBRANCH   7  22
BRANCH  10  37
HETATM   37  O4  UNL     1      -4.278  37.090  27.131  1.00  0.00    -0.240 OA
BRANCH  37  38
HETATM   38  N9  UNL     1      -3.615  36.562  26.074  1.00  0.00    -0.305 N 
ATOM     39  H92 UNL     1      -2.615  36.759  26.021  1.00  0.00     0.184 HD
ATOM     40  H91 UNL     1      -4.039  35.991  25.342  1.00  0.00     0.184 HD
ENDBRANCH  37  38
ENDBRANCH  10  37
BRANCH   1  41
HETATM   41  N1  UNL     1      -1.715  41.476  30.499  1.00  0.00    -0.286 N 
HETATM   42  C1  UNL     1      -2.473  42.603  30.989  1.00  0.00     0.179 C 
BRANCH  41  43
HETATM   43  N2  UNL     1      -0.334  41.621  30.326  1.00  0.00    -0.342 N 
ATOM     44  H22 UNL     1       0.005  41.810  29.383  1.00  0.00     0.177 HD
ATOM     45  H21 UNL     1       0.272  41.533  31.141  1.00  0.00     0.177 HD
ENDBRANCH  41  43
ENDBRANCH   1  41
TORSDOF 12
ENDMDL
MODEL 5
REMARK VINA RESULT: -5.302250461      4.936      8.775
REMARK  12 active torsions:
REMARK  status: ('A' for Active; 'I' for Inactive)
REMARK    1  A    between atoms: N1_2  and  N2_3 
REMARK    2  A    between atoms: N1_2  and  C2_6 
REMARK    3  A    between atoms: N5_12  and  C5_14 
REMARK    4  A    between atoms: C5_14  and  N6_15 
REMARK    5  A    between atoms: C5_14  and  C7_20 
REMARK    6  A    between atoms: C7_20  and  O1_21 
REMARK    7  A    between atoms: C7_20  and  C8_23 
REMARK    8  A    between atoms: C8_23  and  O2_24 
REMARK    9  A    between atoms: C8_23  and  C9_26 
REMARK   10  A    between atoms: C9_26  and  O3_27 
REMARK   11  A    between atoms: C11_30  and  O4_31 
REMARK   12  A    between atoms: O4_31  and  N9_32 
ROOT
HETATM    1  C2  UNL     1      -2.303  42.208  25.811  1.00  0.00     0.151 A 
HETATM    2  N3  UNL     1      -1.812  41.511  26.843  1.00  0.00    -0.326 N 
ATOM      3  H3  UNL     1      -0.812  41.579  27.031  1.00  0.00     0.168 HD
HETATM    4  C3  UNL     1      -2.555  40.722  27.654  1.00  0.00     0.145 A 
HETATM    5  N4  UNL     1      -1.820  40.086  28.677  1.00  0.00    -0.080 NA
HETATM    6  C4  UNL     1      -3.908  40.521  27.541  1.00  0.00     0.087 A 
HETATM    7  N5  UNL     1      -4.675  39.829  28.241  1.00  0.00    -0.363 N 
ATOM      8  H5  UNL     1      -5.649  39.852  27.938  1.00  0.00     0.162 HD
HETATM    9  C10 UNL     1      -4.494  41.230  26.469  1.00  0.00     0.064 A 
HETATM   10  C11 UNL     1      -5.863  41.019  26.373  1.00  0.00     0.159 C 
HETATM   11  C12 UNL     1      -6.771  41.888  25.790  1.00  0.00     0.166 A 
HETATM   12  N10 UNL     1      -8.085  41.841  26.044  1.00  0.00    -0.334 N 
ATOM     13  H10 UNL     1      -8.562  41.192  26.670  1.00  0.00     0.168 HD
HETATM   14  C13 UNL     1      -8.655  42.815  25.315  1.00  0.00     0.199 A 
HETATM   15  N11 UNL     1      -7.666  43.427  24.638  1.00  0.00    -0.287 N 
ATOM     16  H11 UNL     1      -7.802  44.211  23.999  1.00  0.00     0.188 HD
HETATM   17  N12 UNL     1      -6.496  42.879  24.911  1.00  0.00    -0.232 N 
HETATM   18  C14 UNL     1      -5.340  43.301  24.366  1.00  0.00     0.209 C 
HETATM   19  N13 UNL     1      -4.083  42.801  24.566  1.00  0.00    -0.347 N 
ATOM     20  H13 UNL     1      -3.391  43.001  23.844  1.00  0.00     0.167 HD
HETATM   21  C15 UNL     1      -3.662  42.070  25.618  1.00  0.00     0.095 A 
ENDROOT
BRANCH   7  22
HETATM   22  C5  UNL     1      -4.447  39.029  29.366  1.00  0.00     0.215 C 
BRANCH  22  23
HETATM   23  N6  UNL     1      -3.858  37.715  29.096  1.00  0.00    -0.343 N 
HETATM   24  C6  UNL     1      -3.113  37.105  29.947  1.00  0.00     0.198 C 
HETATM   25  N7  UNL     1      -2.764  37.583  31.209  1.00  0.00    -0.067 NA
HETATM   26  N8  UNL     1      -2.609  35.829  29.545  1.00  0.00    -0.067 NA
ATOM     27  H6  UNL     1      -4.046  37.269  28.198  1.00  0.00     0.164 HD
ENDBRANCH  22  23
BRANCH  22  28
HETATM   28  C7  UNL     1      -5.785  38.673  30.055  1.00  0.00     0.191 C 
BRANCH  28  29
HETATM   29  O1  UNL     1      -6.712  39.628  29.576  1.00  0.00    -0.389 OA
ATOM     30  H1  UNL     1      -7.067  39.251  28.779  1.00  0.00     0.210 HD
ENDBRANCH  28  29
BRANCH  28  31
HETATM   31  C8  UNL     1      -6.295  37.335  29.566  1.00  0.00     0.174 C 
BRANCH  31  32
HETATM   32  O2  UNL     1      -7.187  37.644  28.514  1.00  0.00    -0.391 OA
ATOM     33  H2  UNL     1      -8.054  37.491  28.872  1.00  0.00     0.210 HD
ENDBRANCH  31  32
BRANCH  31  34
HETATM   34  C9  UNL     1      -7.043  36.587  30.650  1.00  0.00     0.198 C 
BRANCH  34  35
HETATM   35  O3  UNL     1      -8.211  36.058  30.054  1.00  0.00    -0.398 OA
ATOM     36  H3  UNL     1      -7.987  35.195  29.727  1.00  0.00     0.209 HD
ENDBRANCH  34  35
ENDBRANCH  31  34
ENDBRANCH  28  31
ENDBRANCH  22  28
ENDBRANCH   7  22
BRANCH  10  37
HETATM   37  O4  UNL     1      -6.326  39.840  26.911  1.00  0.00    -0.240 OA
BRANCH  37  38
HETATM   38  N9  UNL     1      -7.004  38.885  26.228  1.00  0.00    -0.305 N 
ATOM     39  H92 UNL     1      -7.670  38.329  26.766  1.00  0.00     0.184 HD
ATOM     40  H91 UNL     1      -6.896  38.689  25.233  1.00  0.00     0.184 HD
ENDBRANCH  37  38
ENDBRANCH  10  37
BRANCH   1  41
HETATM   41  N1  UNL     1      -1.515  43.035  24.964  1.00  0.00    -0.286 N 
HETATM   42  C1  UNL     1      -1.181  42.703  23.599  1.00  0.00     0.179 C 
BRANCH  41  43
HETATM   43  N2  UNL     1      -1.042  44.240  25.495  1.00  0.00    -0.342 N 
ATOM     44  H22 UNL     1      -1.628  45.068  25.380  1.00  0.00     0.177 HD
ATOM     45  H21 UNL     1      -0.140  44.244  25.971  1.00  0.00     0.177 HD
ENDBRANCH  41  43
ENDBRANCH   1  41
TORSDOF 12
ENDMDL
