MODEL 1
REMARK VINA RESULT: -6.814888861      0.000      0.000
REMARK  9 active torsions:
REMARK  status: ('A' for Active; 'I' for Inactive)
REMARK    1  A    between atoms: C2_3  and  C3_4 
REMARK       I    between atoms: C3_4  and  N2_6 
REMARK       I    between atoms: N2_6  and  C4_8 
REMARK    2  A    between atoms: C5_17  and  N7_18 
REMARK    3  A    between atoms: C6_19  and  O2_20 
REMARK    4  A    between atoms: C9_24  and  C10_25 
REMARK    5  A    between atoms: C10_25  and  N8_26 
REMARK    6  A    between atoms: C10_25  and  C11_30 
REMARK    7  A    between atoms: C13_38  and  C14_39 
REMARK    8  A    between atoms: C14_39  and  N11_40 
REMARK    9  A    between atoms: C14_39  and  C15_44 
ROOT
HETATM    1  N7  UNL     1      -3.607  35.696  30.119  1.00  0.00    -0.123 N 
HETATM    2  C6  UNL     1      -2.500  36.368  30.538  1.00  0.00     0.176 A 
HETATM    3  C7  UNL     1      -2.689  37.708  30.392  1.00  0.00     0.048 A 
HETATM    4  C8  UNL     1      -1.924  38.830  30.653  1.00  0.00     0.047 A 
HETATM    5  C9  UNL     1      -2.379  40.098  30.407  1.00  0.00     0.067 A 
HETATM    6  N9  UNL     1      -3.638  40.195  29.885  1.00  0.00    -0.302 N 
ATOM      7  H9  UNL     1      -4.008  41.125  29.689  1.00  0.00     0.186 HD
HETATM    8  N10 UNL     1      -4.398  39.160  29.621  1.00  0.00    -0.298 N 
ATOM      9  H10 UNL     1      -5.331  39.299  29.232  1.00  0.00     0.187 HD
HETATM   10  C12 UNL     1      -3.948  37.907  29.865  1.00  0.00     0.089 A 
HETATM   11  C13 UNL     1      -4.494  36.631  29.705  1.00  0.00     0.105 A 
ENDROOT
BRANCH   1  12
HETATM   12  C5  UNL     1      -3.699  34.282  30.164  1.00  0.00     0.709 A 
HETATM   13  N1  UNL     1      -4.455  33.560  31.021  1.00  0.00    -0.164 N 
HETATM   14  C1  UNL     1      -5.322  34.117  32.049  1.00  0.00     0.177 C 
HETATM   15  C2  UNL     1      -4.302  32.249  30.811  1.00  0.00     0.206 A 
HETATM   16  N5  UNL     1      -3.431  32.134  29.799  1.00  0.00    -0.266 N 
HETATM   17  N6  UNL     1      -3.059  33.346  29.400  1.00  0.00    -0.129 N 
ATOM     18  H5  UNL     1      -3.104  31.255  29.398  1.00  0.00     0.189 HD
ATOM     19  H6  UNL     1      -2.403  33.545  28.645  1.00  0.00     0.205 HD
BRANCH  15  20
HETATM   20  C3  UNL     1      -4.972  31.179  31.559  1.00  0.00     0.294 C 
HETATM   21  O1  UNL     1      -4.304  30.403  32.260  1.00  0.00    -0.264 OA
HETATM   22  N2  UNL     1      -6.381  31.018  31.491  1.00  0.00    -0.295 N 
HETATM   23  C4  UNL     1      -7.001  29.992  32.211  1.00  0.00     0.188 C 
ATOM     24  H2  UNL     1      -6.940  31.649  30.918  1.00  0.00     0.171 HD
HETATM   25  N3  UNL     1      -8.271  29.838  32.158  1.00  0.00    -0.373 N 
HETATM   26  N4  UNL     1      -6.270  29.093  33.019  1.00  0.00    -0.064 NA
ATOM     27  H32 UNL     1      -8.799  30.488  31.574  1.00  0.00     0.158 HD
ATOM     28  H31 UNL     1      -8.724  29.090  32.683  1.00  0.00     0.158 HD
ENDBRANCH  15  20
ENDBRANCH   1  12
BRANCH   2  29
HETATM   29  O2  UNL     1      -1.354  35.776  31.039  1.00  0.00    -0.345 OA
ATOM     30  H2  UNL     1      -1.259  35.430  31.919  1.00  0.00     0.219 HD
ENDBRANCH   2  29
BRANCH  11  31
HETATM   31  C14 UNL     1      -5.850  36.321  29.170  1.00  0.00     0.324 C 
BRANCH  31  32
HETATM   32  N11 UNL     1      -6.085  37.310  28.093  1.00  0.00    -0.061 N 
ATOM     33 3H11 UNL     1      -6.912  37.114  27.528  1.00  0.00     0.275 HD
ATOM     34 2H11 UNL     1      -6.386  38.223  28.433  1.00  0.00     0.275 HD
ATOM     35 1H11 UNL     1      -5.220  37.337  27.554  1.00  0.00     0.275 HD
ENDBRANCH  31  32
BRANCH  31  36
HETATM   36  C15 UNL     1      -6.909  36.562  30.145  1.00  0.00     0.267 C 
HETATM   37  N12 UNL     1      -8.232  36.060  30.049  1.00  0.00    -0.060 NA
HETATM   38  O5  UNL     1      -6.677  37.280  31.183  1.00  0.00    -0.274 OA
ENDBRANCH  31  36
ENDBRANCH  11  31
BRANCH   5  39
HETATM   39  C10 UNL     1      -1.663  41.351  30.648  1.00  0.00     0.334 C 
BRANCH  39  40
HETATM   40  N8  UNL     1      -2.482  42.244  31.468  1.00  0.00    -0.060 N 
ATOM     41  H83 UNL     1      -3.389  42.433  31.040  1.00  0.00     0.275 HD
ATOM     42  H82 UNL     1      -2.813  41.788  32.318  1.00  0.00     0.275 HD
ATOM     43  H81 UNL     1      -1.968  43.101  31.670  1.00  0.00     0.275 HD
ENDBRANCH  39  40
BRANCH  39  44
HETATM   44  C11 UNL     1      -1.318  42.068  29.414  1.00  0.00     0.210 C 
HETATM   45  O3  UNL     1      -0.135  42.298  29.086  1.00  0.00    -0.646 OA
HETATM   46  O4  UNL     1      -2.314  42.536  28.534  1.00  0.00    -0.646 OA
ENDBRANCH  39  44
ENDBRANCH   5  39
TORSDOF 9
ENDMDL
MODEL 2
REMARK VINA RESULT: -6.672493896      4.033      8.809
REMARK  9 active torsions:
REMARK  status: ('A' for Active; 'I' for Inactive)
REMARK    1  A    between atoms: C2_3  and  C3_4 
REMARK       I    between atoms: C3_4  and  N2_6 
REMARK       I    between atoms: N2_6  and  C4_8 
REMARK    2  A    between atoms: C5_17  and  N7_18 
REMARK    3  A    between atoms: C6_19  and  O2_20 
REMARK    4  A    between atoms: C9_24  and  C10_25 
REMARK    5  A    between atoms: C10_25  and  N8_26 
REMARK    6  A    between atoms: C10_25  and  C11_30 
REMARK    7  A    between atoms: C13_38  and  C14_39 
REMARK    8  A    between atoms: C14_39  and  N11_40 
REMARK    9  A    between atoms: C14_39  and  C15_44 
ROOT
HETATM    1  N7  UNL     1      -4.644  38.403  27.660  1.00  0.00    -0.123 N 
HETATM    2  C6  UNL     1      -3.563  37.685  27.248  1.00  0.00     0.176 A 
HETATM    3  C7  UNL     1      -3.554  36.470  27.862  1.00  0.00     0.048 A 
HETATM    4  C8  UNL     1      -2.720  35.368  27.819  1.00  0.00     0.047 A 
HETATM    5  C9  UNL     1      -2.960  34.241  28.560  1.00  0.00     0.067 A 
HETATM    6  N9  UNL     1      -4.075  34.266  29.350  1.00  0.00    -0.302 N 
ATOM      7  H9  UNL     1      -4.284  33.443  29.915  1.00  0.00     0.186 HD
HETATM    8  N10 UNL     1      -4.893  35.289  29.423  1.00  0.00    -0.298 N 
ATOM      9  H10 UNL     1      -5.709  35.245  30.033  1.00  0.00     0.187 HD
HETATM   10  C12 UNL     1      -4.655  36.402  28.690  1.00  0.00     0.089 A 
HETATM   11  C13 UNL     1      -5.313  37.625  28.541  1.00  0.00     0.105 A 
ENDROOT
BRANCH   1  12
HETATM   12  C5  UNL     1      -4.915  39.708  27.177  1.00  0.00     0.709 A 
HETATM   13  N1  UNL     1      -5.977  40.074  26.422  1.00  0.00    -0.164 N 
HETATM   14  C1  UNL     1      -7.038  39.182  25.981  1.00  0.00     0.177 C 
HETATM   15  C2  UNL     1      -5.928  41.375  26.121  1.00  0.00     0.206 A 
HETATM   16  N5  UNL     1      -4.813  41.847  26.695  1.00  0.00    -0.266 N 
HETATM   17  N6  UNL     1      -4.194  40.859  27.332  1.00  0.00    -0.129 N 
ATOM     18  H5  UNL     1      -4.489  42.814  26.650  1.00  0.00     0.189 HD
ATOM     19  H6  UNL     1      -3.322  40.946  27.854  1.00  0.00     0.205 HD
BRANCH  15  20
HETATM   20  C3  UNL     1      -6.916  42.104  25.319  1.00  0.00     0.294 C 
HETATM   21  O1  UNL     1      -6.710  42.299  24.110  1.00  0.00    -0.264 OA
HETATM   22  N2  UNL     1      -8.111  42.593  25.909  1.00  0.00    -0.295 N 
HETATM   23  C4  UNL     1      -9.042  43.286  25.127  1.00  0.00     0.188 C 
ATOM     24  H2  UNL     1      -8.292  42.440  26.901  1.00  0.00     0.171 HD
HETATM   25  N3  UNL     1     -10.123  43.731  25.649  1.00  0.00    -0.373 N 
HETATM   26  N4  UNL     1      -8.838  43.524  23.750  1.00  0.00    -0.064 NA
ATOM     27  H32 UNL     1     -10.270  43.560  26.644  1.00  0.00     0.158 HD
ATOM     28  H31 UNL     1     -10.802  44.237  25.080  1.00  0.00     0.158 HD
ENDBRANCH  15  20
ENDBRANCH   1  12
BRANCH   2  29
HETATM   29  O2  UNL     1      -2.615  38.125  26.341  1.00  0.00    -0.345 OA
ATOM     30  H2  UNL     1      -2.482  37.763  25.473  1.00  0.00     0.219 HD
ENDBRANCH   2  29
BRANCH  11  31
HETATM   31  C14 UNL     1      -6.570  38.031  29.232  1.00  0.00     0.324 C 
BRANCH  31  32
HETATM   32  N11 UNL     1      -6.204  39.203  30.061  1.00  0.00    -0.061 N 
ATOM     33 3H11 UNL     1      -5.810  38.956  30.969  1.00  0.00     0.275 HD
ATOM     34 2H11 UNL     1      -5.392  39.714  29.713  1.00  0.00     0.275 HD
ATOM     35 1H11 UNL     1      -7.050  39.769  30.122  1.00  0.00     0.275 HD
ENDBRANCH  31  32
BRANCH  31  36
HETATM   36  C15 UNL     1      -7.041  37.028  30.180  1.00  0.00     0.267 C 
HETATM   37  N12 UNL     1      -8.004  36.026  29.893  1.00  0.00    -0.060 NA
HETATM   38  O5  UNL     1      -6.583  37.009  31.379  1.00  0.00    -0.274 OA
ENDBRANCH  31  36
ENDBRANCH  11  31
BRANCH   5  39
HETATM   39  C10 UNL     1      -2.155  33.020  28.589  1.00  0.00     0.334 C 
BRANCH  39  40
HETATM   40  N8  UNL     1      -2.431  32.212  27.401  1.00  0.00    -0.060 N 
ATOM     41  H83 UNL     1      -3.394  31.878  27.380  1.00  0.00     0.275 HD
ATOM     42  H82 UNL     1      -2.451  32.775  26.551  1.00  0.00     0.275 HD
ATOM     43  H81 UNL     1      -1.759  31.448  27.336  1.00  0.00     0.275 HD
ENDBRANCH  39  40
BRANCH  39  44
HETATM   44  C11 UNL     1      -2.413  32.184  29.767  1.00  0.00     0.210 C 
HETATM   45  O3  UNL     1      -1.848  32.385  30.863  1.00  0.00    -0.646 OA
HETATM   46  O4  UNL     1      -3.318  31.105  29.719  1.00  0.00    -0.646 OA
ENDBRANCH  39  44
ENDBRANCH   5  39
TORSDOF 9
ENDMDL
MODEL 3
REMARK VINA RESULT: -6.612387699      1.853      8.604
REMARK  9 active torsions:
REMARK  status: ('A' for Active; 'I' for Inactive)
REMARK    1  A    between atoms: C2_3  and  C3_4 
REMARK       I    between atoms: C3_4  and  N2_6 
REMARK       I    between atoms: N2_6  and  C4_8 
REMARK    2  A    between atoms: C5_17  and  N7_18 
REMARK    3  A    between atoms: C6_19  and  O2_20 
REMARK    4  A    between atoms: C9_24  and  C10_25 
REMARK    5  A    between atoms: C10_25  and  N8_26 
REMARK    6  A    between atoms: C10_25  and  C11_30 
REMARK    7  A    between atoms: C13_38  and  C14_39 
REMARK    8  A    between atoms: C14_39  and  N11_40 
REMARK    9  A    between atoms: C14_39  and  C15_44 
ROOT
HETATM    1  N7  UNL     1      -3.484  36.746  29.329  1.00  0.00    -0.123 N 
HETATM    2  C6  UNL     1      -2.603  35.715  29.456  1.00  0.00     0.176 A 
HETATM    3  C7  UNL     1      -3.258  34.597  29.873  1.00  0.00     0.048 A 
HETATM    4  C8  UNL     1      -2.876  33.297  30.154  1.00  0.00     0.047 A 
HETATM    5  C9  UNL     1      -3.771  32.345  30.562  1.00  0.00     0.067 A 
HETATM    6  N9  UNL     1      -5.071  32.751  30.677  1.00  0.00    -0.302 N 
ATOM      7  H9  UNL     1      -5.765  32.067  30.979  1.00  0.00     0.186 HD
HETATM    8  N10 UNL     1      -5.478  33.971  30.422  1.00  0.00    -0.298 N 
ATOM      9  H10 UNL     1      -6.464  34.212  30.528  1.00  0.00     0.187 HD
HETATM   10  C12 UNL     1      -4.592  34.912  30.019  1.00  0.00     0.089 A 
HETATM   11  C13 UNL     1      -4.699  36.261  29.673  1.00  0.00     0.105 A 
ENDROOT
BRANCH   1  12
HETATM   12  C5  UNL     1      -3.084  38.036  28.900  1.00  0.00     0.709 A 
HETATM   13  N1  UNL     1      -2.442  38.962  29.649  1.00  0.00    -0.164 N 
HETATM   14  C1  UNL     1      -2.039  38.785  31.036  1.00  0.00     0.177 C 
HETATM   15  C2  UNL     1      -2.225  40.080  28.950  1.00  0.00     0.206 A 
HETATM   16  N5  UNL     1      -2.738  39.862  27.732  1.00  0.00    -0.266 N 
HETATM   17  N6  UNL     1      -3.258  38.640  27.686  1.00  0.00    -0.129 N 
ATOM     18  H5  UNL     1      -2.732  40.530  26.961  1.00  0.00     0.189 HD
ATOM     19  H6  UNL     1      -3.713  38.220  26.876  1.00  0.00     0.205 HD
BRANCH  15  20
HETATM   20  C3  UNL     1      -1.554  41.284  29.452  1.00  0.00     0.294 C 
HETATM   21  O1  UNL     1      -0.319  41.387  29.366  1.00  0.00    -0.264 OA
HETATM   22  N2  UNL     1      -2.300  42.340  30.038  1.00  0.00    -0.295 N 
HETATM   23  C4  UNL     1      -1.642  43.481  30.511  1.00  0.00     0.188 C 
ATOM     24  H2  UNL     1      -3.314  42.268  30.115  1.00  0.00     0.171 HD
HETATM   25  N3  UNL     1      -2.305  44.439  31.041  1.00  0.00    -0.373 N 
HETATM   26  N4  UNL     1      -0.240  43.628  30.427  1.00  0.00    -0.064 NA
ATOM     27  H32 UNL     1      -3.318  44.332  31.102  1.00  0.00     0.158 HD
ATOM     28  H31 UNL     1      -1.826  45.271  31.386  1.00  0.00     0.158 HD
ENDBRANCH  15  20
ENDBRANCH   1  12
BRANCH   2  29
HETATM   29  O2  UNL     1      -1.246  35.794  29.199  1.00  0.00    -0.345 OA
ATOM     30  H2  UNL     1      -0.669  35.048  29.083  1.00  0.00     0.219 HD
ENDBRANCH   2  29
BRANCH  11  31
HETATM   31  C14 UNL     1      -5.954  37.065  29.667  1.00  0.00     0.324 C 
BRANCH  31  32
HETATM   32  N11 UNL     1      -5.616  38.330  30.360  1.00  0.00    -0.061 N 
ATOM     33 3H11 UNL     1      -4.914  38.889  29.876  1.00  0.00     0.275 HD
ATOM     34 2H11 UNL     1      -6.362  39.025  30.333  1.00  0.00     0.275 HD
ATOM     35 1H11 UNL     1      -5.342  38.058  31.304  1.00  0.00     0.275 HD
ENDBRANCH  31  32
BRANCH  31  36
HETATM   36  C15 UNL     1      -7.012  36.463  30.471  1.00  0.00     0.267 C 
HETATM   37  N12 UNL     1      -8.201  35.889  29.952  1.00  0.00    -0.060 NA
HETATM   38  O5  UNL     1      -6.909  36.429  31.750  1.00  0.00    -0.274 OA
ENDBRANCH  31  36
ENDBRANCH  11  31
BRANCH   5  39
HETATM   39  C10 UNL     1      -3.484  30.946  30.880  1.00  0.00     0.334 C 
BRANCH  39  40
HETATM   40  N8  UNL     1      -3.335  30.175  29.646  1.00  0.00    -0.060 N 
ATOM     41  H83 UNL     1      -4.110  30.330  29.001  1.00  0.00     0.275 HD
ATOM     42  H82 UNL     1      -2.581  30.532  29.059  1.00  0.00     0.275 HD
ATOM     43  H81 UNL     1      -3.212  29.186  29.866  1.00  0.00     0.275 HD
ENDBRANCH  39  40
BRANCH  39  44
HETATM   44  C11 UNL     1      -4.532  30.307  31.684  1.00  0.00     0.210 C 
HETATM   45  O3  UNL     1      -4.488  30.274  32.931  1.00  0.00    -0.646 OA
HETATM   46  O4  UNL     1      -5.649  29.694  31.081  1.00  0.00    -0.646 OA
ENDBRANCH  39  44
ENDBRANCH   5  39
TORSDOF 9
ENDMDL
MODEL 4
REMARK VINA RESULT: -6.510698087      6.088     10.542
REMARK  9 active torsions:
REMARK  status: ('A' for Active; 'I' for Inactive)
REMARK    1  A    between atoms: C2_3  and  C3_4 
REMARK       I    between atoms: C3_4  and  N2_6 
REMARK       I    between atoms: N2_6  and  C4_8 
REMARK    2  A    between atoms: C5_17  and  N7_18 
REMARK    3  A    between atoms: C6_19  and  O2_20 
REMARK    4  A    between atoms: C9_24  and  C10_25 
REMARK    5  A    between atoms: C10_25  and  N8_26 
REMARK    6  A    between atoms: C10_25  and  C11_30 
REMARK    7  A    between atoms: C13_38  and  C14_39 
REMARK    8  A    between atoms: C14_39  and  N11_40 
REMARK    9  A    between atoms: C14_39  and  C15_44 
ROOT
HETATM    1  N7  UNL     1      -6.647  40.934  26.063  1.00  0.00    -0.123 N 
HETATM    2  C6  UNL     1      -7.316  39.924  26.684  1.00  0.00     0.176 A 
HETATM    3  C7  UNL     1      -6.461  39.219  27.474  1.00  0.00     0.048 A 
HETATM    4  C8  UNL     1      -6.592  38.126  28.312  1.00  0.00     0.047 A 
HETATM    5  C9  UNL     1      -5.533  37.611  29.012  1.00  0.00     0.067 A 
HETATM    6  N9  UNL     1      -4.332  38.240  28.835  1.00  0.00    -0.302 N 
ATOM      7  H9  UNL     1      -3.523  37.882  29.342  1.00  0.00     0.186 HD
HETATM    8  N10 UNL     1      -4.162  39.278  28.052  1.00  0.00    -0.298 N 
ATOM      9  H10 UNL     1      -3.239  39.703  27.963  1.00  0.00     0.187 HD
HETATM   10  C12 UNL     1      -5.209  39.785  27.361  1.00  0.00     0.089 A 
HETATM   11  C13 UNL     1      -5.359  40.853  26.472  1.00  0.00     0.105 A 
ENDROOT
BRANCH   1  12
HETATM   12  C5  UNL     1      -7.289  41.841  25.184  1.00  0.00     0.709 A 
HETATM   13  N1  UNL     1      -7.445  41.682  23.849  1.00  0.00    -0.164 N 
HETATM   14  C1  UNL     1      -6.983  40.535  23.083  1.00  0.00     0.177 C 
HETATM   15  C2  UNL     1      -8.079  42.728  23.311  1.00  0.00     0.206 A 
HETATM   16  N5  UNL     1      -8.332  43.570  24.322  1.00  0.00    -0.266 N 
HETATM   17  N6  UNL     1      -7.864  43.051  25.453  1.00  0.00    -0.129 N 
ATOM     18  H5  UNL     1      -8.809  44.467  24.238  1.00  0.00     0.189 HD
ATOM     19  H6  UNL     1      -7.924  43.487  26.373  1.00  0.00     0.205 HD
BRANCH  15  20
HETATM   20  C3  UNL     1      -8.413  42.886  21.891  1.00  0.00     0.294 C 
HETATM   21  O1  UNL     1      -7.655  43.525  21.144  1.00  0.00    -0.264 OA
HETATM   22  N2  UNL     1      -9.598  42.316  21.356  1.00  0.00    -0.295 N 
HETATM   23  C4  UNL     1      -9.900  42.478  20.000  1.00  0.00     0.188 C 
ATOM     24  H2  UNL     1     -10.229  41.789  21.960  1.00  0.00     0.171 HD
HETATM   25  N3  UNL     1     -10.966  41.967  19.508  1.00  0.00    -0.373 N 
HETATM   26  N4  UNL     1      -9.058  43.198  19.124  1.00  0.00    -0.064 NA
ATOM     27  H32 UNL     1     -11.574  41.447  20.140  1.00  0.00     0.158 HD
ATOM     28  H31 UNL     1     -11.186  42.085  18.519  1.00  0.00     0.158 HD
ENDBRANCH  15  20
ENDBRANCH   1  12
BRANCH   2  29
HETATM   29  O2  UNL     1      -8.665  39.656  26.534  1.00  0.00    -0.345 OA
ATOM     30  H2  UNL     1      -9.324  39.775  27.210  1.00  0.00     0.219 HD
ENDBRANCH   2  29
BRANCH  11  31
HETATM   31  C14 UNL     1      -4.281  41.783  26.031  1.00  0.00     0.324 C 
BRANCH  31  32
HETATM   32  N11 UNL     1      -3.791  41.237  24.744  1.00  0.00    -0.061 N 
ATOM     33 3H11 UNL     1      -4.521  40.810  24.175  1.00  0.00     0.275 HD
ATOM     34 2H11 UNL     1      -3.519  41.955  24.071  1.00  0.00     0.275 HD
ATOM     35 1H11 UNL     1      -3.036  40.597  24.989  1.00  0.00     0.275 HD
ENDBRANCH  31  32
BRANCH  31  36
HETATM   36  C15 UNL     1      -3.122  41.761  26.918  1.00  0.00     0.267 C 
HETATM   37  N12 UNL     1      -1.894  41.111  26.635  1.00  0.00    -0.060 NA
HETATM   38  O5  UNL     1      -3.169  42.358  28.053  1.00  0.00    -0.274 OA
ENDBRANCH  31  36
ENDBRANCH  11  31
BRANCH   5  39
HETATM   39  C10 UNL     1      -5.555  36.469  29.925  1.00  0.00     0.334 C 
BRANCH  39  40
HETATM   40  N8  UNL     1      -5.285  35.235  29.188  1.00  0.00    -0.060 N 
ATOM     41  H83 UNL     1      -6.104  34.909  28.674  1.00  0.00     0.275 HD
ATOM     42  H82 UNL     1      -4.665  35.391  28.394  1.00  0.00     0.275 HD
ATOM     43  H81 UNL     1      -4.923  34.523  29.821  1.00  0.00     0.275 HD
ENDBRANCH  39  40
BRANCH  39  44
HETATM   44  C11 UNL     1      -6.838  36.305  30.618  1.00  0.00     0.210 C 
HETATM   45  O3  UNL     1      -6.951  36.442  31.854  1.00  0.00    -0.646 OA
HETATM   46  O4  UNL     1      -8.016  35.983  29.914  1.00  0.00    -0.646 OA
ENDBRANCH  39  44
ENDBRANCH   5  39
TORSDOF 9
ENDMDL
MODEL 5
REMARK VINA RESULT: -6.428369331      2.697      9.218
REMARK  9 active torsions:
REMARK  status: ('A' for Active; 'I' for Inactive)
REMARK    1  A    between atoms: C2_3  and  C3_4 
REMARK       I    between atoms: C3_4  and  N2_6 
REMARK       I    between atoms: N2_6  and  C4_8 
REMARK    2  A    between atoms: C5_17  and  N7_18 
REMARK    3  A    between atoms: C6_19  and  O2_20 
REMARK    4  A    between atoms: C9_24  and  C10_25 
REMARK    5  A    between atoms: C10_25  and  N8_26 
REMARK    6  A    between atoms: C10_25  and  C11_30 
REMARK    7  A    between atoms: C13_38  and  C14_39 
REMARK    8  A    between atoms: C14_39  and  N11_40 
REMARK    9  A    between atoms: C14_39  and  C15_44 
ROOT
HETATM    1  N7  UNL     1      -2.880  39.439  29.518  1.00  0.00    -0.123 N 
HETATM    2  C6  UNL     1      -2.083  38.416  29.934  1.00  0.00     0.176 A 
HETATM    3  C7  UNL     1      -2.781  37.248  29.914  1.00  0.00     0.048 A 
HETATM    4  C8  UNL     1      -2.481  35.933  30.221  1.00  0.00     0.047 A 
HETATM    5  C9  UNL     1      -3.403  34.926  30.100  1.00  0.00     0.067 A 
HETATM    6  N9  UNL     1      -4.642  35.295  29.657  1.00  0.00    -0.302 N 
ATOM      7  H9  UNL     1      -5.352  34.570  29.556  1.00  0.00     0.186 HD
HETATM    8  N10 UNL     1      -4.971  36.528  29.355  1.00  0.00    -0.298 N 
ATOM      9  H10 UNL     1      -5.914  36.738  29.030  1.00  0.00     0.187 HD
HETATM   10  C12 UNL     1      -4.060  37.522  29.475  1.00  0.00     0.089 A 
HETATM   11  C13 UNL     1      -4.088  38.898  29.238  1.00  0.00     0.105 A 
ENDROOT
BRANCH   1  12
HETATM   12  C5  UNL     1      -2.414  40.775  29.428  1.00  0.00     0.709 A 
HETATM   13  N1  UNL     1      -2.684  41.773  30.300  1.00  0.00    -0.164 N 
HETATM   14  C1  UNL     1      -3.501  41.642  31.497  1.00  0.00     0.177 C 
HETATM   15  C2  UNL     1      -2.106  42.915  29.918  1.00  0.00     0.206 A 
HETATM   16  N5  UNL     1      -1.455  42.639  28.779  1.00  0.00    -0.266 N 
HETATM   17  N6  UNL     1      -1.630  41.358  28.473  1.00  0.00    -0.129 N 
ATOM     18  H5  UNL     1      -0.910  43.307  28.234  1.00  0.00     0.189 HD
ATOM     19  H6  UNL     1      -1.242  40.887  27.656  1.00  0.00     0.205 HD
BRANCH  15  20
HETATM   20  C3  UNL     1      -2.191  44.196  30.628  1.00  0.00     0.294 C 
HETATM   21  O1  UNL     1      -3.281  44.786  30.713  1.00  0.00    -0.264 OA
HETATM   22  N2  UNL     1      -1.039  44.773  31.224  1.00  0.00    -0.295 N 
HETATM   23  C4  UNL     1      -1.140  45.995  31.897  1.00  0.00     0.188 C 
ATOM     24  H2  UNL     1      -0.139  44.299  31.161  1.00  0.00     0.171 HD
HETATM   25  N3  UNL     1      -0.108  46.525  32.439  1.00  0.00    -0.373 N 
HETATM   26  N4  UNL     1      -2.364  46.691  32.012  1.00  0.00    -0.064 NA
ATOM     27  H32 UNL     1       0.777  46.022  32.356  1.00  0.00     0.158 HD
ATOM     28  H31 UNL     1      -0.181  47.415  32.930  1.00  0.00     0.158 HD
ENDBRANCH  15  20
ENDBRANCH   1  12
BRANCH   2  29
HETATM   29  O2  UNL     1      -0.761  38.546  30.319  1.00  0.00    -0.345 OA
ATOM     30  H2  UNL     1      -0.076  37.910  30.143  1.00  0.00     0.219 HD
ENDBRANCH   2  29
BRANCH  11  31
HETATM   31  C14 UNL     1      -5.259  39.676  28.742  1.00  0.00     0.324 C 
BRANCH  31  32
HETATM   32  N11 UNL     1      -6.267  39.606  29.826  1.00  0.00    -0.061 N 
ATOM     33 3H11 UNL     1      -6.616  38.664  30.002  1.00  0.00     0.275 HD
ATOM     34 2H11 UNL     1      -5.881  39.767  30.756  1.00  0.00     0.275 HD
ATOM     35 1H11 UNL     1      -6.996  40.269  29.563  1.00  0.00     0.275 HD
ENDBRANCH  31  32
BRANCH  31  36
HETATM   36  C15 UNL     1      -5.899  39.056  27.588  1.00  0.00     0.267 C 
HETATM   37  N12 UNL     1      -5.364  39.036  26.274  1.00  0.00    -0.060 NA
HETATM   38  O5  UNL     1      -7.037  38.474  27.717  1.00  0.00    -0.274 OA
ENDBRANCH  31  36
ENDBRANCH  11  31
BRANCH   5  39
HETATM   39  C10 UNL     1      -3.197  33.507  30.389  1.00  0.00     0.334 C 
BRANCH  39  40
HETATM   40  N8  UNL     1      -2.989  32.770  29.142  1.00  0.00    -0.060 N 
ATOM     41  H83 UNL     1      -2.768  33.389  28.363  1.00  0.00     0.275 HD
ATOM     42  H82 UNL     1      -2.122  32.233  29.155  1.00  0.00     0.275 HD
ATOM     43  H81 UNL     1      -3.799  32.182  28.946  1.00  0.00     0.275 HD
ENDBRANCH  39  40
BRANCH  39  44
HETATM   44  C11 UNL     1      -4.328  32.889  31.091  1.00  0.00     0.210 C 
HETATM   45  O3  UNL     1      -4.688  31.714  30.868  1.00  0.00    -0.646 OA
HETATM   46  O4  UNL     1      -5.067  33.597  32.059  1.00  0.00    -0.646 OA
ENDBRANCH  39  44
ENDBRANCH   5  39
TORSDOF 9
ENDMDL
