MODEL 1
REMARK VINA RESULT: -9.690507835      0.000      0.000
REMARK  12 active torsions:
REMARK  status: ('A' for Active; 'I' for Inactive)
REMARK    1  A    between atoms: N1_1  and  C1_4 
REMARK    2  A    between atoms: C2_5  and  O1_6 
REMARK    3  A    between atoms: C3_8  and  N2_9 
REMARK    4  A    between atoms: N2_9  and  C4_11 
REMARK    5  A    between atoms: C4_11  and  N3_12 
REMARK       I    between atoms: N3_12  and  C5_14 
REMARK       I    between atoms: C5_14  and  N5_16 
REMARK    6  A    between atoms: N5_16  and  C6_18 
REMARK    7  A    between atoms: C6_18  and  O2_19 
REMARK    8  A    between atoms: C6_18  and  C7_21 
REMARK    9  A    between atoms: C7_21  and  N6_22 
REMARK   10  A    between atoms: C7_21  and  C8_26 
REMARK       I    between atoms: C8_26  and  N7_28 
REMARK   11  A    between atoms: C13_39  and  O4_40 
REMARK   12  A    between atoms: N12_42  and  N13_43 
ROOT
HETATM    1  N2  UNL     1      53.978  21.580  47.244  1.00  0.00    -0.335 N 
ATOM      2  H2  UNL     1      54.873  21.538  46.754  1.00  0.00     0.168 HD
ENDROOT
BRANCH   1   3
HETATM    3  C3  UNL     1      53.334  22.830  47.255  1.00  0.00     0.161 A 
HETATM    4  C2  UNL     1      52.242  23.136  46.456  1.00  0.00     0.157 A 
HETATM    5  C1  UNL     1      51.877  24.439  46.730  1.00  0.00     0.160 A 
HETATM    6  N10 UNL     1      52.746  24.862  47.664  1.00  0.00    -0.215 N 
HETATM    7  N9  UNL     1      53.617  23.900  47.978  1.00  0.00    -0.258 N 
HETATM    8  C12 UNL     1      53.050  26.017  48.444  1.00  0.00     0.159 A 
HETATM    9  C15 UNL     1      54.543  24.383  48.991  1.00  0.00     0.215 A 
HETATM   10  C14 UNL     1      54.133  25.775  49.262  1.00  0.00     0.103 A 
HETATM   11  N12 UNL     1      54.415  26.865  49.993  1.00  0.00    -0.224 N 
HETATM   12  C13 UNL     1      53.517  27.800  49.644  1.00  0.00     0.244 A 
HETATM   13  N11 UNL     1      52.688  27.302  48.710  1.00  0.00    -0.303 N 
ATOM     14  H11 UNL     1      51.916  27.805  48.272  1.00  0.00     0.171 HD
BRANCH   4  15
HETATM   15  O1  UNL     1      51.616  22.284  45.535  1.00  0.00    -0.354 OA
ATOM     16  H1  UNL     1      50.680  22.132  45.465  1.00  0.00     0.218 HD
ENDBRANCH   4  15
BRANCH   5  17
HETATM   17  N1  UNL     1      50.900  25.075  46.177  1.00  0.00    -0.382 N 
ATOM     18  H12 UNL     1      50.898  25.993  45.733  1.00  0.00     0.157 HD
ATOM     19  H11 UNL     1      49.942  24.734  46.099  1.00  0.00     0.157 HD
ENDBRANCH   5  17
BRANCH  11  20
HETATM   20  N13 UNL     1      55.432  27.046  50.946  1.00  0.00    -0.335 N 
ATOM     21 2H13 UNL     1      56.441  26.956  50.827  1.00  0.00     0.177 HD
ATOM     22 1H13 UNL     1      55.278  27.303  51.921  1.00  0.00     0.177 HD
ENDBRANCH  11  20
BRANCH  12  23
HETATM   23  O4  UNL     1      53.427  29.107  50.154  1.00  0.00    -0.331 OA
ATOM     24  H4  UNL     1      54.181  29.642  50.373  1.00  0.00     0.221 HD
ENDBRANCH  12  23
ENDBRANCH   1   3
BRANCH   1  25
HETATM   25  C4  UNL     1      53.576  20.496  47.772  1.00  0.00     0.184 C 
BRANCH  25  26
HETATM   26  N3  UNL     1      54.031  19.264  47.264  1.00  0.00    -0.327 N 
HETATM   27  C5  UNL     1      53.435  18.727  46.272  1.00  0.00     0.191 C 
HETATM   28  N4  UNL     1      52.322  19.375  45.693  1.00  0.00    -0.063 NA
HETATM   29  N5  UNL     1      53.904  17.469  45.761  1.00  0.00    -0.336 N 
ATOM     30  H5  UNL     1      53.793  16.629  46.328  1.00  0.00     0.164 HD
ATOM     31  H3  UNL     1      54.835  18.802  47.689  1.00  0.00     0.169 HD
BRANCH  29  32
HETATM   32  C6  UNL     1      54.521  17.368  44.485  1.00  0.00     0.260 C 
BRANCH  32  33
HETATM   33  O2  UNL     1      54.106  18.233  43.512  1.00  0.00    -0.374 OA
ATOM     34  H2  UNL     1      53.418  17.939  42.926  1.00  0.00     0.212 HD
ENDBRANCH  32  33
BRANCH  32  35
HETATM   35  C7  UNL     1      56.031  17.259  44.608  1.00  0.00     0.323 C 
BRANCH  35  36
HETATM   36  N6  UNL     1      56.397  17.241  46.007  1.00  0.00    -0.062 N 
ATOM     37  H63 UNL     1      56.425  18.177  46.411  1.00  0.00     0.275 HD
ATOM     38  H62 UNL     1      55.659  16.853  46.594  1.00  0.00     0.275 HD
ATOM     39  H61 UNL     1      57.281  16.745  46.118  1.00  0.00     0.275 HD
ENDBRANCH  35  36
BRANCH  35  40
HETATM   40  C8  UNL     1      56.599  16.165  43.823  1.00  0.00     0.264 C 
HETATM   41  O3  UNL     1      56.985  16.491  42.628  1.00  0.00    -0.270 OA
HETATM   42  N7  UNL     1      56.779  14.812  44.197  1.00  0.00    -0.286 N 
HETATM   43  C9  UNL     1      57.324  13.843  43.388  1.00  0.00     0.118 A 
HETATM   44  C11 UNL     1      56.484  14.210  45.330  1.00  0.00     0.190 A 
HETATM   45  C10 UNL     1      57.352  12.651  44.060  1.00  0.00     0.106 A 
HETATM   46  N8  UNL     1      56.831  12.883  45.260  1.00  0.00    -0.360 N 
ATOM     47  H8  UNL     1      56.709  12.193  46.001  1.00  0.00     0.166 HD
ENDBRANCH  35  40
ENDBRANCH  32  35
ENDBRANCH  29  32
ENDBRANCH  25  26
ENDBRANCH   1  25
TORSDOF 12
ENDMDL
MODEL 2
REMARK VINA RESULT: -9.127362806      1.256      1.562
REMARK  12 active torsions:
REMARK  status: ('A' for Active; 'I' for Inactive)
REMARK    1  A    between atoms: N1_1  and  C1_4 
REMARK    2  A    between atoms: C2_5  and  O1_6 
REMARK    3  A    between atoms: C3_8  and  N2_9 
REMARK    4  A    between atoms: N2_9  and  C4_11 
REMARK    5  A    between atoms: C4_11  and  N3_12 
REMARK       I    between atoms: N3_12  and  C5_14 
REMARK       I    between atoms: C5_14  and  N5_16 
REMARK    6  A    between atoms: N5_16  and  C6_18 
REMARK    7  A    between atoms: C6_18  and  O2_19 
REMARK    8  A    between atoms: C6_18  and  C7_21 
REMARK    9  A    between atoms: C7_21  and  N6_22 
REMARK   10  A    between atoms: C7_21  and  C8_26 
REMARK       I    between atoms: C8_26  and  N7_28 
REMARK   11  A    between atoms: C13_39  and  O4_40 
REMARK   12  A    between atoms: N12_42  and  N13_43 
ROOT
HETATM    1  N2  UNL     1      54.150  21.416  47.204  1.00  0.00    -0.335 N 
ATOM      2  H2  UNL     1      54.971  21.374  46.600  1.00  0.00     0.168 HD
ENDROOT
BRANCH   1   3
HETATM    3  C3  UNL     1      53.476  22.650  47.250  1.00  0.00     0.161 A 
HETATM    4  C2  UNL     1      52.358  22.940  46.481  1.00  0.00     0.157 A 
HETATM    5  C1  UNL     1      51.968  24.229  46.784  1.00  0.00     0.160 A 
HETATM    6  N10 UNL     1      52.846  24.660  47.705  1.00  0.00    -0.215 N 
HETATM    7  N9  UNL     1      53.748  23.715  47.984  1.00  0.00    -0.258 N 
HETATM    8  C12 UNL     1      53.140  25.809  48.496  1.00  0.00     0.159 A 
HETATM    9  C15 UNL     1      54.685  24.205  48.983  1.00  0.00     0.215 A 
HETATM   10  C14 UNL     1      54.246  25.582  49.287  1.00  0.00     0.103 A 
HETATM   11  N12 UNL     1      54.518  26.667  50.029  1.00  0.00    -0.224 N 
HETATM   12  C13 UNL     1      53.590  27.585  49.714  1.00  0.00     0.244 A 
HETATM   13  N11 UNL     1      52.752  27.081  48.791  1.00  0.00    -0.303 N 
ATOM     14  H11 UNL     1      51.958  27.571  48.379  1.00  0.00     0.171 HD
BRANCH   4  15
HETATM   15  O1  UNL     1      51.732  22.087  45.561  1.00  0.00    -0.354 OA
ATOM     16  H1  UNL     1      52.145  21.685  44.805  1.00  0.00     0.218 HD
ENDBRANCH   4  15
BRANCH   5  17
HETATM   17  N1  UNL     1      50.963  24.849  46.263  1.00  0.00    -0.382 N 
ATOM     18  H12 UNL     1      50.063  25.085  46.683  1.00  0.00     0.157 HD
ATOM     19  H11 UNL     1      50.920  25.211  45.310  1.00  0.00     0.157 HD
ENDBRANCH   5  17
BRANCH  11  20
HETATM   20  N13 UNL     1      55.552  26.859  50.961  1.00  0.00    -0.335 N 
ATOM     21 2H13 UNL     1      55.812  27.710  51.460  1.00  0.00     0.177 HD
ATOM     22 1H13 UNL     1      56.201  26.134  51.269  1.00  0.00     0.177 HD
ENDBRANCH  11  20
BRANCH  12  23
HETATM   23  O4  UNL     1      53.479  28.881  50.247  1.00  0.00    -0.331 OA
ATOM     24  H4  UNL     1      54.200  29.498  50.289  1.00  0.00     0.221 HD
ENDBRANCH  12  23
ENDBRANCH   1   3
BRANCH   1  25
HETATM   25  C4  UNL     1      53.856  20.348  47.828  1.00  0.00     0.184 C 
BRANCH  25  26
HETATM   26  N3  UNL     1      54.195  19.101  47.270  1.00  0.00    -0.327 N 
HETATM   27  C5  UNL     1      53.456  18.588  46.364  1.00  0.00     0.191 C 
HETATM   28  N4  UNL     1      52.303  19.279  45.931  1.00  0.00    -0.063 NA
HETATM   29  N5  UNL     1      53.808  17.315  45.801  1.00  0.00    -0.336 N 
ATOM     30  H5  UNL     1      53.739  16.478  46.380  1.00  0.00     0.164 HD
ATOM     31  H3  UNL     1      55.029  18.608  47.589  1.00  0.00     0.169 HD
BRANCH  29  32
HETATM   32  C6  UNL     1      54.252  17.193  44.456  1.00  0.00     0.260 C 
BRANCH  32  33
HETATM   33  O2  UNL     1      54.308  18.332  43.703  1.00  0.00    -0.374 OA
ATOM     34  H2  UNL     1      55.100  18.489  43.202  1.00  0.00     0.212 HD
ENDBRANCH  32  33
BRANCH  32  35
HETATM   35  C7  UNL     1      55.498  16.330  44.361  1.00  0.00     0.323 C 
BRANCH  35  36
HETATM   36  N6  UNL     1      56.017  16.387  43.013  1.00  0.00    -0.062 N 
ATOM     37  H63 UNL     1      55.379  15.971  42.335  1.00  0.00     0.275 HD
ATOM     38  H62 UNL     1      56.025  17.336  42.642  1.00  0.00     0.275 HD
ATOM     39  H61 UNL     1      56.941  15.955  42.989  1.00  0.00     0.275 HD
ENDBRANCH  35  36
BRANCH  35  40
HETATM   40  C8  UNL     1      56.484  16.620  45.399  1.00  0.00     0.264 C 
HETATM   41  O3  UNL     1      56.643  17.879  45.669  1.00  0.00    -0.270 OA
HETATM   42  N7  UNL     1      57.279  15.711  46.138  1.00  0.00    -0.286 N 
HETATM   43  C9  UNL     1      58.191  16.074  47.102  1.00  0.00     0.118 A 
HETATM   44  C11 UNL     1      57.326  14.397  46.076  1.00  0.00     0.190 A 
HETATM   45  C10 UNL     1      58.782  14.951  47.616  1.00  0.00     0.106 A 
HETATM   46  N8  UNL     1      58.244  13.918  46.978  1.00  0.00    -0.360 N 
ATOM     47  H8  UNL     1      58.475  12.936  47.132  1.00  0.00     0.166 HD
ENDBRANCH  35  40
ENDBRANCH  32  35
ENDBRANCH  29  32
ENDBRANCH  25  26
ENDBRANCH   1  25
TORSDOF 12
ENDMDL
MODEL 3
REMARK VINA RESULT: -8.838196689      1.276      1.405
REMARK  12 active torsions:
REMARK  status: ('A' for Active; 'I' for Inactive)
REMARK    1  A    between atoms: N1_1  and  C1_4 
REMARK    2  A    between atoms: C2_5  and  O1_6 
REMARK    3  A    between atoms: C3_8  and  N2_9 
REMARK    4  A    between atoms: N2_9  and  C4_11 
REMARK    5  A    between atoms: C4_11  and  N3_12 
REMARK       I    between atoms: N3_12  and  C5_14 
REMARK       I    between atoms: C5_14  and  N5_16 
REMARK    6  A    between atoms: N5_16  and  C6_18 
REMARK    7  A    between atoms: C6_18  and  O2_19 
REMARK    8  A    between atoms: C6_18  and  C7_21 
REMARK    9  A    between atoms: C7_21  and  N6_22 
REMARK   10  A    between atoms: C7_21  and  C8_26 
REMARK       I    between atoms: C8_26  and  N7_28 
REMARK   11  A    between atoms: C13_39  and  O4_40 
REMARK   12  A    between atoms: N12_42  and  N13_43 
ROOT
HETATM    1  N2  UNL     1      53.448  21.374  47.680  1.00  0.00    -0.335 N 
ATOM      2  H2  UNL     1      52.956  20.801  48.366  1.00  0.00     0.168 HD
ENDROOT
BRANCH   1   3
HETATM    3  C3  UNL     1      52.983  22.692  47.524  1.00  0.00     0.161 A 
HETATM    4  C2  UNL     1      52.078  23.074  46.544  1.00  0.00     0.157 A 
HETATM    5  C1  UNL     1      51.853  24.428  46.690  1.00  0.00     0.160 A 
HETATM    6  N10 UNL     1      52.614  24.805  47.731  1.00  0.00    -0.215 N 
HETATM    7  N9  UNL     1      53.289  23.767  48.230  1.00  0.00    -0.258 N 
HETATM    8  C12 UNL     1      52.945  25.965  48.492  1.00  0.00     0.159 A 
HETATM    9  C15 UNL     1      54.104  24.201  49.355  1.00  0.00     0.215 A 
HETATM   10  C14 UNL     1      53.845  25.648  49.488  1.00  0.00     0.103 A 
HETATM   11  N12 UNL     1      54.153  26.744  50.200  1.00  0.00    -0.224 N 
HETATM   12  C13 UNL     1      53.454  27.756  49.663  1.00  0.00     0.244 A 
HETATM   13  N11 UNL     1      52.721  27.301  48.632  1.00  0.00    -0.303 N 
ATOM     14  H11 UNL     1      52.100  27.863  48.050  1.00  0.00     0.171 HD
BRANCH   4  15
HETATM   15  O1  UNL     1      51.494  22.244  45.576  1.00  0.00    -0.354 OA
ATOM     16  H1  UNL     1      51.864  21.435  45.240  1.00  0.00     0.218 HD
ENDBRANCH   4  15
BRANCH   5  17
HETATM   17  N1  UNL     1      51.067  25.139  45.955  1.00  0.00    -0.382 N 
ATOM     18  H12 UNL     1      50.460  24.847  45.188  1.00  0.00     0.157 HD
ATOM     19  H11 UNL     1      50.930  26.147  46.038  1.00  0.00     0.157 HD
ENDBRANCH   5  17
BRANCH  11  20
HETATM   20  N13 UNL     1      55.025  26.864  51.296  1.00  0.00    -0.335 N 
ATOM     21 2H13 UNL     1      54.850  27.285  52.208  1.00  0.00     0.177 HD
ATOM     22 1H13 UNL     1      55.988  26.527  51.314  1.00  0.00     0.177 HD
ENDBRANCH  11  20
BRANCH  12  23
HETATM   23  O4  UNL     1      53.461  29.097  50.086  1.00  0.00    -0.331 OA
ATOM     24  H4  UNL     1      54.065  29.444  50.732  1.00  0.00     0.221 HD
ENDBRANCH  12  23
ENDBRANCH   1   3
BRANCH   1  25
HETATM   25  C4  UNL     1      54.409  20.813  47.064  1.00  0.00     0.184 C 
BRANCH  25  26
HETATM   26  N3  UNL     1      54.457  19.409  46.982  1.00  0.00    -0.327 N 
HETATM   27  C5  UNL     1      53.787  18.802  46.080  1.00  0.00     0.191 C 
HETATM   28  N4  UNL     1      53.004  19.548  45.173  1.00  0.00    -0.063 NA
HETATM   29  N5  UNL     1      53.840  17.369  46.005  1.00  0.00    -0.336 N 
ATOM     30  H5  UNL     1      53.410  16.815  46.745  1.00  0.00     0.164 HD
ATOM     31  H3  UNL     1      55.024  18.877  47.642  1.00  0.00     0.169 HD
BRANCH  29  32
HETATM   32  C6  UNL     1      54.478  16.704  44.922  1.00  0.00     0.260 C 
BRANCH  32  33
HETATM   33  O2  UNL     1      55.174  17.470  44.031  1.00  0.00    -0.374 OA
ATOM     34  H2  UNL     1      56.121  17.385  44.022  1.00  0.00     0.212 HD
ENDBRANCH  32  33
BRANCH  32  35
HETATM   35  C7  UNL     1      55.231  15.474  45.397  1.00  0.00     0.323 C 
BRANCH  35  36
HETATM   36  N6  UNL     1      54.284  14.453  45.786  1.00  0.00    -0.062 N 
ATOM     37  H63 UNL     1      53.441  14.470  45.213  1.00  0.00     0.275 HD
ATOM     38  H62 UNL     1      54.605  13.516  45.544  1.00  0.00     0.275 HD
ATOM     39  H61 UNL     1      54.077  14.546  46.781  1.00  0.00     0.275 HD
ENDBRANCH  35  36
BRANCH  35  40
HETATM   40  C8  UNL     1      56.252  15.020  44.456  1.00  0.00     0.264 C 
HETATM   41  O3  UNL     1      55.797  14.587  43.320  1.00  0.00    -0.270 OA
HETATM   42  N7  UNL     1      57.657  14.992  44.624  1.00  0.00    -0.286 N 
HETATM   43  C9  UNL     1      58.550  14.543  43.679  1.00  0.00     0.118 A 
HETATM   44  C11 UNL     1      58.384  15.365  45.656  1.00  0.00     0.190 A 
HETATM   45  C10 UNL     1      59.824  14.656  44.166  1.00  0.00     0.106 A 
HETATM   46  N8  UNL     1      59.717  15.164  45.388  1.00  0.00    -0.360 N 
ATOM     47  H8  UNL     1      60.491  15.370  46.019  1.00  0.00     0.166 HD
ENDBRANCH  35  40
ENDBRANCH  32  35
ENDBRANCH  29  32
ENDBRANCH  25  26
ENDBRANCH   1  25
TORSDOF 12
ENDMDL
MODEL 4
REMARK VINA RESULT: -8.816881424      2.553      4.444
REMARK  12 active torsions:
REMARK  status: ('A' for Active; 'I' for Inactive)
REMARK    1  A    between atoms: N1_1  and  C1_4 
REMARK    2  A    between atoms: C2_5  and  O1_6 
REMARK    3  A    between atoms: C3_8  and  N2_9 
REMARK    4  A    between atoms: N2_9  and  C4_11 
REMARK    5  A    between atoms: C4_11  and  N3_12 
REMARK       I    between atoms: N3_12  and  C5_14 
REMARK       I    between atoms: C5_14  and  N5_16 
REMARK    6  A    between atoms: N5_16  and  C6_18 
REMARK    7  A    between atoms: C6_18  and  O2_19 
REMARK    8  A    between atoms: C6_18  and  C7_21 
REMARK    9  A    between atoms: C7_21  and  N6_22 
REMARK   10  A    between atoms: C7_21  and  C8_26 
REMARK       I    between atoms: C8_26  and  N7_28 
REMARK   11  A    between atoms: C13_39  and  O4_40 
REMARK   12  A    between atoms: N12_42  and  N13_43 
ROOT
HETATM    1  N2  UNL     1      53.490  23.078  46.859  1.00  0.00    -0.335 N 
ATOM      2  H2  UNL     1      53.874  23.065  45.913  1.00  0.00     0.168 HD
ENDROOT
BRANCH   1   3
HETATM    3  C3  UNL     1      52.466  24.012  47.099  1.00  0.00     0.161 A 
HETATM    4  C2  UNL     1      52.653  25.188  47.811  1.00  0.00     0.157 A 
HETATM    5  C1  UNL     1      51.442  25.850  47.849  1.00  0.00     0.160 A 
HETATM    6  N10 UNL     1      50.587  25.064  47.173  1.00  0.00    -0.215 N 
HETATM    7  N9  UNL     1      51.199  23.966  46.724  1.00  0.00    -0.258 N 
HETATM    8  C12 UNL     1      49.220  25.015  46.769  1.00  0.00     0.159 A 
HETATM    9  C15 UNL     1      50.252  23.134  45.996  1.00  0.00     0.215 A 
HETATM   10  C14 UNL     1      48.970  23.863  46.054  1.00  0.00     0.103 A 
HETATM   11  N12 UNL     1      47.681  23.822  45.677  1.00  0.00    -0.224 N 
HETATM   12  C13 UNL     1      47.111  24.942  46.149  1.00  0.00     0.244 A 
HETATM   13  N11 UNL     1      48.027  25.670  46.810  1.00  0.00    -0.303 N 
ATOM     14  H11 UNL     1      47.857  26.566  47.267  1.00  0.00     0.171 HD
BRANCH   4  15
HETATM   15  O1  UNL     1      53.850  25.631  48.391  1.00  0.00    -0.354 OA
ATOM     16  H1  UNL     1      53.925  26.224  49.130  1.00  0.00     0.218 HD
ENDBRANCH   4  15
BRANCH   5  17
HETATM   17  N1  UNL     1      51.227  26.983  48.427  1.00  0.00    -0.382 N 
ATOM     18  H12 UNL     1      51.254  27.216  49.419  1.00  0.00     0.157 HD
ATOM     19  H11 UNL     1      50.987  27.853  47.951  1.00  0.00     0.157 HD
ENDBRANCH   5  17
BRANCH  11  20
HETATM   20  N13 UNL     1      47.013  22.831  44.937  1.00  0.00    -0.335 N 
ATOM     21 2H13 UNL     1      46.046  22.820  44.614  1.00  0.00     0.177 HD
ATOM     22 1H13 UNL     1      47.435  21.960  44.616  1.00  0.00     0.177 HD
ENDBRANCH  11  20
BRANCH  12  23
HETATM   23  O4  UNL     1      45.767  25.326  45.995  1.00  0.00    -0.331 OA
ATOM     24  H4  UNL     1      45.494  26.163  45.639  1.00  0.00     0.221 HD
ENDBRANCH  12  23
ENDBRANCH   1   3
BRANCH   1  25
HETATM   25  C4  UNL     1      53.993  22.249  47.681  1.00  0.00     0.184 C 
BRANCH  25  26
HETATM   26  N3  UNL     1      54.301  20.945  47.253  1.00  0.00    -0.327 N 
HETATM   27  C5  UNL     1      53.364  20.095  47.078  1.00  0.00     0.191 C 
HETATM   28  N4  UNL     1      52.026  20.475  47.316  1.00  0.00    -0.063 NA
HETATM   29  N5  UNL     1      53.688  18.766  46.642  1.00  0.00    -0.336 N 
ATOM     30  H5  UNL     1      54.183  18.141  47.277  1.00  0.00     0.164 HD
ATOM     31  H3  UNL     1      55.271  20.678  47.083  1.00  0.00     0.169 HD
BRANCH  29  32
HETATM   32  C6  UNL     1      53.335  18.301  45.346  1.00  0.00     0.260 C 
BRANCH  32  33
HETATM   33  O2  UNL     1      52.848  19.217  44.456  1.00  0.00    -0.374 OA
ATOM     34  H2  UNL     1      52.049  19.675  44.689  1.00  0.00     0.212 HD
ENDBRANCH  32  33
BRANCH  32  35
HETATM   35  C7  UNL     1      54.410  17.396  44.772  1.00  0.00     0.323 C 
BRANCH  35  36
HETATM   36  N6  UNL     1      54.500  17.605  43.344  1.00  0.00    -0.062 N 
ATOM     37  H63 UNL     1      55.089  18.403  43.107  1.00  0.00     0.275 HD
ATOM     38  H62 UNL     1      55.046  16.880  42.881  1.00  0.00     0.275 HD
ATOM     39  H61 UNL     1      53.561  17.690  42.955  1.00  0.00     0.275 HD
ENDBRANCH  35  36
BRANCH  35  40
HETATM   40  C8  UNL     1      55.686  17.492  45.476  1.00  0.00     0.264 C 
HETATM   41  O3  UNL     1      56.207  18.681  45.506  1.00  0.00    -0.270 OA
HETATM   42  N7  UNL     1      56.418  16.466  46.121  1.00  0.00    -0.286 N 
HETATM   43  C9  UNL     1      57.621  16.647  46.762  1.00  0.00     0.118 A 
HETATM   44  C11 UNL     1      56.133  15.187  46.247  1.00  0.00     0.190 A 
HETATM   45  C10 UNL     1      58.049  15.453  47.274  1.00  0.00     0.106 A 
HETATM   46  N8  UNL     1      57.126  14.553  46.953  1.00  0.00    -0.360 N 
ATOM     47  H8  UNL     1      57.151  13.561  47.190  1.00  0.00     0.166 HD
ENDBRANCH  35  40
ENDBRANCH  32  35
ENDBRANCH  29  32
ENDBRANCH  25  26
ENDBRANCH   1  25
TORSDOF 12
ENDMDL
MODEL 5
REMARK VINA RESULT: -8.738146630      1.323      1.398
REMARK  12 active torsions:
REMARK  status: ('A' for Active; 'I' for Inactive)
REMARK    1  A    between atoms: N1_1  and  C1_4 
REMARK    2  A    between atoms: C2_5  and  O1_6 
REMARK    3  A    between atoms: C3_8  and  N2_9 
REMARK    4  A    between atoms: N2_9  and  C4_11 
REMARK    5  A    between atoms: C4_11  and  N3_12 
REMARK       I    between atoms: N3_12  and  C5_14 
REMARK       I    between atoms: C5_14  and  N5_16 
REMARK    6  A    between atoms: N5_16  and  C6_18 
REMARK    7  A    between atoms: C6_18  and  O2_19 
REMARK    8  A    between atoms: C6_18  and  C7_21 
REMARK    9  A    between atoms: C7_21  and  N6_22 
REMARK   10  A    between atoms: C7_21  and  C8_26 
REMARK       I    between atoms: C8_26  and  N7_28 
REMARK   11  A    between atoms: C13_39  and  O4_40 
REMARK   12  A    between atoms: N12_42  and  N13_43 
ROOT
HETATM    1  N2  UNL     1      52.626  21.965  46.408  1.00  0.00    -0.335 N 
ATOM      2  H2  UNL     1      53.521  21.846  45.933  1.00  0.00     0.168 HD
ENDROOT
BRANCH   1   3
HETATM    3  C3  UNL     1      52.200  23.291  46.607  1.00  0.00     0.161 A 
HETATM    4  C2  UNL     1      51.130  23.860  45.932  1.00  0.00     0.157 A 
HETATM    5  C1  UNL     1      51.003  25.162  46.375  1.00  0.00     0.160 A 
HETATM    6  N10 UNL     1      51.981  25.326  47.282  1.00  0.00    -0.215 N 
HETATM    7  N9  UNL     1      52.697  24.207  47.420  1.00  0.00    -0.258 N 
HETATM    8  C12 UNL     1      52.517  26.314  48.159  1.00  0.00     0.159 A 
HETATM    9  C15 UNL     1      53.747  24.410  48.406  1.00  0.00     0.215 A 
HETATM   10  C14 UNL     1      53.589  25.806  48.861  1.00  0.00     0.103 A 
HETATM   11  N12 UNL     1      54.089  26.741  49.685  1.00  0.00    -0.224 N 
HETATM   12  C13 UNL     1      53.341  27.841  49.510  1.00  0.00     0.244 A 
HETATM   13  N11 UNL     1      52.389  27.598  48.592  1.00  0.00    -0.303 N 
ATOM     14  H11 UNL     1      51.687  28.266  48.273  1.00  0.00     0.171 HD
BRANCH   4  15
HETATM   15  O1  UNL     1      50.319  23.237  44.973  1.00  0.00    -0.354 OA
ATOM     16  H1  UNL     1      50.619  22.650  44.287  1.00  0.00     0.218 HD
ENDBRANCH   4  15
BRANCH   5  17
HETATM   17  N1  UNL     1      50.115  26.006  45.972  1.00  0.00    -0.382 N 
ATOM     18  H12 UNL     1      50.201  26.753  45.284  1.00  0.00     0.157 HD
ATOM     19  H11 UNL     1      49.149  26.050  46.299  1.00  0.00     0.157 HD
ENDBRANCH   5  17
BRANCH  11  20
HETATM   20  N13 UNL     1      55.176  26.642  50.571  1.00  0.00    -0.335 N 
ATOM     21 2H13 UNL     1      55.205  26.848  51.569  1.00  0.00     0.177 HD
ATOM     22 1H13 UNL     1      56.113  26.336  50.311  1.00  0.00     0.177 HD
ENDBRANCH  11  20
BRANCH  12  23
HETATM   23  O4  UNL     1      53.499  29.075  50.167  1.00  0.00    -0.331 OA
ATOM     24  H4  UNL     1      52.807  29.507  50.653  1.00  0.00     0.221 HD
ENDBRANCH  12  23
ENDBRANCH   1   3
BRANCH   1  25
HETATM   25  C4  UNL     1      52.026  20.898  46.751  1.00  0.00     0.184 C 
BRANCH  25  26
HETATM   26  N3  UNL     1      52.767  19.719  46.954  1.00  0.00    -0.327 N 
HETATM   27  C5  UNL     1      53.081  18.986  45.957  1.00  0.00     0.191 C 
HETATM   28  N4  UNL     1      52.681  19.368  44.658  1.00  0.00    -0.063 NA
HETATM   29  N5  UNL     1      53.835  17.784  46.173  1.00  0.00    -0.336 N 
ATOM     30  H5  UNL     1      53.395  17.000  46.654  1.00  0.00     0.164 HD
ATOM     31  H3  UNL     1      53.051  19.449  47.896  1.00  0.00     0.169 HD
BRANCH  29  32
HETATM   32  C6  UNL     1      55.181  17.660  45.732  1.00  0.00     0.260 C 
BRANCH  32  33
HETATM   33  O2  UNL     1      56.139  17.434  46.679  1.00  0.00    -0.374 OA
ATOM     34  H2  UNL     1      56.929  16.983  46.407  1.00  0.00     0.212 HD
ENDBRANCH  32  33
BRANCH  32  35
HETATM   35  C7  UNL     1      55.284  16.747  44.522  1.00  0.00     0.323 C 
BRANCH  35  36
HETATM   36  N6  UNL     1      54.758  17.430  43.362  1.00  0.00    -0.062 N 
ATOM     37  H63 UNL     1      54.410  18.362  43.585  1.00  0.00     0.275 HD
ATOM     38  H62 UNL     1      55.491  17.702  42.708  1.00  0.00     0.275 HD
ATOM     39  H61 UNL     1      54.045  16.847  42.922  1.00  0.00     0.275 HD
ENDBRANCH  35  36
BRANCH  35  40
HETATM   40  C8  UNL     1      56.618  16.181  44.335  1.00  0.00     0.264 C 
HETATM   41  O3  UNL     1      57.587  17.044  44.358  1.00  0.00    -0.270 OA
HETATM   42  N7  UNL     1      56.981  14.828  44.133  1.00  0.00    -0.286 N 
HETATM   43  C9  UNL     1      58.271  14.382  43.961  1.00  0.00     0.118 A 
HETATM   44  C11 UNL     1      56.219  13.758  44.066  1.00  0.00     0.190 A 
HETATM   45  C10 UNL     1      58.264  13.024  43.793  1.00  0.00     0.106 A 
HETATM   46  N8  UNL     1      56.994  12.642  43.857  1.00  0.00    -0.360 N 
ATOM     47  H8  UNL     1      56.652  11.685  43.768  1.00  0.00     0.166 HD
ENDBRANCH  35  40
ENDBRANCH  32  35
ENDBRANCH  29  32
ENDBRANCH  25  26
ENDBRANCH   1  25
TORSDOF 12
ENDMDL
