MODEL 1
REMARK VINA RESULT: -7.939115442      0.000      0.000
REMARK  11 active torsions:
REMARK  status: ('A' for Active; 'I' for Inactive)
REMARK    1  A    between atoms: C4_6  and  N2_7 
REMARK    2  A    between atoms: N2_7  and  N3_8 
REMARK    3  A    between atoms: N2_7  and  C5_11 
REMARK    4  A    between atoms: C8_24  and  C9_25 
REMARK    5  A    between atoms: C9_25  and  N10_26 
REMARK    6  A    between atoms: N10_26  and  N11_27 
REMARK    7  A    between atoms: N10_26  and  C10_30 
REMARK    8  A    between atoms: C10_30  and  O1_31 
REMARK    9  A    between atoms: C10_30  and  C11_33 
REMARK   10  A    between atoms: C13_39  and  C14_40 
REMARK   11  A    between atoms: C14_40  and  N14_41 
ROOT
HETATM    1  C1  UNL     1      51.226  24.429  48.108  1.00  0.00     0.065 C 
HETATM    2  C2  UNL     1      52.572  24.023  47.749  1.00  0.00     0.136 C 
HETATM    3  C3  UNL     1      52.828  24.283  46.262  1.00  0.00     0.065 C 
HETATM    4  N1  UNL     1      53.675  24.728  48.442  1.00  0.00    -0.196 N 
ATOM      5  H1  UNL     1      54.250  25.344  47.867  1.00  0.00     0.180 HD
HETATM    6  C4  UNL     1      53.992  24.652  49.691  1.00  0.00     0.712 C 
HETATM    7  N8  UNL     1      53.344  23.841  50.668  1.00  0.00    -0.217 N 
ATOM      8  H8  UNL     1      53.337  24.245  51.605  1.00  0.00     0.178 HD
HETATM    9  C6  UNL     1      52.689  22.542  50.578  1.00  0.00     0.216 C 
HETATM   10  C7  UNL     1      52.877  22.006  49.208  1.00  0.00     0.121 A 
HETATM   11  N9  UNL     1      53.204  20.748  48.978  1.00  0.00    -0.328 N 
ATOM     12  H9  UNL     1      53.307  20.041  49.706  1.00  0.00     0.169 HD
HETATM   13  C8  UNL     1      53.383  20.518  47.677  1.00  0.00     0.134 A 
HETATM   14  N15 UNL     1      53.133  21.733  47.106  1.00  0.00    -0.279 N 
ATOM     15  H15 UNL     1      53.179  21.925  46.106  1.00  0.00     0.189 HD
HETATM   16  N16 UNL     1      52.833  22.600  48.003  1.00  0.00    -0.247 N 
ENDROOT
BRANCH  13  17
HETATM   17  C9  UNL     1      53.792  19.386  46.874  1.00  0.00     0.135 C 
BRANCH  17  18
HETATM   18  N10 UNL     1      54.629  18.401  47.398  1.00  0.00    -0.175 NA
BRANCH  18  19
HETATM   19  N11 UNL     1      55.161  18.707  48.684  1.00  0.00    -0.357 NA
ATOM     20 2H11 UNL     1      55.080  19.718  48.795  1.00  0.00     0.171 HD
ATOM     21 1H11 UNL     1      54.765  18.154  49.444  1.00  0.00     0.171 HD
ENDBRANCH  18  19
BRANCH  18  22
HETATM   22  C10 UNL     1      55.761  18.044  46.562  1.00  0.00     0.268 C 
BRANCH  22  23
HETATM   23  O1  UNL     1      55.556  18.694  45.317  1.00  0.00    -0.373 OA
ATOM     24  H1  UNL     1      55.003  18.117  44.803  1.00  0.00     0.212 HD
ENDBRANCH  22  23
BRANCH  22  25
HETATM   25  C11 UNL     1      55.480  16.594  46.193  1.00  0.00     0.080 A 
HETATM   26  N12 UNL     1      54.816  16.223  45.062  1.00  0.00    -0.351 N 
HETATM   27  C12 UNL     1      54.917  14.863  44.992  1.00  0.00     0.181 A 
ATOM     28  H12 UNL     1      54.341  16.838  44.401  1.00  0.00     0.166 HD
HETATM   29  N13 UNL     1      55.622  14.396  46.053  1.00  0.00    -0.353 N 
HETATM   30  C13 UNL     1      55.953  15.505  46.798  1.00  0.00     0.062 A 
ATOM     31  H13 UNL     1      55.857  13.424  46.256  1.00  0.00     0.166 HD
BRANCH  30  32
HETATM   32  C14 UNL     1      56.524  15.548  48.175  1.00  0.00     0.288 C 
BRANCH  32  33
HETATM   33  N14 UNL     1      55.531  15.661  49.189  1.00  0.00    -0.074 N 
ATOM     34 3H14 UNL     1      54.794  14.969  49.055  1.00  0.00     0.274 HD
ATOM     35 2H14 UNL     1      55.893  15.347  50.089  1.00  0.00     0.274 HD
ATOM     36 1H14 UNL     1      55.138  16.600  49.262  1.00  0.00     0.274 HD
ENDBRANCH  32  33
ENDBRANCH  30  32
ENDBRANCH  22  25
ENDBRANCH  18  22
ENDBRANCH  17  18
ENDBRANCH  13  17
BRANCH   6  37
HETATM   37  N2  UNL     1      55.108  25.432  50.149  1.00  0.00     0.085 N 
BRANCH  37  38
HETATM   38  N3  UNL     1      55.020  26.821  50.176  1.00  0.00    -0.309 N 
ATOM     39  H32 UNL     1      54.207  27.329  49.825  1.00  0.00     0.178 HD
ATOM     40  H31 UNL     1      55.784  27.372  50.566  1.00  0.00     0.178 HD
ENDBRANCH  37  38
BRANCH  37  41
HETATM   41  C5  UNL     1      56.289  24.721  50.555  1.00  0.00     0.743 A 
HETATM   42  N4  UNL     1      56.417  23.430  50.758  1.00  0.00    -0.114 N 
HETATM   43  N5  UNL     1      57.671  23.139  51.145  1.00  0.00     0.006 NA
ATOM     44  H4  UNL     1      55.670  22.745  50.639  1.00  0.00     0.203 HD
HETATM   45  N6  UNL     1      58.305  24.309  51.174  1.00  0.00     0.006 NA
HETATM   46  N7  UNL     1      57.463  25.299  50.815  1.00  0.00    -0.114 N 
ATOM     47  H7  UNL     1      57.680  26.294  50.754  1.00  0.00     0.203 HD
ENDBRANCH  37  41
ENDBRANCH   6  37
TORSDOF 11
ENDMDL
MODEL 2
REMARK VINA RESULT: -7.848751148      1.378      1.818
REMARK  11 active torsions:
REMARK  status: ('A' for Active; 'I' for Inactive)
REMARK    1  A    between atoms: C4_6  and  N2_7 
REMARK    2  A    between atoms: N2_7  and  N3_8 
REMARK    3  A    between atoms: N2_7  and  C5_11 
REMARK    4  A    between atoms: C8_24  and  C9_25 
REMARK    5  A    between atoms: C9_25  and  N10_26 
REMARK    6  A    between atoms: N10_26  and  N11_27 
REMARK    7  A    between atoms: N10_26  and  C10_30 
REMARK    8  A    between atoms: C10_30  and  O1_31 
REMARK    9  A    between atoms: C10_30  and  C11_33 
REMARK   10  A    between atoms: C13_39  and  C14_40 
REMARK   11  A    between atoms: C14_40  and  N14_41 
ROOT
HETATM    1  C1  UNL     1      50.573  24.642  47.748  1.00  0.00     0.065 C 
HETATM    2  C2  UNL     1      51.871  24.205  47.269  1.00  0.00     0.136 C 
HETATM    3  C3  UNL     1      52.041  24.567  45.791  1.00  0.00     0.065 C 
HETATM    4  N1  UNL     1      53.051  24.804  47.934  1.00  0.00    -0.196 N 
ATOM      5  H1  UNL     1      53.617  25.436  47.368  1.00  0.00     0.180 HD
HETATM    6  C4  UNL     1      53.444  24.618  49.149  1.00  0.00     0.712 C 
HETATM    7  N8  UNL     1      52.822  23.764  50.106  1.00  0.00    -0.217 N 
ATOM      8  H8  UNL     1      52.896  24.095  51.069  1.00  0.00     0.178 HD
HETATM    9  C6  UNL     1      52.098  22.506  49.966  1.00  0.00     0.216 C 
HETATM   10  C7  UNL     1      52.168  22.070  48.550  1.00  0.00     0.121 A 
HETATM   11  N9  UNL     1      52.417  20.820  48.206  1.00  0.00    -0.328 N 
ATOM     12  H9  UNL     1      52.531  20.055  48.871  1.00  0.00     0.169 HD
HETATM   13  C8  UNL     1      52.499  20.683  46.883  1.00  0.00     0.134 A 
HETATM   14  N15 UNL     1      52.274  21.949  46.421  1.00  0.00    -0.279 N 
ATOM     15  H15 UNL     1      52.263  22.215  45.437  1.00  0.00     0.189 HD
HETATM   16  N16 UNL     1      52.076  22.757  47.398  1.00  0.00    -0.247 N 
ENDROOT
BRANCH  13  17
HETATM   17  C9  UNL     1      52.797  19.599  45.972  1.00  0.00     0.135 C 
BRANCH  17  18
HETATM   18  N10 UNL     1      53.644  18.558  46.350  1.00  0.00    -0.175 NA
BRANCH  18  19
HETATM   19  N11 UNL     1      54.425  18.830  47.511  1.00  0.00    -0.357 NA
ATOM     20 2H11 UNL     1      53.844  18.584  48.312  1.00  0.00     0.171 HD
ATOM     21 1H11 UNL     1      55.353  18.406  47.501  1.00  0.00     0.171 HD
ENDBRANCH  18  19
BRANCH  18  22
HETATM   22  C10 UNL     1      54.575  18.117  45.327  1.00  0.00     0.268 C 
BRANCH  22  23
HETATM   23  O1  UNL     1      53.879  18.203  44.093  1.00  0.00    -0.373 OA
ATOM     24  H1  UNL     1      54.466  17.856  43.431  1.00  0.00     0.212 HD
ENDBRANCH  22  23
BRANCH  22  25
HETATM   25  C11 UNL     1      54.633  16.609  45.534  1.00  0.00     0.080 A 
HETATM   26  N12 UNL     1      53.811  15.938  46.389  1.00  0.00    -0.351 N 
HETATM   27  C12 UNL     1      54.040  14.609  46.169  1.00  0.00     0.181 A 
ATOM     28  H12 UNL     1      53.157  16.345  47.057  1.00  0.00     0.166 HD
HETATM   29  N13 UNL     1      54.982  14.455  45.205  1.00  0.00    -0.353 N 
HETATM   30  C13 UNL     1      55.346  15.728  44.832  1.00  0.00     0.062 A 
ATOM     31  H13 UNL     1      55.344  13.576  44.833  1.00  0.00     0.166 HD
BRANCH  30  32
HETATM   32  C14 UNL     1      56.498  16.141  43.980  1.00  0.00     0.288 C 
BRANCH  32  33
HETATM   33  N14 UNL     1      56.150  16.298  42.608  1.00  0.00    -0.074 N 
ATOM     34 3H14 UNL     1      56.334  15.441  42.086  1.00  0.00     0.274 HD
ATOM     35 2H14 UNL     1      55.138  16.348  42.493  1.00  0.00     0.274 HD
ATOM     36 1H14 UNL     1      56.607  17.097  42.168  1.00  0.00     0.274 HD
ENDBRANCH  32  33
ENDBRANCH  30  32
ENDBRANCH  22  25
ENDBRANCH  18  22
ENDBRANCH  17  18
ENDBRANCH  13  17
BRANCH   6  37
HETATM   37  N2  UNL     1      54.626  25.309  49.586  1.00  0.00     0.085 N 
BRANCH  37  38
HETATM   38  N3  UNL     1      54.674  26.700  49.537  1.00  0.00    -0.309 N 
ATOM     39  H32 UNL     1      54.150  27.246  48.853  1.00  0.00     0.178 HD
ATOM     40  H31 UNL     1      55.244  27.213  50.210  1.00  0.00     0.178 HD
ENDBRANCH  37  38
BRANCH  37  41
HETATM   41  C5  UNL     1      55.725  24.509  50.051  1.00  0.00     0.743 A 
HETATM   42  N4  UNL     1      55.824  23.200  50.041  1.00  0.00    -0.114 N 
HETATM   43  N5  UNL     1      56.997  22.816  50.574  1.00  0.00     0.006 NA
ATOM     44  H4  UNL     1      55.111  22.565  49.681  1.00  0.00     0.203 HD
HETATM   45  N6  UNL     1      57.611  23.947  50.913  1.00  0.00     0.006 NA
HETATM   46  N7  UNL     1      56.837  25.005  50.600  1.00  0.00    -0.114 N 
ATOM     47  H7  UNL     1      57.055  25.990  50.751  1.00  0.00     0.203 HD
ENDBRANCH  37  41
ENDBRANCH   6  37
TORSDOF 11
ENDMDL
MODEL 3
REMARK VINA RESULT: -7.754676214      2.420      4.422
REMARK  11 active torsions:
REMARK  status: ('A' for Active; 'I' for Inactive)
REMARK    1  A    between atoms: C4_6  and  N2_7 
REMARK    2  A    between atoms: N2_7  and  N3_8 
REMARK    3  A    between atoms: N2_7  and  C5_11 
REMARK    4  A    between atoms: C8_24  and  C9_25 
REMARK    5  A    between atoms: C9_25  and  N10_26 
REMARK    6  A    between atoms: N10_26  and  N11_27 
REMARK    7  A    between atoms: N10_26  and  C10_30 
REMARK    8  A    between atoms: C10_30  and  O1_31 
REMARK    9  A    between atoms: C10_30  and  C11_33 
REMARK   10  A    between atoms: C13_39  and  C14_40 
REMARK   11  A    between atoms: C14_40  and  N14_41 
ROOT
HETATM    1  C1  UNL     1      53.195  22.864  50.855  1.00  0.00     0.065 C 
HETATM    2  C2  UNL     1      52.347  22.254  49.848  1.00  0.00     0.136 C 
HETATM    3  C3  UNL     1      51.535  21.108  50.459  1.00  0.00     0.065 C 
HETATM    4  N1  UNL     1      51.331  23.134  49.226  1.00  0.00    -0.196 N 
ATOM      5  H1  UNL     1      50.357  22.928  49.447  1.00  0.00     0.180 HD
HETATM    6  C4  UNL     1      51.538  24.134  48.436  1.00  0.00     0.712 C 
HETATM    7  N8  UNL     1      52.810  24.586  47.979  1.00  0.00    -0.217 N 
ATOM      8  H8  UNL     1      52.864  25.594  47.829  1.00  0.00     0.178 HD
HETATM    9  C6  UNL     1      54.049  23.876  47.685  1.00  0.00     0.216 C 
HETATM   10  C7  UNL     1      53.808  22.419  47.817  1.00  0.00     0.121 A 
HETATM   11  N9  UNL     1      54.261  21.544  46.939  1.00  0.00    -0.328 N 
ATOM     12  H9  UNL     1      54.844  21.785  46.137  1.00  0.00     0.169 HD
HETATM   13  C8  UNL     1      53.862  20.305  47.229  1.00  0.00     0.134 A 
HETATM   14  N15 UNL     1      53.126  20.472  48.368  1.00  0.00    -0.279 N 
ATOM     15  H15 UNL     1      52.662  19.719  48.876  1.00  0.00     0.189 HD
HETATM   16  N16 UNL     1      53.100  21.708  48.712  1.00  0.00    -0.247 N 
ENDROOT
BRANCH  13  17
HETATM   17  C9  UNL     1      53.999  19.003  46.614  1.00  0.00     0.135 C 
BRANCH  17  18
HETATM   18  N10 UNL     1      54.873  18.051  47.138  1.00  0.00    -0.175 NA
BRANCH  18  19
HETATM   19  N11 UNL     1      55.364  18.360  48.440  1.00  0.00    -0.357 NA
ATOM     20 2H11 UNL     1      55.039  19.304  48.652  1.00  0.00     0.171 HD
ATOM     21 1H11 UNL     1      55.149  17.658  49.147  1.00  0.00     0.171 HD
ENDBRANCH  18  19
BRANCH  18  22
HETATM   22  C10 UNL     1      56.038  17.766  46.320  1.00  0.00     0.268 C 
BRANCH  22  23
HETATM   23  O1  UNL     1      55.824  18.426  45.082  1.00  0.00    -0.373 OA
ATOM     24  H1  UNL     1      55.091  17.985  44.668  1.00  0.00     0.212 HD
ENDBRANCH  22  23
BRANCH  22  25
HETATM   25  C11 UNL     1      55.837  16.310  45.922  1.00  0.00     0.080 A 
HETATM   26  N12 UNL     1      55.269  15.926  44.745  1.00  0.00    -0.351 N 
HETATM   27  C12 UNL     1      55.424  14.571  44.674  1.00  0.00     0.181 A 
ATOM     28  H12 UNL     1      54.819  16.528  44.056  1.00  0.00     0.166 HD
HETATM   29  N13 UNL     1      56.069  14.119  45.779  1.00  0.00    -0.353 N 
HETATM   30  C13 UNL     1      56.305  15.232  46.552  1.00  0.00     0.062 A 
ATOM     31  H13 UNL     1      56.325  13.155  45.991  1.00  0.00     0.166 HD
BRANCH  30  32
HETATM   32  C14 UNL     1      56.776  15.284  47.966  1.00  0.00     0.288 C 
BRANCH  32  33
HETATM   33  N14 UNL     1      55.713  15.406  48.905  1.00  0.00    -0.074 N 
ATOM     34 3H14 UNL     1      55.247  16.309  48.812  1.00  0.00     0.274 HD
ATOM     35 2H14 UNL     1      54.937  14.792  48.658  1.00  0.00     0.274 HD
ATOM     36 1H14 UNL     1      56.010  15.249  49.869  1.00  0.00     0.274 HD
ENDBRANCH  32  33
ENDBRANCH  30  32
ENDBRANCH  22  25
ENDBRANCH  18  22
ENDBRANCH  17  18
ENDBRANCH  13  17
BRANCH   6  37
HETATM   37  N2  UNL     1      50.394  24.854  47.950  1.00  0.00     0.085 N 
BRANCH  37  38
HETATM   38  N3  UNL     1      49.588  25.559  48.840  1.00  0.00    -0.309 N 
ATOM     39  H32 UNL     1      49.810  25.652  49.831  1.00  0.00     0.178 HD
ATOM     40  H31 UNL     1      48.739  26.016  48.505  1.00  0.00     0.178 HD
ENDBRANCH  37  38
BRANCH  37  41
HETATM   41  C5  UNL     1      50.129  24.797  46.539  1.00  0.00     0.743 A 
HETATM   42  N4  UNL     1      50.390  25.716  45.637  1.00  0.00    -0.114 N 
HETATM   43  N5  UNL     1      49.982  25.307  44.423  1.00  0.00     0.006 NA
ATOM     44  H4  UNL     1      50.838  26.612  45.831  1.00  0.00     0.203 HD
HETATM   45  N6  UNL     1      49.457  24.100  44.620  1.00  0.00     0.006 NA
HETATM   46  N7  UNL     1      49.537  23.770  45.925  1.00  0.00    -0.114 N 
ATOM     47  H7  UNL     1      49.209  22.907  46.359  1.00  0.00     0.203 HD
ENDBRANCH  37  41
ENDBRANCH   6  37
TORSDOF 11
ENDMDL
MODEL 4
REMARK VINA RESULT: -7.687803777      0.878      1.288
REMARK  11 active torsions:
REMARK  status: ('A' for Active; 'I' for Inactive)
REMARK    1  A    between atoms: C4_6  and  N2_7 
REMARK    2  A    between atoms: N2_7  and  N3_8 
REMARK    3  A    between atoms: N2_7  and  C5_11 
REMARK    4  A    between atoms: C8_24  and  C9_25 
REMARK    5  A    between atoms: C9_25  and  N10_26 
REMARK    6  A    between atoms: N10_26  and  N11_27 
REMARK    7  A    between atoms: N10_26  and  C10_30 
REMARK    8  A    between atoms: C10_30  and  O1_31 
REMARK    9  A    between atoms: C10_30  and  C11_33 
REMARK   10  A    between atoms: C13_39  and  C14_40 
REMARK   11  A    between atoms: C14_40  and  N14_41 
ROOT
HETATM    1  C1  UNL     1      51.205  24.420  48.243  1.00  0.00     0.065 C 
HETATM    2  C2  UNL     1      52.549  24.093  47.803  1.00  0.00     0.136 C 
HETATM    3  C3  UNL     1      52.728  24.454  46.326  1.00  0.00     0.065 C 
HETATM    4  N1  UNL     1      53.654  24.799  48.492  1.00  0.00    -0.196 N 
ATOM      5  H1  UNL     1      54.178  25.472  47.934  1.00  0.00     0.180 HD
HETATM    6  C4  UNL     1      54.029  24.660  49.719  1.00  0.00     0.712 C 
HETATM    7  N8  UNL     1      53.456  23.764  50.670  1.00  0.00    -0.217 N 
ATOM      8  H8  UNL     1      53.476  24.109  51.630  1.00  0.00     0.178 HD
HETATM    9  C6  UNL     1      52.849  22.447  50.525  1.00  0.00     0.216 C 
HETATM   10  C7  UNL     1      52.996  22.005  49.117  1.00  0.00     0.121 A 
HETATM   11  N9  UNL     1      53.361  20.778  48.795  1.00  0.00    -0.328 N 
ATOM     12  H9  UNL     1      53.523  20.032  49.472  1.00  0.00     0.169 HD
HETATM   13  C8  UNL     1      53.490  20.635  47.476  1.00  0.00     0.134 A 
HETATM   14  N15 UNL     1      53.169  21.873  46.994  1.00  0.00    -0.279 N 
ATOM     15  H15 UNL     1      53.162  22.127  46.007  1.00  0.00     0.189 HD
HETATM   16  N16 UNL     1      52.876  22.670  47.955  1.00  0.00    -0.247 N 
ENDROOT
BRANCH  13  17
HETATM   17  C9  UNL     1      53.907  19.573  46.586  1.00  0.00     0.135 C 
BRANCH  17  18
HETATM   18  N10 UNL     1      54.565  18.445  47.076  1.00  0.00    -0.175 NA
BRANCH  18  19
HETATM   19  N11 UNL     1      55.100  18.602  48.387  1.00  0.00    -0.357 NA
ATOM     20 2H11 UNL     1      55.945  18.031  48.422  1.00  0.00     0.171 HD
ATOM     21 1H11 UNL     1      55.220  19.572  48.678  1.00  0.00     0.171 HD
ENDBRANCH  18  19
BRANCH  18  22
HETATM   22  C10 UNL     1      55.653  17.957  46.247  1.00  0.00     0.268 C 
BRANCH  22  23
HETATM   23  O1  UNL     1      55.426  18.478  44.946  1.00  0.00    -0.373 OA
ATOM     24  H1  UNL     1      56.193  18.254  44.432  1.00  0.00     0.212 HD
ENDBRANCH  22  23
BRANCH  22  25
HETATM   25  C11 UNL     1      55.307  16.488  46.047  1.00  0.00     0.080 A 
HETATM   26  N12 UNL     1      54.097  15.952  46.370  1.00  0.00    -0.351 N 
HETATM   27  C12 UNL     1      54.107  14.675  45.887  1.00  0.00     0.181 A 
ATOM     28  H12 UNL     1      53.337  16.412  46.872  1.00  0.00     0.166 HD
HETATM   29  N13 UNL     1      55.294  14.418  45.280  1.00  0.00    -0.353 N 
HETATM   30  C13 UNL     1      56.033  15.572  45.406  1.00  0.00     0.062 A 
ATOM     31  H13 UNL     1      55.578  13.550  44.826  1.00  0.00     0.166 HD
BRANCH  30  32
HETATM   32  C14 UNL     1      57.484  15.767  45.123  1.00  0.00     0.288 C 
BRANCH  32  33
HETATM   33  N14 UNL     1      57.728  16.406  43.874  1.00  0.00    -0.074 N 
ATOM     34 3H14 UNL     1      58.135  17.332  44.012  1.00  0.00     0.274 HD
ATOM     35 2H14 UNL     1      58.500  15.957  43.381  1.00  0.00     0.274 HD
ATOM     36 1H14 UNL     1      56.899  16.458  43.282  1.00  0.00     0.274 HD
ENDBRANCH  32  33
ENDBRANCH  30  32
ENDBRANCH  22  25
ENDBRANCH  18  22
ENDBRANCH  17  18
ENDBRANCH  13  17
BRANCH   6  37
HETATM   37  N2  UNL     1      55.133  25.456  50.179  1.00  0.00     0.085 N 
BRANCH  37  38
HETATM   38  N3  UNL     1      55.022  26.843  50.214  1.00  0.00    -0.309 N 
ATOM     39  H32 UNL     1      54.217  27.322  50.618  1.00  0.00     0.178 HD
ATOM     40  H31 UNL     1      55.768  27.423  49.831  1.00  0.00     0.178 HD
ENDBRANCH  37  38
BRANCH  37  41
HETATM   41  C5  UNL     1      56.327  24.762  50.578  1.00  0.00     0.743 A 
HETATM   42  N4  UNL     1      56.485  23.468  50.741  1.00  0.00    -0.114 N 
HETATM   43  N5  UNL     1      57.741  23.197  51.135  1.00  0.00     0.006 NA
ATOM     44  H4  UNL     1      55.758  22.769  50.590  1.00  0.00     0.203 HD
HETATM   45  N6  UNL     1      58.345  24.382  51.209  1.00  0.00     0.006 NA
HETATM   46  N7  UNL     1      57.483  25.361  50.871  1.00  0.00    -0.114 N 
ATOM     47  H7  UNL     1      57.675  26.363  50.844  1.00  0.00     0.203 HD
ENDBRANCH  37  41
ENDBRANCH   6  37
TORSDOF 11
ENDMDL
MODEL 5
REMARK VINA RESULT: -7.599968126      3.242      5.677
REMARK  11 active torsions:
REMARK  status: ('A' for Active; 'I' for Inactive)
REMARK    1  A    between atoms: C4_6  and  N2_7 
REMARK    2  A    between atoms: N2_7  and  N3_8 
REMARK    3  A    between atoms: N2_7  and  C5_11 
REMARK    4  A    between atoms: C8_24  and  C9_25 
REMARK    5  A    between atoms: C9_25  and  N10_26 
REMARK    6  A    between atoms: N10_26  and  N11_27 
REMARK    7  A    between atoms: N10_26  and  C10_30 
REMARK    8  A    between atoms: C10_30  and  O1_31 
REMARK    9  A    between atoms: C10_30  and  C11_33 
REMARK   10  A    between atoms: C13_39  and  C14_40 
REMARK   11  A    between atoms: C14_40  and  N14_41 
ROOT
HETATM    1  C1  UNL     1      52.697  25.824  49.134  1.00  0.00     0.065 C 
HETATM    2  C2  UNL     1      51.784  24.697  49.199  1.00  0.00     0.136 C 
HETATM    3  C3  UNL     1      51.701  24.162  50.631  1.00  0.00     0.065 C 
HETATM    4  N1  UNL     1      50.377  24.972  48.825  1.00  0.00    -0.196 N 
ATOM      5  H1  UNL     1      49.691  24.923  49.579  1.00  0.00     0.180 HD
HETATM    6  C4  UNL     1      49.920  25.266  47.655  1.00  0.00     0.712 C 
HETATM    7  N8  UNL     1      50.690  25.366  46.459  1.00  0.00    -0.217 N 
ATOM      8  H8  UNL     1      50.343  26.062  45.798  1.00  0.00     0.178 HD
HETATM    9  C6  UNL     1      51.882  24.660  46.005  1.00  0.00     0.216 C 
HETATM   10  C7  UNL     1      52.211  23.598  46.986  1.00  0.00     0.121 A 
HETATM   11  N9  UNL     1      52.557  22.378  46.619  1.00  0.00    -0.328 N 
ATOM     12  H9  UNL     1      52.672  22.082  45.649  1.00  0.00     0.169 HD
HETATM   13  C8  UNL     1      52.738  21.582  47.672  1.00  0.00     0.134 A 
HETATM   14  N15 UNL     1      52.484  22.403  48.734  1.00  0.00    -0.279 N 
ATOM     15  H15 UNL     1      52.530  22.119  49.712  1.00  0.00     0.189 HD
HETATM   16  N16 UNL     1      52.180  23.582  48.330  1.00  0.00    -0.247 N 
ENDROOT
BRANCH  13  17
HETATM   17  C9  UNL     1      53.055  20.184  47.870  1.00  0.00     0.135 C 
BRANCH  17  18
HETATM   18  N10 UNL     1      54.211  19.627  47.323  1.00  0.00    -0.175 NA
BRANCH  18  19
HETATM   19  N11 UNL     1      55.270  20.559  47.117  1.00  0.00    -0.357 NA
ATOM     20 2H11 UNL     1      56.082  20.011  46.833  1.00  0.00     0.171 HD
ATOM     21 1H11 UNL     1      55.031  21.335  46.500  1.00  0.00     0.171 HD
ENDBRANCH  18  19
BRANCH  18  22
HETATM   22  C10 UNL     1      54.025  18.936  46.060  1.00  0.00     0.268 C 
BRANCH  22  23
HETATM   23  O1  UNL     1      52.727  18.364  46.107  1.00  0.00    -0.373 OA
ATOM     24  H1  UNL     1      52.153  19.035  46.460  1.00  0.00     0.212 HD
ENDBRANCH  22  23
BRANCH  22  25
HETATM   25  C11 UNL     1      54.902  17.700  46.206  1.00  0.00     0.080 A 
HETATM   26  N12 UNL     1      55.369  17.250  47.403  1.00  0.00    -0.351 N 
HETATM   27  C12 UNL     1      55.956  16.042  47.152  1.00  0.00     0.181 A 
ATOM     28  H12 UNL     1      55.296  17.719  48.306  1.00  0.00     0.166 HD
HETATM   29  N13 UNL     1      55.861  15.748  45.831  1.00  0.00    -0.353 N 
HETATM   30  C13 UNL     1      55.205  16.813  45.258  1.00  0.00     0.062 A 
ATOM     31  H13 UNL     1      56.205  14.910  45.360  1.00  0.00     0.166 HD
BRANCH  30  32
HETATM   32  C14 UNL     1      55.038  17.116  43.807  1.00  0.00     0.288 C 
BRANCH  32  33
HETATM   33  N14 UNL     1      55.906  16.354  42.974  1.00  0.00    -0.074 N 
ATOM     34 3H14 UNL     1      55.737  15.355  43.090  1.00  0.00     0.274 HD
ATOM     35 2H14 UNL     1      55.648  16.454  41.993  1.00  0.00     0.274 HD
ATOM     36 1H14 UNL     1      56.892  16.574  43.116  1.00  0.00     0.274 HD
ENDBRANCH  32  33
ENDBRANCH  30  32
ENDBRANCH  22  25
ENDBRANCH  18  22
ENDBRANCH  17  18
ENDBRANCH  13  17
BRANCH   6  37
HETATM   37  N2  UNL     1      48.507  25.495  47.523  1.00  0.00     0.085 N 
BRANCH  37  38
HETATM   38  N3  UNL     1      47.863  26.372  48.392  1.00  0.00    -0.309 N 
ATOM     39  H32 UNL     1      48.231  27.297  48.616  1.00  0.00     0.178 HD
ATOM     40  H31 UNL     1      46.982  26.100  48.828  1.00  0.00     0.178 HD
ENDBRANCH  37  38
BRANCH  37  41
HETATM   41  C5  UNL     1      47.816  24.783  46.484  1.00  0.00     0.743 A 
HETATM   42  N4  UNL     1      48.304  23.866  45.681  1.00  0.00    -0.114 N 
HETATM   43  N5  UNL     1      47.355  23.440  44.828  1.00  0.00     0.006 NA
ATOM     44  H4  UNL     1      49.265  23.526  45.700  1.00  0.00     0.203 HD
HETATM   45  N6  UNL     1      46.267  24.139  45.142  1.00  0.00     0.006 NA
HETATM   46  N7  UNL     1      46.535  24.977  46.164  1.00  0.00    -0.114 N 
ATOM     47  H7  UNL     1      45.888  25.631  46.604  1.00  0.00     0.203 HD
ENDBRANCH  37  41
ENDBRANCH   6  37
TORSDOF 11
ENDMDL
