MODEL 1
REMARK VINA RESULT: -8.109908359      0.000      0.000
REMARK  10 active torsions:
REMARK  status: ('A' for Active; 'I' for Inactive)
REMARK       I    between atoms: C2_2  and  N1_4 
REMARK    1  A    between atoms: N1_4  and  C3_6 
REMARK    2  A    between atoms: C3_6  and  O2_7 
REMARK    3  A    between atoms: C3_6  and  C4_9 
REMARK    4  A    between atoms: N3_12  and  C6_13 
REMARK    5  A    between atoms: C6_13  and  C7_14 
REMARK    6  A    between atoms: C7_14  and  C9_21 
REMARK    7  A    between atoms: N4_15  and  O3_17 
REMARK    8  A    between atoms: O3_17  and  C8_18 
REMARK    9  A    between atoms: C13_32  and  N9_33 
REMARK   10  A    between atoms: C14_38  and  N11_39 
ROOT
HETATM    1  C4  UNL     1      53.463  20.018  47.010  1.00  0.00     0.142 A 
HETATM    2  C5  UNL     1      53.862  19.255  45.889  1.00  0.00     0.163 A 
HETATM    3  N2  UNL     1      52.991  19.041  44.790  1.00  0.00    -0.080 NA
HETATM    4  N3  UNL     1      55.093  18.799  46.017  1.00  0.00    -0.161 N 
HETATM    5  C12 UNL     1      55.537  19.253  47.223  1.00  0.00     0.722 A 
HETATM    6  N8  UNL     1      56.759  19.065  47.788  1.00  0.00    -0.021 N 
ATOM      7  H8  UNL     1      57.468  18.505  47.314  1.00  0.00     0.203 HD
HETATM    8  C13 UNL     1      57.012  19.619  48.960  1.00  0.00     0.705 A 
HETATM    9  N10 UNL     1      56.066  20.350  49.561  1.00  0.00    -0.021 N 
ATOM     10  H10 UNL     1      56.261  20.779  50.465  1.00  0.00     0.203 HD
HETATM   11  C14 UNL     1      54.850  20.529  48.986  1.00  0.00     0.712 A 
HETATM   12  N12 UNL     1      54.569  19.978  47.809  1.00  0.00     0.028 N 
ENDROOT
BRANCH   4  13
HETATM   13  C6  UNL     1      55.874  17.969  45.085  1.00  0.00     0.210 C 
BRANCH  13  14
HETATM   14  C7  UNL     1      55.850  16.558  45.473  1.00  0.00     0.082 C 
HETATM   15  N4  UNL     1      55.262  15.740  44.628  1.00  0.00    -0.257 N 
ATOM     16  H4  UNL     1      54.861  16.111  43.767  1.00  0.00     0.195 HD
BRANCH  15  17
HETATM   17  O3  UNL     1      55.182  14.396  44.888  1.00  0.00    -0.183 OA
BRANCH  17  18
HETATM   18  C8  UNL     1      55.972  13.559  44.094  1.00  0.00     0.394 C 
HETATM   19  N5  UNL     1      56.917  12.700  44.708  1.00  0.00    -0.031 NA
HETATM   20  O4  UNL     1      55.862  13.553  42.848  1.00  0.00    -0.240 OA
ENDBRANCH  17  18
ENDBRANCH  15  17
BRANCH  14  21
HETATM   21  C9  UNL     1      56.410  15.997  46.683  1.00  0.00     0.106 A 
HETATM   22  N6  UNL     1      55.710  15.670  47.808  1.00  0.00    -0.238 N 
HETATM   23  O5  UNL     1      56.540  15.195  48.682  1.00  0.00    -0.156 OA
ATOM     24  H6  UNL     1      54.704  15.780  47.938  1.00  0.00     0.197 HD
HETATM   25  N7  UNL     1      57.742  15.173  48.248  1.00  0.00    -0.244 N 
HETATM   26  C10 UNL     1      57.709  15.676  46.974  1.00  0.00     0.061 A 
ATOM     27  H7  UNL     1      58.565  14.844  48.753  1.00  0.00     0.196 HD
HETATM   28  C11 UNL     1      58.882  15.836  46.086  1.00  0.00     0.073 C 
ENDBRANCH  14  21
ENDBRANCH  13  14
ENDBRANCH   4  13
BRANCH   1  29
HETATM   29  C3  UNL     1      52.194  20.708  47.148  1.00  0.00     0.276 C 
BRANCH  29  30
HETATM   30  N1  UNL     1      51.944  21.868  46.347  1.00  0.00    -0.330 N 
HETATM   31  C2  UNL     1      52.138  23.182  46.923  1.00  0.00     0.215 C 
HETATM   32  C1  UNL     1      51.873  24.370  46.075  1.00  0.00     0.117 C 
HETATM   33  O1  UNL     1      52.516  23.322  48.093  1.00  0.00    -0.274 OA
ATOM     34  H1  UNL     1      51.632  21.770  45.381  1.00  0.00     0.165 HD
ENDBRANCH  29  30
BRANCH  29  35
HETATM   35  O2  UNL     1      51.107  19.776  46.973  1.00  0.00    -0.371 OA
ATOM     36  H2  UNL     1      51.057  19.214  47.737  1.00  0.00     0.212 HD
ENDBRANCH  29  35
ENDBRANCH   1  29
BRANCH   8  37
HETATM   37  N9  UNL     1      58.152  19.475  49.545  1.00  0.00    -0.234 N 
ATOM     38  H92 UNL     1      58.170  19.178  50.520  1.00  0.00     0.174 HD
ATOM     39  H91 UNL     1      59.030  19.652  49.058  1.00  0.00     0.174 HD
ENDBRANCH   8  37
BRANCH  11  40
HETATM   40  N11 UNL     1      54.008  21.289  49.569  1.00  0.00    -0.233 N 
ATOM     41 2H11 UNL     1      53.135  20.913  49.940  1.00  0.00     0.174 HD
ATOM     42 1H11 UNL     1      54.204  22.289  49.612  1.00  0.00     0.174 HD
ENDBRANCH  11  40
TORSDOF 10
ENDMDL
MODEL 2
REMARK VINA RESULT: -7.938353889      3.452      6.753
REMARK  10 active torsions:
REMARK  status: ('A' for Active; 'I' for Inactive)
REMARK       I    between atoms: C2_2  and  N1_4 
REMARK    1  A    between atoms: N1_4  and  C3_6 
REMARK    2  A    between atoms: C3_6  and  O2_7 
REMARK    3  A    between atoms: C3_6  and  C4_9 
REMARK    4  A    between atoms: N3_12  and  C6_13 
REMARK    5  A    between atoms: C6_13  and  C7_14 
REMARK    6  A    between atoms: C7_14  and  C9_21 
REMARK    7  A    between atoms: N4_15  and  O3_17 
REMARK    8  A    between atoms: O3_17  and  C8_18 
REMARK    9  A    between atoms: C13_32  and  N9_33 
REMARK   10  A    between atoms: C14_38  and  N11_39 
ROOT
HETATM    1  C4  UNL     1      51.350  24.900  49.151  1.00  0.00     0.142 A 
HETATM    2  C5  UNL     1      52.502  24.141  48.844  1.00  0.00     0.163 A 
HETATM    3  N2  UNL     1      53.526  23.927  49.802  1.00  0.00    -0.080 NA
HETATM    4  N3  UNL     1      52.480  23.692  47.604  1.00  0.00    -0.161 N 
HETATM    5  C12 UNL     1      51.311  24.141  47.064  1.00  0.00     0.722 A 
HETATM    6  N8  UNL     1      50.828  23.914  45.815  1.00  0.00    -0.021 N 
ATOM      7  H8  UNL     1      51.367  23.369  45.141  1.00  0.00     0.203 HD
HETATM    8  C13 UNL     1      49.648  24.411  45.487  1.00  0.00     0.705 A 
HETATM    9  N10 UNL     1      48.960  25.122  46.388  1.00  0.00    -0.021 N 
ATOM     10  H10 UNL     1      48.049  25.505  46.136  1.00  0.00     0.203 HD
HETATM   11  C14 UNL     1      49.456  25.341  47.632  1.00  0.00     0.712 A 
HETATM   12  N12 UNL     1      50.642  24.855  47.985  1.00  0.00     0.028 N 
ENDROOT
BRANCH   4  13
HETATM   13  C6  UNL     1      53.479  22.873  46.898  1.00  0.00     0.210 C 
BRANCH  13  14
HETATM   14  C7  UNL     1      53.275  21.445  47.145  1.00  0.00     0.082 C 
HETATM   15  N4  UNL     1      52.512  20.816  46.279  1.00  0.00    -0.257 N 
ATOM     16  H4  UNL     1      52.108  21.332  45.497  1.00  0.00     0.195 HD
BRANCH  15  17
HETATM   17  O3  UNL     1      52.252  19.476  46.410  1.00  0.00    -0.183 OA
BRANCH  17  18
HETATM   18  C8  UNL     1      52.946  18.619  45.550  1.00  0.00     0.394 C 
HETATM   19  N5  UNL     1      53.044  18.939  44.173  1.00  0.00    -0.031 NA
HETATM   20  O4  UNL     1      53.483  17.571  45.972  1.00  0.00    -0.240 OA
ENDBRANCH  17  18
ENDBRANCH  15  17
BRANCH  14  21
HETATM   21  C9  UNL     1      53.832  20.681  48.240  1.00  0.00     0.106 A 
HETATM   22  N6  UNL     1      53.255  20.505  49.463  1.00  0.00    -0.238 N 
HETATM   23  O5  UNL     1      54.040  19.764  50.181  1.00  0.00    -0.156 OA
ATOM     24  H6  UNL     1      52.359  20.889  49.762  1.00  0.00     0.197 HD
HETATM   25  N7  UNL     1      55.098  19.424  49.552  1.00  0.00    -0.244 N 
HETATM   26  C10 UNL     1      55.011  19.986  48.305  1.00  0.00     0.061 A 
ATOM     27  H7  UNL     1      55.860  18.847  49.908  1.00  0.00     0.196 HD
HETATM   28  C11 UNL     1      56.024  19.855  47.233  1.00  0.00     0.073 C 
ENDBRANCH  14  21
ENDBRANCH  13  14
ENDBRANCH   4  13
BRANCH   1  29
HETATM   29  C3  UNL     1      51.045  25.477  50.447  1.00  0.00     0.276 C 
BRANCH  29  30
HETATM   30  N1  UNL     1      50.982  24.619  51.591  1.00  0.00    -0.330 N 
HETATM   31  C2  UNL     1      50.635  25.180  52.880  1.00  0.00     0.215 C 
HETATM   32  C1  UNL     1      50.576  24.272  54.051  1.00  0.00     0.117 C 
HETATM   33  O1  UNL     1      50.393  26.386  53.012  1.00  0.00    -0.274 OA
ATOM     34  H1  UNL     1      51.179  23.622  51.499  1.00  0.00     0.165 HD
ENDBRANCH  29  30
BRANCH  29  35
HETATM   35  O2  UNL     1      51.951  26.564  50.727  1.00  0.00    -0.371 OA
ATOM     36  H2  UNL     1      51.512  27.196  51.284  1.00  0.00     0.212 HD
ENDBRANCH  29  35
ENDBRANCH   1  29
BRANCH   8  37
HETATM   37  N9  UNL     1      49.138  24.230  44.317  1.00  0.00    -0.234 N 
ATOM     38  H92 UNL     1      49.046  25.030  43.691  1.00  0.00     0.174 HD
ATOM     39  H91 UNL     1      48.825  23.311  44.005  1.00  0.00     0.174 HD
ENDBRANCH   8  37
BRANCH  11  40
HETATM   40  N11 UNL     1      48.730  25.968  48.473  1.00  0.00    -0.233 N 
ATOM     41 2H11 UNL     1      47.888  25.540  48.858  1.00  0.00     0.174 HD
ATOM     42 1H11 UNL     1      48.984  26.926  48.714  1.00  0.00     0.174 HD
ENDBRANCH  11  40
TORSDOF 10
ENDMDL
MODEL 3
REMARK VINA RESULT: -7.918279740      2.463      7.977
REMARK  10 active torsions:
REMARK  status: ('A' for Active; 'I' for Inactive)
REMARK       I    between atoms: C2_2  and  N1_4 
REMARK    1  A    between atoms: N1_4  and  C3_6 
REMARK    2  A    between atoms: C3_6  and  O2_7 
REMARK    3  A    between atoms: C3_6  and  C4_9 
REMARK    4  A    between atoms: N3_12  and  C6_13 
REMARK    5  A    between atoms: C6_13  and  C7_14 
REMARK    6  A    between atoms: C7_14  and  C9_21 
REMARK    7  A    between atoms: N4_15  and  O3_17 
REMARK    8  A    between atoms: O3_17  and  C8_18 
REMARK    9  A    between atoms: C13_32  and  N9_33 
REMARK   10  A    between atoms: C14_38  and  N11_39 
ROOT
HETATM    1  C4  UNL     1      53.817  19.482  46.843  1.00  0.00     0.142 A 
HETATM    2  C5  UNL     1      52.643  20.050  47.388  1.00  0.00     0.163 A 
HETATM    3  N2  UNL     1      51.387  19.920  46.742  1.00  0.00    -0.080 NA
HETATM    4  N3  UNL     1      52.882  20.686  48.520  1.00  0.00    -0.161 N 
HETATM    5  C12 UNL     1      54.219  20.548  48.751  1.00  0.00     0.722 A 
HETATM    6  N8  UNL     1      54.935  21.009  49.809  1.00  0.00    -0.021 N 
ATOM      7  H8  UNL     1      54.482  21.553  50.544  1.00  0.00     0.203 HD
HETATM    8  C13 UNL     1      56.227  20.742  49.871  1.00  0.00     0.705 A 
HETATM    9  N10 UNL     1      56.799  20.025  48.895  1.00  0.00    -0.021 N 
ATOM     10  H10 UNL     1      57.796  19.818  48.943  1.00  0.00     0.203 HD
HETATM   11  C14 UNL     1      56.071  19.572  47.844  1.00  0.00     0.712 A 
HETATM   12  N12 UNL     1      54.770  19.831  47.756  1.00  0.00     0.028 N 
ENDROOT
BRANCH   4  13
HETATM   13  C6  UNL     1      51.943  21.408  49.392  1.00  0.00     0.210 C 
BRANCH  13  14
HETATM   14  C7  UNL     1      51.944  22.844  49.109  1.00  0.00     0.082 C 
HETATM   15  N4  UNL     1      51.371  23.608  50.013  1.00  0.00    -0.257 N 
ATOM     16  H4  UNL     1      50.963  23.182  50.845  1.00  0.00     0.195 HD
BRANCH  15  17
HETATM   17  O3  UNL     1      51.314  24.969  49.853  1.00  0.00    -0.183 OA
BRANCH  17  18
HETATM   18  C8  UNL     1      52.084  25.733  50.737  1.00  0.00     0.394 C 
HETATM   19  N5  UNL     1      53.456  25.952  50.459  1.00  0.00    -0.031 NA
HETATM   20  O4  UNL     1      51.583  26.229  51.770  1.00  0.00    -0.240 OA
ENDBRANCH  17  18
ENDBRANCH  15  17
BRANCH  14  21
HETATM   21  C9  UNL     1      52.513  23.483  47.943  1.00  0.00     0.106 A 
HETATM   22  N6  UNL     1      53.764  24.021  47.860  1.00  0.00    -0.238 N 
HETATM   23  O5  UNL     1      53.924  24.500  46.667  1.00  0.00    -0.156 OA
ATOM     24  H6  UNL     1      54.455  24.043  48.610  1.00  0.00     0.197 HD
HETATM   25  N7  UNL     1      52.891  24.335  45.934  1.00  0.00    -0.244 N 
HETATM   26  C10 UNL     1      51.962  23.688  46.706  1.00  0.00     0.061 A 
ATOM     27  H7  UNL     1      52.780  24.627  44.963  1.00  0.00     0.196 HD
HETATM   28  C11 UNL     1      50.606  23.291  46.262  1.00  0.00     0.073 C 
ENDBRANCH  14  21
ENDBRANCH  13  14
ENDBRANCH   4  13
BRANCH   1  29
HETATM   29  C3  UNL     1      53.878  18.669  45.643  1.00  0.00     0.276 C 
BRANCH  29  30
HETATM   30  N1  UNL     1      53.656  17.259  45.748  1.00  0.00    -0.330 N 
HETATM   31  C2  UNL     1      54.715  16.345  45.376  1.00  0.00     0.215 C 
HETATM   32  C1  UNL     1      54.462  14.888  45.492  1.00  0.00     0.117 C 
HETATM   33  O1  UNL     1      55.807  16.759  44.968  1.00  0.00    -0.274 OA
ATOM     34  H1  UNL     1      52.760  16.902  46.082  1.00  0.00     0.165 HD
ENDBRANCH  29  30
BRANCH  29  35
HETATM   35  O2  UNL     1      52.994  19.209  44.639  1.00  0.00    -0.371 OA
ATOM     36  H2  UNL     1      52.734  20.085  44.896  1.00  0.00     0.212 HD
ENDBRANCH  29  35
ENDBRANCH   1  29
BRANCH   8  37
HETATM   37  N9  UNL     1      56.958  21.152  50.850  1.00  0.00    -0.234 N 
ATOM     38  H92 UNL     1      57.035  20.571  51.684  1.00  0.00     0.174 HD
ATOM     39  H91 UNL     1      57.458  22.041  50.811  1.00  0.00     0.174 HD
ENDBRANCH   8  37
BRANCH  11  40
HETATM   40  N11 UNL     1      56.651  18.838  46.976  1.00  0.00    -0.233 N 
ATOM     41 2H11 UNL     1      56.422  17.847  46.893  1.00  0.00     0.174 HD
ATOM     42 1H11 UNL     1      57.384  19.253  46.401  1.00  0.00     0.174 HD
ENDBRANCH  11  40
TORSDOF 10
ENDMDL
MODEL 4
REMARK VINA RESULT: -7.910948645      3.709      5.926
REMARK  10 active torsions:
REMARK  status: ('A' for Active; 'I' for Inactive)
REMARK       I    between atoms: C2_2  and  N1_4 
REMARK    1  A    between atoms: N1_4  and  C3_6 
REMARK    2  A    between atoms: C3_6  and  O2_7 
REMARK    3  A    between atoms: C3_6  and  C4_9 
REMARK    4  A    between atoms: N3_12  and  C6_13 
REMARK    5  A    between atoms: C6_13  and  C7_14 
REMARK    6  A    between atoms: C7_14  and  C9_21 
REMARK    7  A    between atoms: N4_15  and  O3_17 
REMARK    8  A    between atoms: O3_17  and  C8_18 
REMARK    9  A    between atoms: C13_32  and  N9_33 
REMARK   10  A    between atoms: C14_38  and  N11_39 
ROOT
HETATM    1  C4  UNL     1      51.606  25.016  48.790  1.00  0.00     0.142 A 
HETATM    2  C5  UNL     1      51.947  24.098  47.771  1.00  0.00     0.163 A 
HETATM    3  N2  UNL     1      50.987  23.640  46.834  1.00  0.00    -0.080 NA
HETATM    4  N3  UNL     1      53.220  23.752  47.825  1.00  0.00    -0.161 N 
HETATM    5  C12 UNL     1      53.749  24.436  48.879  1.00  0.00     0.722 A 
HETATM    6  N8  UNL     1      55.035  24.428  49.317  1.00  0.00    -0.021 N 
ATOM      7  H8  UNL     1      55.735  23.843  48.861  1.00  0.00     0.203 HD
HETATM    8  C13 UNL     1      55.364  25.192  50.344  1.00  0.00     0.705 A 
HETATM    9  N10 UNL     1      54.428  25.953  50.925  1.00  0.00    -0.021 N 
ATOM     10  H10 UNL     1      54.681  26.544  51.716  1.00  0.00     0.203 HD
HETATM   11  C14 UNL     1      53.147  25.950  50.476  1.00  0.00     0.712 A 
HETATM   12  N12 UNL     1      52.790  25.187  49.448  1.00  0.00     0.028 N 
ENDROOT
BRANCH   4  13
HETATM   13  C6  UNL     1      53.965  22.827  46.956  1.00  0.00     0.210 C 
BRANCH  13  14
HETATM   14  C7  UNL     1      53.503  21.447  47.120  1.00  0.00     0.082 C 
HETATM   15  N4  UNL     1      52.669  21.008  46.203  1.00  0.00    -0.257 N 
ATOM     16  H4  UNL     1      52.388  21.627  45.442  1.00  0.00     0.195 HD
BRANCH  15  17
HETATM   17  O3  UNL     1      52.172  19.732  46.255  1.00  0.00    -0.183 OA
BRANCH  17  18
HETATM   18  C8  UNL     1      52.837  18.771  45.484  1.00  0.00     0.394 C 
HETATM   19  N5  UNL     1      52.972  18.967  44.087  1.00  0.00    -0.031 NA
HETATM   20  O4  UNL     1      53.317  17.741  46.006  1.00  0.00    -0.240 OA
ENDBRANCH  17  18
ENDBRANCH  15  17
BRANCH  14  21
HETATM   21  C9  UNL     1      53.881  20.542  48.183  1.00  0.00     0.106 A 
HETATM   22  N6  UNL     1      54.852  19.587  48.108  1.00  0.00    -0.238 N 
HETATM   23  O5  UNL     1      54.910  18.974  49.249  1.00  0.00    -0.156 OA
ATOM     24  H6  UNL     1      55.433  19.389  47.293  1.00  0.00     0.197 HD
HETATM   25  N7  UNL     1      54.063  19.430  50.089  1.00  0.00    -0.244 N 
HETATM   26  C10 UNL     1      53.382  20.435  49.454  1.00  0.00     0.061 A 
ATOM     27  H7  UNL     1      53.922  19.109  51.047  1.00  0.00     0.196 HD
HETATM   28  C11 UNL     1      52.299  21.248  50.053  1.00  0.00     0.073 C 
ENDBRANCH  14  21
ENDBRANCH  13  14
ENDBRANCH   4  13
BRANCH   1  29
HETATM   29  C3  UNL     1      50.305  25.634  48.962  1.00  0.00     0.276 C 
BRANCH  29  30
HETATM   30  N1  UNL     1      49.274  25.358  48.010  1.00  0.00    -0.330 N 
HETATM   31  C2  UNL     1      47.999  26.034  48.129  1.00  0.00     0.215 C 
HETATM   32  C1  UNL     1      46.945  25.732  47.130  1.00  0.00     0.117 C 
HETATM   33  O1  UNL     1      47.784  26.845  49.038  1.00  0.00    -0.274 OA
ATOM     34  H1  UNL     1      49.435  24.692  47.254  1.00  0.00     0.165 HD
ENDBRANCH  29  30
BRANCH  29  35
HETATM   35  O2  UNL     1      49.804  25.362  50.287  1.00  0.00    -0.371 OA
ATOM     36  H2  UNL     1      50.472  24.902  50.781  1.00  0.00     0.212 HD
ENDBRANCH  29  35
ENDBRANCH   1  29
BRANCH   8  37
HETATM   37  N9  UNL     1      56.567  25.227  50.805  1.00  0.00    -0.234 N 
ATOM     38  H92 UNL     1      57.245  24.548  50.461  1.00  0.00     0.174 HD
ATOM     39  H91 UNL     1      56.854  25.913  51.503  1.00  0.00     0.174 HD
ENDBRANCH   8  37
BRANCH  11  40
HETATM   40  N11 UNL     1      52.311  26.743  51.023  1.00  0.00    -0.233 N 
ATOM     41 2H11 UNL     1      52.489  27.747  51.059  1.00  0.00     0.174 HD
ATOM     42 1H11 UNL     1      51.483  26.345  51.468  1.00  0.00     0.174 HD
ENDBRANCH  11  40
TORSDOF 10
ENDMDL
MODEL 5
REMARK VINA RESULT: -7.667098653      3.590      8.829
REMARK  10 active torsions:
REMARK  status: ('A' for Active; 'I' for Inactive)
REMARK       I    between atoms: C2_2  and  N1_4 
REMARK    1  A    between atoms: N1_4  and  C3_6 
REMARK    2  A    between atoms: C3_6  and  O2_7 
REMARK    3  A    between atoms: C3_6  and  C4_9 
REMARK    4  A    between atoms: N3_12  and  C6_13 
REMARK    5  A    between atoms: C6_13  and  C7_14 
REMARK    6  A    between atoms: C7_14  and  C9_21 
REMARK    7  A    between atoms: N4_15  and  O3_17 
REMARK    8  A    between atoms: O3_17  and  C8_18 
REMARK    9  A    between atoms: C13_32  and  N9_33 
REMARK   10  A    between atoms: C14_38  and  N11_39 
ROOT
HETATM    1  C4  UNL     1      52.781  21.558  46.868  1.00  0.00     0.142 A 
HETATM    2  C5  UNL     1      52.266  22.836  46.554  1.00  0.00     0.163 A 
HETATM    3  N2  UNL     1      51.265  23.009  45.564  1.00  0.00    -0.080 NA
HETATM    4  N3  UNL     1      52.828  23.786  47.277  1.00  0.00    -0.161 N 
HETATM    5  C12 UNL     1      53.726  23.156  48.089  1.00  0.00     0.722 A 
HETATM    6  N8  UNL     1      54.530  23.711  49.032  1.00  0.00    -0.021 N 
ATOM      7  H8  UNL     1      54.529  24.720  49.186  1.00  0.00     0.203 HD
HETATM    8  C13 UNL     1      55.314  22.923  49.746  1.00  0.00     0.705 A 
HETATM    9  N10 UNL     1      55.296  21.603  49.527  1.00  0.00    -0.021 N 
ATOM     10  H10 UNL     1      55.900  20.994  50.079  1.00  0.00     0.203 HD
HETATM   11  C14 UNL     1      54.488  21.063  48.581  1.00  0.00     0.712 A 
HETATM   12  N12 UNL     1      53.693  21.835  47.845  1.00  0.00     0.028 N 
ENDROOT
BRANCH   4  13
HETATM   13  C6  UNL     1      52.579  25.236  47.255  1.00  0.00     0.210 C 
BRANCH  13  14
HETATM   14  C7  UNL     1      51.531  25.614  48.205  1.00  0.00     0.082 C 
HETATM   15  N4  UNL     1      50.342  25.834  47.690  1.00  0.00    -0.257 N 
ATOM     16  H4  UNL     1      50.203  25.735  46.684  1.00  0.00     0.195 HD
BRANCH  15  17
HETATM   17  O3  UNL     1      49.284  26.194  48.486  1.00  0.00    -0.183 OA
BRANCH  17  18
HETATM   18  C8  UNL     1      48.022  25.740  48.089  1.00  0.00     0.394 C 
HETATM   19  N5  UNL     1      46.944  25.779  49.008  1.00  0.00    -0.031 NA
HETATM   20  O4  UNL     1      47.825  25.298  46.935  1.00  0.00    -0.240 OA
ENDBRANCH  17  18
ENDBRANCH  15  17
BRANCH  14  21
HETATM   21  C9  UNL     1      51.690  25.763  49.635  1.00  0.00     0.106 A 
HETATM   22  N6  UNL     1      51.026  25.048  50.589  1.00  0.00    -0.238 N 
HETATM   23  O5  UNL     1      51.426  25.451  51.753  1.00  0.00    -0.156 OA
ATOM     24  H6  UNL     1      50.333  24.320  50.414  1.00  0.00     0.197 HD
HETATM   25  N7  UNL     1      52.302  26.377  51.672  1.00  0.00    -0.244 N 
HETATM   26  C10 UNL     1      52.504  26.611  50.338  1.00  0.00     0.061 A 
ATOM     27  H7  UNL     1      52.762  26.850  52.450  1.00  0.00     0.196 HD
HETATM   28  C11 UNL     1      53.441  27.610  49.775  1.00  0.00     0.073 C 
ENDBRANCH  14  21
ENDBRANCH  13  14
ENDBRANCH   4  13
BRANCH   1  29
HETATM   29  C3  UNL     1      52.327  20.305  46.295  1.00  0.00     0.276 C 
BRANCH  29  30
HETATM   30  N1  UNL     1      53.269  19.244  46.111  1.00  0.00    -0.330 N 
HETATM   31  C2  UNL     1      53.443  18.670  44.794  1.00  0.00     0.215 C 
HETATM   32  C1  UNL     1      54.425  17.571  44.627  1.00  0.00     0.117 C 
HETATM   33  O1  UNL     1      52.792  19.079  43.824  1.00  0.00    -0.274 OA
ATOM     34  H1  UNL     1      53.813  18.895  46.901  1.00  0.00     0.165 HD
ENDBRANCH  29  30
BRANCH  29  35
HETATM   35  O2  UNL     1      51.198  19.805  47.042  1.00  0.00    -0.371 OA
ATOM     36  H2  UNL     1      50.474  19.659  46.445  1.00  0.00     0.212 HD
ENDBRANCH  29  35
ENDBRANCH   1  29
BRANCH   8  37
HETATM   37  N9  UNL     1      56.099  23.392  50.655  1.00  0.00    -0.234 N 
ATOM     38  H92 UNL     1      56.747  24.139  50.407  1.00  0.00     0.174 HD
ATOM     39  H91 UNL     1      56.088  23.034  51.610  1.00  0.00     0.174 HD
ENDBRANCH   8  37
BRANCH  11  40
HETATM   40  N11 UNL     1      54.461  19.793  48.457  1.00  0.00    -0.233 N 
ATOM     41 2H11 UNL     1      54.574  19.187  49.271  1.00  0.00     0.174 HD
ATOM     42 1H11 UNL     1      54.376  19.397  47.521  1.00  0.00     0.174 HD
ENDBRANCH  11  40
TORSDOF 10
ENDMDL
