MODEL 1
REMARK VINA RESULT: -7.157724962      0.000      0.000
REMARK  13 active torsions:
REMARK  status: ('A' for Active; 'I' for Inactive)
REMARK    1  A    between atoms: C2_2  and  N1_3 
REMARK    2  A    between atoms: C2_2  and  C12_45 
REMARK    3  A    between atoms: N1_3  and  N2_5 
REMARK    4  A    between atoms: N2_5  and  C3_7 
REMARK    5  A    between atoms: C3_7  and  N3_8 
REMARK    6  A    between atoms: C3_7  and  C4_11 
REMARK    7  A    between atoms: C5_14  and  N5_15 
REMARK    8  A    between atoms: N5_15  and  O1_17 
REMARK    9  A    between atoms: N6_19  and  C6_20 
REMARK   10  A    between atoms: C8_24  and  C9_25 
REMARK       I    between atoms: C9_25  and  N8_27 
REMARK   11  A    between atoms: N8_27  and  N9_29 
REMARK   12  A    between atoms: N10_32  and  C10_33 
REMARK   13  A    between atoms: C12_45  and  O4_49 
ROOT
HETATM    1  C4  UNL     1      55.486  19.579  48.617  1.00  0.00     0.182 A 
HETATM    2  N4  UNL     1      55.062  18.537  49.355  1.00  0.00    -0.167 N 
ATOM      3  H4  UNL     1      54.257  18.567  49.982  1.00  0.00     0.186 HD
HETATM    4  C5  UNL     1      55.831  17.454  49.162  1.00  0.00     0.740 A 
HETATM    5  N6  UNL     1      56.764  17.839  48.273  1.00  0.00     0.094 N 
HETATM    6  N14 UNL     1      56.571  19.104  47.938  1.00  0.00    -0.246 N 
ATOM      7  H14 UNL     1      57.139  19.637  47.280  1.00  0.00     0.190 HD
ENDROOT
BRANCH   5   8
HETATM    8  C6  UNL     1      57.794  16.994  47.779  1.00  0.00     0.727 A 
HETATM    9  N7  UNL     1      58.956  16.671  48.374  1.00  0.00    -0.197 N 
HETATM   10  C7  UNL     1      59.641  15.846  47.563  1.00  0.00     0.142 A 
ATOM     11  H7  UNL     1      59.266  16.997  49.289  1.00  0.00     0.183 HD
HETATM   12  C8  UNL     1      58.892  15.643  46.424  1.00  0.00     0.144 A 
HETATM   13  N10 UNL     1      57.770  16.350  46.577  1.00  0.00    -0.117 N 
BRANCH  12  14
HETATM   14  C9  UNL     1      59.290  14.807  45.298  1.00  0.00     0.288 C 
HETATM   15  O2  UNL     1      58.529  13.914  44.843  1.00  0.00    -0.264 OA
HETATM   16  N8  UNL     1      60.554  14.968  44.668  1.00  0.00    -0.271 N 
ATOM     17  H8  UNL     1      61.193  15.684  45.014  1.00  0.00     0.189 HD
BRANCH  16  18
HETATM   18  N9  UNL     1      60.944  14.173  43.588  1.00  0.00    -0.342 N 
ATOM     19  H92 UNL     1      60.462  14.301  42.698  1.00  0.00     0.176 HD
ATOM     20  H91 UNL     1      61.689  13.481  43.671  1.00  0.00     0.176 HD
ENDBRANCH  16  18
ENDBRANCH  12  14
BRANCH  13  21
HETATM   21  C10 UNL     1      56.704  16.426  45.626  1.00  0.00     0.196 A 
HETATM   22  N11 UNL     1      56.433  17.433  44.763  1.00  0.00    -0.221 N 
HETATM   23  O3  UNL     1      55.380  17.133  44.057  1.00  0.00    -0.153 OA
ATOM     24  H11 UNL     1      56.971  18.295  44.679  1.00  0.00     0.198 HD
HETATM   25  N12 UNL     1      54.957  15.980  44.421  1.00  0.00    -0.222 N 
HETATM   26  C11 UNL     1      55.735  15.469  45.402  1.00  0.00     0.168 A 
ATOM     27  H12 UNL     1      54.143  15.511  44.024  1.00  0.00     0.198 HD
HETATM   28  N13 UNL     1      55.654  14.358  46.032  1.00  0.00    -0.381 N 
ATOM     29 2H13 UNL     1      56.241  13.972  46.772  1.00  0.00     0.157 HD
ATOM     30 1H13 UNL     1      54.938  13.651  45.867  1.00  0.00     0.157 HD
ENDBRANCH  13  21
ENDBRANCH   5   8
BRANCH   4  31
HETATM   31  N5  UNL     1      55.700  16.157  49.766  1.00  0.00    -0.096 N 
ATOM     32  H5  UNL     1      56.000  15.976  50.725  1.00  0.00     0.213 HD
BRANCH  31  33
HETATM   33  O1  UNL     1      55.200  15.263  49.054  1.00  0.00    -0.276 OA
ATOM     34  H1  UNL     1      55.694  15.013  48.282  1.00  0.00     0.245 HD
ENDBRANCH  31  33
ENDBRANCH   4  31
BRANCH   1  35
HETATM   35  C3  UNL     1      54.917  20.916  48.550  1.00  0.00     0.160 C 
BRANCH  35  36
HETATM   36  N2  UNL     1      54.687  21.488  47.271  1.00  0.00    -0.282 N 
ATOM     37  H2  UNL     1      55.463  21.916  46.767  1.00  0.00     0.188 HD
BRANCH  36  38
HETATM   38  N1  UNL     1      53.425  21.474  46.696  1.00  0.00    -0.299 N 
ATOM     39  H1  UNL     1      53.069  22.367  46.355  1.00  0.00     0.186 HD
BRANCH  38  40
HETATM   40  C2  UNL     1      52.672  20.473  46.550  1.00  0.00     0.072 C 
HETATM   41  C1  UNL     1      51.333  20.462  47.233  1.00  0.00     0.074 C 
BRANCH  40  42
HETATM   42  C12 UNL     1      53.041  19.319  45.748  1.00  0.00     0.157 C 
HETATM   43  N15 UNL     1      53.492  18.265  46.317  1.00  0.00    -0.379 N 
ATOM     44 2H15 UNL     1      53.581  18.263  47.333  1.00  0.00     0.158 HD
ATOM     45 1H15 UNL     1      53.751  17.456  45.753  1.00  0.00     0.158 HD
BRANCH  42  46
HETATM   46  O4  UNL     1      52.920  19.323  44.366  1.00  0.00    -0.345 OA
ATOM     47  H4  UNL     1      52.092  19.507  43.937  1.00  0.00     0.219 HD
ENDBRANCH  42  46
ENDBRANCH  40  42
ENDBRANCH  38  40
ENDBRANCH  36  38
ENDBRANCH  35  36
BRANCH  35  48
HETATM   48  N3  UNL     1      54.646  21.529  49.638  1.00  0.00    -0.381 N 
ATOM     49  H32 UNL     1      55.195  22.351  49.892  1.00  0.00     0.157 HD
ATOM     50  H31 UNL     1      53.900  21.231  50.267  1.00  0.00     0.157 HD
ENDBRANCH  35  48
ENDBRANCH   1  35
TORSDOF 13
ENDMDL
MODEL 2
REMARK VINA RESULT: -7.032941901      1.705      1.870
REMARK  13 active torsions:
REMARK  status: ('A' for Active; 'I' for Inactive)
REMARK    1  A    between atoms: C2_2  and  N1_3 
REMARK    2  A    between atoms: C2_2  and  C12_45 
REMARK    3  A    between atoms: N1_3  and  N2_5 
REMARK    4  A    between atoms: N2_5  and  C3_7 
REMARK    5  A    between atoms: C3_7  and  N3_8 
REMARK    6  A    between atoms: C3_7  and  C4_11 
REMARK    7  A    between atoms: C5_14  and  N5_15 
REMARK    8  A    between atoms: N5_15  and  O1_17 
REMARK    9  A    between atoms: N6_19  and  C6_20 
REMARK   10  A    between atoms: C8_24  and  C9_25 
REMARK       I    between atoms: C9_25  and  N8_27 
REMARK   11  A    between atoms: N8_27  and  N9_29 
REMARK   12  A    between atoms: N10_32  and  C10_33 
REMARK   13  A    between atoms: C12_45  and  O4_49 
ROOT
HETATM    1  C4  UNL     1      56.037  19.132  49.783  1.00  0.00     0.182 A 
HETATM    2  N4  UNL     1      55.269  18.155  50.300  1.00  0.00    -0.167 N 
ATOM      3  H4  UNL     1      54.508  18.312  50.962  1.00  0.00     0.186 HD
HETATM    4  C5  UNL     1      55.631  16.949  49.835  1.00  0.00     0.740 A 
HETATM    5  N6  UNL     1      56.658  17.187  49.001  1.00  0.00     0.094 N 
HETATM    6  N14 UNL     1      56.911  18.484  48.959  1.00  0.00    -0.246 N 
ATOM      7  H14 UNL     1      57.642  18.928  48.401  1.00  0.00     0.190 HD
ENDROOT
BRANCH   5   8
HETATM    8  C6  UNL     1      57.352  16.178  48.279  1.00  0.00     0.727 A 
HETATM    9  N7  UNL     1      58.379  15.419  48.700  1.00  0.00    -0.197 N 
HETATM   10  C7  UNL     1      58.739  14.591  47.704  1.00  0.00     0.142 A 
ATOM     11  H7  UNL     1      58.813  15.464  49.621  1.00  0.00     0.183 HD
HETATM   12  C8  UNL     1      57.916  14.833  46.625  1.00  0.00     0.144 A 
HETATM   13  N10 UNL     1      57.078  15.803  46.997  1.00  0.00    -0.117 N 
BRANCH  12  14
HETATM   14  C9  UNL     1      57.986  14.138  45.345  1.00  0.00     0.288 C 
HETATM   15  O2  UNL     1      58.773  14.512  44.438  1.00  0.00    -0.264 OA
HETATM   16  N8  UNL     1      57.169  13.007  45.072  1.00  0.00    -0.271 N 
ATOM     17  H8  UNL     1      56.521  12.679  45.788  1.00  0.00     0.189 HD
BRANCH  16  18
HETATM   18  N9  UNL     1      57.229  12.333  43.851  1.00  0.00    -0.342 N 
ATOM     19  H92 UNL     1      56.543  12.573  43.135  1.00  0.00     0.176 HD
ATOM     20  H91 UNL     1      57.934  11.619  43.664  1.00  0.00     0.176 HD
ENDBRANCH  16  18
ENDBRANCH  12  14
BRANCH  13  21
HETATM   21  C10 UNL     1      56.049  16.368  46.178  1.00  0.00     0.196 A 
HETATM   22  N11 UNL     1      56.126  17.464  45.389  1.00  0.00    -0.221 N 
HETATM   23  O3  UNL     1      54.982  17.659  44.798  1.00  0.00    -0.153 OA
ATOM     24  H11 UNL     1      56.955  18.047  45.274  1.00  0.00     0.198 HD
HETATM   25  N12 UNL     1      54.168  16.742  45.167  1.00  0.00    -0.222 N 
HETATM   26  C11 UNL     1      54.762  15.891  46.033  1.00  0.00     0.168 A 
ATOM     27  H12 UNL     1      53.202  16.664  44.850  1.00  0.00     0.198 HD
HETATM   28  N13 UNL     1      54.301  14.855  46.629  1.00  0.00    -0.381 N 
ATOM     29 2H13 UNL     1      54.749  14.213  47.283  1.00  0.00     0.157 HD
ATOM     30 1H13 UNL     1      53.350  14.503  46.522  1.00  0.00     0.157 HD
ENDBRANCH  13  21
ENDBRANCH   5   8
BRANCH   4  31
HETATM   31  N5  UNL     1      55.055  15.670  50.150  1.00  0.00    -0.096 N 
ATOM     32  H5  UNL     1      54.706  15.044  49.424  1.00  0.00     0.213 HD
BRANCH  31  33
HETATM   33  O1  UNL     1      55.004  15.368  51.359  1.00  0.00    -0.276 OA
ATOM     34  H1  UNL     1      55.595  15.837  51.936  1.00  0.00     0.245 HD
ENDBRANCH  31  33
ENDBRANCH   4  31
BRANCH   1  35
HETATM   35  C3  UNL     1      55.955  20.561  50.039  1.00  0.00     0.160 C 
BRANCH  35  36
HETATM   36  N2  UNL     1      54.842  21.276  49.525  1.00  0.00    -0.282 N 
ATOM     37  H2  UNL     1      54.085  21.544  50.154  1.00  0.00     0.188 HD
BRANCH  36  38
HETATM   38  N1  UNL     1      54.765  21.616  48.182  1.00  0.00    -0.299 N 
ATOM     39  H1  UNL     1      55.563  22.118  47.792  1.00  0.00     0.186 HD
BRANCH  38  40
HETATM   40  C2  UNL     1      53.812  21.369  47.394  1.00  0.00     0.072 C 
HETATM   41  C1  UNL     1      52.882  22.483  47.002  1.00  0.00     0.074 C 
BRANCH  40  42
HETATM   42  C12 UNL     1      53.567  20.048  46.843  1.00  0.00     0.157 C 
HETATM   43  N15 UNL     1      52.808  19.914  45.821  1.00  0.00    -0.379 N 
ATOM     44 2H15 UNL     1      52.389  20.752  45.415  1.00  0.00     0.158 HD
ATOM     45 1H15 UNL     1      52.637  18.987  45.434  1.00  0.00     0.158 HD
BRANCH  42  46
HETATM   46  O4  UNL     1      54.136  18.909  47.395  1.00  0.00    -0.345 OA
ATOM     47  H4  UNL     1      54.884  18.480  46.997  1.00  0.00     0.219 HD
ENDBRANCH  42  46
ENDBRANCH  40  42
ENDBRANCH  38  40
ENDBRANCH  36  38
ENDBRANCH  35  36
BRANCH  35  48
HETATM   48  N3  UNL     1      56.885  21.124  50.711  1.00  0.00    -0.381 N 
ATOM     49  H32 UNL     1      56.868  22.137  50.827  1.00  0.00     0.157 HD
ATOM     50  H31 UNL     1      57.647  20.600  51.142  1.00  0.00     0.157 HD
ENDBRANCH  35  48
ENDBRANCH   1  35
TORSDOF 13
ENDMDL
MODEL 3
REMARK VINA RESULT: -6.972416228      8.409     10.963
REMARK  13 active torsions:
REMARK  status: ('A' for Active; 'I' for Inactive)
REMARK    1  A    between atoms: C2_2  and  N1_3 
REMARK    2  A    between atoms: C2_2  and  C12_45 
REMARK    3  A    between atoms: N1_3  and  N2_5 
REMARK    4  A    between atoms: N2_5  and  C3_7 
REMARK    5  A    between atoms: C3_7  and  N3_8 
REMARK    6  A    between atoms: C3_7  and  C4_11 
REMARK    7  A    between atoms: C5_14  and  N5_15 
REMARK    8  A    between atoms: N5_15  and  O1_17 
REMARK    9  A    between atoms: N6_19  and  C6_20 
REMARK   10  A    between atoms: C8_24  and  C9_25 
REMARK       I    between atoms: C9_25  and  N8_27 
REMARK   11  A    between atoms: N8_27  and  N9_29 
REMARK   12  A    between atoms: N10_32  and  C10_33 
REMARK   13  A    between atoms: C12_45  and  O4_49 
ROOT
HETATM    1  C4  UNL     1      48.647  25.461  47.531  1.00  0.00     0.182 A 
HETATM    2  N4  UNL     1      49.500  24.942  46.630  1.00  0.00    -0.167 N 
ATOM      3  H4  UNL     1      49.216  24.378  45.829  1.00  0.00     0.186 HD
HETATM    4  C5  UNL     1      50.772  25.261  46.919  1.00  0.00     0.740 A 
HETATM    5  N6  UNL     1      50.703  26.004  48.038  1.00  0.00     0.094 N 
HETATM    6  N14 UNL     1      49.442  26.132  48.415  1.00  0.00    -0.246 N 
ATOM      7  H14 UNL     1      49.117  26.649  49.233  1.00  0.00     0.190 HD
ENDROOT
BRANCH   5   8
HETATM    8  C6  UNL     1      51.832  26.560  48.698  1.00  0.00     0.727 A 
HETATM    9  N7  UNL     1      52.312  27.812  48.602  1.00  0.00    -0.197 N 
HETATM   10  C7  UNL     1      53.395  27.920  49.392  1.00  0.00     0.142 A 
ATOM     11  H7  UNL     1      51.920  28.557  48.026  1.00  0.00     0.183 HD
HETATM   12  C8  UNL     1      53.604  26.702  50.003  1.00  0.00     0.144 A 
HETATM   13  N10 UNL     1      52.641  25.889  49.567  1.00  0.00    -0.117 N 
BRANCH  12  14
HETATM   14  C9  UNL     1      54.684  26.409  50.938  1.00  0.00     0.288 C 
HETATM   15  O2  UNL     1      54.543  26.581  52.177  1.00  0.00    -0.264 OA
HETATM   16  N8  UNL     1      55.939  25.916  50.488  1.00  0.00    -0.271 N 
ATOM     17  H8  UNL     1      56.084  25.766  49.489  1.00  0.00     0.189 HD
BRANCH  16  18
HETATM   18  N9  UNL     1      56.979  25.631  51.375  1.00  0.00    -0.342 N 
ATOM     19  H92 UNL     1      57.436  24.723  51.304  1.00  0.00     0.176 HD
ATOM     20  H91 UNL     1      57.284  26.304  52.080  1.00  0.00     0.176 HD
ENDBRANCH  16  18
ENDBRANCH  12  14
BRANCH  13  21
HETATM   21  C10 UNL     1      52.478  24.519  49.949  1.00  0.00     0.196 A 
HETATM   22  N11 UNL     1      53.033  23.427  49.375  1.00  0.00    -0.221 N 
HETATM   23  O3  UNL     1      52.648  22.356  50.008  1.00  0.00    -0.153 OA
ATOM     24  H11 UNL     1      53.657  23.441  48.568  1.00  0.00     0.198 HD
HETATM   25  N12 UNL     1      51.872  22.702  50.966  1.00  0.00    -0.222 N 
HETATM   26  C11 UNL     1      51.714  24.045  50.997  1.00  0.00     0.168 A 
ATOM     27  H12 UNL     1      51.431  22.053  51.617  1.00  0.00     0.198 HD
HETATM   28  N13 UNL     1      51.028  24.783  51.786  1.00  0.00    -0.381 N 
ATOM     29 2H13 UNL     1      50.909  25.796  51.809  1.00  0.00     0.157 HD
ATOM     30 1H13 UNL     1      50.464  24.433  52.560  1.00  0.00     0.157 HD
ENDBRANCH  13  21
ENDBRANCH   5   8
BRANCH   4  31
HETATM   31  N5  UNL     1      51.961  24.896  46.198  1.00  0.00    -0.096 N 
ATOM     32  H5  UNL     1      52.419  25.542  45.554  1.00  0.00     0.213 HD
BRANCH  31  33
HETATM   33  O1  UNL     1      52.402  23.748  46.402  1.00  0.00    -0.276 OA
ATOM     34  H1  UNL     1      52.975  23.391  45.733  1.00  0.00     0.245 HD
ENDBRANCH  31  33
ENDBRANCH   4  31
BRANCH   1  35
HETATM   35  C3  UNL     1      47.198  25.340  47.562  1.00  0.00     0.160 C 
BRANCH  35  36
HETATM   36  N2  UNL     1      46.487  26.004  48.596  1.00  0.00    -0.282 N 
ATOM     37  H2  UNL     1      46.418  27.021  48.584  1.00  0.00     0.188 HD
BRANCH  36  38
HETATM   38  N1  UNL     1      45.886  25.293  49.624  1.00  0.00    -0.299 N 
ATOM     39  H1  UNL     1      45.414  24.426  49.364  1.00  0.00     0.186 HD
BRANCH  38  40
HETATM   40  C2  UNL     1      45.862  25.606  50.845  1.00  0.00     0.072 C 
HETATM   41  C1  UNL     1      44.534  25.801  51.522  1.00  0.00     0.074 C 
BRANCH  40  42
HETATM   42  C12 UNL     1      47.067  25.788  51.636  1.00  0.00     0.157 C 
HETATM   43  N15 UNL     1      46.975  26.029  52.890  1.00  0.00    -0.379 N 
ATOM     44 2H15 UNL     1      46.046  26.087  53.306  1.00  0.00     0.158 HD
ATOM     45 1H15 UNL     1      47.821  26.157  53.445  1.00  0.00     0.158 HD
BRANCH  42  46
HETATM   46  O4  UNL     1      48.330  25.709  51.070  1.00  0.00    -0.345 OA
ATOM     47  H4  UNL     1      49.119  25.761  51.597  1.00  0.00     0.219 HD
ENDBRANCH  42  46
ENDBRANCH  40  42
ENDBRANCH  38  40
ENDBRANCH  36  38
ENDBRANCH  35  36
BRANCH  35  48
HETATM   48  N3  UNL     1      46.615  24.644  46.663  1.00  0.00    -0.381 N 
ATOM     49  H32 UNL     1      46.299  23.702  46.894  1.00  0.00     0.157 HD
ATOM     50  H31 UNL     1      46.451  24.991  45.718  1.00  0.00     0.157 HD
ENDBRANCH  35  48
ENDBRANCH   1  35
TORSDOF 13
ENDMDL
MODEL 4
REMARK VINA RESULT: -6.950589663      2.748      7.020
REMARK  13 active torsions:
REMARK  status: ('A' for Active; 'I' for Inactive)
REMARK    1  A    between atoms: C2_2  and  N1_3 
REMARK    2  A    between atoms: C2_2  and  C12_45 
REMARK    3  A    between atoms: N1_3  and  N2_5 
REMARK    4  A    between atoms: N2_5  and  C3_7 
REMARK    5  A    between atoms: C3_7  and  N3_8 
REMARK    6  A    between atoms: C3_7  and  C4_11 
REMARK    7  A    between atoms: C5_14  and  N5_15 
REMARK    8  A    between atoms: N5_15  and  O1_17 
REMARK    9  A    between atoms: N6_19  and  C6_20 
REMARK   10  A    between atoms: C8_24  and  C9_25 
REMARK       I    between atoms: C9_25  and  N8_27 
REMARK   11  A    between atoms: N8_27  and  N9_29 
REMARK   12  A    between atoms: N10_32  and  C10_33 
REMARK   13  A    between atoms: C12_45  and  O4_49 
ROOT
HETATM    1  C4  UNL     1      55.779  17.920  48.536  1.00  0.00     0.182 A 
HETATM    2  N4  UNL     1      55.360  17.895  49.814  1.00  0.00    -0.167 N 
ATOM      3  H4  UNL     1      55.262  17.045  50.370  1.00  0.00     0.186 HD
HETATM    4  C5  UNL     1      55.087  19.129  50.265  1.00  0.00     0.740 A 
HETATM    5  N6  UNL     1      55.347  19.948  49.231  1.00  0.00     0.094 N 
HETATM    6  N14 UNL     1      55.761  19.242  48.192  1.00  0.00    -0.246 N 
ATOM      7  H14 UNL     1      56.024  19.622  47.282  1.00  0.00     0.190 HD
ENDROOT
BRANCH   5   8
HETATM    8  C6  UNL     1      55.194  21.361  49.271  1.00  0.00     0.727 A 
HETATM    9  N7  UNL     1      55.953  22.256  49.928  1.00  0.00    -0.197 N 
HETATM   10  C7  UNL     1      55.461  23.486  49.700  1.00  0.00     0.142 A 
ATOM     11  H7  UNL     1      56.766  22.037  50.503  1.00  0.00     0.183 HD
HETATM   12  C8  UNL     1      54.362  23.364  48.876  1.00  0.00     0.144 A 
HETATM   13  N10 UNL     1      54.218  22.062  48.627  1.00  0.00    -0.117 N 
BRANCH  12  14
HETATM   14  C9  UNL     1      53.547  24.475  48.398  1.00  0.00     0.288 C 
HETATM   15  O2  UNL     1      52.665  24.308  47.517  1.00  0.00    -0.264 OA
HETATM   16  N8  UNL     1      53.717  25.791  48.909  1.00  0.00    -0.271 N 
ATOM     17  H8  UNL     1      54.424  25.957  49.625  1.00  0.00     0.189 HD
BRANCH  16  18
HETATM   18  N9  UNL     1      52.941  26.861  48.458  1.00  0.00    -0.342 N 
ATOM     19  H92 UNL     1      51.957  26.888  48.726  1.00  0.00     0.176 HD
ATOM     20  H91 UNL     1      53.333  27.602  47.877  1.00  0.00     0.176 HD
ENDBRANCH  16  18
ENDBRANCH  12  14
BRANCH  13  21
HETATM   21  C10 UNL     1      53.195  21.483  47.810  1.00  0.00     0.196 A 
HETATM   22  N11 UNL     1      53.193  21.336  46.465  1.00  0.00    -0.221 N 
HETATM   23  O3  UNL     1      52.085  20.762  46.089  1.00  0.00    -0.153 OA
ATOM     24  H11 UNL     1      53.944  21.630  45.841  1.00  0.00     0.198 HD
HETATM   25  N12 UNL     1      51.371  20.531  47.126  1.00  0.00    -0.222 N 
HETATM   26  C11 UNL     1      51.998  20.953  48.247  1.00  0.00     0.168 A 
ATOM     27  H12 UNL     1      50.453  20.087  47.109  1.00  0.00     0.198 HD
HETATM   28  N13 UNL     1      51.628  20.909  49.472  1.00  0.00    -0.381 N 
ATOM     29 2H13 UNL     1      52.101  21.228  50.318  1.00  0.00     0.157 HD
ATOM     30 1H13 UNL     1      50.744  20.517  49.795  1.00  0.00     0.157 HD
ENDBRANCH  13  21
ENDBRANCH   5   8
BRANCH   4  31
HETATM   31  N5  UNL     1      54.620  19.511  51.570  1.00  0.00    -0.096 N 
ATOM     32  H5  UNL     1      55.229  19.489  52.388  1.00  0.00     0.213 HD
BRANCH  31  33
HETATM   33  O1  UNL     1      53.428  19.872  51.647  1.00  0.00    -0.276 OA
ATOM     34  H1  UNL     1      53.210  20.455  52.365  1.00  0.00     0.245 HD
ENDBRANCH  31  33
ENDBRANCH   4  31
BRANCH   1  35
HETATM   35  C3  UNL     1      56.169  16.795  47.701  1.00  0.00     0.160 C 
BRANCH  35  36
HETATM   36  N2  UNL     1      55.157  15.908  47.248  1.00  0.00    -0.282 N 
ATOM     37  H2  UNL     1      54.669  15.318  47.922  1.00  0.00     0.188 HD
BRANCH  36  38
HETATM   38  N1  UNL     1      54.821  15.830  45.905  1.00  0.00    -0.299 N 
ATOM     39  H1  UNL     1      54.604  14.902  45.542  1.00  0.00     0.186 HD
BRANCH  38  40
HETATM   40  C2  UNL     1      54.755  16.788  45.086  1.00  0.00     0.072 C 
HETATM   41  C1  UNL     1      55.717  16.828  43.932  1.00  0.00     0.074 C 
BRANCH  40  42
HETATM   42  C12 UNL     1      53.785  17.862  45.207  1.00  0.00     0.157 C 
HETATM   43  N15 UNL     1      53.430  18.520  44.168  1.00  0.00    -0.379 N 
ATOM     44 2H15 UNL     1      53.844  18.268  43.269  1.00  0.00     0.158 HD
ATOM     45 1H15 UNL     1      52.749  19.274  44.253  1.00  0.00     0.158 HD
BRANCH  42  46
HETATM   46  O4  UNL     1      53.223  18.205  46.428  1.00  0.00    -0.345 OA
ATOM     47  H4  UNL     1      52.502  18.820  46.492  1.00  0.00     0.219 HD
ENDBRANCH  42  46
ENDBRANCH  40  42
ENDBRANCH  38  40
ENDBRANCH  36  38
ENDBRANCH  35  36
BRANCH  35  48
HETATM   48  N3  UNL     1      57.403  16.641  47.407  1.00  0.00    -0.381 N 
ATOM     49  H32 UNL     1      57.894  17.394  46.923  1.00  0.00     0.157 HD
ATOM     50  H31 UNL     1      57.922  15.793  47.636  1.00  0.00     0.157 HD
ENDBRANCH  35  48
ENDBRANCH   1  35
TORSDOF 13
ENDMDL
MODEL 5
REMARK VINA RESULT: -6.877177462      7.794      9.779
REMARK  13 active torsions:
REMARK  status: ('A' for Active; 'I' for Inactive)
REMARK    1  A    between atoms: C2_2  and  N1_3 
REMARK    2  A    between atoms: C2_2  and  C12_45 
REMARK    3  A    between atoms: N1_3  and  N2_5 
REMARK    4  A    between atoms: N2_5  and  C3_7 
REMARK    5  A    between atoms: C3_7  and  N3_8 
REMARK    6  A    between atoms: C3_7  and  C4_11 
REMARK    7  A    between atoms: C5_14  and  N5_15 
REMARK    8  A    between atoms: N5_15  and  O1_17 
REMARK    9  A    between atoms: N6_19  and  C6_20 
REMARK   10  A    between atoms: C8_24  and  C9_25 
REMARK       I    between atoms: C9_25  and  N8_27 
REMARK   11  A    between atoms: N8_27  and  N9_29 
REMARK   12  A    between atoms: N10_32  and  C10_33 
REMARK   13  A    between atoms: C12_45  and  O4_49 
ROOT
HETATM    1  C4  UNL     1      51.694  24.162  47.460  1.00  0.00     0.182 A 
HETATM    2  N4  UNL     1      51.120  23.826  48.629  1.00  0.00    -0.167 N 
ATOM      3  H4  UNL     1      50.117  23.684  48.756  1.00  0.00     0.186 HD
HETATM    4  C5  UNL     1      52.032  23.700  49.606  1.00  0.00     0.740 A 
HETATM    5  N6  UNL     1      53.213  23.968  49.021  1.00  0.00     0.094 N 
HETATM    6  N14 UNL     1      53.028  24.244  47.741  1.00  0.00    -0.246 N 
ATOM      7  H14 UNL     1      53.762  24.481  47.073  1.00  0.00     0.190 HD
ENDROOT
BRANCH   5   8
HETATM    8  C6  UNL     1      54.463  23.947  49.698  1.00  0.00     0.727 A 
HETATM    9  N7  UNL     1      55.270  22.893  49.912  1.00  0.00    -0.197 N 
HETATM   10  C7  UNL     1      56.352  23.310  50.592  1.00  0.00     0.142 A 
ATOM     11  H7  UNL     1      55.091  21.936  49.608  1.00  0.00     0.183 HD
HETATM   12  C8  UNL     1      56.224  24.665  50.814  1.00  0.00     0.144 A 
HETATM   13  N10 UNL     1      55.067  25.033  50.260  1.00  0.00    -0.117 N 
BRANCH  12  14
HETATM   14  C9  UNL     1      57.194  25.493  51.522  1.00  0.00     0.288 C 
HETATM   15  O2  UNL     1      56.935  25.986  52.650  1.00  0.00    -0.264 OA
HETATM   16  N8  UNL     1      58.471  25.775  50.966  1.00  0.00    -0.271 N 
ATOM     17  H8  UNL     1      58.711  25.389  50.052  1.00  0.00     0.189 HD
BRANCH  16  18
HETATM   18  N9  UNL     1      59.407  26.565  51.636  1.00  0.00    -0.342 N 
ATOM     19  H92 UNL     1      59.066  27.359  52.178  1.00  0.00     0.176 HD
ATOM     20  H91 UNL     1      60.407  26.367  51.594  1.00  0.00     0.176 HD
ENDBRANCH  16  18
ENDBRANCH  12  14
BRANCH  13  21
HETATM   21  C10 UNL     1      54.536  26.362  50.256  1.00  0.00     0.196 A 
HETATM   22  N11 UNL     1      54.750  27.337  49.344  1.00  0.00    -0.221 N 
HETATM   23  O3  UNL     1      54.091  28.408  49.684  1.00  0.00    -0.153 OA
ATOM     24  H11 UNL     1      55.339  27.247  48.516  1.00  0.00     0.198 HD
HETATM   25  N12 UNL     1      53.459  28.172  50.773  1.00  0.00    -0.222 N 
HETATM   26  C11 UNL     1      53.686  26.908  51.197  1.00  0.00     0.168 A 
ATOM     27  H12 UNL     1      52.866  28.846  51.255  1.00  0.00     0.198 HD
HETATM   28  N13 UNL     1      53.250  26.287  52.228  1.00  0.00    -0.381 N 
ATOM     29 2H13 UNL     1      53.421  25.333  52.548  1.00  0.00     0.157 HD
ATOM     30 1H13 UNL     1      52.622  26.691  52.923  1.00  0.00     0.157 HD
ENDBRANCH  13  21
ENDBRANCH   5   8
BRANCH   4  31
HETATM   31  N5  UNL     1      51.811  23.354  50.983  1.00  0.00    -0.096 N 
ATOM     32  H5  UNL     1      52.157  22.480  51.381  1.00  0.00     0.213 HD
BRANCH  31  33
HETATM   33  O1  UNL     1      51.174  24.180  51.666  1.00  0.00    -0.276 OA
ATOM     34  H1  UNL     1      51.650  24.601  52.373  1.00  0.00     0.245 HD
ENDBRANCH  31  33
ENDBRANCH   4  31
BRANCH   1  35
HETATM   35  C3  UNL     1      51.046  24.386  46.178  1.00  0.00     0.160 C 
BRANCH  35  36
HETATM   36  N2  UNL     1      50.209  25.524  46.035  1.00  0.00    -0.282 N 
ATOM     37  H2  UNL     1      50.608  26.456  46.142  1.00  0.00     0.188 HD
BRANCH  36  38
HETATM   38  N1  UNL     1      48.858  25.390  45.753  1.00  0.00    -0.299 N 
ATOM     39  H1  UNL     1      48.564  25.624  44.805  1.00  0.00     0.186 HD
BRANCH  38  40
HETATM   40  C2  UNL     1      47.955  25.008  46.547  1.00  0.00     0.072 C 
HETATM   41  C1  UNL     1      46.957  23.986  46.079  1.00  0.00     0.074 C 
BRANCH  40  42
HETATM   42  C12 UNL     1      47.834  25.511  47.904  1.00  0.00     0.157 C 
HETATM   43  N15 UNL     1      46.698  25.487  48.494  1.00  0.00    -0.379 N 
ATOM     44 2H15 UNL     1      45.897  25.109  47.988  1.00  0.00     0.158 HD
ATOM     45 1H15 UNL     1      46.614  25.841  49.446  1.00  0.00     0.158 HD
BRANCH  42  46
HETATM   46  O4  UNL     1      48.924  26.026  48.591  1.00  0.00    -0.345 OA
ATOM     47  H4  UNL     1      48.822  26.493  49.413  1.00  0.00     0.219 HD
ENDBRANCH  42  46
ENDBRANCH  40  42
ENDBRANCH  38  40
ENDBRANCH  36  38
ENDBRANCH  35  36
BRANCH  35  48
HETATM   48  N3  UNL     1      51.248  23.556  45.228  1.00  0.00    -0.381 N 
ATOM     49  H32 UNL     1      50.478  22.962  44.918  1.00  0.00     0.157 HD
ATOM     50  H31 UNL     1      52.151  23.461  44.763  1.00  0.00     0.157 HD
ENDBRANCH  35  48
ENDBRANCH   1  35
TORSDOF 13
ENDMDL
