MODEL 1
REMARK VINA RESULT: -7.807256323      0.000      0.000
REMARK  10 active torsions:
REMARK  status: ('A' for Active; 'I' for Inactive)
REMARK    1  A    between atoms: O1_2  and  C2_3 
REMARK    2  A    between atoms: C3_6  and  N2_7 
REMARK    3  A    between atoms: C6_12  and  N4_13 
REMARK    4  A    between atoms: C7_16  and  C8_17 
REMARK    5  A    between atoms: C10_21  and  N7_22 
REMARK    6  A    between atoms: C12_30  and  C13_31 
REMARK    7  A    between atoms: C13_31  and  N11_35 
REMARK    8  A    between atoms: N11_35  and  O2_37 
REMARK    9  A    between atoms: O2_37  and  C14_38 
REMARK   10  A    between atoms: C15_43  and  N14_44 
ROOT
HETATM    1  N4  UNL     1      51.833  23.858  48.641  1.00  0.00    -0.066 N 
HETATM    2  N5  UNL     1      50.992  24.075  47.680  1.00  0.00    -0.262 N 
ATOM      3  H5  UNL     1      50.365  24.876  47.758  1.00  0.00     0.190 HD
HETATM    4  C7  UNL     1      50.902  23.301  46.584  1.00  0.00     0.134 A 
HETATM    5  N9  UNL     1      51.723  22.257  46.482  1.00  0.00    -0.334 N 
ATOM      6  H9  UNL     1      51.668  21.661  45.655  1.00  0.00     0.168 HD
HETATM    7  C12 UNL     1      52.645  21.959  47.462  1.00  0.00     0.126 A 
HETATM    8  C15 UNL     1      52.695  22.785  48.565  1.00  0.00     0.170 A 
ENDROOT
BRANCH   1   9
HETATM    9  C6  UNL     1      51.895  24.696  49.776  1.00  0.00     0.723 A 
HETATM   10  N3  UNL     1      51.168  24.469  50.891  1.00  0.00    -0.020 N 
HETATM   11  C3  UNL     1      51.220  25.260  51.976  1.00  0.00     0.697 A 
ATOM     12  H3  UNL     1      50.549  23.660  50.911  1.00  0.00     0.203 HD
HETATM   13  N1  UNL     1      52.023  26.322  51.967  1.00  0.00    -0.154 N 
HETATM   14  C2  UNL     1      52.772  26.600  50.885  1.00  0.00     0.252 A 
ATOM     15  H1  UNL     1      52.071  26.929  52.786  1.00  0.00     0.188 HD
HETATM   16  N15 UNL     1      52.704  25.795  49.811  1.00  0.00    -0.152 N 
ATOM     17  H15 UNL     1      53.275  26.014  48.994  1.00  0.00     0.188 HD
BRANCH  11  18
HETATM   18  N2  UNL     1      50.431  24.987  53.146  1.00  0.00    -0.226 N 
HETATM   19  C4  UNL     1      49.143  25.621  53.249  1.00  0.00     0.168 C 
HETATM   20  C5  UNL     1      50.924  24.112  54.165  1.00  0.00     0.168 C 
ENDBRANCH  11  18
BRANCH  14  21
HETATM   21  O1  UNL     1      53.621  27.696  50.836  1.00  0.00    -0.326 OA
HETATM   22  C1  UNL     1      53.732  28.485  49.683  1.00  0.00     0.213 C 
ENDBRANCH  14  21
ENDBRANCH   1   9
BRANCH   8  23
HETATM   23  N14 UNL     1      53.481  22.649  49.547  1.00  0.00    -0.382 N 
ATOM     24 2H14 UNL     1      53.532  21.831  50.154  1.00  0.00     0.157 HD
ATOM     25 1H14 UNL     1      54.103  23.438  49.722  1.00  0.00     0.157 HD
ENDBRANCH   8  23
BRANCH   4  26
HETATM   26  C8  UNL     1      49.918  23.638  45.561  1.00  0.00     0.041 A 
HETATM   27  C9  UNL     1      50.287  24.230  44.371  1.00  0.00     0.122 A 
HETATM   28  N6  UNL     1      49.351  24.517  43.469  1.00  0.00    -0.201 N 
HETATM   29  C10 UNL     1      48.047  24.260  43.651  1.00  0.00     0.675 A 
ATOM     30  H6  UNL     1      49.640  24.954  42.594  1.00  0.00     0.183 HD
HETATM   31  N8  UNL     1      47.667  23.678  44.816  1.00  0.00    -0.201 N 
HETATM   32  C11 UNL     1      48.572  23.371  45.752  1.00  0.00     0.122 A 
ATOM     33  H8  UNL     1      46.682  23.472  44.980  1.00  0.00     0.183 HD
BRANCH  29  34
HETATM   34  N7  UNL     1      47.211  24.567  42.733  1.00  0.00    -0.234 N 
ATOM     35  H72 UNL     1      47.294  25.421  42.180  1.00  0.00     0.174 HD
ATOM     36  H71 UNL     1      46.427  23.945  42.538  1.00  0.00     0.174 HD
ENDBRANCH  29  34
ENDBRANCH   4  26
BRANCH   7  37
HETATM   37  C13 UNL     1      53.510  20.809  47.292  1.00  0.00     0.150 C 
HETATM   38  N10 UNL     1      54.799  21.017  47.249  1.00  0.00    -0.382 N 
ATOM     39 2H10 UNL     1      55.082  21.993  47.342  1.00  0.00     0.157 HD
ATOM     40 1H10 UNL     1      55.408  20.208  47.130  1.00  0.00     0.157 HD
BRANCH  37  41
HETATM   41  N11 UNL     1      53.121  19.463  47.164  1.00  0.00    -0.240 N 
ATOM     42  H11 UNL     1      53.285  18.788  47.910  1.00  0.00     0.196 HD
BRANCH  41  43
HETATM   43  O2  UNL     1      52.499  19.093  45.971  1.00  0.00    -0.203 OA
BRANCH  43  44
HETATM   44  C14 UNL     1      53.285  18.624  44.919  1.00  0.00     0.249 C 
HETATM   45  N12 UNL     1      54.332  17.939  45.226  1.00  0.00    -0.366 N 
ATOM     46 2H12 UNL     1      54.579  17.746  46.196  1.00  0.00     0.159 HD
ATOM     47 1H12 UNL     1      54.906  17.595  44.456  1.00  0.00     0.159 HD
HETATM   48  N13 UNL     1      52.938  18.893  43.563  1.00  0.00    -0.055 NA
ENDBRANCH  43  44
ENDBRANCH  41  43
ENDBRANCH  37  41
ENDBRANCH   7  37
TORSDOF 10
ENDMDL
MODEL 2
REMARK VINA RESULT: -7.497321239      2.597      6.450
REMARK  10 active torsions:
REMARK  status: ('A' for Active; 'I' for Inactive)
REMARK    1  A    between atoms: O1_2  and  C2_3 
REMARK    2  A    between atoms: C3_6  and  N2_7 
REMARK    3  A    between atoms: C6_12  and  N4_13 
REMARK    4  A    between atoms: C7_16  and  C8_17 
REMARK    5  A    between atoms: C10_21  and  N7_22 
REMARK    6  A    between atoms: C12_30  and  C13_31 
REMARK    7  A    between atoms: C13_31  and  N11_35 
REMARK    8  A    between atoms: N11_35  and  O2_37 
REMARK    9  A    between atoms: O2_37  and  C14_38 
REMARK   10  A    between atoms: C15_43  and  N14_44 
ROOT
HETATM    1  N4  UNL     1      52.459  23.550  48.046  1.00  0.00    -0.066 N 
HETATM    2  N5  UNL     1      53.285  24.181  48.821  1.00  0.00    -0.262 N 
ATOM      3  H5  UNL     1      53.014  25.101  49.168  1.00  0.00     0.190 HD
HETATM    4  C7  UNL     1      54.480  23.687  49.190  1.00  0.00     0.134 A 
HETATM    5  N9  UNL     1      54.831  22.485  48.738  1.00  0.00    -0.334 N 
ATOM      6  H9  UNL     1      55.735  22.096  49.011  1.00  0.00     0.168 HD
HETATM    7  C12 UNL     1      54.009  21.751  47.910  1.00  0.00     0.126 A 
HETATM    8  C15 UNL     1      52.795  22.304  47.561  1.00  0.00     0.170 A 
ENDROOT
BRANCH   1   9
HETATM    9  C6  UNL     1      51.213  24.104  47.682  1.00  0.00     0.723 A 
HETATM   10  N3  UNL     1      50.696  23.984  46.440  1.00  0.00    -0.020 N 
HETATM   11  C3  UNL     1      49.511  24.507  46.083  1.00  0.00     0.697 A 
ATOM     12  H3  UNL     1      51.232  23.473  45.739  1.00  0.00     0.203 HD
HETATM   13  N1  UNL     1      48.800  25.179  46.986  1.00  0.00    -0.154 N 
HETATM   14  C2  UNL     1      49.262  25.332  48.240  1.00  0.00     0.252 A 
ATOM     15  H1  UNL     1      47.898  25.580  46.726  1.00  0.00     0.188 HD
HETATM   16  N15 UNL     1      50.450  24.800  48.575  1.00  0.00    -0.152 N 
ATOM     17  H15 UNL     1      50.793  24.921  49.528  1.00  0.00     0.188 HD
BRANCH  11  18
HETATM   18  N2  UNL     1      48.993  24.359  44.750  1.00  0.00    -0.226 N 
HETATM   19  C4  UNL     1      49.831  24.772  43.656  1.00  0.00     0.168 C 
HETATM   20  C5  UNL     1      47.687  23.817  44.537  1.00  0.00     0.168 C 
ENDBRANCH  11  18
BRANCH  14  21
HETATM   21  O1  UNL     1      48.552  26.024  49.209  1.00  0.00    -0.326 OA
HETATM   22  C1  UNL     1      47.152  25.991  49.255  1.00  0.00     0.213 C 
ENDBRANCH  14  21
ENDBRANCH   1   9
BRANCH   8  23
HETATM   23  N14 UNL     1      51.931  21.761  46.814  1.00  0.00    -0.382 N 
ATOM     24 2H14 UNL     1      51.061  21.333  47.132  1.00  0.00     0.157 HD
ATOM     25 1H14 UNL     1      52.148  21.766  45.818  1.00  0.00     0.157 HD
ENDBRANCH   8  23
BRANCH   4  26
HETATM   26  C8  UNL     1      55.332  24.484  50.067  1.00  0.00     0.041 A 
HETATM   27  C9  UNL     1      56.480  23.963  50.627  1.00  0.00     0.122 A 
HETATM   28  N6  UNL     1      57.224  24.731  51.419  1.00  0.00    -0.201 N 
HETATM   29  C10 UNL     1      56.919  26.004  51.712  1.00  0.00     0.675 A 
ATOM     30  H6  UNL     1      58.070  24.331  51.824  1.00  0.00     0.183 HD
HETATM   31  N8  UNL     1      55.792  26.532  51.170  1.00  0.00    -0.201 N 
HETATM   32  C11 UNL     1      55.014  25.798  50.367  1.00  0.00     0.122 A 
ATOM     33  H8  UNL     1      55.537  27.497  51.376  1.00  0.00     0.183 HD
BRANCH  29  34
HETATM   34  N7  UNL     1      57.688  26.675  52.483  1.00  0.00    -0.234 N 
ATOM     35  H72 UNL     1      57.448  26.877  53.454  1.00  0.00     0.174 HD
ATOM     36  H71 UNL     1      58.577  27.026  52.126  1.00  0.00     0.174 HD
ENDBRANCH  29  34
ENDBRANCH   4  26
BRANCH   7  37
HETATM   37  C13 UNL     1      54.449  20.449  47.451  1.00  0.00     0.150 C 
HETATM   38  N10 UNL     1      55.617  20.371  46.869  1.00  0.00    -0.382 N 
ATOM     39 2H10 UNL     1      56.119  21.255  46.791  1.00  0.00     0.157 HD
ATOM     40 1H10 UNL     1      55.927  19.455  46.547  1.00  0.00     0.157 HD
BRANCH  37  41
HETATM   41  N11 UNL     1      53.756  19.230  47.559  1.00  0.00    -0.240 N 
ATOM     42  H11 UNL     1      53.903  18.601  48.349  1.00  0.00     0.196 HD
BRANCH  41  43
HETATM   43  O2  UNL     1      52.859  18.918  46.537  1.00  0.00    -0.203 OA
BRANCH  43  44
HETATM   44  C14 UNL     1      53.356  18.435  45.326  1.00  0.00     0.249 C 
HETATM   45  N12 UNL     1      54.179  17.446  45.381  1.00  0.00    -0.366 N 
ATOM     46 2H12 UNL     1      54.458  17.030  46.269  1.00  0.00     0.159 HD
ATOM     47 1H12 UNL     1      54.543  17.093  44.495  1.00  0.00     0.159 HD
HETATM   48  N13 UNL     1      52.965  19.016  44.085  1.00  0.00    -0.055 NA
ENDBRANCH  43  44
ENDBRANCH  41  43
ENDBRANCH  37  41
ENDBRANCH   7  37
TORSDOF 10
ENDMDL
MODEL 3
REMARK VINA RESULT: -7.481954951      2.345      5.927
REMARK  10 active torsions:
REMARK  status: ('A' for Active; 'I' for Inactive)
REMARK    1  A    between atoms: O1_2  and  C2_3 
REMARK    2  A    between atoms: C3_6  and  N2_7 
REMARK    3  A    between atoms: C6_12  and  N4_13 
REMARK    4  A    between atoms: C7_16  and  C8_17 
REMARK    5  A    between atoms: C10_21  and  N7_22 
REMARK    6  A    between atoms: C12_30  and  C13_31 
REMARK    7  A    between atoms: C13_31  and  N11_35 
REMARK    8  A    between atoms: N11_35  and  O2_37 
REMARK    9  A    between atoms: O2_37  and  C14_38 
REMARK   10  A    between atoms: C15_43  and  N14_44 
ROOT
HETATM    1  N4  UNL     1      52.487  22.748  48.669  1.00  0.00    -0.066 N 
HETATM    2  N5  UNL     1      53.005  21.637  48.251  1.00  0.00    -0.262 N 
ATOM      3  H5  UNL     1      53.603  21.112  48.889  1.00  0.00     0.190 HD
HETATM    4  C7  UNL     1      52.797  21.139  47.019  1.00  0.00     0.134 A 
HETATM    5  N9  UNL     1      52.015  21.825  46.187  1.00  0.00    -0.334 N 
ATOM      6  H9  UNL     1      51.847  21.460  45.249  1.00  0.00     0.168 HD
HETATM    7  C12 UNL     1      51.427  23.016  46.557  1.00  0.00     0.126 A 
HETATM    8  C15 UNL     1      51.674  23.481  47.832  1.00  0.00     0.170 A 
ENDROOT
BRANCH   1   9
HETATM    9  C6  UNL     1      52.731  23.236  49.972  1.00  0.00     0.723 A 
HETATM   10  N3  UNL     1      53.838  23.940  50.292  1.00  0.00    -0.020 N 
HETATM   11  C3  UNL     1      54.079  24.409  51.528  1.00  0.00     0.697 A 
ATOM     12  H3  UNL     1      54.524  24.124  49.561  1.00  0.00     0.203 HD
HETATM   13  N1  UNL     1      53.193  24.177  52.494  1.00  0.00    -0.154 N 
HETATM   14  C2  UNL     1      52.071  23.482  52.236  1.00  0.00     0.252 A 
ATOM     15  H1  UNL     1      53.365  24.529  53.436  1.00  0.00     0.188 HD
HETATM   16  N15 UNL     1      51.850  23.022  50.993  1.00  0.00    -0.152 N 
ATOM     17  H15 UNL     1      50.996  22.496  50.807  1.00  0.00     0.188 HD
BRANCH  11  18
HETATM   18  N2  UNL     1      55.270  25.155  51.832  1.00  0.00    -0.226 N 
HETATM   19  C4  UNL     1      56.410  24.975  50.973  1.00  0.00     0.168 C 
HETATM   20  C5  UNL     1      55.303  26.042  52.954  1.00  0.00     0.168 C 
ENDBRANCH  11  18
BRANCH  14  21
HETATM   21  O1  UNL     1      51.124  23.219  53.215  1.00  0.00    -0.326 OA
HETATM   22  C1  UNL     1      50.446  24.253  53.874  1.00  0.00     0.213 C 
ENDBRANCH  14  21
ENDBRANCH   1   9
BRANCH   8  23
HETATM   23  N14 UNL     1      51.212  24.551  48.322  1.00  0.00    -0.382 N 
ATOM     24 2H14 UNL     1      51.111  24.749  49.318  1.00  0.00     0.157 HD
ATOM     25 1H14 UNL     1      50.925  25.256  47.644  1.00  0.00     0.157 HD
ENDBRANCH   8  23
BRANCH   4  26
HETATM   26  C8  UNL     1      53.431  19.877  46.651  1.00  0.00     0.041 A 
HETATM   27  C9  UNL     1      53.075  19.198  45.504  1.00  0.00     0.122 A 
HETATM   28  N6  UNL     1      53.684  18.051  45.213  1.00  0.00    -0.201 N 
HETATM   29  C10 UNL     1      54.639  17.505  45.980  1.00  0.00     0.675 A 
ATOM     30  H6  UNL     1      53.410  17.561  44.361  1.00  0.00     0.183 HD
HETATM   31  N8  UNL     1      55.000  18.161  47.113  1.00  0.00    -0.201 N 
HETATM   32  C11 UNL     1      54.417  19.317  47.447  1.00  0.00     0.122 A 
ATOM     33  H8  UNL     1      55.723  17.768  47.715  1.00  0.00     0.183 HD
BRANCH  29  34
HETATM   34  N7  UNL     1      55.174  16.398  45.628  1.00  0.00    -0.234 N 
ATOM     35  H72 UNL     1      55.948  16.352  44.964  1.00  0.00     0.174 HD
ATOM     36  H71 UNL     1      54.824  15.524  46.019  1.00  0.00     0.174 HD
ENDBRANCH  29  34
ENDBRANCH   4  26
BRANCH   7  37
HETATM   37  C13 UNL     1      50.588  23.715  45.606  1.00  0.00     0.150 C 
HETATM   38  N10 UNL     1      51.174  24.473  44.717  1.00  0.00    -0.382 N 
ATOM     39 2H10 UNL     1      52.192  24.501  44.779  1.00  0.00     0.157 HD
ATOM     40 1H10 UNL     1      50.583  24.964  44.047  1.00  0.00     0.157 HD
BRANCH  37  41
HETATM   41  N11 UNL     1      49.184  23.676  45.521  1.00  0.00    -0.240 N 
ATOM     42  H11 UNL     1      48.607  23.468  46.335  1.00  0.00     0.196 HD
BRANCH  41  43
HETATM   43  O2  UNL     1      48.617  23.934  44.273  1.00  0.00    -0.203 OA
BRANCH  43  44
HETATM   44  C14 UNL     1      47.251  23.716  44.094  1.00  0.00     0.249 C 
HETATM   45  N12 UNL     1      46.899  22.965  43.108  1.00  0.00    -0.366 N 
ATOM     46 2H12 UNL     1      47.586  22.547  42.482  1.00  0.00     0.159 HD
ATOM     47 1H12 UNL     1      45.900  22.806  42.978  1.00  0.00     0.159 HD
HETATM   48  N13 UNL     1      46.291  24.301  44.970  1.00  0.00    -0.055 NA
ENDBRANCH  43  44
ENDBRANCH  41  43
ENDBRANCH  37  41
ENDBRANCH   7  37
TORSDOF 10
ENDMDL
MODEL 4
REMARK VINA RESULT: -7.459985420      2.794      5.920
REMARK  10 active torsions:
REMARK  status: ('A' for Active; 'I' for Inactive)
REMARK    1  A    between atoms: O1_2  and  C2_3 
REMARK    2  A    between atoms: C3_6  and  N2_7 
REMARK    3  A    between atoms: C6_12  and  N4_13 
REMARK    4  A    between atoms: C7_16  and  C8_17 
REMARK    5  A    between atoms: C10_21  and  N7_22 
REMARK    6  A    between atoms: C12_30  and  C13_31 
REMARK    7  A    between atoms: C13_31  and  N11_35 
REMARK    8  A    between atoms: N11_35  and  O2_37 
REMARK    9  A    between atoms: O2_37  and  C14_38 
REMARK   10  A    between atoms: C15_43  and  N14_44 
ROOT
HETATM    1  N4  UNL     1      53.449  23.737  47.846  1.00  0.00    -0.066 N 
HETATM    2  N5  UNL     1      53.739  22.490  47.649  1.00  0.00    -0.262 N 
ATOM      3  H5  UNL     1      54.517  22.086  48.172  1.00  0.00     0.190 HD
HETATM    4  C7  UNL     1      53.069  21.699  46.792  1.00  0.00     0.134 A 
HETATM    5  N9  UNL     1      52.053  22.227  46.111  1.00  0.00    -0.334 N 
ATOM      6  H9  UNL     1      51.535  21.639  45.458  1.00  0.00     0.168 HD
HETATM    7  C12 UNL     1      51.683  23.546  46.265  1.00  0.00     0.126 A 
HETATM    8  C15 UNL     1      52.404  24.313  47.157  1.00  0.00     0.170 A 
ENDROOT
BRANCH   1   9
HETATM    9  C6  UNL     1      54.178  24.534  48.756  1.00  0.00     0.723 A 
HETATM   10  N3  UNL     1      55.179  24.042  49.517  1.00  0.00    -0.020 N 
HETATM   11  C3  UNL     1      55.879  24.791  50.385  1.00  0.00     0.697 A 
ATOM     12  H3  UNL     1      55.415  23.054  49.429  1.00  0.00     0.203 HD
HETATM   13  N1  UNL     1      55.583  26.083  50.513  1.00  0.00    -0.154 N 
HETATM   14  C2  UNL     1      54.596  26.631  49.782  1.00  0.00     0.252 A 
ATOM     15  H1  UNL     1      56.109  26.661  51.169  1.00  0.00     0.188 HD
HETATM   16  N15 UNL     1      53.909  25.863  48.920  1.00  0.00    -0.152 N 
ATOM     17  H15 UNL     1      53.162  26.286  48.369  1.00  0.00     0.188 HD
BRANCH  11  18
HETATM   18  N2  UNL     1      56.939  24.232  51.180  1.00  0.00    -0.226 N 
HETATM   19  C4  UNL     1      56.736  22.923  51.742  1.00  0.00     0.168 C 
HETATM   20  C5  UNL     1      58.148  24.965  51.393  1.00  0.00     0.168 C 
ENDBRANCH  11  18
BRANCH  14  21
HETATM   21  O1  UNL     1      54.258  27.972  49.885  1.00  0.00    -0.326 OA
HETATM   22  C1  UNL     1      53.112  28.487  49.265  1.00  0.00     0.213 C 
ENDBRANCH  14  21
ENDBRANCH   1   9
BRANCH   8  23
HETATM   23  N14 UNL     1      52.191  25.533  47.411  1.00  0.00    -0.382 N 
ATOM     24 2H14 UNL     1      52.015  25.921  48.338  1.00  0.00     0.157 HD
ATOM     25 1H14 UNL     1      52.202  26.157  46.604  1.00  0.00     0.157 HD
ENDBRANCH   8  23
BRANCH   4  26
HETATM   26  C8  UNL     1      53.481  20.307  46.648  1.00  0.00     0.041 A 
HETATM   27  C9  UNL     1      52.975  19.504  45.646  1.00  0.00     0.122 A 
HETATM   28  N6  UNL     1      53.383  18.241  45.556  1.00  0.00    -0.201 N 
HETATM   29  C10 UNL     1      54.273  17.690  46.396  1.00  0.00     0.675 A 
ATOM     30  H6  UNL     1      53.000  17.661  44.810  1.00  0.00     0.183 HD
HETATM   31  N8  UNL     1      54.780  18.467  47.387  1.00  0.00    -0.201 N 
HETATM   32  C11 UNL     1      54.400  19.742  47.517  1.00  0.00     0.122 A 
ATOM     33  H8  UNL     1      55.458  18.073  48.040  1.00  0.00     0.183 HD
BRANCH  29  34
HETATM   34  N7  UNL     1      54.613  16.467  46.240  1.00  0.00    -0.234 N 
ATOM     35  H72 UNL     1      54.783  16.060  45.321  1.00  0.00     0.174 HD
ATOM     36  H71 UNL     1      54.721  15.867  47.058  1.00  0.00     0.174 HD
ENDBRANCH  29  34
ENDBRANCH   4  26
BRANCH   7  37
HETATM   37  C13 UNL     1      50.569  24.061  45.495  1.00  0.00     0.150 C 
HETATM   38  N10 UNL     1      50.819  24.536  44.304  1.00  0.00    -0.382 N 
ATOM     39 2H10 UNL     1      51.799  24.499  44.022  1.00  0.00     0.157 HD
ATOM     40 1H10 UNL     1      50.035  24.898  43.762  1.00  0.00     0.157 HD
BRANCH  37  41
HETATM   41  N11 UNL     1      49.218  24.112  45.884  1.00  0.00    -0.240 N 
ATOM     42  H11 UNL     1      48.887  24.789  46.571  1.00  0.00     0.196 HD
BRANCH  41  43
HETATM   43  O2  UNL     1      48.351  23.197  45.287  1.00  0.00    -0.203 OA
BRANCH  43  44
HETATM   44  C14 UNL     1      47.255  23.675  44.568  1.00  0.00     0.249 C 
HETATM   45  N12 UNL     1      47.159  23.317  43.335  1.00  0.00    -0.366 N 
ATOM     46 2H12 UNL     1      47.852  22.710  42.898  1.00  0.00     0.159 HD
ATOM     47 1H12 UNL     1      46.357  23.667  42.809  1.00  0.00     0.159 HD
HETATM   48  N13 UNL     1      46.286  24.523  45.179  1.00  0.00    -0.055 NA
ENDBRANCH  43  44
ENDBRANCH  41  43
ENDBRANCH  37  41
ENDBRANCH   7  37
TORSDOF 10
ENDMDL
MODEL 5
REMARK VINA RESULT: -7.446938814      2.878      6.135
REMARK  10 active torsions:
REMARK  status: ('A' for Active; 'I' for Inactive)
REMARK    1  A    between atoms: O1_2  and  C2_3 
REMARK    2  A    between atoms: C3_6  and  N2_7 
REMARK    3  A    between atoms: C6_12  and  N4_13 
REMARK    4  A    between atoms: C7_16  and  C8_17 
REMARK    5  A    between atoms: C10_21  and  N7_22 
REMARK    6  A    between atoms: C12_30  and  C13_31 
REMARK    7  A    between atoms: C13_31  and  N11_35 
REMARK    8  A    between atoms: N11_35  and  O2_37 
REMARK    9  A    between atoms: O2_37  and  C14_38 
REMARK   10  A    between atoms: C15_43  and  N14_44 
ROOT
HETATM    1  N4  UNL     1      53.438  23.735  47.873  1.00  0.00    -0.066 N 
HETATM    2  N5  UNL     1      53.735  22.491  47.664  1.00  0.00    -0.262 N 
ATOM      3  H5  UNL     1      54.524  22.090  48.172  1.00  0.00     0.190 HD
HETATM    4  C7  UNL     1      53.058  21.700  46.813  1.00  0.00     0.134 A 
HETATM    5  N9  UNL     1      52.026  22.224  46.152  1.00  0.00    -0.334 N 
ATOM      6  H9  UNL     1      51.502  21.636  45.503  1.00  0.00     0.168 HD
HETATM    7  C12 UNL     1      51.648  23.539  46.319  1.00  0.00     0.126 A 
HETATM    8  C15 UNL     1      52.377  24.306  47.204  1.00  0.00     0.170 A 
ENDROOT
BRANCH   1   9
HETATM    9  C6  UNL     1      54.176  24.531  48.776  1.00  0.00     0.723 A 
HETATM   10  N3  UNL     1      55.189  24.042  49.522  1.00  0.00    -0.020 N 
HETATM   11  C3  UNL     1      55.897  24.791  50.383  1.00  0.00     0.697 A 
ATOM     12  H3  UNL     1      55.428  23.055  49.427  1.00  0.00     0.203 HD
HETATM   13  N1  UNL     1      55.597  26.081  50.519  1.00  0.00    -0.154 N 
HETATM   14  C2  UNL     1      54.597  26.627  49.804  1.00  0.00     0.252 A 
ATOM     15  H1  UNL     1      56.128  26.660  51.170  1.00  0.00     0.188 HD
HETATM   16  N15 UNL     1      53.902  25.859  48.948  1.00  0.00    -0.152 N 
ATOM     17  H15 UNL     1      53.146  26.280  48.409  1.00  0.00     0.188 HD
BRANCH  11  18
HETATM   18  N2  UNL     1      56.970  24.234  51.161  1.00  0.00    -0.226 N 
HETATM   19  C4  UNL     1      56.861  22.857  51.564  1.00  0.00     0.168 C 
HETATM   20  C5  UNL     1      58.101  25.036  51.514  1.00  0.00     0.168 C 
ENDBRANCH  11  18
BRANCH  14  21
HETATM   21  O1  UNL     1      54.254  27.966  49.916  1.00  0.00    -0.326 OA
HETATM   22  C1  UNL     1      53.127  28.489  49.269  1.00  0.00     0.213 C 
ENDBRANCH  14  21
ENDBRANCH   1   9
BRANCH   8  23
HETATM   23  N14 UNL     1      52.159  25.523  47.469  1.00  0.00    -0.382 N 
ATOM     24 2H14 UNL     1      52.739  26.109  48.070  1.00  0.00     0.157 HD
ATOM     25 1H14 UNL     1      51.329  25.924  47.033  1.00  0.00     0.157 HD
ENDBRANCH   8  23
BRANCH   4  26
HETATM   26  C8  UNL     1      53.478  20.312  46.653  1.00  0.00     0.041 A 
HETATM   27  C9  UNL     1      52.968  19.514  45.650  1.00  0.00     0.122 A 
HETATM   28  N6  UNL     1      53.385  18.254  45.546  1.00  0.00    -0.201 N 
HETATM   29  C10 UNL     1      54.286  17.703  46.373  1.00  0.00     0.675 A 
ATOM     30  H6  UNL     1      52.999  17.677  44.799  1.00  0.00     0.183 HD
HETATM   31  N8  UNL     1      54.797  18.475  47.366  1.00  0.00    -0.201 N 
HETATM   32  C11 UNL     1      54.409  19.747  47.509  1.00  0.00     0.122 A 
ATOM     33  H8  UNL     1      55.483  18.081  48.009  1.00  0.00     0.183 HD
BRANCH  29  34
HETATM   34  N7  UNL     1      54.633  16.484  46.205  1.00  0.00    -0.234 N 
ATOM     35  H72 UNL     1      55.515  16.223  45.764  1.00  0.00     0.174 HD
ATOM     36  H71 UNL     1      54.014  15.736  46.517  1.00  0.00     0.174 HD
ENDBRANCH  29  34
ENDBRANCH   4  26
BRANCH   7  37
HETATM   37  C13 UNL     1      50.518  24.049  45.571  1.00  0.00     0.150 C 
HETATM   38  N10 UNL     1      50.714  24.380  44.322  1.00  0.00    -0.382 N 
ATOM     39 2H10 UNL     1      51.666  24.244  43.984  1.00  0.00     0.157 HD
ATOM     40 1H10 UNL     1      49.918  24.739  43.795  1.00  0.00     0.157 HD
BRANCH  37  41
HETATM   41  N11 UNL     1      49.204  24.237  46.036  1.00  0.00    -0.240 N 
ATOM     42  H11 UNL     1      48.507  23.495  45.976  1.00  0.00     0.196 HD
BRANCH  41  43
HETATM   43  O2  UNL     1      48.897  25.482  46.584  1.00  0.00    -0.203 OA
BRANCH  43  44
HETATM   44  C14 UNL     1      48.394  25.542  47.884  1.00  0.00     0.249 C 
HETATM   45  N12 UNL     1      47.123  25.392  48.031  1.00  0.00    -0.366 N 
ATOM     46 2H12 UNL     1      46.507  25.237  47.234  1.00  0.00     0.159 HD
ATOM     47 1H12 UNL     1      46.756  25.436  48.982  1.00  0.00     0.159 HD
HETATM   48  N13 UNL     1      49.256  25.758  48.998  1.00  0.00    -0.055 NA
ENDBRANCH  43  44
ENDBRANCH  41  43
ENDBRANCH  37  41
ENDBRANCH   7  37
TORSDOF 10
ENDMDL
