MODEL 1
REMARK VINA RESULT: -7.897246702      0.000      0.000
REMARK  13 active torsions:
REMARK  status: ('A' for Active; 'I' for Inactive)
REMARK    1  A    between atoms: N1_1  and  O1_4 
REMARK    2  A    between atoms: O1_4  and  C1_5 
REMARK       I    between atoms: C1_5  and  N2_7 
REMARK    3  A    between atoms: N2_7  and  C2_9 
REMARK    4  A    between atoms: C7_15  and  O4_16 
REMARK    5  A    between atoms: O4_16  and  C8_17 
REMARK    6  A    between atoms: C8_17  and  O5_18 
REMARK    7  A    between atoms: C8_17  and  N3_20 
REMARK    8  A    between atoms: N3_20  and  O6_22 
REMARK    9  A    between atoms: C11_27  and  C12_28 
REMARK   10  A    between atoms: C12_28  and  N4_29 
REMARK   11  A    between atoms: N4_29  and  N5_31 
REMARK   12  A    between atoms: C14_36  and  O11_37 
REMARK   13  A    between atoms: C14_36  and  O12_39 
ROOT
HETATM    1  C2  UNL     1      53.472  21.983  47.795  1.00  0.00     0.100 A 
HETATM    2  C3  UNL     1      52.696  23.141  47.773  1.00  0.00     0.025 A 
HETATM    3  C4  UNL     1      51.682  23.891  47.168  1.00  0.00     0.036 A 
HETATM    4  C5  UNL     1      51.352  25.113  47.716  1.00  0.00     0.021 A 
HETATM    5  C6  UNL     1      52.018  25.561  48.829  1.00  0.00     0.214 A 
HETATM    6  O3  UNL     1      51.689  26.694  49.310  1.00  0.00    -0.285 OA
HETATM    7  C7  UNL     1      53.039  24.842  49.464  1.00  0.00     0.139 A 
HETATM    8  C9  UNL     1      53.390  23.624  48.945  1.00  0.00     0.067 A 
HETATM    9  C10 UNL     1      54.111  22.471  48.907  1.00  0.00     0.213 A 
HETATM   10  O7  UNL     1      55.053  22.030  49.667  1.00  0.00    -0.285 OA
HETATM   11  C11 UNL     1      50.250  25.734  46.914  1.00  0.00     0.119 C 
HETATM   12  C13 UNL     1      50.288  24.946  45.668  1.00  0.00     0.203 C 
HETATM   13  O10 UNL     1      49.913  25.347  44.580  1.00  0.00    -0.291 OA
HETATM   14  C14 UNL     1      50.854  23.616  45.998  1.00  0.00     0.255 C 
ENDROOT
BRANCH   1  15
HETATM   15  N2  UNL     1      53.496  20.837  46.953  1.00  0.00    -0.297 N 
HETATM   16  C1  UNL     1      52.401  20.010  46.715  1.00  0.00     0.386 C 
HETATM   17  O2  UNL     1      51.294  20.239  47.248  1.00  0.00    -0.236 OA
ATOM     18  H2  UNL     1      54.376  20.605  46.492  1.00  0.00     0.171 HD
BRANCH  16  19
HETATM   19  O1  UNL     1      52.488  18.901  45.878  1.00  0.00    -0.188 OA
BRANCH  19  20
HETATM   20  N1  UNL     1      53.517  18.020  46.022  1.00  0.00    -0.301 N 
ATOM     21  H12 UNL     1      54.254  18.000  45.318  1.00  0.00     0.184 HD
ATOM     22  H11 UNL     1      53.541  17.391  46.826  1.00  0.00     0.184 HD
ENDBRANCH  19  20
ENDBRANCH  16  19
ENDBRANCH   1  15
BRANCH  14  23
HETATM   23  O11 UNL     1      49.842  22.688  46.235  1.00  0.00    -0.356 OA
ATOM     24  H11 UNL     1      49.009  22.923  45.843  1.00  0.00     0.214 HD
ENDBRANCH  14  23
BRANCH  14  25
HETATM   25  O12 UNL     1      51.589  23.144  44.905  1.00  0.00    -0.356 OA
ATOM     26  H12 UNL     1      51.635  22.195  44.869  1.00  0.00     0.214 HD
ENDBRANCH  14  25
BRANCH   7  27
HETATM   27  O4  UNL     1      53.625  25.413  50.580  1.00  0.00    -0.296 OA
BRANCH  27  28
HETATM   28  C8  UNL     1      54.752  26.246  50.575  1.00  0.00     0.394 C 
BRANCH  28  29
HETATM   29  O5  UNL     1      55.941  25.492  50.464  1.00  0.00    -0.353 OA
ATOM     30  H5  UNL     1      56.378  25.662  49.638  1.00  0.00     0.214 HD
ENDBRANCH  28  29
BRANCH  28  31
HETATM   31  N3  UNL     1      54.747  27.126  49.439  1.00  0.00    -0.252 N 
ATOM     32  H3  UNL     1      55.140  26.847  48.541  1.00  0.00     0.192 HD
BRANCH  31  33
HETATM   33  O6  UNL     1      54.202  28.320  49.624  1.00  0.00    -0.290 OA
ATOM     34  H6  UNL     1      53.604  28.618  48.949  1.00  0.00     0.244 HD
ENDBRANCH  31  33
ENDBRANCH  28  31
ENDBRANCH  27  28
ENDBRANCH   7  27
BRANCH  11  35
HETATM   35  C12 UNL     1      48.912  25.548  47.601  1.00  0.00     0.163 C 
BRANCH  35  36
HETATM   36  N4  UNL     1      48.034  24.911  46.661  1.00  0.00    -0.276 N 
ATOM     37  H4  UNL     1      48.340  24.074  46.163  1.00  0.00     0.186 HD
BRANCH  36  38
HETATM   38  N5  UNL     1      46.772  25.432  46.429  1.00  0.00    -0.043 N 
HETATM   39  O8  UNL     1      45.979  24.957  45.562  1.00  0.00    -0.517 OA
HETATM   40  O9  UNL     1      46.397  26.527  47.205  1.00  0.00    -0.517 OA
ENDBRANCH  36  38
ENDBRANCH  35  36
ENDBRANCH  11  35
TORSDOF 13
ENDMDL
MODEL 2
REMARK VINA RESULT: -7.684600922      5.197      9.737
REMARK  13 active torsions:
REMARK  status: ('A' for Active; 'I' for Inactive)
REMARK    1  A    between atoms: N1_1  and  O1_4 
REMARK    2  A    between atoms: O1_4  and  C1_5 
REMARK       I    between atoms: C1_5  and  N2_7 
REMARK    3  A    between atoms: N2_7  and  C2_9 
REMARK    4  A    between atoms: C7_15  and  O4_16 
REMARK    5  A    between atoms: O4_16  and  C8_17 
REMARK    6  A    between atoms: C8_17  and  O5_18 
REMARK    7  A    between atoms: C8_17  and  N3_20 
REMARK    8  A    between atoms: N3_20  and  O6_22 
REMARK    9  A    between atoms: C11_27  and  C12_28 
REMARK   10  A    between atoms: C12_28  and  N4_29 
REMARK   11  A    between atoms: N4_29  and  N5_31 
REMARK   12  A    between atoms: C14_36  and  O11_37 
REMARK   13  A    between atoms: C14_36  and  O12_39 
ROOT
HETATM    1  C2  UNL     1      55.446  18.492  50.045  1.00  0.00     0.100 A 
HETATM    2  C3  UNL     1      55.628  18.058  48.733  1.00  0.00     0.025 A 
HETATM    3  C4  UNL     1      56.162  17.116  47.847  1.00  0.00     0.036 A 
HETATM    4  C5  UNL     1      55.951  17.291  46.496  1.00  0.00     0.021 A 
HETATM    5  C6  UNL     1      55.233  18.373  46.055  1.00  0.00     0.214 A 
HETATM    6  O3  UNL     1      55.056  18.505  44.799  1.00  0.00    -0.285 OA
HETATM    7  C7  UNL     1      54.682  19.338  46.907  1.00  0.00     0.139 A 
HETATM    8  C9  UNL     1      54.872  19.193  48.256  1.00  0.00     0.067 A 
HETATM    9  C10 UNL     1      54.733  19.558  49.559  1.00  0.00     0.213 A 
HETATM   10  O7  UNL     1      54.134  20.561  50.102  1.00  0.00    -0.285 OA
HETATM   11  C11 UNL     1      56.605  16.173  45.743  1.00  0.00     0.119 C 
HETATM   12  C13 UNL     1      57.518  15.607  46.755  1.00  0.00     0.203 C 
HETATM   13  O10 UNL     1      58.548  15.006  46.503  1.00  0.00    -0.291 OA
HETATM   14  C14 UNL     1      56.947  15.909  48.090  1.00  0.00     0.255 C 
ENDROOT
BRANCH   1  15
HETATM   15  N2  UNL     1      55.874  17.960  51.293  1.00  0.00    -0.297 N 
HETATM   16  C1  UNL     1      55.594  16.670  51.738  1.00  0.00     0.386 C 
HETATM   17  O2  UNL     1      54.927  15.878  51.037  1.00  0.00    -0.236 OA
ATOM     18  H2  UNL     1      56.423  18.564  51.904  1.00  0.00     0.171 HD
BRANCH  16  19
HETATM   19  O1  UNL     1      56.043  16.206  52.971  1.00  0.00    -0.188 OA
BRANCH  19  20
HETATM   20  N1  UNL     1      55.163  16.047  53.998  1.00  0.00    -0.301 N 
ATOM     21  H12 UNL     1      54.401  16.717  54.106  1.00  0.00     0.184 HD
ATOM     22  H11 UNL     1      55.273  15.267  54.648  1.00  0.00     0.184 HD
ENDBRANCH  19  20
ENDBRANCH  16  19
ENDBRANCH   1  15
BRANCH  14  23
HETATM   23  O11 UNL     1      56.193  14.837  48.564  1.00  0.00    -0.356 OA
ATOM     24  H11 UNL     1      56.363  14.625  49.474  1.00  0.00     0.214 HD
ENDBRANCH  14  23
BRANCH  14  25
HETATM   25  O12 UNL     1      57.989  16.107  49.003  1.00  0.00    -0.356 OA
ATOM     26  H12 UNL     1      58.814  15.733  48.714  1.00  0.00     0.214 HD
ENDBRANCH  14  25
BRANCH   7  27
HETATM   27  O4  UNL     1      53.977  20.379  46.326  1.00  0.00    -0.296 OA
BRANCH  27  28
HETATM   28  C8  UNL     1      52.587  20.547  46.367  1.00  0.00     0.394 C 
BRANCH  28  29
HETATM   29  O5  UNL     1      51.926  19.302  46.452  1.00  0.00    -0.353 OA
ATOM     30  H5  UNL     1      52.460  18.662  46.906  1.00  0.00     0.214 HD
ENDBRANCH  28  29
BRANCH  28  31
HETATM   31  N3  UNL     1      52.183  21.278  47.537  1.00  0.00    -0.252 N 
ATOM     32  H3  UNL     1      52.389  22.270  47.648  1.00  0.00     0.192 HD
BRANCH  31  33
HETATM   33  O6  UNL     1      51.529  20.591  48.462  1.00  0.00    -0.290 OA
ATOM     34  H6  UNL     1      50.656  20.897  48.674  1.00  0.00     0.244 HD
ENDBRANCH  31  33
ENDBRANCH  28  31
ENDBRANCH  27  28
ENDBRANCH   7  27
BRANCH  11  35
HETATM   35  C12 UNL     1      55.584  15.131  45.330  1.00  0.00     0.163 C 
BRANCH  35  36
HETATM   36  N4  UNL     1      56.239  13.854  45.367  1.00  0.00    -0.276 N 
ATOM     37  H4  UNL     1      56.465  13.422  46.264  1.00  0.00     0.186 HD
BRANCH  36  38
HETATM   38  N5  UNL     1      56.564  13.209  44.186  1.00  0.00    -0.043 N 
HETATM   39  O8  UNL     1      57.307  12.183  44.143  1.00  0.00    -0.517 OA
HETATM   40  O9  UNL     1      56.031  13.744  43.015  1.00  0.00    -0.517 OA
ENDBRANCH  36  38
ENDBRANCH  35  36
ENDBRANCH  11  35
TORSDOF 13
ENDMDL
MODEL 3
REMARK VINA RESULT: -7.656537244      5.138      9.737
REMARK  13 active torsions:
REMARK  status: ('A' for Active; 'I' for Inactive)
REMARK    1  A    between atoms: N1_1  and  O1_4 
REMARK    2  A    between atoms: O1_4  and  C1_5 
REMARK       I    between atoms: C1_5  and  N2_7 
REMARK    3  A    between atoms: N2_7  and  C2_9 
REMARK    4  A    between atoms: C7_15  and  O4_16 
REMARK    5  A    between atoms: O4_16  and  C8_17 
REMARK    6  A    between atoms: C8_17  and  O5_18 
REMARK    7  A    between atoms: C8_17  and  N3_20 
REMARK    8  A    between atoms: N3_20  and  O6_22 
REMARK    9  A    between atoms: C11_27  and  C12_28 
REMARK   10  A    between atoms: C12_28  and  N4_29 
REMARK   11  A    between atoms: N4_29  and  N5_31 
REMARK   12  A    between atoms: C14_36  and  O11_37 
REMARK   13  A    between atoms: C14_36  and  O12_39 
ROOT
HETATM    1  C2  UNL     1      56.083  18.656  48.461  1.00  0.00     0.100 A 
HETATM    2  C3  UNL     1      55.896  18.222  47.150  1.00  0.00     0.025 A 
HETATM    3  C4  UNL     1      56.346  17.463  46.064  1.00  0.00     0.036 A 
HETATM    4  C5  UNL     1      55.597  17.460  44.907  1.00  0.00     0.021 A 
HETATM    5  C6  UNL     1      54.440  18.195  44.845  1.00  0.00     0.214 A 
HETATM    6  O3  UNL     1      53.771  18.172  43.761  1.00  0.00    -0.285 OA
HETATM    7  C7  UNL     1      53.954  18.969  45.907  1.00  0.00     0.139 A 
HETATM    8  C9  UNL     1      54.675  18.991  47.072  1.00  0.00     0.067 A 
HETATM    9  C10 UNL     1      54.919  19.375  48.354  1.00  0.00     0.213 A 
HETATM   10  O7  UNL     1      54.263  20.145  49.151  1.00  0.00    -0.285 OA
HETATM   11  C11 UNL     1      56.261  16.587  43.888  1.00  0.00     0.119 C 
HETATM   12  C13 UNL     1      57.622  16.441  44.440  1.00  0.00     0.203 C 
HETATM   13  O10 UNL     1      58.620  16.215  43.778  1.00  0.00    -0.291 OA
HETATM   14  C14 UNL     1      57.529  16.620  45.909  1.00  0.00     0.255 C 
ENDROOT
BRANCH   1  15
HETATM   15  N2  UNL     1      57.103  18.391  49.416  1.00  0.00    -0.297 N 
HETATM   16  C1  UNL     1      57.465  17.118  49.851  1.00  0.00     0.386 C 
HETATM   17  O2  UNL     1      56.891  16.100  49.409  1.00  0.00    -0.236 OA
ATOM     18  H2  UNL     1      57.604  19.188  49.809  1.00  0.00     0.171 HD
BRANCH  16  19
HETATM   19  O1  UNL     1      58.474  16.924  50.789  1.00  0.00    -0.188 OA
BRANCH  19  20
HETATM   20  N1  UNL     1      59.778  16.931  50.396  1.00  0.00    -0.301 N 
ATOM     21  H12 UNL     1      60.137  16.144  49.856  1.00  0.00     0.184 HD
ATOM     22  H11 UNL     1      60.381  17.717  50.643  1.00  0.00     0.184 HD
ENDBRANCH  19  20
ENDBRANCH  16  19
ENDBRANCH   1  15
BRANCH  14  23
HETATM   23  O11 UNL     1      57.427  15.389  46.555  1.00  0.00    -0.356 OA
ATOM     24  H11 UNL     1      57.628  14.647  45.997  1.00  0.00     0.214 HD
ENDBRANCH  14  23
BRANCH  14  25
HETATM   25  O12 UNL     1      58.700  17.227  46.375  1.00  0.00    -0.356 OA
ATOM     26  H12 UNL     1      59.374  16.601  46.614  1.00  0.00     0.214 HD
ENDBRANCH  14  25
BRANCH   7  27
HETATM   27  O4  UNL     1      52.772  19.660  45.708  1.00  0.00    -0.296 OA
BRANCH  27  28
HETATM   28  C8  UNL     1      52.350  20.782  46.433  1.00  0.00     0.394 C 
BRANCH  28  29
HETATM   29  O5  UNL     1      51.927  21.816  45.569  1.00  0.00    -0.353 OA
ATOM     30  H5  UNL     1      50.992  21.963  45.643  1.00  0.00     0.214 HD
ENDBRANCH  28  29
BRANCH  28  31
HETATM   31  N3  UNL     1      51.211  20.476  47.253  1.00  0.00    -0.252 N 
ATOM     32  H3  UNL     1      50.304  20.245  46.849  1.00  0.00     0.192 HD
BRANCH  31  33
HETATM   33  O6  UNL     1      51.404  20.511  48.564  1.00  0.00    -0.290 OA
ATOM     34  H6  UNL     1      50.747  20.968  49.074  1.00  0.00     0.244 HD
ENDBRANCH  31  33
ENDBRANCH  28  31
ENDBRANCH  27  28
ENDBRANCH   7  27
BRANCH  11  35
HETATM   35  C12 UNL     1      55.586  15.231  43.817  1.00  0.00     0.163 C 
BRANCH  35  36
HETATM   36  N4  UNL     1      56.483  14.343  43.132  1.00  0.00    -0.276 N 
ATOM     37  H4  UNL     1      56.679  14.480  42.140  1.00  0.00     0.186 HD
BRANCH  36  38
HETATM   38  N5  UNL     1      57.083  13.301  43.819  1.00  0.00    -0.043 N 
HETATM   39  O8  UNL     1      58.044  12.626  43.345  1.00  0.00    -0.517 OA
HETATM   40  O9  UNL     1      56.576  13.015  45.085  1.00  0.00    -0.517 OA
ENDBRANCH  36  38
ENDBRANCH  35  36
ENDBRANCH  11  35
TORSDOF 13
ENDMDL
MODEL 4
REMARK VINA RESULT: -7.610190509      4.721      9.085
REMARK  13 active torsions:
REMARK  status: ('A' for Active; 'I' for Inactive)
REMARK    1  A    between atoms: N1_1  and  O1_4 
REMARK    2  A    between atoms: O1_4  and  C1_5 
REMARK       I    between atoms: C1_5  and  N2_7 
REMARK    3  A    between atoms: N2_7  and  C2_9 
REMARK    4  A    between atoms: C7_15  and  O4_16 
REMARK    5  A    between atoms: O4_16  and  C8_17 
REMARK    6  A    between atoms: C8_17  and  O5_18 
REMARK    7  A    between atoms: C8_17  and  N3_20 
REMARK    8  A    between atoms: N3_20  and  O6_22 
REMARK    9  A    between atoms: C11_27  and  C12_28 
REMARK   10  A    between atoms: C12_28  and  N4_29 
REMARK   11  A    between atoms: N4_29  and  N5_31 
REMARK   12  A    between atoms: C14_36  and  O11_37 
REMARK   13  A    between atoms: C14_36  and  O12_39 
ROOT
HETATM    1  C2  UNL     1      54.483  17.431  44.472  1.00  0.00     0.100 A 
HETATM    2  C3  UNL     1      54.837  17.920  45.728  1.00  0.00     0.025 A 
HETATM    3  C4  UNL     1      55.602  17.788  46.892  1.00  0.00     0.036 A 
HETATM    4  C5  UNL     1      55.463  18.738  47.882  1.00  0.00     0.021 A 
HETATM    5  C6  UNL     1      54.586  19.778  47.706  1.00  0.00     0.214 A 
HETATM    6  O3  UNL     1      54.481  20.639  48.640  1.00  0.00    -0.285 OA
HETATM    7  C7  UNL     1      53.802  19.947  46.558  1.00  0.00     0.139 A 
HETATM    8  C9  UNL     1      53.917  19.021  45.555  1.00  0.00     0.067 A 
HETATM    9  C10 UNL     1      53.619  18.489  44.339  1.00  0.00     0.213 A 
HETATM   10  O7  UNL     1      52.806  18.874  43.418  1.00  0.00    -0.285 OA
HETATM   11  C11 UNL     1      56.371  18.400  49.024  1.00  0.00     0.119 C 
HETATM   12  C13 UNL     1      56.709  16.991  48.748  1.00  0.00     0.203 C 
HETATM   13  O10 UNL     1      57.032  16.176  49.595  1.00  0.00    -0.291 OA
HETATM   14  C14 UNL     1      56.580  16.778  47.287  1.00  0.00     0.255 C 
ENDROOT
BRANCH   1  15
HETATM   15  N2  UNL     1      54.913  16.291  43.737  1.00  0.00    -0.297 N 
HETATM   16  C1  UNL     1      56.238  16.020  43.407  1.00  0.00     0.386 C 
HETATM   17  O2  UNL     1      57.158  16.792  43.751  1.00  0.00    -0.236 OA
ATOM     18  H2  UNL     1      54.201  15.627  43.432  1.00  0.00     0.171 HD
BRANCH  16  19
HETATM   19  O1  UNL     1      56.596  14.885  42.685  1.00  0.00    -0.188 OA
BRANCH  19  20
HETATM   20  N1  UNL     1      56.441  13.650  43.239  1.00  0.00    -0.301 N 
ATOM     21  H12 UNL     1      56.580  12.825  42.656  1.00  0.00     0.184 HD
ATOM     22  H11 UNL     1      56.188  13.562  44.224  1.00  0.00     0.184 HD
ENDBRANCH  19  20
ENDBRANCH  16  19
ENDBRANCH   1  15
BRANCH  14  23
HETATM   23  O11 UNL     1      57.813  16.916  46.652  1.00  0.00    -0.356 OA
ATOM     24  H11 UNL     1      58.257  16.090  46.499  1.00  0.00     0.214 HD
ENDBRANCH  14  23
BRANCH  14  25
HETATM   25  O12 UNL     1      56.145  15.470  47.048  1.00  0.00    -0.356 OA
ATOM     26  H12 UNL     1      56.857  14.869  46.863  1.00  0.00     0.214 HD
ENDBRANCH  14  25
BRANCH   7  27
HETATM   27  O4  UNL     1      52.959  21.044  46.513  1.00  0.00    -0.296 OA
BRANCH  27  28
HETATM   28  C8  UNL     1      51.650  21.090  47.010  1.00  0.00     0.394 C 
BRANCH  28  29
HETATM   29  O5  UNL     1      51.067  19.804  47.027  1.00  0.00    -0.353 OA
ATOM     30  H5  UNL     1      50.555  19.651  46.242  1.00  0.00     0.214 HD
ENDBRANCH  28  29
BRANCH  28  31
HETATM   31  N3  UNL     1      51.624  21.543  48.374  1.00  0.00    -0.252 N 
ATOM     32  H3  UNL     1      51.719  22.529  48.615  1.00  0.00     0.192 HD
BRANCH  31  33
HETATM   33  O6  UNL     1      51.469  20.608  49.300  1.00  0.00    -0.290 OA
ATOM     34  H6  UNL     1      51.082  20.888  50.120  1.00  0.00     0.244 HD
ENDBRANCH  31  33
ENDBRANCH  28  31
ENDBRANCH  27  28
ENDBRANCH   7  27
BRANCH  11  35
HETATM   35  C12 UNL     1      57.627  19.249  48.983  1.00  0.00     0.163 C 
BRANCH  35  36
HETATM   36  N4  UNL     1      58.741  18.374  49.216  1.00  0.00    -0.276 N 
ATOM     37  H4  UNL     1      58.617  17.526  49.770  1.00  0.00     0.186 HD
BRANCH  36  38
HETATM   38  N5  UNL     1      59.984  18.681  48.689  1.00  0.00    -0.043 N 
HETATM   39  O8  UNL     1      61.036  18.737  49.392  1.00  0.00    -0.517 OA
HETATM   40  O9  UNL     1      60.036  18.932  47.319  1.00  0.00    -0.517 OA
ENDBRANCH  36  38
ENDBRANCH  35  36
ENDBRANCH  11  35
TORSDOF 13
ENDMDL
MODEL 5
REMARK VINA RESULT: -7.562449248      2.440      7.536
REMARK  13 active torsions:
REMARK  status: ('A' for Active; 'I' for Inactive)
REMARK    1  A    between atoms: N1_1  and  O1_4 
REMARK    2  A    between atoms: O1_4  and  C1_5 
REMARK       I    between atoms: C1_5  and  N2_7 
REMARK    3  A    between atoms: N2_7  and  C2_9 
REMARK    4  A    between atoms: C7_15  and  O4_16 
REMARK    5  A    between atoms: O4_16  and  C8_17 
REMARK    6  A    between atoms: C8_17  and  O5_18 
REMARK    7  A    between atoms: C8_17  and  N3_20 
REMARK    8  A    between atoms: N3_20  and  O6_22 
REMARK    9  A    between atoms: C11_27  and  C12_28 
REMARK   10  A    between atoms: C12_28  and  N4_29 
REMARK   11  A    between atoms: N4_29  and  N5_31 
REMARK   12  A    between atoms: C14_36  and  O11_37 
REMARK   13  A    between atoms: C14_36  and  O12_39 
ROOT
HETATM    1  C2  UNL     1      48.140  25.874  48.653  1.00  0.00     0.100 A 
HETATM    2  C3  UNL     1      49.247  25.247  48.085  1.00  0.00     0.025 A 
HETATM    3  C4  UNL     1      50.552  24.761  48.226  1.00  0.00     0.036 A 
HETATM    4  C5  UNL     1      51.155  24.170  47.136  1.00  0.00     0.021 A 
HETATM    5  C6  UNL     1      50.472  24.074  45.950  1.00  0.00     0.214 A 
HETATM    6  O3  UNL     1      51.058  23.523  44.962  1.00  0.00    -0.285 OA
HETATM    7  C7  UNL     1      49.166  24.548  45.766  1.00  0.00     0.139 A 
HETATM    8  C9  UNL     1      48.538  25.138  46.830  1.00  0.00     0.067 A 
HETATM    9  C10 UNL     1      47.495  25.755  47.448  1.00  0.00     0.213 A 
HETATM   10  O7  UNL     1      46.329  26.092  47.018  1.00  0.00    -0.285 OA
HETATM   11  C11 UNL     1      52.535  23.727  47.513  1.00  0.00     0.119 C 
HETATM   12  C13 UNL     1      52.774  24.477  48.760  1.00  0.00     0.203 C 
HETATM   13  O10 UNL     1      53.874  24.794  49.180  1.00  0.00    -0.291 OA
HETATM   14  C14 UNL     1      51.454  24.757  49.374  1.00  0.00     0.255 C 
ENDROOT
BRANCH   1  15
HETATM   15  N2  UNL     1      47.900  26.382  49.960  1.00  0.00    -0.297 N 
HETATM   16  C1  UNL     1      46.773  26.092  50.725  1.00  0.00     0.386 C 
HETATM   17  O2  UNL     1      45.877  25.338  50.289  1.00  0.00    -0.236 OA
ATOM     18  H2  UNL     1      48.602  27.003  50.364  1.00  0.00     0.171 HD
BRANCH  16  19
HETATM   19  O1  UNL     1      46.597  26.621  52.000  1.00  0.00    -0.188 OA
BRANCH  19  20
HETATM   20  N1  UNL     1      47.170  26.012  53.075  1.00  0.00    -0.301 N 
ATOM     21  H12 UNL     1      46.616  25.872  53.919  1.00  0.00     0.184 HD
ATOM     22  H11 UNL     1      48.142  25.704  53.027  1.00  0.00     0.184 HD
ENDBRANCH  19  20
ENDBRANCH  16  19
ENDBRANCH   1  15
BRANCH  14  23
HETATM   23  O11 UNL     1      51.136  23.796  50.332  1.00  0.00    -0.356 OA
ATOM     24  H11 UNL     1      51.339  24.062  51.221  1.00  0.00     0.214 HD
ENDBRANCH  14  23
BRANCH  14  25
HETATM   25  O12 UNL     1      51.505  25.988  50.035  1.00  0.00    -0.356 OA
ATOM     26  H12 UNL     1      50.676  26.454  50.019  1.00  0.00     0.214 HD
ENDBRANCH  14  25
BRANCH   7  27
HETATM   27  O4  UNL     1      48.596  24.384  44.516  1.00  0.00    -0.296 OA
BRANCH  27  28
HETATM   28  C8  UNL     1      47.434  23.651  44.238  1.00  0.00     0.394 C 
BRANCH  28  29
HETATM   29  O5  UNL     1      46.276  24.380  44.590  1.00  0.00    -0.353 OA
ATOM     30  H5  UNL     1      45.538  23.800  44.731  1.00  0.00     0.214 HD
ENDBRANCH  28  29
BRANCH  28  31
HETATM   31  N3  UNL     1      47.308  23.385  42.831  1.00  0.00    -0.252 N 
ATOM     32  H3  UNL     1      47.714  24.002  42.129  1.00  0.00     0.192 HD
BRANCH  31  33
HETATM   33  O6  UNL     1      46.637  22.292  42.498  1.00  0.00    -0.290 OA
ATOM     34  H6  UNL     1      46.020  22.380  41.781  1.00  0.00     0.244 HD
ENDBRANCH  31  33
ENDBRANCH  28  31
ENDBRANCH  27  28
ENDBRANCH   7  27
BRANCH  11  35
HETATM   35  C12 UNL     1      52.565  22.237  47.794  1.00  0.00     0.163 C 
BRANCH  35  36
HETATM   36  N4  UNL     1      52.912  21.578  46.566  1.00  0.00    -0.276 N 
ATOM     37  H4  UNL     1      53.637  21.969  45.964  1.00  0.00     0.186 HD
BRANCH  36  38
HETATM   38  N5  UNL     1      52.262  20.411  46.199  1.00  0.00    -0.043 N 
HETATM   39  O8  UNL     1      52.582  19.738  45.175  1.00  0.00    -0.517 OA
HETATM   40  O9  UNL     1      51.216  19.996  47.020  1.00  0.00    -0.517 OA
ENDBRANCH  36  38
ENDBRANCH  35  36
ENDBRANCH  11  35
TORSDOF 13
ENDMDL
