MODEL 1
REMARK VINA RESULT: -8.731098185      0.000      0.000
REMARK  9 active torsions:
REMARK  status: ('A' for Active; 'I' for Inactive)
REMARK    1  A    between atoms: N1_1  and  C1_4 
REMARK    2  A    between atoms: C4_12  and  O1_13 
REMARK    3  A    between atoms: C5_15  and  C6_16 
REMARK    4  A    between atoms: C6_16  and  C7_17 
REMARK    5  A    between atoms: C6_16  and  C8_20 
REMARK    6  A    between atoms: C9_25  and  S1_26 
REMARK    7  A    between atoms: C10_36  and  C11_37 
REMARK    8  A    between atoms: C11_37  and  N9_38 
REMARK    9  A    between atoms: C11_37  and  O8_42 
ROOT
HETATM    1  C1  UNL     1      -7.670  36.248  -6.687  1.00  0.00     0.129 C 
HETATM    2  N2  UNL     1      -7.561  35.341  -5.690  1.00  0.00    -0.326 N 
ATOM      3  H2  UNL     1      -7.049  35.658  -4.867  1.00  0.00     0.169 HD
HETATM    4  C2  UNL     1      -8.034  34.071  -5.626  1.00  0.00     0.134 C 
HETATM    5  N3  UNL     1      -8.201  33.560  -4.462  1.00  0.00    -0.383 N 
ATOM      6  H31 UNL     1      -8.557  32.605  -4.414  1.00  0.00     0.157 HD
ATOM      7  H32 UNL     1      -7.955  34.162  -3.676  1.00  0.00     0.157 HD
HETATM    8  C3  UNL     1      -8.363  33.266  -6.678  1.00  0.00     0.153 A 
HETATM    9  C4  UNL     1      -8.292  31.896  -6.669  1.00  0.00     0.125 A 
HETATM   10  C5  UNL     1      -8.730  31.512  -7.948  1.00  0.00     0.086 A 
HETATM   11  N6  UNL     1      -9.016  32.622  -8.599  1.00  0.00    -0.279 N 
ATOM     12  H6  UNL     1      -9.359  32.640  -9.559  1.00  0.00     0.189 HD
HETATM   13  N7  UNL     1      -8.811  33.702  -7.878  1.00  0.00    -0.190 N 
HETATM   14  N8  UNL     1      -9.016  34.960  -8.293  1.00  0.00    -0.275 N 
ATOM     15  H8  UNL     1      -9.717  35.087  -9.023  1.00  0.00     0.189 HD
HETATM   16  C10 UNL     1      -8.392  36.092  -7.848  1.00  0.00     0.127 C 
ENDROOT
BRANCH  10  17
HETATM   17  C6  UNL     1      -8.836  30.098  -8.412  1.00  0.00     0.217 C 
BRANCH  17  18
HETATM   18  C7  UNL     1      -9.024  30.033  -9.883  1.00  0.00     0.191 C 
HETATM   19  O2  UNL     1      -9.915  29.309 -10.392  1.00  0.00    -0.647 OA
HETATM   20  O3  UNL     1      -8.216  30.770 -10.713  1.00  0.00    -0.647 OA
ENDBRANCH  17  18
BRANCH  17  21
HETATM   21  C8  UNL     1      -7.560  29.360  -8.075  1.00  0.00     0.162 A 
HETATM   22  N4  UNL     1      -6.517  29.182  -8.903  1.00  0.00    -0.280 N 
HETATM   23  N5  UNL     1      -5.601  28.483  -8.222  1.00  0.00    -0.266 N 
ATOM     24  H4  UNL     1      -6.439  29.515  -9.864  1.00  0.00     0.189 HD
HETATM   25  C9  UNL     1      -6.081  28.233  -6.985  1.00  0.00     0.284 A 
ATOM     26  H5  UNL     1      -4.693  28.188  -8.579  1.00  0.00     0.190 HD
HETATM   27  O7  UNL     1      -7.256  28.780  -6.948  1.00  0.00    -0.265 OA
BRANCH  25  28
HETATM   28  S1  UNL     1      -5.216  27.342  -5.741  1.00  0.00     0.181 S 
HETATM   29  O4  UNL     1      -3.838  27.005  -6.236  1.00  0.00    -0.589 OA
HETATM   30  O5  UNL     1      -5.896  26.079  -5.368  1.00  0.00    -0.589 OA
HETATM   31  O6  UNL     1      -5.012  28.291  -4.355  1.00  0.00    -0.589 OA
ENDBRANCH  25  28
ENDBRANCH  17  21
ENDBRANCH  10  17
BRANCH   9  32
HETATM   32  O1  UNL     1      -7.888  31.048  -5.663  1.00  0.00    -0.356 OA
ATOM     33  H1  UNL     1      -8.398  30.420  -5.163  1.00  0.00     0.218 HD
ENDBRANCH   9  32
BRANCH  16  34
HETATM   34  C11 UNL     1      -8.475  37.314  -8.673  1.00  0.00     0.372 C 
BRANCH  34  35
HETATM   35  N9  UNL     1      -7.548  37.290  -9.770  1.00  0.00    -0.047 N 
ATOM     36  H93 UNL     1      -6.589  37.409  -9.445  1.00  0.00     0.277 HD
ATOM     37  H92 UNL     1      -7.470  36.353 -10.166  1.00  0.00     0.277 HD
ATOM     38  H91 UNL     1      -7.783  37.976 -10.486  1.00  0.00     0.277 HD
ENDBRANCH  34  35
BRANCH  34  39
HETATM   39  O8  UNL     1      -9.778  37.583  -9.086  1.00  0.00    -0.365 OA
ATOM     40  H8  UNL     1      -9.809  37.936  -9.967  1.00  0.00     0.212 HD
ENDBRANCH  34  39
ENDBRANCH  16  34
BRANCH   1  41
HETATM   41  N1  UNL     1      -7.035  37.354  -6.519  1.00  0.00    -0.384 N 
ATOM     42  H12 UNL     1      -6.338  37.395  -5.775  1.00  0.00     0.157 HD
ATOM     43  H11 UNL     1      -7.280  38.115  -7.153  1.00  0.00     0.157 HD
ENDBRANCH   1  41
TORSDOF 9
ENDMDL
MODEL 2
REMARK VINA RESULT: -8.593589782      1.715      2.738
REMARK  9 active torsions:
REMARK  status: ('A' for Active; 'I' for Inactive)
REMARK    1  A    between atoms: N1_1  and  C1_4 
REMARK    2  A    between atoms: C4_12  and  O1_13 
REMARK    3  A    between atoms: C5_15  and  C6_16 
REMARK    4  A    between atoms: C6_16  and  C7_17 
REMARK    5  A    between atoms: C6_16  and  C8_20 
REMARK    6  A    between atoms: C9_25  and  S1_26 
REMARK    7  A    between atoms: C10_36  and  C11_37 
REMARK    8  A    between atoms: C11_37  and  N9_38 
REMARK    9  A    between atoms: C11_37  and  O8_42 
ROOT
HETATM    1  C1  UNL     1      -7.944  35.857  -7.243  1.00  0.00     0.129 C 
HETATM    2  N2  UNL     1      -8.407  35.588  -8.484  1.00  0.00    -0.326 N 
ATOM      3  H2  UNL     1      -8.809  36.383  -8.981  1.00  0.00     0.169 HD
HETATM    4  C2  UNL     1      -8.415  34.415  -9.165  1.00  0.00     0.134 C 
HETATM    5  N3  UNL     1      -8.487  34.473 -10.443  1.00  0.00    -0.383 N 
ATOM      6  H31 UNL     1      -8.493  33.590 -10.955  1.00  0.00     0.157 HD
ATOM      7  H32 UNL     1      -8.539  35.411 -10.840  1.00  0.00     0.157 HD
HETATM    8  C3  UNL     1      -8.346  33.160  -8.633  1.00  0.00     0.153 A 
HETATM    9  C4  UNL     1      -8.895  32.037  -9.199  1.00  0.00     0.125 A 
HETATM   10  C5  UNL     1      -8.567  30.998  -8.312  1.00  0.00     0.086 A 
HETATM   11  N6  UNL     1      -7.881  31.544  -7.327  1.00  0.00    -0.279 N 
ATOM     12  H6  UNL     1      -7.513  31.016  -6.536  1.00  0.00     0.189 HD
HETATM   13  N7  UNL     1      -7.722  32.841  -7.476  1.00  0.00    -0.190 N 
HETATM   14  N8  UNL     1      -7.071  33.643  -6.623  1.00  0.00    -0.275 N 
ATOM     15  H8  UNL     1      -6.340  33.207  -6.061  1.00  0.00     0.189 HD
HETATM   16  C10 UNL     1      -7.274  34.980  -6.421  1.00  0.00     0.127 C 
ENDROOT
BRANCH  10  17
HETATM   17  C6  UNL     1      -8.945  29.569  -8.513  1.00  0.00     0.217 C 
BRANCH  17  18
HETATM   18  C7  UNL     1      -9.276  29.300  -9.935  1.00  0.00     0.191 C 
HETATM   19  O2  UNL     1     -10.431  28.949 -10.277  1.00  0.00    -0.647 OA
HETATM   20  O3  UNL     1      -8.311  29.433 -10.902  1.00  0.00    -0.647 OA
ENDBRANCH  17  18
BRANCH  17  21
HETATM   21  C8  UNL     1      -7.782  28.681  -8.133  1.00  0.00     0.162 A 
HETATM   22  N4  UNL     1      -7.148  27.827  -8.953  1.00  0.00    -0.280 N 
HETATM   23  N5  UNL     1      -6.187  27.241  -8.230  1.00  0.00    -0.266 N 
ATOM     24  H4  UNL     1      -7.359  27.658  -9.937  1.00  0.00     0.189 HD
HETATM   25  C9  UNL     1      -6.232  27.733  -6.973  1.00  0.00     0.284 A 
ATOM     26  H5  UNL     1      -5.529  26.540  -8.571  1.00  0.00     0.190 HD
HETATM   27  O7  UNL     1      -7.204  28.591  -6.968  1.00  0.00    -0.265 OA
BRANCH  25  28
HETATM   28  S1  UNL     1      -5.151  27.250  -5.673  1.00  0.00     0.181 S 
HETATM   29  O4  UNL     1      -3.759  27.093  -6.215  1.00  0.00    -0.589 OA
HETATM   30  O5  UNL     1      -5.551  25.968  -5.047  1.00  0.00    -0.589 OA
HETATM   31  O6  UNL     1      -5.073  28.449  -4.482  1.00  0.00    -0.589 OA
ENDBRANCH  25  28
ENDBRANCH  17  21
ENDBRANCH  10  17
BRANCH   9  32
HETATM   32  O1  UNL     1      -9.613  31.908 -10.367  1.00  0.00    -0.356 OA
ATOM     33  H1  UNL     1      -9.841  31.123 -10.851  1.00  0.00     0.218 HD
ENDBRANCH   9  32
BRANCH  16  34
HETATM   34  C11 UNL     1      -6.732  35.599  -5.195  1.00  0.00     0.372 C 
BRANCH  34  35
HETATM   35  N9  UNL     1      -6.902  34.758  -4.043  1.00  0.00    -0.047 N 
ATOM     36  H93 UNL     1      -6.307  35.062  -3.273  1.00  0.00     0.277 HD
ATOM     37  H92 UNL     1      -7.814  34.904  -3.610  1.00  0.00     0.277 HD
ATOM     38  H91 UNL     1      -6.750  33.773  -4.260  1.00  0.00     0.277 HD
ENDBRANCH  34  35
BRANCH  34  39
HETATM   39  O8  UNL     1      -5.414  36.018  -5.356  1.00  0.00    -0.365 OA
ATOM     40  H8  UNL     1      -4.908  35.413  -5.885  1.00  0.00     0.212 HD
ENDBRANCH  34  39
ENDBRANCH  16  34
BRANCH   1  41
HETATM   41  N1  UNL     1      -8.156  37.048  -6.804  1.00  0.00    -0.384 N 
ATOM     42  H12 UNL     1      -8.413  37.766  -7.481  1.00  0.00     0.157 HD
ATOM     43  H11 UNL     1      -8.049  37.183  -5.798  1.00  0.00     0.157 HD
ENDBRANCH   1  41
TORSDOF 9
ENDMDL
MODEL 3
REMARK VINA RESULT: -8.422871630      3.609      6.256
REMARK  9 active torsions:
REMARK  status: ('A' for Active; 'I' for Inactive)
REMARK    1  A    between atoms: N1_1  and  C1_4 
REMARK    2  A    between atoms: C4_12  and  O1_13 
REMARK    3  A    between atoms: C5_15  and  C6_16 
REMARK    4  A    between atoms: C6_16  and  C7_17 
REMARK    5  A    between atoms: C6_16  and  C8_20 
REMARK    6  A    between atoms: C9_25  and  S1_26 
REMARK    7  A    between atoms: C10_36  and  C11_37 
REMARK    8  A    between atoms: C11_37  and  N9_38 
REMARK    9  A    between atoms: C11_37  and  O8_42 
ROOT
HETATM    1  C1  UNL     1     -12.030  29.586 -12.798  1.00  0.00     0.129 C 
HETATM    2  N2  UNL     1     -11.463  30.809 -12.893  1.00  0.00    -0.326 N 
ATOM      3  H2  UNL     1     -11.517  31.244 -13.814  1.00  0.00     0.169 HD
HETATM    4  C2  UNL     1     -10.832  31.542 -11.941  1.00  0.00     0.134 C 
HETATM    5  N3  UNL     1     -10.766  32.810 -12.117  1.00  0.00    -0.383 N 
ATOM      6  H31 UNL     1     -10.291  33.361 -11.402  1.00  0.00     0.157 HD
ATOM      7  H32 UNL     1     -11.197  33.159 -12.973  1.00  0.00     0.157 HD
HETATM    8  C3  UNL     1     -10.256  31.074 -10.796  1.00  0.00     0.153 A 
HETATM    9  C4  UNL     1      -9.190  31.658 -10.158  1.00  0.00     0.125 A 
HETATM   10  C5  UNL     1      -8.958  30.841  -9.039  1.00  0.00     0.086 A 
HETATM   11  N6  UNL     1      -9.852  29.874  -9.084  1.00  0.00    -0.279 N 
ATOM     12  H6  UNL     1      -9.916  29.131  -8.388  1.00  0.00     0.189 HD
HETATM   13  N7  UNL     1     -10.655  29.971 -10.121  1.00  0.00    -0.190 N 
HETATM   14  N8  UNL     1     -11.649  29.121 -10.412  1.00  0.00    -0.275 N 
ATOM     15  H8  UNL     1     -12.064  28.624  -9.624  1.00  0.00     0.189 HD
HETATM   16  C10 UNL     1     -12.171  28.846 -11.645  1.00  0.00     0.127 C 
ENDROOT
BRANCH  10  17
HETATM   17  C6  UNL     1      -7.890  31.085  -8.026  1.00  0.00     0.217 C 
BRANCH  17  18
HETATM   18  C7  UNL     1      -8.473  31.524  -6.733  1.00  0.00     0.191 C 
HETATM   19  O2  UNL     1      -9.634  31.188  -6.397  1.00  0.00    -0.647 OA
HETATM   20  O3  UNL     1      -7.740  32.313  -5.881  1.00  0.00    -0.647 OA
ENDBRANCH  17  18
BRANCH  17  21
HETATM   21  C8  UNL     1      -7.128  29.803  -7.778  1.00  0.00     0.162 A 
HETATM   22  N4  UNL     1      -6.903  28.838  -8.685  1.00  0.00    -0.280 N 
HETATM   23  N5  UNL     1      -6.197  27.885  -8.064  1.00  0.00    -0.266 N 
ATOM     24  H4  UNL     1      -7.210  28.833  -9.657  1.00  0.00     0.189 HD
HETATM   25  C9  UNL     1      -5.991  28.264  -6.785  1.00  0.00     0.284 A 
ATOM     26  H5  UNL     1      -5.869  27.018  -8.488  1.00  0.00     0.190 HD
HETATM   27  O7  UNL     1      -6.569  29.419  -6.665  1.00  0.00    -0.265 OA
BRANCH  25  28
HETATM   28  S1  UNL     1      -5.108  27.320  -5.594  1.00  0.00     0.181 S 
HETATM   29  O4  UNL     1      -3.729  27.025  -6.114  1.00  0.00    -0.589 OA
HETATM   30  O5  UNL     1      -5.770  26.031  -5.283  1.00  0.00    -0.589 OA
HETATM   31  O6  UNL     1      -4.905  28.199  -4.163  1.00  0.00    -0.589 OA
ENDBRANCH  25  28
ENDBRANCH  17  21
ENDBRANCH  10  17
BRANCH   9  32
HETATM   32  O1  UNL     1      -8.479  32.786 -10.499  1.00  0.00    -0.356 OA
ATOM     33  H1  UNL     1      -7.539  32.928 -10.503  1.00  0.00     0.218 HD
ENDBRANCH   9  32
BRANCH  16  34
HETATM   34  C11 UNL     1     -12.987  27.626 -11.810  1.00  0.00     0.372 C 
BRANCH  34  35
HETATM   35  N9  UNL     1     -12.696  26.641 -10.808  1.00  0.00    -0.047 N 
ATOM     36  H93 UNL     1     -11.852  26.118 -11.039  1.00  0.00     0.277 HD
ATOM     37  H92 UNL     1     -12.383  27.077  -9.941  1.00  0.00     0.277 HD
ATOM     38  H91 UNL     1     -13.484  26.015 -10.643  1.00  0.00     0.277 HD
ENDBRANCH  34  35
BRANCH  34  39
HETATM   39  O8  UNL     1     -14.348  27.911 -11.893  1.00  0.00    -0.365 OA
ATOM     40  H8  UNL     1     -14.867  27.349 -11.331  1.00  0.00     0.212 HD
ENDBRANCH  34  39
ENDBRANCH  16  34
BRANCH   1  41
HETATM   41  N1  UNL     1     -12.476  29.080 -13.893  1.00  0.00    -0.384 N 
ATOM     42  H12 UNL     1     -11.800  28.855 -14.623  1.00  0.00     0.157 HD
ATOM     43  H11 UNL     1     -13.485  28.941 -13.947  1.00  0.00     0.157 HD
ENDBRANCH   1  41
TORSDOF 9
ENDMDL
MODEL 4
REMARK VINA RESULT: -8.372758312      3.644      6.143
REMARK  9 active torsions:
REMARK  status: ('A' for Active; 'I' for Inactive)
REMARK    1  A    between atoms: N1_1  and  C1_4 
REMARK    2  A    between atoms: C4_12  and  O1_13 
REMARK    3  A    between atoms: C5_15  and  C6_16 
REMARK    4  A    between atoms: C6_16  and  C7_17 
REMARK    5  A    between atoms: C6_16  and  C8_20 
REMARK    6  A    between atoms: C9_25  and  S1_26 
REMARK    7  A    between atoms: C10_36  and  C11_37 
REMARK    8  A    between atoms: C11_37  and  N9_38 
REMARK    9  A    between atoms: C11_37  and  O8_42 
ROOT
HETATM    1  C1  UNL     1      -9.898  33.166 -12.880  1.00  0.00     0.129 C 
HETATM    2  N2  UNL     1     -10.875  32.676 -12.083  1.00  0.00    -0.326 N 
ATOM      3  H2  UNL     1     -11.824  32.939 -12.347  1.00  0.00     0.169 HD
HETATM    4  C2  UNL     1     -10.775  31.886 -10.986  1.00  0.00     0.134 C 
HETATM    5  N3  UNL     1     -11.805  31.197 -10.656  1.00  0.00    -0.383 N 
ATOM      6  H31 UNL     1     -11.730  30.603  -9.831  1.00  0.00     0.157 HD
ATOM      7  H32 UNL     1     -12.622  31.311 -11.257  1.00  0.00     0.157 HD
HETATM    8  C3  UNL     1      -9.682  31.733 -10.183  1.00  0.00     0.153 A 
HETATM    9  C4  UNL     1      -9.727  31.424  -8.846  1.00  0.00     0.125 A 
HETATM   10  C5  UNL     1      -8.379  31.365  -8.453  1.00  0.00     0.086 A 
HETATM   11  N6  UNL     1      -7.660  31.631  -9.525  1.00  0.00    -0.279 N 
ATOM     12  H6  UNL     1      -6.640  31.657  -9.528  1.00  0.00     0.189 HD
HETATM   13  N7  UNL     1      -8.398  31.860 -10.589  1.00  0.00    -0.190 N 
HETATM   14  N8  UNL     1      -7.927  32.158 -11.808  1.00  0.00    -0.275 N 
ATOM     15  H8  UNL     1      -6.993  31.813 -12.028  1.00  0.00     0.189 HD
HETATM   16  C10 UNL     1      -8.556  32.873 -12.789  1.00  0.00     0.127 C 
ENDROOT
BRANCH  10  17
HETATM   17  C6  UNL     1      -7.920  31.046  -7.070  1.00  0.00     0.217 C 
BRANCH  17  18
HETATM   18  C7  UNL     1      -6.563  30.443  -7.085  1.00  0.00     0.191 C 
HETATM   19  O2  UNL     1      -5.816  30.551  -8.088  1.00  0.00    -0.647 OA
HETATM   20  O3  UNL     1      -6.106  29.752  -5.990  1.00  0.00    -0.647 OA
ENDBRANCH  17  18
BRANCH  17  21
HETATM   21  C8  UNL     1      -7.851  32.319  -6.255  1.00  0.00     0.162 A 
HETATM   22  N4  UNL     1      -8.504  32.548  -5.104  1.00  0.00    -0.280 N 
HETATM   23  N5  UNL     1      -8.171  33.783  -4.713  1.00  0.00    -0.266 N 
ATOM     24  H4  UNL     1      -9.131  31.904  -4.622  1.00  0.00     0.189 HD
HETATM   25  C9  UNL     1      -7.320  34.309  -5.620  1.00  0.00     0.284 A 
ATOM     26  H5  UNL     1      -8.505  34.250  -3.871  1.00  0.00     0.190 HD
HETATM   27  O7  UNL     1      -7.161  33.392  -6.523  1.00  0.00    -0.265 OA
BRANCH  25  28
HETATM   28  S1  UNL     1      -6.619  35.918  -5.516  1.00  0.00     0.181 S 
HETATM   29  O4  UNL     1      -5.220  35.888  -6.063  1.00  0.00    -0.589 OA
HETATM   30  O5  UNL     1      -6.562  36.426  -4.126  1.00  0.00    -0.589 OA
HETATM   31  O6  UNL     1      -7.487  37.012  -6.471  1.00  0.00    -0.589 OA
ENDBRANCH  25  28
ENDBRANCH  17  21
ENDBRANCH  10  17
BRANCH   9  32
HETATM   32  O1  UNL     1     -10.818  31.211  -8.035  1.00  0.00    -0.356 OA
ATOM     33  H1  UNL     1     -11.424  31.842  -7.663  1.00  0.00     0.218 HD
ENDBRANCH   9  32
BRANCH  16  34
HETATM   34  C11 UNL     1      -7.746  33.412 -13.899  1.00  0.00     0.372 C 
BRANCH  34  35
HETATM   35  N9  UNL     1      -6.935  34.523 -13.487  1.00  0.00    -0.047 N 
ATOM     36  H93 UNL     1      -7.462  35.395 -13.516  1.00  0.00     0.277 HD
ATOM     37  H92 UNL     1      -6.738  34.486 -12.487  1.00  0.00     0.277 HD
ATOM     38  H91 UNL     1      -6.075  34.593 -14.030  1.00  0.00     0.277 HD
ENDBRANCH  34  35
BRANCH  34  39
HETATM   39  O8  UNL     1      -7.004  32.422 -14.538  1.00  0.00    -0.365 OA
ATOM     40  H8  UNL     1      -6.699  31.756 -13.934  1.00  0.00     0.212 HD
ENDBRANCH  34  39
ENDBRANCH  16  34
BRANCH   1  41
HETATM   41  N1  UNL     1     -10.273  33.979 -13.803  1.00  0.00    -0.384 N 
ATOM     42  H12 UNL     1      -9.651  34.113 -14.600  1.00  0.00     0.157 HD
ATOM     43  H11 UNL     1     -11.177  34.431 -13.666  1.00  0.00     0.157 HD
ENDBRANCH   1  41
TORSDOF 9
ENDMDL
MODEL 5
REMARK VINA RESULT: -8.359358449      1.563      1.806
REMARK  9 active torsions:
REMARK  status: ('A' for Active; 'I' for Inactive)
REMARK    1  A    between atoms: N1_1  and  C1_4 
REMARK    2  A    between atoms: C4_12  and  O1_13 
REMARK    3  A    between atoms: C5_15  and  C6_16 
REMARK    4  A    between atoms: C6_16  and  C7_17 
REMARK    5  A    between atoms: C6_16  and  C8_20 
REMARK    6  A    between atoms: C9_25  and  S1_26 
REMARK    7  A    between atoms: C10_36  and  C11_37 
REMARK    8  A    between atoms: C11_37  and  N9_38 
REMARK    9  A    between atoms: C11_37  and  O8_42 
ROOT
HETATM    1  C1  UNL     1      -7.338  35.745  -6.499  1.00  0.00     0.129 C 
HETATM    2  N2  UNL     1      -7.587  34.756  -5.612  1.00  0.00    -0.326 N 
ATOM      3  H2  UNL     1      -7.039  34.793  -4.753  1.00  0.00     0.169 HD
HETATM    4  C2  UNL     1      -8.461  33.722  -5.699  1.00  0.00     0.134 C 
HETATM    5  N3  UNL     1      -8.846  33.178  -4.604  1.00  0.00    -0.383 N 
ATOM      6  H31 UNL     1      -9.502  32.400  -4.670  1.00  0.00     0.157 HD
ATOM      7  H32 UNL     1      -8.451  33.576  -3.751  1.00  0.00     0.157 HD
HETATM    8  C3  UNL     1      -8.989  33.190  -6.840  1.00  0.00     0.153 A 
HETATM    9  C4  UNL     1      -9.382  31.884  -6.988  1.00  0.00     0.125 A 
HETATM   10  C5  UNL     1      -9.861  31.807  -8.307  1.00  0.00     0.086 A 
HETATM   11  N6  UNL     1      -9.727  33.010  -8.829  1.00  0.00    -0.279 N 
ATOM     12  H6  UNL     1      -9.997  33.244  -9.784  1.00  0.00     0.189 HD
HETATM   13  N7  UNL     1      -9.207  33.876  -7.986  1.00  0.00    -0.190 N 
HETATM   14  N8  UNL     1      -8.958  35.164  -8.256  1.00  0.00    -0.275 N 
ATOM     15  H8  UNL     1      -9.540  35.596  -8.973  1.00  0.00     0.189 HD
HETATM   16  C10 UNL     1      -8.014  35.966  -7.678  1.00  0.00     0.127 C 
ENDROOT
BRANCH  10  17
HETATM   17  C6  UNL     1     -10.412  30.569  -8.931  1.00  0.00     0.217 C 
BRANCH  17  18
HETATM   18  C7  UNL     1     -10.886  30.835 -10.313  1.00  0.00     0.191 C 
HETATM   19  O2  UNL     1     -10.120  31.324 -11.179  1.00  0.00    -0.647 OA
HETATM   20  O3  UNL     1     -12.182  30.547 -10.663  1.00  0.00    -0.647 OA
ENDBRANCH  17  18
BRANCH  17  21
HETATM   21  C8  UNL     1      -9.328  29.518  -9.008  1.00  0.00     0.162 A 
HETATM   22  N4  UNL     1      -9.083  28.722 -10.063  1.00  0.00    -0.280 N 
HETATM   23  N5  UNL     1      -8.050  27.943  -9.723  1.00  0.00    -0.266 N 
ATOM     24  H4  UNL     1      -9.587  28.714 -10.949  1.00  0.00     0.189 HD
HETATM   25  C9  UNL     1      -7.664  28.258  -8.468  1.00  0.00     0.284 A 
ATOM     26  H5  UNL     1      -7.624  27.229 -10.314  1.00  0.00     0.190 HD
HETATM   27  O7  UNL     1      -8.461  29.207  -8.086  1.00  0.00    -0.265 OA
BRANCH  25  28
HETATM   28  S1  UNL     1      -6.339  27.488  -7.608  1.00  0.00     0.181 S 
HETATM   29  O4  UNL     1      -5.695  26.464  -8.499  1.00  0.00    -0.589 OA
HETATM   30  O5  UNL     1      -6.783  26.809  -6.368  1.00  0.00    -0.589 OA
HETATM   31  O6  UNL     1      -5.138  28.616  -7.223  1.00  0.00    -0.589 OA
ENDBRANCH  25  28
ENDBRANCH  17  21
ENDBRANCH  10  17
BRANCH   9  32
HETATM   32  O1  UNL     1      -9.335  30.849  -6.082  1.00  0.00    -0.356 OA
ATOM     33  H1  UNL     1      -9.274  29.913  -6.238  1.00  0.00     0.218 HD
ENDBRANCH   9  32
BRANCH  16  34
HETATM   34  C11 UNL     1      -7.642  37.222  -8.358  1.00  0.00     0.372 C 
BRANCH  34  35
HETATM   35  N9  UNL     1      -7.675  37.094  -9.787  1.00  0.00    -0.047 N 
ATOM     36  H93 UNL     1      -6.759  36.842 -10.157  1.00  0.00     0.277 HD
ATOM     37  H92 UNL     1      -8.197  36.266 -10.072  1.00  0.00     0.277 HD
ATOM     38  H91 UNL     1      -8.038  37.933 -10.240  1.00  0.00     0.277 HD
ENDBRANCH  34  35
BRANCH  34  39
HETATM   39  O8  UNL     1      -8.391  38.307  -7.906  1.00  0.00    -0.365 OA
ATOM     40  H8  UNL     1      -8.834  38.756  -8.615  1.00  0.00     0.212 HD
ENDBRANCH  34  39
ENDBRANCH  16  34
BRANCH   1  41
HETATM   41  N1  UNL     1      -6.378  36.547  -6.199  1.00  0.00    -0.384 N 
ATOM     42  H12 UNL     1      -5.780  36.300  -5.410  1.00  0.00     0.157 HD
ATOM     43  H11 UNL     1      -6.287  37.379  -6.783  1.00  0.00     0.157 HD
ENDBRANCH   1  41
TORSDOF 9
ENDMDL
