MODEL 1
REMARK VINA RESULT: -8.847325627      0.000      0.000
REMARK  11 active torsions:
REMARK  status: ('A' for Active; 'I' for Inactive)
REMARK    1  A    between atoms: C2_7  and  N4_8 
REMARK    2  A    between atoms: N4_8  and  C3_10 
REMARK    3  A    between atoms: C3_10  and  O1_11 
REMARK    4  A    between atoms: C3_10  and  C4_13 
REMARK    5  A    between atoms: C9_20  and  N7_21 
REMARK    6  A    between atoms: N7_21  and  C10_23 
REMARK    7  A    between atoms: C12_25  and  N8_26 
REMARK       I    between atoms: N8_26  and  C13_28 
REMARK       I    between atoms: C13_28  and  N9_29 
REMARK       I    between atoms: C13_28  and  N10_33 
REMARK    8  A    between atoms: C15_38  and  C16_39 
REMARK    9  A    between atoms: C16_39  and  O2_40 
REMARK   10  A    between atoms: C16_39  and  O3_42 
REMARK   11  A    between atoms: N11_45  and  N12_46 
ROOT
HETATM    1  C4  UNL     1      -6.677  29.025  -8.782  1.00  0.00     0.066 A 
HETATM    2  C5  UNL     1      -6.504  27.720  -8.285  1.00  0.00     0.065 A 
HETATM    3  N5  UNL     1      -6.837  26.569  -9.041  1.00  0.00    -0.101 NA
HETATM    4  C6  UNL     1      -5.991  27.594  -7.017  1.00  0.00     0.054 A 
HETATM    5  C7  UNL     1      -5.654  28.676  -6.247  1.00  0.00     0.050 A 
HETATM    6  N6  UNL     1      -5.123  28.518  -4.939  1.00  0.00    -0.102 NA
HETATM    7  C8  UNL     1      -5.821  29.955  -6.723  1.00  0.00     0.057 A 
HETATM    8  C9  UNL     1      -6.337  30.127  -7.999  1.00  0.00     0.052 A 
ENDROOT
BRANCH   8   9
HETATM    9  N7  UNL     1      -6.607  31.428  -8.426  1.00  0.00    -0.336 N 
ATOM     10  H7  UNL     1      -6.108  31.744  -9.257  1.00  0.00     0.168 HD
BRANCH   9  11
HETATM   11  C10 UNL     1      -7.498  32.358  -7.835  1.00  0.00     0.150 A 
HETATM   12  C11 UNL     1      -7.136  32.944  -6.609  1.00  0.00     0.085 A 
HETATM   13  C12 UNL     1      -7.930  33.854  -5.951  1.00  0.00     0.037 A 
HETATM   14  C14 UNL     1      -9.148  34.206  -6.537  1.00  0.00     0.067 A 
HETATM   15  C15 UNL     1      -9.453  33.607  -7.731  1.00  0.00     0.112 A 
HETATM   16  O4  UNL     1      -8.641  32.747  -8.292  1.00  0.00    -0.293 OA
BRANCH  13  17
HETATM   17  N8  UNL     1      -7.598  34.392  -4.827  1.00  0.00    -0.341 N 
HETATM   18  C13 UNL     1      -6.442  35.235  -4.757  1.00  0.00     0.480 C 
HETATM   19  N9  UNL     1      -6.073  35.475  -3.363  1.00  0.00    -0.033 N 
HETATM   20  N10 UNL     1      -6.752  36.534  -5.332  1.00  0.00    -0.033 N 
ATOM     21  H93 UNL     1      -6.852  35.852  -2.823  1.00  0.00     0.278 HD
ATOM     22  H92 UNL     1      -5.940  34.604  -2.849  1.00  0.00     0.278 HD
ATOM     23  H91 UNL     1      -5.250  36.076  -3.313  1.00  0.00     0.278 HD
ATOM     24 3H10 UNL     1      -7.116  36.458  -6.282  1.00  0.00     0.278 HD
ATOM     25 2H10 UNL     1      -7.570  36.963  -4.897  1.00  0.00     0.278 HD
ATOM     26 1H10 UNL     1      -5.929  37.135  -5.282  1.00  0.00     0.278 HD
ATOM     27  H8  UNL     1      -8.156  34.218  -3.991  1.00  0.00     0.163 HD
ENDBRANCH  13  17
BRANCH  15  28
HETATM   28  C16 UNL     1     -10.732  33.908  -8.445  1.00  0.00     0.312 C 
BRANCH  28  29
HETATM   29  O2  UNL     1     -11.761  33.142  -7.891  1.00  0.00    -0.365 OA
ATOM     30  H2  UNL     1     -12.159  32.612  -8.572  1.00  0.00     0.213 HD
ENDBRANCH  28  29
BRANCH  28  31
HETATM   31  O3  UNL     1     -10.650  33.547  -9.791  1.00  0.00    -0.365 OA
ATOM     32  H3  UNL     1     -11.423  33.065 -10.061  1.00  0.00     0.213 HD
ENDBRANCH  28  31
ENDBRANCH  15  28
ENDBRANCH   9  11
ENDBRANCH   8   9
BRANCH   1  33
HETATM   33  C3  UNL     1      -7.180  29.088 -10.137  1.00  0.00     0.170 C 
BRANCH  33  34
HETATM   34  N4  UNL     1      -8.482  28.954 -10.614  1.00  0.00    -0.165 N 
ATOM     35  H4  UNL     1      -8.593  28.311 -11.398  1.00  0.00     0.186 HD
BRANCH  34  36
HETATM   36  C2  UNL     1      -9.547  29.512 -10.220  1.00  0.00     0.737 A 
HETATM   37  N3  UNL     1      -9.740  29.911  -8.941  1.00  0.00    -0.113 N 
HETATM   38  N2  UNL     1     -10.942  30.453  -8.869  1.00  0.00    -0.210 N 
ATOM     39  H3  UNL     1      -9.076  29.810  -8.172  1.00  0.00     0.207 HD
HETATM   40  N1  UNL     1     -11.522  30.418 -10.039  1.00  0.00    -0.188 N 
ATOM     41  H2  UNL     1     -11.357  30.843  -8.022  1.00  0.00     0.210 HD
HETATM   42  C1  UNL     1     -12.846  30.911 -10.386  1.00  0.00     0.204 C 
HETATM   43  N11 UNL     1     -10.652  29.832 -10.877  1.00  0.00    -0.008 N 
BRANCH  43  44
HETATM   44  N12 UNL     1     -10.940  29.632 -12.217  1.00  0.00    -0.308 N 
ATOM     45 2H12 UNL     1     -11.514  30.209 -12.833  1.00  0.00     0.179 HD
ATOM     46 1H12 UNL     1     -10.579  28.832 -12.736  1.00  0.00     0.179 HD
ENDBRANCH  43  44
ENDBRANCH  34  36
ENDBRANCH  33  34
BRANCH  33  47
HETATM   47  O1  UNL     1      -6.333  29.306 -11.100  1.00  0.00    -0.345 OA
ATOM     48  H1  UNL     1      -5.625  28.672 -11.096  1.00  0.00     0.219 HD
ENDBRANCH  33  47
ENDBRANCH   1  33
TORSDOF 11
ENDMDL
MODEL 2
REMARK VINA RESULT: -8.845371963      1.137      1.204
REMARK  11 active torsions:
REMARK  status: ('A' for Active; 'I' for Inactive)
REMARK    1  A    between atoms: C2_7  and  N4_8 
REMARK    2  A    between atoms: N4_8  and  C3_10 
REMARK    3  A    between atoms: C3_10  and  O1_11 
REMARK    4  A    between atoms: C3_10  and  C4_13 
REMARK    5  A    between atoms: C9_20  and  N7_21 
REMARK    6  A    between atoms: N7_21  and  C10_23 
REMARK    7  A    between atoms: C12_25  and  N8_26 
REMARK       I    between atoms: N8_26  and  C13_28 
REMARK       I    between atoms: C13_28  and  N9_29 
REMARK       I    between atoms: C13_28  and  N10_33 
REMARK    8  A    between atoms: C15_38  and  C16_39 
REMARK    9  A    between atoms: C16_39  and  O2_40 
REMARK   10  A    between atoms: C16_39  and  O3_42 
REMARK   11  A    between atoms: N11_45  and  N12_46 
ROOT
HETATM    1  C4  UNL     1      -6.685  28.946  -8.800  1.00  0.00     0.066 A 
HETATM    2  C5  UNL     1      -6.442  27.646  -8.319  1.00  0.00     0.065 A 
HETATM    3  N5  UNL     1      -6.704  26.488  -9.093  1.00  0.00    -0.101 NA
HETATM    4  C6  UNL     1      -5.932  27.532  -7.050  1.00  0.00     0.054 A 
HETATM    5  C7  UNL     1      -5.662  28.620  -6.263  1.00  0.00     0.050 A 
HETATM    6  N6  UNL     1      -5.133  28.475  -4.953  1.00  0.00    -0.102 NA
HETATM    7  C8  UNL     1      -5.898  29.895  -6.723  1.00  0.00     0.057 A 
HETATM    8  C9  UNL     1      -6.414  30.054  -8.000  1.00  0.00     0.052 A 
ENDROOT
BRANCH   8   9
HETATM    9  N7  UNL     1      -6.755  31.343  -8.412  1.00  0.00    -0.336 N 
ATOM     10  H7  UNL     1      -6.337  31.664  -9.286  1.00  0.00     0.168 HD
BRANCH   9  11
HETATM   11  C10 UNL     1      -7.616  32.255  -7.754  1.00  0.00     0.150 A 
HETATM   12  C11 UNL     1      -7.152  32.889  -6.588  1.00  0.00     0.085 A 
HETATM   13  C12 UNL     1      -7.909  33.787  -5.873  1.00  0.00     0.037 A 
HETATM   14  C14 UNL     1      -9.196  34.077  -6.335  1.00  0.00     0.067 A 
HETATM   15  C15 UNL     1      -9.599  33.432  -7.476  1.00  0.00     0.112 A 
HETATM   16  O4  UNL     1      -8.816  32.589  -8.098  1.00  0.00    -0.293 OA
BRANCH  13  17
HETATM   17  N8  UNL     1      -7.484  34.369  -4.803  1.00  0.00    -0.341 N 
HETATM   18  C13 UNL     1      -6.364  35.258  -4.876  1.00  0.00     0.480 C 
HETATM   19  N9  UNL     1      -5.862  35.551  -3.534  1.00  0.00    -0.033 N 
HETATM   20  N10 UNL     1      -6.787  36.528  -5.445  1.00  0.00    -0.033 N 
ATOM     21  H93 UNL     1      -6.595  35.912  -2.924  1.00  0.00     0.278 HD
ATOM     22  H92 UNL     1      -5.639  34.701  -3.017  1.00  0.00     0.278 HD
ATOM     23  H91 UNL     1      -5.064  36.185  -3.586  1.00  0.00     0.278 HD
ATOM     24 3H10 UNL     1      -7.245  36.411  -6.349  1.00  0.00     0.278 HD
ATOM     25 2H10 UNL     1      -7.572  36.936  -4.936  1.00  0.00     0.278 HD
ATOM     26 1H10 UNL     1      -5.989  37.162  -5.497  1.00  0.00     0.278 HD
ATOM     27  H8  UNL     1      -7.944  34.197  -3.909  1.00  0.00     0.163 HD
ENDBRANCH  13  17
BRANCH  15  28
HETATM   28  C16 UNL     1     -10.956  33.665  -8.059  1.00  0.00     0.312 C 
BRANCH  28  29
HETATM   29  O2  UNL     1     -11.651  32.453  -8.106  1.00  0.00    -0.365 OA
ATOM     30  H2  UNL     1     -12.577  32.619  -7.978  1.00  0.00     0.213 HD
ENDBRANCH  28  29
BRANCH  28  31
HETATM   31  O3  UNL     1     -10.863  34.120  -9.376  1.00  0.00    -0.365 OA
ATOM     32  H3  UNL     1     -11.653  34.579  -9.634  1.00  0.00     0.213 HD
ENDBRANCH  28  31
ENDBRANCH  15  28
ENDBRANCH   9  11
ENDBRANCH   8   9
BRANCH   1  33
HETATM   33  C3  UNL     1      -7.181  28.998 -10.159  1.00  0.00     0.170 C 
BRANCH  33  34
HETATM   34  N4  UNL     1      -8.490  29.070 -10.630  1.00  0.00    -0.165 N 
ATOM     35  H4  UNL     1      -8.964  28.173 -10.733  1.00  0.00     0.186 HD
BRANCH  34  36
HETATM   36  C2  UNL     1      -9.178  30.083 -10.949  1.00  0.00     0.737 A 
HETATM   37  N3  UNL     1     -10.079  30.653 -10.116  1.00  0.00    -0.113 N 
HETATM   38  N2  UNL     1     -10.614  31.681 -10.750  1.00  0.00    -0.210 N 
ATOM     39  H3  UNL     1     -10.305  30.345  -9.171  1.00  0.00     0.207 HD
HETATM   40  N1  UNL     1     -10.097  31.792 -11.945  1.00  0.00    -0.188 N 
ATOM     41  H2  UNL     1     -11.327  32.299 -10.363  1.00  0.00     0.210 HD
HETATM   42  C1  UNL     1     -10.411  32.787 -12.958  1.00  0.00     0.204 C 
HETATM   43  N11 UNL     1      -9.204  30.796 -12.065  1.00  0.00    -0.008 N 
BRANCH  43  44
HETATM   44  N12 UNL     1      -8.457  30.612 -13.218  1.00  0.00    -0.308 N 
ATOM     45 2H12 UNL     1      -7.458  30.423 -13.300  1.00  0.00     0.179 HD
ATOM     46 1H12 UNL     1      -8.875  30.655 -14.147  1.00  0.00     0.179 HD
ENDBRANCH  43  44
ENDBRANCH  34  36
ENDBRANCH  33  34
BRANCH  33  47
HETATM   47  O1  UNL     1      -6.318  28.984 -11.131  1.00  0.00    -0.345 OA
ATOM     48  H1  UNL     1      -5.860  29.813 -11.208  1.00  0.00     0.219 HD
ENDBRANCH  33  47
ENDBRANCH   1  33
TORSDOF 11
ENDMDL
MODEL 3
REMARK VINA RESULT: -8.785730329      2.781      6.423
REMARK  11 active torsions:
REMARK  status: ('A' for Active; 'I' for Inactive)
REMARK    1  A    between atoms: C2_7  and  N4_8 
REMARK    2  A    between atoms: N4_8  and  C3_10 
REMARK    3  A    between atoms: C3_10  and  O1_11 
REMARK    4  A    between atoms: C3_10  and  C4_13 
REMARK    5  A    between atoms: C9_20  and  N7_21 
REMARK    6  A    between atoms: N7_21  and  C10_23 
REMARK    7  A    between atoms: C12_25  and  N8_26 
REMARK       I    between atoms: N8_26  and  C13_28 
REMARK       I    between atoms: C13_28  and  N9_29 
REMARK       I    between atoms: C13_28  and  N10_33 
REMARK    8  A    between atoms: C15_38  and  C16_39 
REMARK    9  A    between atoms: C16_39  and  O2_40 
REMARK   10  A    between atoms: C16_39  and  O3_42 
REMARK   11  A    between atoms: N11_45  and  N12_46 
ROOT
HETATM    1  C4  UNL     1      -8.970  34.062  -7.338  1.00  0.00     0.066 A 
HETATM    2  C5  UNL     1      -8.595  35.372  -7.689  1.00  0.00     0.065 A 
HETATM    3  N5  UNL     1      -9.221  36.086  -8.742  1.00  0.00    -0.101 NA
HETATM    4  C6  UNL     1      -7.580  35.949  -6.966  1.00  0.00     0.054 A 
HETATM    5  C7  UNL     1      -6.944  35.301  -5.941  1.00  0.00     0.050 A 
HETATM    6  N6  UNL     1      -5.898  35.921  -5.207  1.00  0.00    -0.102 NA
HETATM    7  C8  UNL     1      -7.302  34.020  -5.591  1.00  0.00     0.057 A 
HETATM    8  C9  UNL     1      -8.322  33.399  -6.297  1.00  0.00     0.052 A 
ENDROOT
BRANCH   8   9
HETATM    9  N7  UNL     1      -8.599  32.063  -6.009  1.00  0.00    -0.336 N 
ATOM     10  H7  UNL     1      -9.343  31.891  -5.332  1.00  0.00     0.168 HD
BRANCH   9  11
HETATM   11  C10 UNL     1      -7.965  30.918  -6.551  1.00  0.00     0.150 A 
HETATM   12  C11 UNL     1      -8.546  30.300  -7.673  1.00  0.00     0.085 A 
HETATM   13  C12 UNL     1      -8.013  29.183  -8.272  1.00  0.00     0.037 A 
HETATM   14  C14 UNL     1      -6.839  28.647  -7.736  1.00  0.00     0.067 A 
HETATM   15  C15 UNL     1      -6.314  29.287  -6.644  1.00  0.00     0.112 A 
HETATM   16  O4  UNL     1      -6.885  30.347  -6.131  1.00  0.00    -0.293 OA
BRANCH  13  17
HETATM   17  N8  UNL     1      -8.546  28.616  -9.301  1.00  0.00    -0.341 N 
HETATM   18  C13 UNL     1      -9.076  29.421 -10.360  1.00  0.00     0.480 C 
HETATM   19  N9  UNL     1      -9.898  28.606 -11.253  1.00  0.00    -0.033 N 
HETATM   20  N10 UNL     1      -7.985  29.946 -11.165  1.00  0.00    -0.033 N 
ATOM     21  H93 UNL     1      -9.386  27.798 -11.609  1.00  0.00     0.278 HD
ATOM     22  H92 UNL     1     -10.632  28.109 -10.748  1.00  0.00     0.278 HD
ATOM     23  H91 UNL     1     -10.276  29.179 -12.008  1.00  0.00     0.278 HD
ATOM     24 3H10 UNL     1      -7.301  30.452 -10.604  1.00  0.00     0.278 HD
ATOM     25 2H10 UNL     1      -7.372  29.207 -11.512  1.00  0.00     0.278 HD
ATOM     26 1H10 UNL     1      -8.363  30.519 -11.920  1.00  0.00     0.278 HD
ATOM     27  H8  UNL     1      -8.589  27.598  -9.360  1.00  0.00     0.163 HD
ENDBRANCH  13  17
BRANCH  15  28
HETATM   28  C16 UNL     1      -5.062  28.799  -5.988  1.00  0.00     0.312 C 
BRANCH  28  29
HETATM   29  O2  UNL     1      -4.741  27.535  -6.490  1.00  0.00    -0.365 OA
ATOM     30  H2  UNL     1      -3.876  27.563  -6.880  1.00  0.00     0.213 HD
ENDBRANCH  28  29
BRANCH  28  31
HETATM   31  O3  UNL     1      -5.245  28.644  -4.613  1.00  0.00    -0.365 OA
ATOM     32  H3  UNL     1      -5.144  27.735  -4.357  1.00  0.00     0.213 HD
ENDBRANCH  28  31
ENDBRANCH  15  28
ENDBRANCH   9  11
ENDBRANCH   8   9
BRANCH   1  33
HETATM   33  C3  UNL     1     -10.072  33.528  -8.110  1.00  0.00     0.170 C 
BRANCH  33  34
HETATM   34  N4  UNL     1     -10.060  32.731  -9.252  1.00  0.00    -0.165 N 
ATOM     35  H4  UNL     1     -10.349  31.764  -9.109  1.00  0.00     0.186 HD
BRANCH  34  36
HETATM   36  C2  UNL     1      -9.744  33.029 -10.440  1.00  0.00     0.737 A 
HETATM   37  N3  UNL     1      -8.560  33.595 -10.768  1.00  0.00    -0.113 N 
HETATM   38  N2  UNL     1      -8.549  33.770 -12.077  1.00  0.00    -0.210 N 
ATOM     39  H3  UNL     1      -7.811  33.842 -10.121  1.00  0.00     0.207 HD
HETATM   40  N1  UNL     1      -9.669  33.343 -12.597  1.00  0.00    -0.188 N 
ATOM     41  H2  UNL     1      -7.778  34.179 -12.605  1.00  0.00     0.210 HD
HETATM   42  C1  UNL     1     -10.056  33.354 -13.999  1.00  0.00     0.204 C 
HETATM   43  N11 UNL     1     -10.410  32.883 -11.576  1.00  0.00    -0.008 N 
BRANCH  43  44
HETATM   44  N12 UNL     1     -11.674  32.347 -11.766  1.00  0.00    -0.308 N 
ATOM     45 2H12 UNL     1     -12.019  31.812 -12.564  1.00  0.00     0.179 HD
ATOM     46 1H12 UNL     1     -12.417  32.451 -11.076  1.00  0.00     0.179 HD
ENDBRANCH  43  44
ENDBRANCH  34  36
ENDBRANCH  33  34
BRANCH  33  47
HETATM   47  O1  UNL     1     -11.284  33.796  -7.721  1.00  0.00    -0.345 OA
ATOM     48  H1  UNL     1     -11.848  34.016  -8.453  1.00  0.00     0.219 HD
ENDBRANCH  33  47
ENDBRANCH   1  33
TORSDOF 11
ENDMDL
MODEL 4
REMARK VINA RESULT: -8.743679342      1.666      2.022
REMARK  11 active torsions:
REMARK  status: ('A' for Active; 'I' for Inactive)
REMARK    1  A    between atoms: C2_7  and  N4_8 
REMARK    2  A    between atoms: N4_8  and  C3_10 
REMARK    3  A    between atoms: C3_10  and  O1_11 
REMARK    4  A    between atoms: C3_10  and  C4_13 
REMARK    5  A    between atoms: C9_20  and  N7_21 
REMARK    6  A    between atoms: N7_21  and  C10_23 
REMARK    7  A    between atoms: C12_25  and  N8_26 
REMARK       I    between atoms: N8_26  and  C13_28 
REMARK       I    between atoms: C13_28  and  N9_29 
REMARK       I    between atoms: C13_28  and  N10_33 
REMARK    8  A    between atoms: C15_38  and  C16_39 
REMARK    9  A    between atoms: C16_39  and  O2_40 
REMARK   10  A    between atoms: C16_39  and  O3_42 
REMARK   11  A    between atoms: N11_45  and  N12_46 
ROOT
HETATM    1  C4  UNL     1      -6.970  29.136  -9.188  1.00  0.00     0.066 A 
HETATM    2  C5  UNL     1      -6.819  27.886  -8.559  1.00  0.00     0.065 A 
HETATM    3  N5  UNL     1      -7.172  26.669  -9.192  1.00  0.00    -0.101 NA
HETATM    4  C6  UNL     1      -6.308  27.883  -7.284  1.00  0.00     0.054 A 
HETATM    5  C7  UNL     1      -5.952  29.033  -6.630  1.00  0.00     0.050 A 
HETATM    6  N6  UNL     1      -5.424  29.002  -5.311  1.00  0.00    -0.102 NA
HETATM    7  C8  UNL     1      -6.097  30.259  -7.235  1.00  0.00     0.057 A 
HETATM    8  C9  UNL     1      -6.611  30.307  -8.523  1.00  0.00     0.052 A 
ENDROOT
BRANCH   8   9
HETATM    9  N7  UNL     1      -6.859  31.560  -9.082  1.00  0.00    -0.336 N 
ATOM     10  H7  UNL     1      -6.184  31.891  -9.771  1.00  0.00     0.168 HD
BRANCH   9  11
HETATM   11  C10 UNL     1      -7.945  32.426  -8.801  1.00  0.00     0.150 A 
HETATM   12  C11 UNL     1      -7.711  33.550  -7.989  1.00  0.00     0.085 A 
HETATM   13  C12 UNL     1      -8.695  34.450  -7.654  1.00  0.00     0.037 A 
HETATM   14  C14 UNL     1      -9.983  34.228  -8.148  1.00  0.00     0.067 A 
HETATM   15  C15 UNL     1     -10.157  33.120  -8.935  1.00  0.00     0.112 A 
HETATM   16  O4  UNL     1      -9.166  32.311  -9.207  1.00  0.00    -0.293 OA
BRANCH  13  17
HETATM   17  N8  UNL     1      -8.480  35.481  -6.909  1.00  0.00    -0.341 N 
HETATM   18  C13 UNL     1      -7.516  36.459  -7.312  1.00  0.00     0.480 C 
HETATM   19  N9  UNL     1      -7.206  37.355  -6.199  1.00  0.00    -0.033 N 
HETATM   20  N10 UNL     1      -8.076  37.289  -8.367  1.00  0.00    -0.033 N 
ATOM     21  H93 UNL     1      -8.046  37.786  -5.812  1.00  0.00     0.278 HD
ATOM     22  H92 UNL     1      -6.904  36.842  -5.370  1.00  0.00     0.278 HD
ATOM     23  H91 UNL     1      -6.519  38.053  -6.486  1.00  0.00     0.278 HD
ATOM     24 3H10 UNL     1      -8.415  36.735  -9.154  1.00  0.00     0.278 HD
ATOM     25 2H10 UNL     1      -8.964  37.711  -8.094  1.00  0.00     0.278 HD
ATOM     26 1H10 UNL     1      -7.389  37.986  -8.654  1.00  0.00     0.278 HD
ATOM     27  H8  UNL     1      -8.996  35.599  -6.036  1.00  0.00     0.163 HD
ENDBRANCH  13  17
BRANCH  15  28
HETATM   28  C16 UNL     1     -11.494  32.785  -9.516  1.00  0.00     0.312 C 
BRANCH  28  29
HETATM   29  O2  UNL     1     -11.918  31.551  -9.015  1.00  0.00    -0.365 OA
ATOM     30  H2  UNL     1     -12.024  30.940  -9.735  1.00  0.00     0.213 HD
ENDBRANCH  28  29
BRANCH  28  31
HETATM   31  O3  UNL     1     -11.415  32.643 -10.903  1.00  0.00    -0.365 OA
ATOM     32  H3  UNL     1     -12.281  32.609 -11.291  1.00  0.00     0.213 HD
ENDBRANCH  28  31
ENDBRANCH  15  28
ENDBRANCH   9  11
ENDBRANCH   8   9
BRANCH   1  33
HETATM   33  C3  UNL     1      -7.472  29.067 -10.544  1.00  0.00     0.170 C 
BRANCH  33  34
HETATM   34  N4  UNL     1      -8.699  29.472 -11.064  1.00  0.00    -0.165 N 
ATOM     35  H4  UNL     1      -8.677  30.337 -11.603  1.00  0.00     0.186 HD
BRANCH  34  36
HETATM   36  C2  UNL     1      -9.836  28.926 -10.967  1.00  0.00     0.737 A 
HETATM   37  N3  UNL     1     -10.982  29.631 -10.826  1.00  0.00    -0.113 N 
HETATM   38  N2  UNL     1     -11.978  28.766 -10.759  1.00  0.00    -0.210 N 
ATOM     39  H3  UNL     1     -11.062  30.647 -10.780  1.00  0.00     0.207 HD
HETATM   40  N1  UNL     1     -11.520  27.545 -10.850  1.00  0.00    -0.188 N 
ATOM     41  H2  UNL     1     -12.961  29.014 -10.652  1.00  0.00     0.210 HD
HETATM   42  C1  UNL     1     -12.284  26.308 -10.821  1.00  0.00     0.204 C 
HETATM   43  N11 UNL     1     -10.187  27.648 -10.980  1.00  0.00    -0.008 N 
BRANCH  43  44
HETATM   44  N12 UNL     1      -9.372  26.536 -11.106  1.00  0.00    -0.308 N 
ATOM     45 2H12 UNL     1      -8.496  26.336 -10.622  1.00  0.00     0.179 HD
ATOM     46 1H12 UNL     1      -9.594  25.770 -11.741  1.00  0.00     0.179 HD
ENDBRANCH  43  44
ENDBRANCH  34  36
ENDBRANCH  33  34
BRANCH  33  47
HETATM   47  O1  UNL     1      -6.701  28.563 -11.462  1.00  0.00    -0.345 OA
ATOM     48  H1  UNL     1      -6.702  27.613 -11.441  1.00  0.00     0.219 HD
ENDBRANCH  33  47
ENDBRANCH   1  33
TORSDOF 11
ENDMDL
MODEL 5
REMARK VINA RESULT: -8.696752140      1.617      1.932
REMARK  11 active torsions:
REMARK  status: ('A' for Active; 'I' for Inactive)
REMARK    1  A    between atoms: C2_7  and  N4_8 
REMARK    2  A    between atoms: N4_8  and  C3_10 
REMARK    3  A    between atoms: C3_10  and  O1_11 
REMARK    4  A    between atoms: C3_10  and  C4_13 
REMARK    5  A    between atoms: C9_20  and  N7_21 
REMARK    6  A    between atoms: N7_21  and  C10_23 
REMARK    7  A    between atoms: C12_25  and  N8_26 
REMARK       I    between atoms: N8_26  and  C13_28 
REMARK       I    between atoms: C13_28  and  N9_29 
REMARK       I    between atoms: C13_28  and  N10_33 
REMARK    8  A    between atoms: C15_38  and  C16_39 
REMARK    9  A    between atoms: C16_39  and  O2_40 
REMARK   10  A    between atoms: C16_39  and  O3_42 
REMARK   11  A    between atoms: N11_45  and  N12_46 
ROOT
HETATM    1  C4  UNL     1      -6.778  29.047  -9.083  1.00  0.00     0.066 A 
HETATM    2  C5  UNL     1      -6.601  27.788  -8.479  1.00  0.00     0.065 A 
HETATM    3  N5  UNL     1      -6.893  26.575  -9.151  1.00  0.00    -0.101 NA
HETATM    4  C6  UNL     1      -6.125  27.771  -7.191  1.00  0.00     0.054 A 
HETATM    5  C7  UNL     1      -5.829  28.916  -6.500  1.00  0.00     0.050 A 
HETATM    6  N6  UNL     1      -5.337  28.871  -5.168  1.00  0.00    -0.102 NA
HETATM    7  C8  UNL     1      -6.000  30.151  -7.080  1.00  0.00     0.057 A 
HETATM    8  C9  UNL     1      -6.480  30.213  -8.381  1.00  0.00     0.052 A 
ENDROOT
BRANCH   8   9
HETATM    9  N7  UNL     1      -6.757  31.470  -8.917  1.00  0.00    -0.336 N 
ATOM     10  H7  UNL     1      -6.069  31.844  -9.571  1.00  0.00     0.168 HD
BRANCH   9  11
HETATM   11  C10 UNL     1      -7.886  32.285  -8.657  1.00  0.00     0.150 A 
HETATM   12  C11 UNL     1      -7.695  33.483  -7.943  1.00  0.00     0.085 A 
HETATM   13  C12 UNL     1      -8.723  34.342  -7.635  1.00  0.00     0.037 A 
HETATM   14  C14 UNL     1     -10.012  34.002  -8.056  1.00  0.00     0.067 A 
HETATM   15  C15 UNL     1     -10.142  32.825  -8.747  1.00  0.00     0.112 A 
HETATM   16  O4  UNL     1      -9.111  32.061  -8.999  1.00  0.00    -0.293 OA
BRANCH  13  17
HETATM   17  N8  UNL     1      -8.549  35.440  -6.982  1.00  0.00    -0.341 N 
HETATM   18  C13 UNL     1      -7.456  36.302  -7.319  1.00  0.00     0.480 C 
HETATM   19  N9  UNL     1      -7.259  37.304  -6.274  1.00  0.00    -0.033 N 
HETATM   20  N10 UNL     1      -7.770  37.031  -8.538  1.00  0.00    -0.033 N 
ATOM     21  H93 UNL     1      -8.113  37.830  -6.084  1.00  0.00     0.278 HD
ATOM     22  H92 UNL     1      -7.137  36.878  -5.355  1.00  0.00     0.278 HD
ATOM     23  H91 UNL     1      -6.480  37.918  -6.515  1.00  0.00     0.278 HD
ATOM     24 3H10 UNL     1      -8.020  36.408  -9.306  1.00  0.00     0.278 HD
ATOM     25 2H10 UNL     1      -8.653  37.537  -8.467  1.00  0.00     0.278 HD
ATOM     26 1H10 UNL     1      -6.991  37.645  -8.778  1.00  0.00     0.278 HD
ATOM     27  H8  UNL     1      -9.187  35.694  -6.227  1.00  0.00     0.163 HD
ENDBRANCH  13  17
BRANCH  15  28
HETATM   28  C16 UNL     1     -11.475  32.362  -9.242  1.00  0.00     0.312 C 
BRANCH  28  29
HETATM   29  O2  UNL     1     -11.515  30.965  -9.219  1.00  0.00    -0.365 OA
ATOM     30  H2  UNL     1     -12.420  30.678  -9.192  1.00  0.00     0.213 HD
ENDBRANCH  28  29
BRANCH  28  31
HETATM   31  O3  UNL     1     -11.674  32.742 -10.571  1.00  0.00    -0.365 OA
ATOM     32  H3  UNL     1     -11.022  32.348 -11.138  1.00  0.00     0.213 HD
ENDBRANCH  28  31
ENDBRANCH  15  28
ENDBRANCH   9  11
ENDBRANCH   8   9
BRANCH   1  33
HETATM   33  C3  UNL     1      -7.240  28.993 -10.454  1.00  0.00     0.170 C 
BRANCH  33  34
HETATM   34  N4  UNL     1      -8.435  28.503 -10.975  1.00  0.00    -0.165 N 
ATOM     35  H4  UNL     1      -8.589  27.503 -10.844  1.00  0.00     0.186 HD
BRANCH  34  36
HETATM   36  C2  UNL     1      -9.359  29.114 -11.586  1.00  0.00     0.737 A 
HETATM   37  N3  UNL     1      -9.525  30.456 -11.520  1.00  0.00    -0.113 N 
HETATM   38  N2  UNL     1     -10.567  30.767 -12.269  1.00  0.00    -0.210 N 
ATOM     39  H3  UNL     1      -8.949  31.108 -10.988  1.00  0.00     0.207 HD
HETATM   40  N1  UNL     1     -11.072  29.688 -12.808  1.00  0.00    -0.188 N 
ATOM     41  H2  UNL     1     -10.926  31.712 -12.407  1.00  0.00     0.210 HD
HETATM   42  C1  UNL     1     -12.220  29.596 -13.696  1.00  0.00     0.204 C 
HETATM   43  N11 UNL     1     -10.318  28.662 -12.381  1.00  0.00    -0.008 N 
BRANCH  43  44
HETATM   44  N12 UNL     1     -10.570  27.355 -12.764  1.00  0.00    -0.308 N 
ATOM     45 2H12 UNL     1      -9.975  26.731 -13.311  1.00  0.00     0.179 HD
ATOM     46 1H12 UNL     1     -11.434  26.874 -12.515  1.00  0.00     0.179 HD
ENDBRANCH  43  44
ENDBRANCH  34  36
ENDBRANCH  33  34
BRANCH  33  47
HETATM   47  O1  UNL     1      -6.465  29.465 -11.384  1.00  0.00    -0.345 OA
ATOM     48  H1  UNL     1      -5.699  29.895 -11.021  1.00  0.00     0.219 HD
ENDBRANCH  33  47
ENDBRANCH   1  33
TORSDOF 11
ENDMDL
