MODEL 1
REMARK VINA RESULT: -8.370649000      0.000      0.000
REMARK  14 active torsions:
REMARK  status: ('A' for Active; 'I' for Inactive)
REMARK    1  A    between atoms: C2_4  and  O3_5 
REMARK    2  A    between atoms: C3_7  and  C4_8 
REMARK    3  A    between atoms: C4_8  and  C5_9 
REMARK    4  A    between atoms: C6_10  and  C7_11 
REMARK    5  A    between atoms: C7_11  and  O4_12 
REMARK    6  A    between atoms: C7_11  and  O5_14 
REMARK    7  A    between atoms: C9_19  and  C10_20 
REMARK    8  A    between atoms: C10_20  and  O6_21 
REMARK    9  A    between atoms: C12_24  and  O7_25 
REMARK   10  A    between atoms: C12_24  and  N2_27 
REMARK   11  A    between atoms: N2_27  and  C13_29 
REMARK   12  A    between atoms: C13_29  and  C14_30 
REMARK   13  A    between atoms: C14_30  and  O8_31 
REMARK   14  A    between atoms: C14_30  and  O9_33 
ROOT
HETATM    1  C5  UNL     1      -9.045  32.211  -7.179  1.00  0.00     0.032 A 
HETATM    2  C6  UNL     1     -10.259  32.173  -8.079  1.00  0.00     0.079 A 
HETATM    3  N1  UNL     1     -10.554  31.117  -8.947  1.00  0.00    -0.334 N 
ATOM      4  H1  UNL     1     -11.383  31.122  -9.541  1.00  0.00     0.168 HD
HETATM    5  C8  UNL     1      -9.658  30.071  -8.952  1.00  0.00     0.162 A 
HETATM    6  C9  UNL     1      -8.826  29.001  -9.016  1.00  0.00     0.055 A 
HETATM    7  C11 UNL     1      -7.583  28.980  -8.128  1.00  0.00     0.084 A 
HETATM    8  C12 UNL     1      -6.785  27.988  -8.155  1.00  0.00     0.151 C 
HETATM    9  C15 UNL     1      -7.314  30.157  -7.202  1.00  0.00     0.222 A 
HETATM   10  O10 UNL     1      -6.445  30.529  -6.334  1.00  0.00    -0.284 OA
HETATM   11  C16 UNL     1      -8.234  31.062  -7.306  1.00  0.00     0.141 A 
HETATM   12  O11 UNL     1      -8.916  30.540  -8.123  1.00  0.00    -0.288 OA
ENDROOT
BRANCH   6  13
HETATM   13  C10 UNL     1      -9.332  28.089  -9.949  1.00  0.00     0.148 C 
BRANCH  13  14
HETATM   14  O6  UNL     1     -10.595  28.352 -10.500  1.00  0.00    -0.372 OA
ATOM     15  H6  UNL     1     -11.274  28.671  -9.918  1.00  0.00     0.216 HD
ENDBRANCH  13  14
ENDBRANCH   6  13
BRANCH   8  16
HETATM   16  O7  UNL     1      -7.057  26.917  -9.009  1.00  0.00    -0.346 OA
ATOM     17  H7  UNL     1      -7.102  26.038  -8.651  1.00  0.00     0.219 HD
ENDBRANCH   8  16
BRANCH   8  18
HETATM   18  N2  UNL     1      -5.624  27.878  -7.376  1.00  0.00    -0.366 N 
ATOM     19  H2  UNL     1      -4.789  28.421  -7.598  1.00  0.00     0.161 HD
BRANCH  18  20
HETATM   20  C13 UNL     1      -5.644  26.977  -6.255  1.00  0.00     0.182 C 
BRANCH  20  21
HETATM   21  C14 UNL     1      -4.774  27.436  -5.132  1.00  0.00     0.271 C 
BRANCH  21  22
HETATM   22  O8  UNL     1      -5.156  28.648  -4.575  1.00  0.00    -0.370 OA
ATOM     23  H8  UNL     1      -4.503  29.039  -4.006  1.00  0.00     0.212 HD
ENDBRANCH  21  22
BRANCH  21  24
HETATM   24  O9  UNL     1      -4.753  26.444  -4.133  1.00  0.00    -0.370 OA
ATOM     25  H9  UNL     1      -5.534  25.909  -4.211  1.00  0.00     0.212 HD
ENDBRANCH  21  24
ENDBRANCH  20  21
ENDBRANCH  18  20
ENDBRANCH   8  18
BRANCH   1  26
HETATM   26  C4  UNL     1      -8.669  32.962  -6.257  1.00  0.00     0.059 C 
BRANCH  26  27
HETATM   27  C3  UNL     1      -7.835  34.100  -6.043  1.00  0.00     0.140 A 
HETATM   28  C2  UNL     1      -7.518  35.132  -6.925  1.00  0.00     0.223 A 
HETATM   29  O2  UNL     1      -6.715  35.922  -6.271  1.00  0.00    -0.229 OA
HETATM   30  C1  UNL     1      -6.491  35.499  -5.069  1.00  0.00     0.419 A 
HETATM   31  O1  UNL     1      -5.764  36.008  -4.153  1.00  0.00    -0.229 OA
HETATM   32  O12 UNL     1      -7.165  34.405  -4.934  1.00  0.00    -0.250 OA
BRANCH  28  33
HETATM   33  O3  UNL     1      -8.012  35.208  -8.217  1.00  0.00    -0.338 OA
ATOM     34  H3  UNL     1      -8.809  34.862  -8.599  1.00  0.00     0.220 HD
ENDBRANCH  28  33
ENDBRANCH  26  27
ENDBRANCH   1  26
BRANCH   2  35
HETATM   35  C7  UNL     1     -11.150  33.288  -8.043  1.00  0.00     0.306 C 
BRANCH  35  36
HETATM   36  O4  UNL     1     -10.671  34.333  -8.842  1.00  0.00    -0.366 OA
ATOM     37  H4  UNL     1     -11.196  34.423  -9.629  1.00  0.00     0.213 HD
ENDBRANCH  35  36
BRANCH  35  38
HETATM   38  O5  UNL     1     -12.373  32.902  -8.580  1.00  0.00    -0.366 OA
ATOM     39  H5  UNL     1     -12.939  32.611  -7.875  1.00  0.00     0.213 HD
ENDBRANCH  35  38
ENDBRANCH   2  35
TORSDOF 14
ENDMDL
MODEL 2
REMARK VINA RESULT: -8.103067418      1.856      6.405
REMARK  14 active torsions:
REMARK  status: ('A' for Active; 'I' for Inactive)
REMARK    1  A    between atoms: C2_4  and  O3_5 
REMARK    2  A    between atoms: C3_7  and  C4_8 
REMARK    3  A    between atoms: C4_8  and  C5_9 
REMARK    4  A    between atoms: C6_10  and  C7_11 
REMARK    5  A    between atoms: C7_11  and  O4_12 
REMARK    6  A    between atoms: C7_11  and  O5_14 
REMARK    7  A    between atoms: C9_19  and  C10_20 
REMARK    8  A    between atoms: C10_20  and  O6_21 
REMARK    9  A    between atoms: C12_24  and  O7_25 
REMARK   10  A    between atoms: C12_24  and  N2_27 
REMARK   11  A    between atoms: N2_27  and  C13_29 
REMARK   12  A    between atoms: C13_29  and  C14_30 
REMARK   13  A    between atoms: C14_30  and  O8_31 
REMARK   14  A    between atoms: C14_30  and  O9_33 
ROOT
HETATM    1  C5  UNL     1      -6.927  29.725  -8.454  1.00  0.00     0.032 A 
HETATM    2  C6  UNL     1      -7.569  29.083  -9.663  1.00  0.00     0.079 A 
HETATM    3  N1  UNL     1      -8.603  29.668 -10.400  1.00  0.00    -0.334 N 
ATOM      4  H1  UNL     1      -9.014  29.208 -11.213  1.00  0.00     0.168 HD
HETATM    5  C8  UNL     1      -9.033  30.901  -9.964  1.00  0.00     0.162 A 
HETATM    6  C9  UNL     1      -9.514  32.116  -9.600  1.00  0.00     0.055 A 
HETATM    7  C11 UNL     1      -8.904  32.818  -8.387  1.00  0.00     0.084 A 
HETATM    8  C12 UNL     1      -9.324  33.963  -8.023  1.00  0.00     0.151 C 
HETATM    9  C15 UNL     1      -7.779  32.134  -7.625  1.00  0.00     0.222 A 
HETATM   10  O10 UNL     1      -7.021  32.352  -6.611  1.00  0.00    -0.284 OA
HETATM   11  C16 UNL     1      -7.484  30.986  -8.144  1.00  0.00     0.141 A 
HETATM   12  O11 UNL     1      -8.265  30.979  -9.036  1.00  0.00    -0.288 OA
ENDROOT
BRANCH   6  13
HETATM   13  C10 UNL     1     -10.535  32.483 -10.484  1.00  0.00     0.148 C 
BRANCH  13  14
HETATM   14  O6  UNL     1     -10.229  33.419 -11.483  1.00  0.00    -0.372 OA
ATOM     15  H6  UNL     1     -10.458  33.201 -12.379  1.00  0.00     0.216 HD
ENDBRANCH  13  14
ENDBRANCH   6  13
BRANCH   8  16
HETATM   16  O7  UNL     1     -10.352  34.573  -8.744  1.00  0.00    -0.346 OA
ATOM     17  H7  UNL     1     -11.152  34.089  -8.913  1.00  0.00     0.219 HD
ENDBRANCH   8  16
BRANCH   8  18
HETATM   18  N2  UNL     1      -8.825  34.684  -6.928  1.00  0.00    -0.366 N 
ATOM     19  H2  UNL     1      -8.984  34.365  -5.973  1.00  0.00     0.161 HD
BRANCH  18  20
HETATM   20  C13 UNL     1      -8.080  35.887  -7.191  1.00  0.00     0.182 C 
BRANCH  20  21
HETATM   21  C14 UNL     1      -6.869  36.014  -6.330  1.00  0.00     0.271 C 
BRANCH  21  22
HETATM   22  O8  UNL     1      -6.702  37.270  -5.764  1.00  0.00    -0.370 OA
ATOM     23  H8  UNL     1      -6.011  37.315  -5.113  1.00  0.00     0.212 HD
ENDBRANCH  21  22
BRANCH  21  24
HETATM   24  O9  UNL     1      -6.924  35.042  -5.313  1.00  0.00    -0.370 OA
ATOM     25  H9  UNL     1      -7.821  34.965  -5.007  1.00  0.00     0.212 HD
ENDBRANCH  21  24
ENDBRANCH  20  21
ENDBRANCH  18  20
ENDBRANCH   8  18
BRANCH   1  26
HETATM   26  C4  UNL     1      -5.932  29.456  -7.751  1.00  0.00     0.059 C 
BRANCH  26  27
HETATM   27  C3  UNL     1      -5.580  28.691  -6.599  1.00  0.00     0.140 A 
HETATM   28  C2  UNL     1      -5.395  27.315  -6.484  1.00  0.00     0.223 A 
HETATM   29  O2  UNL     1      -5.100  27.100  -5.234  1.00  0.00    -0.229 OA
HETATM   30  C1  UNL     1      -5.078  28.196  -4.546  1.00  0.00     0.419 A 
HETATM   31  O1  UNL     1      -4.831  28.371  -3.307  1.00  0.00    -0.229 OA
HETATM   32  O12 UNL     1      -5.367  29.150  -5.368  1.00  0.00    -0.250 OA
BRANCH  28  33
HETATM   33  O3  UNL     1      -5.523  26.438  -7.548  1.00  0.00    -0.338 OA
ATOM     34  H3  UNL     1      -5.180  26.480  -8.433  1.00  0.00     0.220 HD
ENDBRANCH  28  33
ENDBRANCH  26  27
ENDBRANCH   1  26
BRANCH   2  35
HETATM   35  C7  UNL     1      -7.092  27.800 -10.067  1.00  0.00     0.306 C 
BRANCH  35  36
HETATM   36  O4  UNL     1      -7.686  26.787  -9.305  1.00  0.00    -0.366 OA
ATOM     37  H4  UNL     1      -7.564  25.939  -9.716  1.00  0.00     0.213 HD
ENDBRANCH  35  36
BRANCH  35  38
HETATM   38  O5  UNL     1      -7.467  27.577 -11.387  1.00  0.00    -0.366 OA
ATOM     39  H5  UNL     1      -7.080  26.761 -11.682  1.00  0.00     0.213 HD
ENDBRANCH  35  38
ENDBRANCH   2  35
TORSDOF 14
ENDMDL
MODEL 3
REMARK VINA RESULT: -8.072423489      1.308      1.884
REMARK  14 active torsions:
REMARK  status: ('A' for Active; 'I' for Inactive)
REMARK    1  A    between atoms: C2_4  and  O3_5 
REMARK    2  A    between atoms: C3_7  and  C4_8 
REMARK    3  A    between atoms: C4_8  and  C5_9 
REMARK    4  A    between atoms: C6_10  and  C7_11 
REMARK    5  A    between atoms: C7_11  and  O4_12 
REMARK    6  A    between atoms: C7_11  and  O5_14 
REMARK    7  A    between atoms: C9_19  and  C10_20 
REMARK    8  A    between atoms: C10_20  and  O6_21 
REMARK    9  A    between atoms: C12_24  and  O7_25 
REMARK   10  A    between atoms: C12_24  and  N2_27 
REMARK   11  A    between atoms: N2_27  and  C13_29 
REMARK   12  A    between atoms: C13_29  and  C14_30 
REMARK   13  A    between atoms: C14_30  and  O8_31 
REMARK   14  A    between atoms: C14_30  and  O9_33 
ROOT
HETATM    1  C5  UNL     1     -10.026  31.490  -8.293  1.00  0.00     0.032 A 
HETATM    2  C6  UNL     1     -10.986  31.080  -9.386  1.00  0.00     0.079 A 
HETATM    3  N1  UNL     1     -10.860  29.908 -10.138  1.00  0.00    -0.334 N 
ATOM      4  H1  UNL     1     -11.526  29.660 -10.869  1.00  0.00     0.168 HD
HETATM    5  C8  UNL     1      -9.781  29.109  -9.832  1.00  0.00     0.162 A 
HETATM    6  C9  UNL     1      -8.744  28.266  -9.593  1.00  0.00     0.055 A 
HETATM    7  C11 UNL     1      -7.740  28.624  -8.498  1.00  0.00     0.084 A 
HETATM    8  C12 UNL     1      -6.762  27.852  -8.240  1.00  0.00     0.151 C 
HETATM    9  C15 UNL     1      -7.931  29.912  -7.712  1.00  0.00     0.222 A 
HETATM   10  O10 UNL     1      -7.364  30.561  -6.759  1.00  0.00    -0.284 OA
HETATM   11  C16 UNL     1      -8.980  30.560  -8.108  1.00  0.00     0.141 A 
HETATM   12  O11 UNL     1      -9.347  29.816  -8.955  1.00  0.00    -0.288 OA
ENDROOT
BRANCH   6  13
HETATM   13  C10 UNL     1      -8.835  27.177 -10.466  1.00  0.00     0.148 C 
BRANCH  13  14
HETATM   14  O6  UNL     1     -10.110  26.817 -10.930  1.00  0.00    -0.372 OA
ATOM     15  H6  UNL     1     -10.308  26.973 -11.845  1.00  0.00     0.216 HD
ENDBRANCH  13  14
ENDBRANCH   6  13
BRANCH   8  16
HETATM   16  O7  UNL     1      -6.613  26.672  -8.971  1.00  0.00    -0.346 OA
ATOM     17  H7  UNL     1      -5.827  26.151  -8.857  1.00  0.00     0.219 HD
ENDBRANCH   8  16
BRANCH   8  18
HETATM   18  N2  UNL     1      -5.794  28.094  -7.253  1.00  0.00    -0.366 N 
ATOM     19  H2  UNL     1      -5.324  28.997  -7.190  1.00  0.00     0.161 HD
BRANCH  18  20
HETATM   20  C13 UNL     1      -5.485  27.033  -6.333  1.00  0.00     0.182 C 
BRANCH  20  21
HETATM   21  C14 UNL     1      -4.730  27.508  -5.138  1.00  0.00     0.271 C 
BRANCH  21  22
HETATM   22  O8  UNL     1      -5.193  28.705  -4.611  1.00  0.00    -0.370 OA
ATOM     23  H8  UNL     1      -4.900  28.880  -3.723  1.00  0.00     0.212 HD
ENDBRANCH  21  22
BRANCH  21  24
HETATM   24  O9  UNL     1      -4.766  26.510  -4.145  1.00  0.00    -0.370 OA
ATOM     25  H9  UNL     1      -3.918  26.084  -4.103  1.00  0.00     0.212 HD
ENDBRANCH  21  24
ENDBRANCH  20  21
ENDBRANCH  18  20
ENDBRANCH   8  18
BRANCH   1  26
HETATM   26  C4  UNL     1     -10.022  32.392  -7.431  1.00  0.00     0.059 C 
BRANCH  26  27
HETATM   27  C3  UNL     1      -9.236  33.510  -7.020  1.00  0.00     0.140 A 
HETATM   28  C2  UNL     1      -8.406  33.635  -5.907  1.00  0.00     0.223 A 
HETATM   29  O2  UNL     1      -7.922  34.842  -5.961  1.00  0.00    -0.229 OA
HETATM   30  C1  UNL     1      -8.357  35.494  -6.990  1.00  0.00     0.419 A 
HETATM   31  O1  UNL     1      -8.102  36.687  -7.362  1.00  0.00    -0.229 OA
HETATM   32  O12 UNL     1      -9.146  34.692  -7.625  1.00  0.00    -0.250 OA
BRANCH  28  33
HETATM   33  O3  UNL     1      -8.205  32.617  -4.989  1.00  0.00    -0.338 OA
ATOM     34  H3  UNL     1      -8.802  31.963  -4.647  1.00  0.00     0.220 HD
ENDBRANCH  28  33
ENDBRANCH  26  27
ENDBRANCH   1  26
BRANCH   2  35
HETATM   35  C7  UNL     1     -12.083  31.950  -9.670  1.00  0.00     0.306 C 
BRANCH  35  36
HETATM   36  O4  UNL     1     -12.014  32.424 -10.986  1.00  0.00    -0.366 OA
ATOM     37  H4  UNL     1     -12.674  32.009 -11.529  1.00  0.00     0.213 HD
ENDBRANCH  35  36
BRANCH  35  38
HETATM   38  O5  UNL     1     -13.266  31.228  -9.568  1.00  0.00    -0.366 OA
ATOM     39  H5  UNL     1     -13.383  30.717 -10.360  1.00  0.00     0.213 HD
ENDBRANCH  35  38
ENDBRANCH   2  35
TORSDOF 14
ENDMDL
MODEL 4
REMARK VINA RESULT: -7.904743575      1.647      2.032
REMARK  14 active torsions:
REMARK  status: ('A' for Active; 'I' for Inactive)
REMARK    1  A    between atoms: C2_4  and  O3_5 
REMARK    2  A    between atoms: C3_7  and  C4_8 
REMARK    3  A    between atoms: C4_8  and  C5_9 
REMARK    4  A    between atoms: C6_10  and  C7_11 
REMARK    5  A    between atoms: C7_11  and  O4_12 
REMARK    6  A    between atoms: C7_11  and  O5_14 
REMARK    7  A    between atoms: C9_19  and  C10_20 
REMARK    8  A    between atoms: C10_20  and  O6_21 
REMARK    9  A    between atoms: C12_24  and  O7_25 
REMARK   10  A    between atoms: C12_24  and  N2_27 
REMARK   11  A    between atoms: N2_27  and  C13_29 
REMARK   12  A    between atoms: C13_29  and  C14_30 
REMARK   13  A    between atoms: C14_30  and  O8_31 
REMARK   14  A    between atoms: C14_30  and  O9_33 
ROOT
HETATM    1  C5  UNL     1      -8.477  32.443  -8.592  1.00  0.00     0.032 A 
HETATM    2  C6  UNL     1      -8.844  32.435 -10.059  1.00  0.00     0.079 A 
HETATM    3  N1  UNL     1      -8.653  31.338 -10.905  1.00  0.00    -0.334 N 
ATOM      4  H1  UNL     1      -8.913  31.365 -11.891  1.00  0.00     0.168 HD
HETATM    5  C8  UNL     1      -8.095  30.220 -10.327  1.00  0.00     0.162 A 
HETATM    6  C9  UNL     1      -7.550  29.078  -9.835  1.00  0.00     0.055 A 
HETATM    7  C11 UNL     1      -7.161  29.024  -8.359  1.00  0.00     0.084 A 
HETATM    8  C12 UNL     1      -6.656  27.966  -7.861  1.00  0.00     0.151 C 
HETATM    9  C15 UNL     1      -7.393  30.248  -7.486  1.00  0.00     0.222 A 
HETATM   10  O10 UNL     1      -7.228  30.616  -6.267  1.00  0.00    -0.284 OA
HETATM   11  C16 UNL     1      -7.919  31.219  -8.162  1.00  0.00     0.141 A 
HETATM   12  O11 UNL     1      -7.990  30.691  -9.221  1.00  0.00    -0.288 OA
ENDROOT
BRANCH   6  13
HETATM   13  C10 UNL     1      -7.463  28.137 -10.867  1.00  0.00     0.148 C 
BRANCH  13  14
HETATM   14  O6  UNL     1      -6.250  28.046 -11.567  1.00  0.00    -0.372 OA
ATOM     15  H6  UNL     1      -6.288  28.018 -12.516  1.00  0.00     0.216 HD
ENDBRANCH  13  14
ENDBRANCH   6  13
BRANCH   8  16
HETATM   16  O7  UNL     1      -6.460  26.853  -8.681  1.00  0.00    -0.346 OA
ATOM     17  H7  UNL     1      -5.640  26.375  -8.627  1.00  0.00     0.219 HD
ENDBRANCH   8  16
BRANCH   8  18
HETATM   18  N2  UNL     1      -6.272  27.821  -6.520  1.00  0.00    -0.366 N 
ATOM     19  H2  UNL     1      -6.788  28.285  -5.773  1.00  0.00     0.161 HD
BRANCH  18  20
HETATM   20  C13 UNL     1      -5.128  26.998  -6.228  1.00  0.00     0.182 C 
BRANCH  20  21
HETATM   21  C14 UNL     1      -4.540  27.283  -4.887  1.00  0.00     0.271 C 
BRANCH  21  22
HETATM   22  O8  UNL     1      -5.037  28.427  -4.279  1.00  0.00    -0.370 OA
ATOM     23  H8  UNL     1      -4.490  28.765  -3.579  1.00  0.00     0.212 HD
ENDBRANCH  21  22
BRANCH  21  24
HETATM   24  O9  UNL     1      -4.754  26.173  -4.048  1.00  0.00    -0.370 OA
ATOM     25  H9  UNL     1      -4.714  25.379  -4.568  1.00  0.00     0.212 HD
ENDBRANCH  21  24
ENDBRANCH  20  21
ENDBRANCH  18  20
ENDBRANCH   8  18
BRANCH   1  26
HETATM   26  C4  UNL     1      -8.677  33.236  -7.650  1.00  0.00     0.059 C 
BRANCH  26  27
HETATM   27  C3  UNL     1      -7.953  33.966  -6.661  1.00  0.00     0.140 A 
HETATM   28  C2  UNL     1      -7.923  33.779  -5.280  1.00  0.00     0.223 A 
HETATM   29  O2  UNL     1      -7.130  34.701  -4.815  1.00  0.00    -0.229 OA
HETATM   30  C1  UNL     1      -6.654  35.451  -5.755  1.00  0.00     0.419 A 
HETATM   31  O1  UNL     1      -5.856  36.442  -5.676  1.00  0.00    -0.229 OA
HETATM   32  O12 UNL     1      -7.149  35.008  -6.863  1.00  0.00    -0.250 OA
BRANCH  28  33
HETATM   33  O3  UNL     1      -8.633  32.781  -4.632  1.00  0.00    -0.338 OA
ATOM     34  H3  UNL     1      -9.567  32.620  -4.574  1.00  0.00     0.220 HD
ENDBRANCH  28  33
ENDBRANCH  26  27
ENDBRANCH   1  26
BRANCH   2  35
HETATM   35  C7  UNL     1      -9.410  33.624 -10.610  1.00  0.00     0.306 C 
BRANCH  35  36
HETATM   36  O4  UNL     1      -8.451  34.341 -11.336  1.00  0.00    -0.366 OA
ATOM     37  H4  UNL     1      -8.627  35.274 -11.295  1.00  0.00     0.213 HD
ENDBRANCH  35  36
BRANCH  35  38
HETATM   38  O5  UNL     1     -10.409  33.269 -11.511  1.00  0.00    -0.366 OA
ATOM     39  H5  UNL     1     -10.433  33.911 -12.210  1.00  0.00     0.213 HD
ENDBRANCH  35  38
ENDBRANCH   2  35
TORSDOF 14
ENDMDL
MODEL 5
REMARK VINA RESULT: -7.866831273      1.938      6.417
REMARK  14 active torsions:
REMARK  status: ('A' for Active; 'I' for Inactive)
REMARK    1  A    between atoms: C2_4  and  O3_5 
REMARK    2  A    between atoms: C3_7  and  C4_8 
REMARK    3  A    between atoms: C4_8  and  C5_9 
REMARK    4  A    between atoms: C6_10  and  C7_11 
REMARK    5  A    between atoms: C7_11  and  O4_12 
REMARK    6  A    between atoms: C7_11  and  O5_14 
REMARK    7  A    between atoms: C9_19  and  C10_20 
REMARK    8  A    between atoms: C10_20  and  O6_21 
REMARK    9  A    between atoms: C12_24  and  O7_25 
REMARK   10  A    between atoms: C12_24  and  N2_27 
REMARK   11  A    between atoms: N2_27  and  C13_29 
REMARK   12  A    between atoms: C13_29  and  C14_30 
REMARK   13  A    between atoms: C14_30  and  O8_31 
REMARK   14  A    between atoms: C14_30  and  O9_33 
ROOT
HETATM    1  C5  UNL     1      -8.187  29.532  -8.187  1.00  0.00     0.032 A 
HETATM    2  C6  UNL     1      -8.578  29.412  -9.642  1.00  0.00     0.079 A 
HETATM    3  N1  UNL     1      -8.830  30.505 -10.476  1.00  0.00    -0.334 N 
ATOM      4  H1  UNL     1      -9.092  30.390 -11.455  1.00  0.00     0.168 HD
HETATM    5  C8  UNL     1      -8.704  31.748  -9.896  1.00  0.00     0.162 A 
HETATM    6  C9  UNL     1      -8.602  33.007  -9.401  1.00  0.00     0.055 A 
HETATM    7  C11 UNL     1      -8.207  33.195  -7.937  1.00  0.00     0.084 A 
HETATM    8  C12 UNL     1      -8.091  34.362  -7.442  1.00  0.00     0.151 C 
HETATM    9  C15 UNL     1      -7.943  31.967  -7.079  1.00  0.00     0.222 A 
HETATM   10  O10 UNL     1      -7.603  31.680  -5.874  1.00  0.00    -0.284 OA
HETATM   11  C16 UNL     1      -8.101  30.873  -7.753  1.00  0.00     0.141 A 
HETATM   12  O11 UNL     1      -8.397  31.343  -8.801  1.00  0.00    -0.288 OA
ENDROOT
BRANCH   6  13
HETATM   13  C10 UNL     1      -8.900  33.920 -10.419  1.00  0.00     0.148 C 
BRANCH  13  14
HETATM   14  O6  UNL     1      -9.699  33.473 -11.483  1.00  0.00    -0.372 OA
ATOM     15  H6  UNL     1     -10.001  34.118 -12.111  1.00  0.00     0.216 HD
ENDBRANCH  13  14
ENDBRANCH   6  13
BRANCH   8  16
HETATM   16  O7  UNL     1      -8.331  35.473  -8.253  1.00  0.00    -0.346 OA
ATOM     17  H7  UNL     1      -8.653  35.342  -9.137  1.00  0.00     0.219 HD
ENDBRANCH   8  16
BRANCH   8  18
HETATM   18  N2  UNL     1      -7.731  34.632  -6.114  1.00  0.00    -0.366 N 
ATOM     19  H2  UNL     1      -8.421  34.592  -5.364  1.00  0.00     0.161 HD
BRANCH  18  20
HETATM   20  C13 UNL     1      -6.359  34.967  -5.839  1.00  0.00     0.182 C 
BRANCH  20  21
HETATM   21  C14 UNL     1      -6.193  36.374  -5.370  1.00  0.00     0.271 C 
BRANCH  21  22
HETATM   22  O8  UNL     1      -6.964  37.299  -6.059  1.00  0.00    -0.370 OA
ATOM     23  H8  UNL     1      -7.120  37.076  -6.969  1.00  0.00     0.212 HD
ENDBRANCH  21  22
BRANCH  21  24
HETATM   24  O9  UNL     1      -6.495  36.438  -3.996  1.00  0.00    -0.370 OA
ATOM     25  H9  UNL     1      -5.703  36.272  -3.497  1.00  0.00     0.212 HD
ENDBRANCH  21  24
ENDBRANCH  20  21
ENDBRANCH  18  20
ENDBRANCH   8  18
BRANCH   1  26
HETATM   26  C4  UNL     1      -7.795  28.723  -7.321  1.00  0.00     0.059 C 
BRANCH  26  27
HETATM   27  C3  UNL     1      -6.587  28.138  -6.839  1.00  0.00     0.140 A 
HETATM   28  C2  UNL     1      -5.342  28.734  -6.640  1.00  0.00     0.223 A 
HETATM   29  O2  UNL     1      -4.562  27.788  -6.203  1.00  0.00    -0.229 OA
HETATM   30  C1  UNL     1      -5.181  26.656  -6.103  1.00  0.00     0.419 A 
HETATM   31  O1  UNL     1      -4.743  25.523  -5.714  1.00  0.00    -0.229 OA
HETATM   32  O12 UNL     1      -6.397  26.869  -6.485  1.00  0.00    -0.250 OA
BRANCH  28  33
HETATM   33  O3  UNL     1      -5.091  30.073  -6.890  1.00  0.00    -0.338 OA
ATOM     34  H3  UNL     1      -4.736  30.754  -6.331  1.00  0.00     0.220 HD
ENDBRANCH  28  33
ENDBRANCH  26  27
ENDBRANCH   1  26
BRANCH   2  35
HETATM   35  C7  UNL     1      -8.705  28.100 -10.191  1.00  0.00     0.306 C 
BRANCH  35  36
HETATM   36  O4  UNL     1     -10.041  27.816 -10.497  1.00  0.00    -0.366 OA
ATOM     37  H4  UNL     1     -10.189  27.859 -11.435  1.00  0.00     0.213 HD
ENDBRANCH  35  36
BRANCH  35  38
HETATM   38  O5  UNL     1      -8.001  28.045 -11.389  1.00  0.00    -0.366 OA
ATOM     39  H5  UNL     1      -8.596  28.243 -12.103  1.00  0.00     0.213 HD
ENDBRANCH  35  38
ENDBRANCH   2  35
TORSDOF 14
ENDMDL
