MODEL 1
REMARK VINA RESULT: -9.882276754      0.000      0.000
REMARK  8 active torsions:
REMARK  status: ('A' for Active; 'I' for Inactive)
REMARK    1  A    between atoms: C2_2  and  N1_3 
REMARK    2  A    between atoms: C5_8  and  C6_9 
REMARK    3  A    between atoms: C7_13  and  C8_14 
REMARK    4  A    between atoms: C8_14  and  C9_15 
REMARK       I    between atoms: C9_15  and  N4_17 
REMARK    5  A    between atoms: N4_17  and  N5_18 
REMARK    6  A    between atoms: N5_18  and  C10_20 
REMARK    7  A    between atoms: N6_22  and  N7_23 
REMARK    8  A    between atoms: N11_35  and  N12_36 
ROOT
HETATM    1  C6  UNL     1      -8.068  31.740  -7.574  1.00  0.00     0.159 A 
HETATM    2  N3  UNL     1      -9.120  31.014  -7.229  1.00  0.00    -0.241 N 
ATOM      3  H3  UNL     1     -10.056  31.389  -7.079  1.00  0.00     0.196 HD
HETATM    4  O2  UNL     1      -8.810  29.786  -7.111  1.00  0.00    -0.222 OA
HETATM    5  C7  UNL     1      -7.497  29.629  -7.380  1.00  0.00     0.158 A 
HETATM    6  N10 UNL     1      -7.052  30.823  -7.659  1.00  0.00    -0.321 N 
ATOM      7  H10 UNL     1      -6.087  31.044  -7.906  1.00  0.00     0.169 HD
ENDROOT
BRANCH   5   8
HETATM    8  C8  UNL     1      -6.890  28.279  -7.321  1.00  0.00     0.207 C 
BRANCH   8   9
HETATM    9  C9  UNL     1      -5.767  28.352  -6.392  1.00  0.00     0.320 C 
HETATM   10  O3  UNL     1      -5.682  29.345  -5.668  1.00  0.00    -0.255 OA
HETATM   11  N4  UNL     1      -4.739  27.220  -6.332  1.00  0.00    -0.286 NA
BRANCH  11  12
HETATM   12  N5  UNL     1      -3.993  26.403  -6.284  1.00  0.00    -0.229 N 
ATOM     13  H5  UNL     1      -3.284  26.505  -7.010  1.00  0.00     0.202 HD
BRANCH  12  14
HETATM   14  C10 UNL     1      -3.744  25.202  -5.452  1.00  0.00     0.106 A 
HETATM   15  C11 UNL     1      -3.172  24.091  -6.070  1.00  0.00     0.149 A 
HETATM   16  N6  UNL     1      -2.944  22.943  -5.381  1.00  0.00    -0.281 N 
HETATM   17  C12 UNL     1      -3.289  22.903  -4.036  1.00  0.00     0.144 A 
HETATM   18  C13 UNL     1      -3.839  23.948  -3.415  1.00  0.00     0.092 A 
HETATM   19  N8  UNL     1      -4.222  23.917  -2.028  1.00  0.00    -0.098 NA
HETATM   20  C14 UNL     1      -4.080  25.158  -4.156  1.00  0.00     0.082 A 
HETATM   21  N9  UNL     1      -4.543  26.065  -3.510  1.00  0.00    -0.396 N 
ATOM     22  H92 UNL     1      -4.714  26.923  -4.035  1.00  0.00     0.156 HD
ATOM     23  H91 UNL     1      -4.799  26.031  -2.523  1.00  0.00     0.156 HD
BRANCH  16  24
HETATM   24  N7  UNL     1      -2.386  21.845  -5.973  1.00  0.00    -0.339 N 
ATOM     25  H72 UNL     1      -2.962  21.027  -6.172  1.00  0.00     0.177 HD
ATOM     26  H71 UNL     1      -1.398  21.813  -6.225  1.00  0.00     0.177 HD
ENDBRANCH  16  24
ENDBRANCH  12  14
ENDBRANCH  11  12
ENDBRANCH   8   9
ENDBRANCH   5   8
BRANCH   1  27
HETATM   27  C5  UNL     1      -8.040  33.163  -7.837  1.00  0.00     0.136 A 
HETATM   28  C4  UNL     1      -7.694  34.012  -6.775  1.00  0.00     0.147 A 
HETATM   29  C3  UNL     1      -7.637  35.370  -6.908  1.00  0.00     0.278 A 
HETATM   30  N2  UNL     1      -7.387  33.446  -5.514  1.00  0.00    -0.094 NA
HETATM   31  N1  UNL     1      -7.918  35.920  -8.079  1.00  0.00    -0.264 N 
HETATM   32  O1  UNL     1      -7.316  36.090  -5.926  1.00  0.00    -0.266 OA
HETATM   33  C15 UNL     1      -8.250  35.114  -9.113  1.00  0.00     0.350 A 
HETATM   34  N11 UNL     1      -8.316  33.750  -8.996  1.00  0.00    -0.206 N 
HETATM   35  O4  UNL     1      -8.513  35.612 -10.225  1.00  0.00    -0.244 OA
BRANCH  31  36
HETATM   36  C2  UNL     1      -7.919  37.339  -8.206  1.00  0.00     0.133 C 
HETATM   37  C1  UNL     1      -9.269  37.997  -8.042  1.00  0.00     0.027 C 
ENDBRANCH  31  36
BRANCH  34  38
HETATM   38  N12 UNL     1      -8.700  33.020 -10.115  1.00  0.00    -0.334 N 
ATOM     39 2H12 UNL     1      -9.565  32.483 -10.059  1.00  0.00     0.177 HD
ATOM     40 1H12 UNL     1      -8.135  33.000 -10.964  1.00  0.00     0.177 HD
ENDBRANCH  34  38
ENDBRANCH   1  27
TORSDOF 8
ENDMDL
MODEL 2
REMARK VINA RESULT: -9.728240039      0.391      1.872
REMARK  8 active torsions:
REMARK  status: ('A' for Active; 'I' for Inactive)
REMARK    1  A    between atoms: C2_2  and  N1_3 
REMARK    2  A    between atoms: C5_8  and  C6_9 
REMARK    3  A    between atoms: C7_13  and  C8_14 
REMARK    4  A    between atoms: C8_14  and  C9_15 
REMARK       I    between atoms: C9_15  and  N4_17 
REMARK    5  A    between atoms: N4_17  and  N5_18 
REMARK    6  A    between atoms: N5_18  and  C10_20 
REMARK    7  A    between atoms: N6_22  and  N7_23 
REMARK    8  A    between atoms: N11_35  and  N12_36 
ROOT
HETATM    1  C6  UNL     1      -8.051  31.710  -7.299  1.00  0.00     0.159 A 
HETATM    2  N3  UNL     1      -9.081  30.956  -6.949  1.00  0.00    -0.241 N 
ATOM      3  H3  UNL     1     -10.016  31.313  -6.750  1.00  0.00     0.196 HD
HETATM    4  O2  UNL     1      -8.753  29.729  -6.893  1.00  0.00    -0.222 OA
HETATM    5  C7  UNL     1      -7.449  29.600  -7.213  1.00  0.00     0.158 A 
HETATM    6  N10 UNL     1      -7.027  30.811  -7.458  1.00  0.00    -0.321 N 
ATOM      7  H10 UNL     1      -6.074  31.054  -7.729  1.00  0.00     0.169 HD
ENDROOT
BRANCH   5   8
HETATM    8  C8  UNL     1      -6.824  28.257  -7.233  1.00  0.00     0.207 C 
BRANCH   8   9
HETATM    9  C9  UNL     1      -5.676  28.304  -6.333  1.00  0.00     0.320 C 
HETATM   10  O3  UNL     1      -5.545  29.298  -5.617  1.00  0.00    -0.255 OA
HETATM   11  N4  UNL     1      -4.680  27.143  -6.292  1.00  0.00    -0.286 NA
BRANCH  11  12
HETATM   12  N5  UNL     1      -3.955  26.306  -6.257  1.00  0.00    -0.229 N 
ATOM     13  H5  UNL     1      -3.265  26.381  -7.004  1.00  0.00     0.202 HD
BRANCH  12  14
HETATM   14  C10 UNL     1      -3.717  25.105  -5.422  1.00  0.00     0.106 A 
HETATM   15  C11 UNL     1      -3.169  23.982  -6.040  1.00  0.00     0.149 A 
HETATM   16  N6  UNL     1      -2.951  22.834  -5.347  1.00  0.00    -0.281 N 
HETATM   17  C12 UNL     1      -3.283  22.807  -3.998  1.00  0.00     0.144 A 
HETATM   18  C13 UNL     1      -3.809  23.863  -3.378  1.00  0.00     0.092 A 
HETATM   19  N8  UNL     1      -4.178  23.845  -1.986  1.00  0.00    -0.098 NA
HETATM   20  C14 UNL     1      -4.039  25.073  -4.123  1.00  0.00     0.082 A 
HETATM   21  N9  UNL     1      -4.482  25.991  -3.476  1.00  0.00    -0.396 N 
ATOM     22  H92 UNL     1      -4.645  26.848  -4.004  1.00  0.00     0.156 HD
ATOM     23  H91 UNL     1      -4.727  25.966  -2.486  1.00  0.00     0.156 HD
BRANCH  16  24
HETATM   24  N7  UNL     1      -2.417  21.725  -5.939  1.00  0.00    -0.339 N 
ATOM     25  H72 UNL     1      -2.980  21.173  -6.586  1.00  0.00     0.177 HD
ATOM     26  H71 UNL     1      -1.461  21.422  -5.753  1.00  0.00     0.177 HD
ENDBRANCH  16  24
ENDBRANCH  12  14
ENDBRANCH  11  12
ENDBRANCH   8   9
ENDBRANCH   5   8
BRANCH   1  27
HETATM   27  C5  UNL     1      -8.048  33.143  -7.504  1.00  0.00     0.136 A 
HETATM   28  C4  UNL     1      -8.326  33.613  -8.797  1.00  0.00     0.147 A 
HETATM   29  C3  UNL     1      -8.348  34.943  -9.105  1.00  0.00     0.278 A 
HETATM   30  N2  UNL     1      -8.598  32.679  -9.825  1.00  0.00    -0.094 NA
HETATM   31  N1  UNL     1      -8.099  35.834  -8.158  1.00  0.00    -0.264 N 
HETATM   32  O1  UNL     1      -8.608  35.317 -10.279  1.00  0.00    -0.266 OA
HETATM   33  C15 UNL     1      -7.832  35.396  -6.907  1.00  0.00     0.350 A 
HETATM   34  N11 UNL     1      -7.802  34.065  -6.581  1.00  0.00    -0.206 N 
HETATM   35  O4  UNL     1      -7.600  36.219  -6.000  1.00  0.00    -0.244 OA
BRANCH  31  36
HETATM   36  C2  UNL     1      -8.062  37.220  -8.489  1.00  0.00     0.133 C 
HETATM   37  C1  UNL     1      -9.342  37.978  -8.222  1.00  0.00     0.027 C 
ENDBRANCH  31  36
BRANCH  34  38
HETATM   38  N12 UNL     1      -7.485  33.725  -5.271  1.00  0.00    -0.334 N 
ATOM     39 2H12 UNL     1      -6.766  33.016  -5.124  1.00  0.00     0.177 HD
ATOM     40 1H12 UNL     1      -7.960  34.149  -4.474  1.00  0.00     0.177 HD
ENDBRANCH  34  38
ENDBRANCH   1  27
TORSDOF 8
ENDMDL
MODEL 3
REMARK VINA RESULT: -9.507210399      1.007      1.830
REMARK  8 active torsions:
REMARK  status: ('A' for Active; 'I' for Inactive)
REMARK    1  A    between atoms: C2_2  and  N1_3 
REMARK    2  A    between atoms: C5_8  and  C6_9 
REMARK    3  A    between atoms: C7_13  and  C8_14 
REMARK    4  A    between atoms: C8_14  and  C9_15 
REMARK       I    between atoms: C9_15  and  N4_17 
REMARK    5  A    between atoms: N4_17  and  N5_18 
REMARK    6  A    between atoms: N5_18  and  C10_20 
REMARK    7  A    between atoms: N6_22  and  N7_23 
REMARK    8  A    between atoms: N11_35  and  N12_36 
ROOT
HETATM    1  C6  UNL     1      -7.827  31.550  -7.438  1.00  0.00     0.159 A 
HETATM    2  N3  UNL     1      -8.779  30.774  -6.942  1.00  0.00    -0.241 N 
ATOM      3  H3  UNL     1      -9.706  31.100  -6.672  1.00  0.00     0.196 HD
HETATM    4  O2  UNL     1      -8.384  29.569  -6.846  1.00  0.00    -0.222 OA
HETATM    5  C7  UNL     1      -7.112  29.479  -7.288  1.00  0.00     0.158 A 
HETATM    6  N10 UNL     1      -6.779  30.689  -7.645  1.00  0.00    -0.321 N 
ATOM      7  H10 UNL     1      -5.870  30.957  -8.023  1.00  0.00     0.169 HD
ENDROOT
BRANCH   5   8
HETATM    8  C8  UNL     1      -6.424  28.167  -7.289  1.00  0.00     0.207 C 
BRANCH   8   9
HETATM    9  C9  UNL     1      -5.460  28.185  -6.193  1.00  0.00     0.320 C 
HETATM   10  O3  UNL     1      -5.581  29.060  -5.334  1.00  0.00    -0.255 OA
HETATM   11  N4  UNL     1      -4.344  27.141  -6.129  1.00  0.00    -0.286 NA
BRANCH  11  12
HETATM   12  N5  UNL     1      -3.534  26.386  -6.078  1.00  0.00    -0.229 N 
ATOM     13  H5  UNL     1      -2.615  26.828  -6.078  1.00  0.00     0.202 HD
BRANCH  12  14
HETATM   14  C10 UNL     1      -3.423  24.910  -6.008  1.00  0.00     0.106 A 
HETATM   15  C11 UNL     1      -2.971  24.348  -4.815  1.00  0.00     0.149 A 
HETATM   16  N6  UNL     1      -2.813  23.006  -4.686  1.00  0.00    -0.281 N 
HETATM   17  C12 UNL     1      -3.118  22.199  -5.775  1.00  0.00     0.144 A 
HETATM   18  C13 UNL     1      -3.551  22.705  -6.931  1.00  0.00     0.092 A 
HETATM   19  N8  UNL     1      -3.852  21.886  -8.076  1.00  0.00    -0.098 NA
HETATM   20  C14 UNL     1      -3.712  24.130  -7.057  1.00  0.00     0.082 A 
HETATM   21  N9  UNL     1      -4.144  24.499  -8.122  1.00  0.00    -0.396 N 
ATOM     22  H92 UNL     1      -4.258  25.508  -8.212  1.00  0.00     0.156 HD
ATOM     23  H91 UNL     1      -4.364  23.904  -8.921  1.00  0.00     0.156 HD
BRANCH  16  24
HETATM   24  N7  UNL     1      -2.369  22.440  -3.524  1.00  0.00    -0.339 N 
ATOM     25  H72 UNL     1      -2.957  22.463  -2.690  1.00  0.00     0.177 HD
ATOM     26  H71 UNL     1      -1.456  21.992  -3.458  1.00  0.00     0.177 HD
ENDBRANCH  16  24
ENDBRANCH  12  14
ENDBRANCH  11  12
ENDBRANCH   8   9
ENDBRANCH   5   8
BRANCH   1  27
HETATM   27  C5  UNL     1      -7.918  32.965  -7.727  1.00  0.00     0.136 A 
HETATM   28  C4  UNL     1      -7.649  33.859  -6.679  1.00  0.00     0.147 A 
HETATM   29  C3  UNL     1      -7.706  35.214  -6.836  1.00  0.00     0.278 A 
HETATM   30  N2  UNL     1      -7.300  33.343  -5.408  1.00  0.00    -0.094 NA
HETATM   31  N1  UNL     1      -8.028  35.718  -8.018  1.00  0.00    -0.264 N 
HETATM   32  O1  UNL     1      -7.451  35.976  -5.867  1.00  0.00    -0.266 OA
HETATM   33  C15 UNL     1      -8.287  34.869  -9.038  1.00  0.00     0.350 A 
HETATM   34  N11 UNL     1      -8.238  33.506  -8.896  1.00  0.00    -0.206 N 
HETATM   35  O4  UNL     1      -8.587  35.323 -10.159  1.00  0.00    -0.244 OA
BRANCH  31  36
HETATM   36  C2  UNL     1      -8.148  37.130  -8.170  1.00  0.00     0.133 C 
HETATM   37  C1  UNL     1      -9.565  37.646  -8.264  1.00  0.00     0.027 C 
ENDBRANCH  31  36
BRANCH  34  38
HETATM   38  N12 UNL     1      -8.555  32.726 -10.003  1.00  0.00    -0.334 N 
ATOM     39 2H12 UNL     1      -7.959  31.923 -10.206  1.00  0.00     0.177 HD
ATOM     40 1H12 UNL     1      -9.343  32.949 -10.610  1.00  0.00     0.177 HD
ENDBRANCH  34  38
ENDBRANCH   1  27
TORSDOF 8
ENDMDL
MODEL 4
REMARK VINA RESULT: -9.455970736      1.106      2.625
REMARK  8 active torsions:
REMARK  status: ('A' for Active; 'I' for Inactive)
REMARK    1  A    between atoms: C2_2  and  N1_3 
REMARK    2  A    between atoms: C5_8  and  C6_9 
REMARK    3  A    between atoms: C7_13  and  C8_14 
REMARK    4  A    between atoms: C8_14  and  C9_15 
REMARK       I    between atoms: C9_15  and  N4_17 
REMARK    5  A    between atoms: N4_17  and  N5_18 
REMARK    6  A    between atoms: N5_18  and  C10_20 
REMARK    7  A    between atoms: N6_22  and  N7_23 
REMARK    8  A    between atoms: N11_35  and  N12_36 
ROOT
HETATM    1  C6  UNL     1      -7.878  31.478  -7.369  1.00  0.00     0.159 A 
HETATM    2  N3  UNL     1      -8.864  30.685  -6.978  1.00  0.00    -0.241 N 
ATOM      3  H3  UNL     1      -9.810  31.001  -6.769  1.00  0.00     0.196 HD
HETATM    4  O2  UNL     1      -8.475  29.477  -6.896  1.00  0.00    -0.222 OA
HETATM    5  C7  UNL     1      -7.172  29.403  -7.240  1.00  0.00     0.158 A 
HETATM    6  N10 UNL     1      -6.815  30.625  -7.526  1.00  0.00    -0.321 N 
ATOM      7  H10 UNL     1      -5.881  30.907  -7.822  1.00  0.00     0.169 HD
ENDROOT
BRANCH   5   8
HETATM    8  C8  UNL     1      -6.483  28.091  -7.237  1.00  0.00     0.207 C 
BRANCH   8   9
HETATM    9  C9  UNL     1      -5.467  28.142  -6.191  1.00  0.00     0.320 C 
HETATM   10  O3  UNL     1      -5.546  29.042  -5.354  1.00  0.00    -0.255 OA
HETATM   11  N4  UNL     1      -4.348  27.099  -6.150  1.00  0.00    -0.286 NA
BRANCH  11  12
HETATM   12  N5  UNL     1      -3.536  26.346  -6.115  1.00  0.00    -0.229 N 
ATOM     13  H5  UNL     1      -2.618  26.789  -6.139  1.00  0.00     0.202 HD
BRANCH  12  14
HETATM   14  C10 UNL     1      -3.422  24.870  -6.043  1.00  0.00     0.106 A 
HETATM   15  C11 UNL     1      -2.956  24.312  -4.853  1.00  0.00     0.149 A 
HETATM   16  N6  UNL     1      -2.794  22.970  -4.721  1.00  0.00    -0.281 N 
HETATM   17  C12 UNL     1      -3.109  22.160  -5.805  1.00  0.00     0.144 A 
HETATM   18  C13 UNL     1      -3.555  22.662  -6.957  1.00  0.00     0.092 A 
HETATM   19  N8  UNL     1      -3.868  21.839  -8.096  1.00  0.00    -0.098 NA
HETATM   20  C14 UNL     1      -3.721  24.086  -7.086  1.00  0.00     0.082 A 
HETATM   21  N9  UNL     1      -4.165  24.451  -8.147  1.00  0.00    -0.396 N 
ATOM     22  H92 UNL     1      -4.282  25.460  -8.238  1.00  0.00     0.156 HD
ATOM     23  H91 UNL     1      -4.393  23.854  -8.941  1.00  0.00     0.156 HD
BRANCH  16  24
HETATM   24  N7  UNL     1      -2.336  22.409  -3.562  1.00  0.00    -0.339 N 
ATOM     25  H72 UNL     1      -1.410  22.651  -3.211  1.00  0.00     0.177 HD
ATOM     26  H71 UNL     1      -2.896  21.744  -3.029  1.00  0.00     0.177 HD
ENDBRANCH  16  24
ENDBRANCH  12  14
ENDBRANCH  11  12
ENDBRANCH   8   9
ENDBRANCH   5   8
BRANCH   1  27
HETATM   27  C5  UNL     1      -7.949  32.903  -7.612  1.00  0.00     0.136 A 
HETATM   28  C4  UNL     1      -8.293  33.324  -8.906  1.00  0.00     0.147 A 
HETATM   29  C3  UNL     1      -8.388  34.642  -9.249  1.00  0.00     0.278 A 
HETATM   30  N2  UNL     1      -8.555  32.350  -9.899  1.00  0.00    -0.094 NA
HETATM   31  N1  UNL     1      -8.149  35.570  -8.334  1.00  0.00    -0.264 N 
HETATM   32  O1  UNL     1      -8.705  34.971 -10.422  1.00  0.00    -0.266 OA
HETATM   33  C15 UNL     1      -7.819  35.179  -7.082  1.00  0.00     0.350 A 
HETATM   34  N11 UNL     1      -7.716  33.861  -6.723  1.00  0.00    -0.206 N 
HETATM   35  O4  UNL     1      -7.596  36.037  -6.206  1.00  0.00    -0.244 OA
BRANCH  31  36
HETATM   36  C2  UNL     1      -8.188  36.946  -8.703  1.00  0.00     0.133 C 
HETATM   37  C1  UNL     1      -9.501  37.644  -8.437  1.00  0.00     0.027 C 
ENDBRANCH  31  36
BRANCH  34  38
HETATM   38  N12 UNL     1      -7.339  33.572  -5.416  1.00  0.00    -0.334 N 
ATOM     39 2H12 UNL     1      -6.347  33.426  -5.227  1.00  0.00     0.177 HD
ATOM     40 1H12 UNL     1      -8.023  33.489  -4.664  1.00  0.00     0.177 HD
ENDBRANCH  34  38
ENDBRANCH   1  27
TORSDOF 8
ENDMDL
MODEL 5
REMARK VINA RESULT: -9.125333735      1.223      1.514
REMARK  8 active torsions:
REMARK  status: ('A' for Active; 'I' for Inactive)
REMARK    1  A    between atoms: C2_2  and  N1_3 
REMARK    2  A    between atoms: C5_8  and  C6_9 
REMARK    3  A    between atoms: C7_13  and  C8_14 
REMARK    4  A    between atoms: C8_14  and  C9_15 
REMARK       I    between atoms: C9_15  and  N4_17 
REMARK    5  A    between atoms: N4_17  and  N5_18 
REMARK    6  A    between atoms: N5_18  and  C10_20 
REMARK    7  A    between atoms: N6_22  and  N7_23 
REMARK    8  A    between atoms: N11_35  and  N12_36 
ROOT
HETATM    1  C6  UNL     1      -7.726  30.901  -7.682  1.00  0.00     0.159 A 
HETATM    2  N3  UNL     1      -8.602  29.936  -7.446  1.00  0.00    -0.241 N 
ATOM      3  H3  UNL     1      -9.613  30.062  -7.449  1.00  0.00     0.196 HD
HETATM    4  O2  UNL     1      -8.015  28.831  -7.216  1.00  0.00    -0.222 OA
HETATM    5  C7  UNL     1      -6.680  29.011  -7.290  1.00  0.00     0.158 A 
HETATM    6  N10 UNL     1      -6.511  30.274  -7.572  1.00  0.00    -0.321 N 
ATOM      7  H10 UNL     1      -5.607  30.730  -7.694  1.00  0.00     0.169 HD
ENDROOT
BRANCH   5   8
HETATM    8  C8  UNL     1      -5.769  27.863  -7.070  1.00  0.00     0.207 C 
BRANCH   8   9
HETATM    9  C9  UNL     1      -5.334  27.920  -5.678  1.00  0.00     0.320 C 
HETATM   10  O3  UNL     1      -5.402  29.004  -5.096  1.00  0.00    -0.255 OA
HETATM   11  N4  UNL     1      -4.818  26.660  -4.979  1.00  0.00    -0.286 NA
BRANCH  11  12
HETATM   12  N5  UNL     1      -4.443  25.752  -4.467  1.00  0.00    -0.229 N 
ATOM     13  H5  UNL     1      -4.391  25.889  -3.458  1.00  0.00     0.202 HD
BRANCH  12  14
HETATM   14  C10 UNL     1      -3.998  24.391  -4.851  1.00  0.00     0.106 A 
HETATM   15  C11 UNL     1      -3.934  24.088  -6.210  1.00  0.00     0.149 A 
HETATM   16  N6  UNL     1      -3.566  22.853  -6.639  1.00  0.00    -0.281 N 
HETATM   17  C12 UNL     1      -3.247  21.894  -5.686  1.00  0.00     0.144 A 
HETATM   18  C13 UNL     1      -3.299  22.151  -4.379  1.00  0.00     0.092 A 
HETATM   19  N8  UNL     1      -2.992  21.163  -3.377  1.00  0.00    -0.098 NA
HETATM   20  C14 UNL     1      -3.694  23.463  -3.936  1.00  0.00     0.082 A 
HETATM   21  N9  UNL     1      -3.677  23.621  -2.740  1.00  0.00    -0.396 N 
ATOM     22  H92 UNL     1      -3.956  24.550  -2.426  1.00  0.00     0.156 HD
ATOM     23  H91 UNL     1      -3.445  22.913  -2.043  1.00  0.00     0.156 HD
BRANCH  16  24
HETATM   24  N7  UNL     1      -3.501  22.540  -7.968  1.00  0.00    -0.339 N 
ATOM     25  H72 UNL     1      -3.467  23.285  -8.664  1.00  0.00     0.177 HD
ATOM     26  H71 UNL     1      -3.488  21.574  -8.293  1.00  0.00     0.177 HD
ENDBRANCH  16  24
ENDBRANCH  12  14
ENDBRANCH  11  12
ENDBRANCH   8   9
ENDBRANCH   5   8
BRANCH   1  27
HETATM   27  C5  UNL     1      -8.016  32.278  -8.020  1.00  0.00     0.136 A 
HETATM   28  C4  UNL     1      -7.992  33.220  -6.980  1.00  0.00     0.147 A 
HETATM   29  C3  UNL     1      -8.252  34.545  -7.182  1.00  0.00     0.278 A 
HETATM   30  N2  UNL     1      -7.683  32.787  -5.668  1.00  0.00    -0.094 NA
HETATM   31  N1  UNL     1      -8.540  34.971  -8.402  1.00  0.00    -0.264 N 
HETATM   32  O1  UNL     1      -8.212  35.353  -6.218  1.00  0.00    -0.266 OA
HETATM   33  C15 UNL     1      -8.565  34.076  -9.415  1.00  0.00     0.350 A 
HETATM   34  N11 UNL     1      -8.311  32.742  -9.229  1.00  0.00    -0.206 N 
HETATM   35  O4  UNL     1      -8.830  34.458 -10.571  1.00  0.00    -0.244 OA
BRANCH  31  36
HETATM   36  C2  UNL     1      -8.871  36.342  -8.607  1.00  0.00     0.133 C 
HETATM   37  C1  UNL     1      -7.764  37.189  -9.189  1.00  0.00     0.027 C 
ENDBRANCH  31  36
BRANCH  34  38
HETATM   38  N12 UNL     1      -8.396  31.904 -10.335  1.00  0.00    -0.334 N 
ATOM     39 2H12 UNL     1      -7.835  32.138 -11.154  1.00  0.00     0.177 HD
ATOM     40 1H12 UNL     1      -9.008  31.088 -10.346  1.00  0.00     0.177 HD
ENDBRANCH  34  38
ENDBRANCH   1  27
TORSDOF 8
ENDMDL
