MODEL 1
REMARK VINA RESULT: -5.645334679      0.000      0.000
REMARK  5 active torsions:
REMARK  status: ('A' for Active; 'I' for Inactive)
REMARK    1  A    between atoms: C2_2  and  C3_3 
REMARK    2  A    between atoms: C5_9  and  N3_10 
REMARK    3  A    between atoms: N3_10  and  C6_12 
REMARK    4  A    between atoms: C6_12  and  C7_13 
REMARK    5  A    between atoms: C8_22  and  N8_23 
ROOT
HETATM    1  C3  UNL     1      17.798  11.225  33.841  1.00  0.00     0.018 A 
HETATM    2  N1  UNL     1      16.813  12.113  34.092  1.00  0.00    -0.344 N 
ATOM      3  H1  UNL     1      16.666  12.877  33.433  1.00  0.00     0.167 HD
HETATM    4  C4  UNL     1      16.016  12.034  35.175  1.00  0.00     0.136 A 
HETATM    5  N2  UNL     1      15.039  12.922  35.414  1.00  0.00    -0.324 N 
ATOM      6  H2  UNL     1      14.890  13.686  34.755  1.00  0.00     0.169 HD
HETATM    7  C5  UNL     1      14.255  12.834  36.491  1.00  0.00     0.147 A 
HETATM    8  C8  UNL     1      14.496  11.774  37.361  1.00  0.00     0.146 A 
HETATM    9  N9  UNL     1      15.469  10.872  37.142  1.00  0.00    -0.335 N 
ATOM     10  H9  UNL     1      15.621  10.108  37.800  1.00  0.00     0.168 HD
HETATM   11  C10 UNL     1      16.245  10.989  36.043  1.00  0.00     0.103 A 
HETATM   12  C11 UNL     1      17.257  10.048  35.818  1.00  0.00     0.084 A 
HETATM   13  N10 UNL     1      17.460   8.982  36.742  1.00  0.00    -0.099 NA
HETATM   14  C12 UNL     1      18.048  10.170  34.693  1.00  0.00    -0.013 A 
HETATM   15  C13 UNL     1      19.134   9.170  34.441  1.00  0.00     0.052 C 
ENDROOT
BRANCH   7  16
HETATM   16  N3  UNL     1      13.296  13.679  36.753  1.00  0.00    -0.366 N 
ATOM     17  H3  UNL     1      12.533  13.437  37.385  1.00  0.00     0.161 HD
BRANCH  16  18
HETATM   18  C6  UNL     1      13.359  14.976  36.107  1.00  0.00     0.200 C 
BRANCH  18  19
HETATM   19  C7  UNL     1      12.156  15.262  35.325  1.00  0.00     0.131 A 
HETATM   20  N4  UNL     1      11.969  16.344  34.551  1.00  0.00    -0.271 N 
HETATM   21  N5  UNL     1      10.760  16.267  33.994  1.00  0.00    -0.227 N 
ATOM     22  H4  UNL     1      12.641  17.098  34.411  1.00  0.00     0.190 HD
HETATM   23  N6  UNL     1      10.191  15.154  34.410  1.00  0.00    -0.227 N 
ATOM     24  H5  UNL     1      10.348  16.950  33.359  1.00  0.00     0.210 HD
HETATM   25  N7  UNL     1      11.043  14.536  35.225  1.00  0.00    -0.271 N 
ATOM     26  H6  UNL     1       9.261  14.822  34.152  1.00  0.00     0.210 HD
ATOM     27  H7  UNL     1      10.872  13.648  35.698  1.00  0.00     0.190 HD
ENDBRANCH  18  19
ENDBRANCH  16  18
ENDBRANCH   7  16
BRANCH   8  28
HETATM   28  N8  UNL     1      13.748  11.665  38.417  1.00  0.00    -0.378 N 
HETATM   29  C9  UNL     1      12.978  10.475  38.676  1.00  0.00     0.148 C 
ATOM     30  H8  UNL     1      13.705  12.440  39.079  1.00  0.00     0.160 HD
ENDBRANCH   8  28
BRANCH   1  31
HETATM   31  C2  UNL     1      18.624  11.400  32.617  1.00  0.00     0.053 C 
HETATM   32  C1  UNL     1      17.801  11.850  31.438  1.00  0.00     0.011 C 
ENDBRANCH   1  31
TORSDOF 5
ENDMDL
MODEL 2
REMARK VINA RESULT: -5.601661277      2.252      6.494
REMARK  5 active torsions:
REMARK  status: ('A' for Active; 'I' for Inactive)
REMARK    1  A    between atoms: C2_2  and  C3_3 
REMARK    2  A    between atoms: C5_9  and  N3_10 
REMARK    3  A    between atoms: N3_10  and  C6_12 
REMARK    4  A    between atoms: C6_12  and  C7_13 
REMARK    5  A    between atoms: C8_22  and  N8_23 
ROOT
HETATM    1  C3  UNL     1      14.257   8.271  38.660  1.00  0.00     0.018 A 
HETATM    2  N1  UNL     1      15.023   8.746  37.655  1.00  0.00    -0.344 N 
ATOM      3  H1  UNL     1      15.731   8.133  37.250  1.00  0.00     0.167 HD
HETATM    4  C4  UNL     1      14.895   9.993  37.163  1.00  0.00     0.136 A 
HETATM    5  N2  UNL     1      15.661  10.454  36.163  1.00  0.00    -0.324 N 
ATOM      6  H2  UNL     1      16.369   9.842  35.758  1.00  0.00     0.169 HD
HETATM    7  C5  UNL     1      15.524  11.693  35.684  1.00  0.00     0.147 A 
HETATM    8  C8  UNL     1      14.544  12.490  36.269  1.00  0.00     0.146 A 
HETATM    9  N9  UNL     1      13.765  12.050  37.272  1.00  0.00    -0.335 N 
ATOM     10  H9  UNL     1      13.057  12.660  37.681  1.00  0.00     0.168 HD
HETATM   11  C10 UNL     1      13.927  10.791  37.735  1.00  0.00     0.103 A 
HETATM   12  C11 UNL     1      13.113  10.336  38.779  1.00  0.00     0.084 A 
HETATM   13  N10 UNL     1      12.125  11.196  39.342  1.00  0.00    -0.099 NA
HETATM   14  C12 UNL     1      13.282   9.050  39.249  1.00  0.00    -0.013 A 
HETATM   15  C13 UNL     1      12.418   8.551  40.365  1.00  0.00     0.052 C 
ENDROOT
BRANCH   7  16
HETATM   16  N3  UNL     1      16.252  12.172  34.713  1.00  0.00    -0.366 N 
ATOM     17  H3  UNL     1      15.853  12.790  34.006  1.00  0.00     0.161 HD
BRANCH  16  18
HETATM   18  C6  UNL     1      17.650  11.789  34.680  1.00  0.00     0.200 C 
BRANCH  18  19
HETATM   19  C7  UNL     1      17.973  10.980  33.504  1.00  0.00     0.131 A 
HETATM   20  N4  UNL     1      17.317   9.874  33.115  1.00  0.00    -0.271 N 
HETATM   21  N5  UNL     1      17.888   9.406  32.006  1.00  0.00    -0.227 N 
ATOM     22  H4  UNL     1      16.514   9.462  33.589  1.00  0.00     0.190 HD
HETATM   23  N6  UNL     1      18.891  10.203  31.697  1.00  0.00    -0.227 N 
ATOM     24  H5  UNL     1      17.601   8.576  31.488  1.00  0.00     0.210 HD
HETATM   25  N7  UNL     1      18.946  11.169  32.613  1.00  0.00    -0.271 N 
ATOM     26  H6  UNL     1      19.516  10.100  30.897  1.00  0.00     0.210 HD
ATOM     27  H7  UNL     1      19.624  11.931  32.630  1.00  0.00     0.190 HD
ENDBRANCH  18  19
ENDBRANCH  16  18
ENDBRANCH   7  16
BRANCH   8  28
HETATM   28  N8  UNL     1      14.390  13.700  35.822  1.00  0.00    -0.378 N 
HETATM   29  C9  UNL     1      13.102  14.345  35.822  1.00  0.00     0.148 C 
ATOM     30  H8  UNL     1      15.201  14.205  35.463  1.00  0.00     0.160 HD
ENDBRANCH   8  28
BRANCH   1  31
HETATM   31  C2  UNL     1      14.479   6.878  39.132  1.00  0.00     0.053 C 
HETATM   32  C1  UNL     1      15.935   6.593  39.389  1.00  0.00     0.011 C 
ENDBRANCH   1  31
TORSDOF 5
ENDMDL
MODEL 3
REMARK VINA RESULT: -5.544283504      2.994      6.574
REMARK  5 active torsions:
REMARK  status: ('A' for Active; 'I' for Inactive)
REMARK    1  A    between atoms: C2_2  and  C3_3 
REMARK    2  A    between atoms: C5_9  and  N3_10 
REMARK    3  A    between atoms: N3_10  and  C6_12 
REMARK    4  A    between atoms: C6_12  and  C7_13 
REMARK    5  A    between atoms: C8_22  and  N8_23 
ROOT
HETATM    1  C3  UNL     1      12.729  10.920  38.661  1.00  0.00     0.018 A 
HETATM    2  N1  UNL     1      13.585  11.621  37.888  1.00  0.00    -0.344 N 
ATOM      3  H1  UNL     1      13.350  12.586  37.653  1.00  0.00     0.167 HD
HETATM    4  C4  UNL     1      14.734  11.104  37.412  1.00  0.00     0.136 A 
HETATM    5  N2  UNL     1      15.577  11.811  36.644  1.00  0.00    -0.324 N 
ATOM      6  H2  UNL     1      15.344  12.776  36.410  1.00  0.00     0.169 HD
HETATM    7  C5  UNL     1      16.713  11.287  36.179  1.00  0.00     0.147 A 
HETATM    8  C8  UNL     1      16.989   9.967  36.528  1.00  0.00     0.146 A 
HETATM    9  N9  UNL     1      16.158   9.240  37.295  1.00  0.00    -0.335 N 
ATOM     10  H9  UNL     1      16.389   8.275  37.531  1.00  0.00     0.168 HD
HETATM   11  C10 UNL     1      15.016   9.798  37.751  1.00  0.00     0.103 A 
HETATM   12  C11 UNL     1      14.155   9.038  38.551  1.00  0.00     0.084 A 
HETATM   13  N10 UNL     1      14.486   7.690  38.876  1.00  0.00    -0.099 NA
HETATM   14  C12 UNL     1      12.989   9.612  39.015  1.00  0.00    -0.013 A 
HETATM   15  C13 UNL     1      12.059   8.809  39.871  1.00  0.00     0.052 C 
ENDROOT
BRANCH   7  16
HETATM   16  N3  UNL     1      17.555  11.947  35.432  1.00  0.00    -0.366 N 
ATOM     17  H3  UNL     1      18.459  12.252  35.793  1.00  0.00     0.161 HD
BRANCH  16  18
HETATM   18  C6  UNL     1      17.153  12.228  34.068  1.00  0.00     0.200 C 
BRANCH  18  19
HETATM   19  C7  UNL     1      17.791  11.327  33.107  1.00  0.00     0.131 A 
HETATM   20  N4  UNL     1      17.348  10.104  32.773  1.00  0.00    -0.271 N 
HETATM   21  N5  UNL     1      18.179   9.579  31.873  1.00  0.00    -0.227 N 
ATOM     22  H4  UNL     1      16.514   9.651  33.147  1.00  0.00     0.190 HD
HETATM   23  N6  UNL     1      19.134  10.457  31.640  1.00  0.00    -0.227 N 
ATOM     24  H5  UNL     1      18.092   8.660  31.441  1.00  0.00     0.210 HD
HETATM   25  N7  UNL     1      18.899  11.529  32.394  1.00  0.00    -0.271 N 
ATOM     26  H6  UNL     1      19.915  10.338  30.995  1.00  0.00     0.210 HD
ATOM     27  H7  UNL     1      19.475  12.371  32.422  1.00  0.00     0.190 HD
ENDBRANCH  18  19
ENDBRANCH  16  18
ENDBRANCH   7  16
BRANCH   8  28
HETATM   28  N8  UNL     1      18.087   9.433  36.088  1.00  0.00    -0.378 N 
HETATM   29  C9  UNL     1      19.039   8.822  36.980  1.00  0.00     0.148 C 
ATOM     30  H8  UNL     1      18.281   9.447  35.086  1.00  0.00     0.160 HD
ENDBRANCH   8  28
BRANCH   1  31
HETATM   31  C2  UNL     1      11.486  11.582  39.136  1.00  0.00     0.053 C 
HETATM   32  C1  UNL     1      11.367  12.994  38.625  1.00  0.00     0.011 C 
ENDBRANCH   1  31
TORSDOF 5
ENDMDL
MODEL 4
REMARK VINA RESULT: -5.528966373      5.058      7.495
REMARK  5 active torsions:
REMARK  status: ('A' for Active; 'I' for Inactive)
REMARK    1  A    between atoms: C2_2  and  C3_3 
REMARK    2  A    between atoms: C5_9  and  N3_10 
REMARK    3  A    between atoms: N3_10  and  C6_12 
REMARK    4  A    between atoms: C6_12  and  C7_13 
REMARK    5  A    between atoms: C8_22  and  N8_23 
ROOT
HETATM    1  C3  UNL     1      21.098   5.163  34.957  1.00  0.00     0.018 A 
HETATM    2  N1  UNL     1      20.012   5.964  34.917  1.00  0.00    -0.344 N 
ATOM      3  H1  UNL     1      19.110   5.551  34.680  1.00  0.00     0.167 HD
HETATM    4  C4  UNL     1      20.068   7.285  35.176  1.00  0.00     0.136 A 
HETATM    5  N2  UNL     1      18.982   8.072  35.134  1.00  0.00    -0.324 N 
ATOM      6  H2  UNL     1      18.079   7.659  34.898  1.00  0.00     0.169 HD
HETATM    7  C5  UNL     1      19.050   9.379  35.393  1.00  0.00     0.147 A 
HETATM    8  C8  UNL     1      20.303   9.895  35.711  1.00  0.00     0.146 A 
HETATM    9  N9  UNL     1      21.405   9.126  35.759  1.00  0.00    -0.335 N 
ATOM     10  H9  UNL     1      22.309   9.535  35.993  1.00  0.00     0.168 HD
HETATM   11  C10 UNL     1      21.304   7.806  35.492  1.00  0.00     0.103 A 
HETATM   12  C11 UNL     1      22.453   7.008  35.544  1.00  0.00     0.084 A 
HETATM   13  N10 UNL     1      23.712   7.589  35.875  1.00  0.00    -0.099 NA
HETATM   14  C12 UNL     1      22.346   5.660  35.271  1.00  0.00    -0.013 A 
HETATM   15  C13 UNL     1      23.568   4.795  35.322  1.00  0.00     0.052 C 
ENDROOT
BRANCH   7  16
HETATM   16  N3  UNL     1      18.014  10.172  35.362  1.00  0.00    -0.366 N 
ATOM     17  H3  UNL     1      17.753  10.736  36.171  1.00  0.00     0.161 HD
BRANCH  16  18
HETATM   18  C6  UNL     1      17.249  10.218  34.131  1.00  0.00     0.200 C 
BRANCH  18  19
HETATM   19  C7  UNL     1      18.044  10.711  33.006  1.00  0.00     0.131 A 
HETATM   20  N4  UNL     1      18.547   9.955  32.016  1.00  0.00    -0.271 N 
HETATM   21  N5  UNL     1      19.212  10.743  31.171  1.00  0.00    -0.227 N 
ATOM     22  H4  UNL     1      18.438   8.945  31.926  1.00  0.00     0.190 HD
HETATM   23  N6  UNL     1      19.131  11.980  31.619  1.00  0.00    -0.227 N 
ATOM     24  H5  UNL     1      19.698  10.442  30.327  1.00  0.00     0.210 HD
HETATM   25  N7  UNL     1      18.416  11.964  32.743  1.00  0.00    -0.271 N 
ATOM     26  H6  UNL     1      19.542  12.805  31.182  1.00  0.00     0.210 HD
ATOM     27  H7  UNL     1      18.189  12.780  33.311  1.00  0.00     0.190 HD
ENDBRANCH  18  19
ENDBRANCH  16  18
ENDBRANCH   7  16
BRANCH   8  28
HETATM   28  N8  UNL     1      20.397  11.165  35.967  1.00  0.00    -0.378 N 
HETATM   29  C9  UNL     1      21.177  12.045  35.136  1.00  0.00     0.148 C 
ATOM     30  H8  UNL     1      19.907  11.548  36.776  1.00  0.00     0.160 HD
ENDBRANCH   8  28
BRANCH   1  31
HETATM   31  C2  UNL     1      20.931   3.716  34.654  1.00  0.00     0.053 C 
HETATM   32  C1  UNL     1      20.114   3.009  35.703  1.00  0.00     0.011 C 
ENDBRANCH   1  31
TORSDOF 5
ENDMDL
MODEL 5
REMARK VINA RESULT: -5.505388291      2.531      6.538
REMARK  5 active torsions:
REMARK  status: ('A' for Active; 'I' for Inactive)
REMARK    1  A    between atoms: C2_2  and  C3_3 
REMARK    2  A    between atoms: C5_9  and  N3_10 
REMARK    3  A    between atoms: N3_10  and  C6_12 
REMARK    4  A    between atoms: C6_12  and  C7_13 
REMARK    5  A    between atoms: C8_22  and  N8_23 
ROOT
HETATM    1  C3  UNL     1      12.411  12.358  38.453  1.00  0.00     0.018 A 
HETATM    2  N1  UNL     1      13.430  12.793  37.681  1.00  0.00    -0.344 N 
ATOM      3  H1  UNL     1      13.421  13.762  37.364  1.00  0.00     0.167 HD
HETATM    4  C4  UNL     1      14.457  12.004  37.312  1.00  0.00     0.136 A 
HETATM    5  N2  UNL     1      15.464  12.448  36.545  1.00  0.00    -0.324 N 
ATOM      6  H2  UNL     1      15.457  13.417  36.228  1.00  0.00     0.169 HD
HETATM    7  C5  UNL     1      16.477  11.655  36.186  1.00  0.00     0.147 A 
HETATM    8  C8  UNL     1      16.443  10.341  36.644  1.00  0.00     0.146 A 
HETATM    9  N9  UNL     1      15.443   9.875  37.413  1.00  0.00    -0.335 N 
ATOM     10  H9  UNL     1      15.448   8.905  37.730  1.00  0.00     0.168 HD
HETATM   11  C10 UNL     1      14.433  10.701  37.760  1.00  0.00     0.103 A 
HETATM   12  C11 UNL     1      13.395  10.211  38.561  1.00  0.00     0.084 A 
HETATM   13  N10 UNL     1      13.410   8.856  39.002  1.00  0.00    -0.099 NA
HETATM   14  C12 UNL     1      12.364  11.058  38.914  1.00  0.00    -0.013 A 
HETATM   15  C13 UNL     1      11.247  10.547  39.770  1.00  0.00     0.052 C 
ENDROOT
BRANCH   7  16
HETATM   16  N3  UNL     1      17.472  12.055  35.443  1.00  0.00    -0.366 N 
ATOM     17  H3  UNL     1      18.414  12.150  35.823  1.00  0.00     0.161 HD
BRANCH  16  18
HETATM   18  C6  UNL     1      17.184  12.358  34.054  1.00  0.00     0.200 C 
BRANCH  18  19
HETATM   19  C7  UNL     1      17.785  11.386  33.141  1.00  0.00     0.131 A 
HETATM   20  N4  UNL     1      18.879  11.595  32.390  1.00  0.00    -0.271 N 
HETATM   21  N5  UNL     1      19.133  10.492  31.686  1.00  0.00    -0.227 N 
ATOM     22  H4  UNL     1      19.426  12.456  32.363  1.00  0.00     0.190 HD
HETATM   23  N6  UNL     1      18.213   9.597  31.987  1.00  0.00    -0.227 N 
ATOM     24  H5  UNL     1      19.902  10.363  31.030  1.00  0.00     0.210 HD
HETATM   25  N7  UNL     1      17.386  10.142  32.878  1.00  0.00    -0.271 N 
ATOM     26  H6  UNL     1      18.146   8.653  31.606  1.00  0.00     0.210 HD
ATOM     27  H7  UNL     1      16.576   9.680  33.293  1.00  0.00     0.190 HD
ENDBRANCH  18  19
ENDBRANCH  16  18
ENDBRANCH   7  16
BRANCH   8  28
HETATM   28  N8  UNL     1      17.416   9.549  36.308  1.00  0.00    -0.378 N 
HETATM   29  C9  UNL     1      18.349   9.046  37.283  1.00  0.00     0.148 C 
ATOM     30  H8  UNL     1      17.522   9.277  35.330  1.00  0.00     0.160 HD
ENDBRANCH   8  28
BRANCH   1  31
HETATM   31  C2  UNL     1      11.323  13.308  38.805  1.00  0.00     0.053 C 
HETATM   32  C1  UNL     1      10.887  14.133  37.622  1.00  0.00     0.011 C 
ENDBRANCH   1  31
TORSDOF 5
ENDMDL
