MODEL 1
REMARK VINA RESULT: -5.647442297      0.000      0.000
REMARK  5 active torsions:
REMARK  status: ('A' for Active; 'I' for Inactive)
REMARK    1  A    between atoms: C2_4  and  S1_5 
REMARK    2  A    between atoms: C2_4  and  N6_19 
REMARK    3  A    between atoms: S1_5  and  C3_6 
REMARK    4  A    between atoms: C3_6  and  C4_7 
REMARK    5  A    between atoms: C6_11  and  N3_12 
REMARK       I    between atoms: N7_22  and  C9_23 
ROOT
HETATM    1  C1  UNL     1      17.891  10.299  38.607  1.00  0.00     0.148 C 
HETATM    2  N1  UNL     1      18.704   9.643  37.621  1.00  0.00    -0.375 N 
ATOM      3  H1  UNL     1      19.538   9.133  37.911  1.00  0.00     0.161 HD
HETATM    4  C2  UNL     1      18.387   9.695  36.377  1.00  0.00     0.138 C 
ENDROOT
BRANCH   4   5
HETATM    5  S1  UNL     1      19.404   8.879  35.188  1.00  0.00    -0.088 SA
BRANCH   5   6
HETATM    6  C3  UNL     1      18.510   8.573  33.642  1.00  0.00     0.142 C 
BRANCH   6   7
HETATM    7  C4  UNL     1      18.519   9.807  32.817  1.00  0.00     0.052 A 
HETATM    8  C5  UNL     1      19.595  10.672  32.791  1.00  0.00     0.133 A 
HETATM    9  N2  UNL     1      19.561  11.780  32.029  1.00  0.00    -0.199 N 
HETATM   10  C6  UNL     1      18.497  12.094  31.266  1.00  0.00     0.690 A 
ATOM     11  H2  UNL     1      20.368  12.403  32.027  1.00  0.00     0.183 HD
HETATM   12  N4  UNL     1      17.456  11.241  31.302  1.00  0.00    -0.132 N 
HETATM   13  N5  UNL     1      17.462  10.144  32.043  1.00  0.00    -0.288 N 
ATOM     14  H4  UNL     1      16.632  11.446  30.737  1.00  0.00     0.205 HD
ATOM     15  H5  UNL     1      16.644   9.535  32.031  1.00  0.00     0.187 HD
BRANCH  10  16
HETATM   16  N3  UNL     1      18.460  13.168  30.525  1.00  0.00    -0.233 N 
ATOM     17  H32 UNL     1      18.986  13.222  29.653  1.00  0.00     0.174 HD
ATOM     18  H31 UNL     1      17.912  13.989  30.780  1.00  0.00     0.174 HD
ENDBRANCH  10  16
ENDBRANCH   6   7
ENDBRANCH   5   6
ENDBRANCH   4   5
BRANCH   4  19
HETATM   19  N6  UNL     1      17.224  10.408  35.990  1.00  0.00    -0.359 N 
HETATM   20  C7  UNL     1      15.946   9.725  35.908  1.00  0.00     0.145 C 
HETATM   21  C8  UNL     1      14.846  10.590  36.510  1.00  0.00     0.145 C 
HETATM   22  N7  UNL     1      15.030  11.963  36.115  1.00  0.00    -0.353 N 
HETATM   23  C9  UNL     1      14.235  12.987  36.695  1.00  0.00     0.184 C 
HETATM   24  C10 UNL     1      16.031  12.300  35.119  1.00  0.00     0.145 C 
HETATM   25  N8  UNL     1      13.762  12.846  37.874  1.00  0.00    -0.374 N 
HETATM   26  N9  UNL     1      13.958  14.173  35.976  1.00  0.00    -0.064 NA
ATOM     27  H82 UNL     1      13.962  11.991  38.393  1.00  0.00     0.158 HD
ATOM     28  H81 UNL     1      13.191  13.581  38.291  1.00  0.00     0.158 HD
HETATM   29  C11 UNL     1      17.368  11.818  35.686  1.00  0.00     0.145 C 
ENDBRANCH   4  19
TORSDOF 5
ENDMDL
MODEL 2
REMARK VINA RESULT: -5.266501582      3.189      6.613
REMARK  5 active torsions:
REMARK  status: ('A' for Active; 'I' for Inactive)
REMARK    1  A    between atoms: C2_4  and  S1_5 
REMARK    2  A    between atoms: C2_4  and  N6_19 
REMARK    3  A    between atoms: S1_5  and  C3_6 
REMARK    4  A    between atoms: C3_6  and  C4_7 
REMARK    5  A    between atoms: C6_11  and  N3_12 
REMARK       I    between atoms: N7_22  and  C9_23 
ROOT
HETATM    1  C1  UNL     1      17.301  13.135  38.323  1.00  0.00     0.148 C 
HETATM    2  N1  UNL     1      16.027  13.400  37.715  1.00  0.00    -0.375 N 
ATOM      3  H1  UNL     1      15.345  13.980  38.203  1.00  0.00     0.161 HD
HETATM    4  C2  UNL     1      15.740  12.911  36.563  1.00  0.00     0.138 C 
ENDROOT
BRANCH   4   5
HETATM    5  S1  UNL     1      14.168  13.253  35.840  1.00  0.00    -0.088 SA
BRANCH   5   6
HETATM    6  C3  UNL     1      13.289  14.559  36.737  1.00  0.00     0.142 C 
BRANCH   6   7
HETATM    7  C4  UNL     1      12.661  15.486  35.763  1.00  0.00     0.052 A 
HETATM    8  C5  UNL     1      13.113  16.778  35.573  1.00  0.00     0.133 A 
HETATM    9  N2  UNL     1      12.514  17.585  34.678  1.00  0.00    -0.199 N 
HETATM   10  C6  UNL     1      11.465  17.182  33.937  1.00  0.00     0.690 A 
ATOM     11  H2  UNL     1      12.866  18.534  34.557  1.00  0.00     0.183 HD
HETATM   12  N4  UNL     1      11.037  15.920  34.133  1.00  0.00    -0.132 N 
HETATM   13  N5  UNL     1      11.606  15.105  35.007  1.00  0.00    -0.288 N 
ATOM     14  H4  UNL     1      10.244  15.580  33.589  1.00  0.00     0.205 HD
ATOM     15  H5  UNL     1      11.238  14.160  35.113  1.00  0.00     0.187 HD
BRANCH  10  16
HETATM   16  N3  UNL     1      10.881  17.961  33.068  1.00  0.00    -0.233 N 
ATOM     17  H32 UNL     1      10.584  18.903  33.324  1.00  0.00     0.174 HD
ATOM     18  H31 UNL     1      10.697  17.669  32.109  1.00  0.00     0.174 HD
ENDBRANCH  10  16
ENDBRANCH   6   7
ENDBRANCH   5   6
ENDBRANCH   4   5
BRANCH   4  19
HETATM   19  N6  UNL     1      16.700  12.105  35.897  1.00  0.00    -0.359 N 
HETATM   20  C7  UNL     1      16.717  10.670  36.110  1.00  0.00     0.145 C 
HETATM   21  C8  UNL     1      16.922   9.943  34.787  1.00  0.00     0.145 C 
HETATM   22  N7  UNL     1      17.910  10.632  33.997  1.00  0.00    -0.353 N 
HETATM   23  C9  UNL     1      18.143  10.247  32.650  1.00  0.00     0.184 C 
HETATM   24  C10 UNL     1      18.670  11.722  34.581  1.00  0.00     0.145 C 
HETATM   25  N8  UNL     1      17.209   9.713  31.960  1.00  0.00    -0.374 N 
HETATM   26  N9  UNL     1      19.411  10.451  32.056  1.00  0.00    -0.064 NA
ATOM     27  H82 UNL     1      16.295   9.566  32.388  1.00  0.00     0.158 HD
ATOM     28  H81 UNL     1      17.376   9.436  30.993  1.00  0.00     0.158 HD
HETATM   29  C11 UNL     1      17.641  12.767  35.015  1.00  0.00     0.145 C 
ENDBRANCH   4  19
TORSDOF 5
ENDMDL
MODEL 3
REMARK VINA RESULT: -5.193423679      2.401      3.160
REMARK  5 active torsions:
REMARK  status: ('A' for Active; 'I' for Inactive)
REMARK    1  A    between atoms: C2_4  and  S1_5 
REMARK    2  A    between atoms: C2_4  and  N6_19 
REMARK    3  A    between atoms: S1_5  and  C3_6 
REMARK    4  A    between atoms: C3_6  and  C4_7 
REMARK    5  A    between atoms: C6_11  and  N3_12 
REMARK       I    between atoms: N7_22  and  C9_23 
ROOT
HETATM    1  C1  UNL     1      14.904  10.738  35.895  1.00  0.00     0.148 C 
HETATM    2  N1  UNL     1      16.044   9.907  35.625  1.00  0.00    -0.375 N 
ATOM      3  H1  UNL     1      15.908   8.953  35.292  1.00  0.00     0.161 HD
HETATM    4  C2  UNL     1      17.234  10.358  35.799  1.00  0.00     0.138 C 
ENDROOT
BRANCH   4   5
HETATM    5  S1  UNL     1      18.617   9.316  35.458  1.00  0.00    -0.088 SA
BRANCH   5   6
HETATM    6  C3  UNL     1      18.636   8.774  33.729  1.00  0.00     0.142 C 
BRANCH   6   7
HETATM    7  C4  UNL     1      18.611   9.964  32.842  1.00  0.00     0.052 A 
HETATM    8  C5  UNL     1      19.678  10.835  32.742  1.00  0.00     0.133 A 
HETATM    9  N2  UNL     1      19.613  11.902  31.924  1.00  0.00    -0.199 N 
HETATM   10  C6  UNL     1      18.525  12.168  31.177  1.00  0.00     0.690 A 
ATOM     11  H2  UNL     1      20.414  12.530  31.869  1.00  0.00     0.183 HD
HETATM   12  N4  UNL     1      17.494  11.309  31.285  1.00  0.00    -0.132 N 
HETATM   13  N5  UNL     1      17.530  10.252  32.081  1.00  0.00    -0.288 N 
ATOM     14  H4  UNL     1      16.653  11.478  30.733  1.00  0.00     0.205 HD
ATOM     15  H5  UNL     1      16.718   9.637  32.122  1.00  0.00     0.187 HD
BRANCH  10  16
HETATM   16  N3  UNL     1      18.458  13.201  30.382  1.00  0.00    -0.233 N 
ATOM     17  H32 UNL     1      18.466  14.151  30.754  1.00  0.00     0.174 HD
ATOM     18  H31 UNL     1      18.395  13.108  29.369  1.00  0.00     0.174 HD
ENDBRANCH  10  16
ENDBRANCH   6   7
ENDBRANCH   5   6
ENDBRANCH   4   5
BRANCH   4  19
HETATM   19  N6  UNL     1      17.408  11.688  36.262  1.00  0.00    -0.359 N 
HETATM   20  C7  UNL     1      17.480  11.958  37.685  1.00  0.00     0.145 C 
HETATM   21  C8  UNL     1      18.587  12.962  37.977  1.00  0.00     0.145 C 
HETATM   22  N7  UNL     1      18.581  14.002  36.979  1.00  0.00    -0.353 N 
HETATM   23  C9  UNL     1      19.633  14.956  36.934  1.00  0.00     0.184 C 
HETATM   24  C10 UNL     1      17.497  14.074  36.017  1.00  0.00     0.145 C 
HETATM   25  N8  UNL     1      20.799  14.651  37.358  1.00  0.00    -0.374 N 
HETATM   26  N9  UNL     1      19.401  16.253  36.421  1.00  0.00    -0.064 NA
ATOM     27  H82 UNL     1      20.966  13.715  37.728  1.00  0.00     0.158 HD
ATOM     28  H81 UNL     1      21.554  15.336  37.327  1.00  0.00     0.158 HD
HETATM   29  C11 UNL     1      17.508  12.740  35.269  1.00  0.00     0.145 C 
ENDBRANCH   4  19
TORSDOF 5
ENDMDL
MODEL 4
REMARK VINA RESULT: -5.118148837      1.810      2.443
REMARK  5 active torsions:
REMARK  status: ('A' for Active; 'I' for Inactive)
REMARK    1  A    between atoms: C2_4  and  S1_5 
REMARK    2  A    between atoms: C2_4  and  N6_19 
REMARK    3  A    between atoms: S1_5  and  C3_6 
REMARK    4  A    between atoms: C3_6  and  C4_7 
REMARK    5  A    between atoms: C6_11  and  N3_12 
REMARK       I    between atoms: N7_22  and  C9_23 
ROOT
HETATM    1  C1  UNL     1      14.996  10.794  36.114  1.00  0.00     0.148 C 
HETATM    2  N1  UNL     1      16.089   9.905  35.836  1.00  0.00    -0.375 N 
ATOM      3  H1  UNL     1      15.901   8.933  35.592  1.00  0.00     0.161 HD
HETATM    4  C2  UNL     1      17.301  10.326  35.893  1.00  0.00     0.138 C 
ENDROOT
BRANCH   4   5
HETATM    5  S1  UNL     1      18.625   9.211  35.546  1.00  0.00    -0.088 SA
BRANCH   5   6
HETATM    6  C3  UNL     1      18.597   8.656  33.822  1.00  0.00     0.142 C 
BRANCH   6   7
HETATM    7  C4  UNL     1      18.571   9.840  32.926  1.00  0.00     0.052 A 
HETATM    8  C5  UNL     1      19.642  10.703  32.808  1.00  0.00     0.133 A 
HETATM    9  N2  UNL     1      19.575  11.765  31.983  1.00  0.00    -0.199 N 
HETATM   10  C6  UNL     1      18.481  12.032  31.246  1.00  0.00     0.690 A 
ATOM     11  H2  UNL     1      20.379  12.388  31.915  1.00  0.00     0.183 HD
HETATM   12  N4  UNL     1      17.445  11.181  31.371  1.00  0.00    -0.132 N 
HETATM   13  N5  UNL     1      17.484  10.130  32.175  1.00  0.00    -0.288 N 
ATOM     14  H4  UNL     1      16.600  11.352  30.827  1.00  0.00     0.205 HD
ATOM     15  H5  UNL     1      16.668   9.521  32.230  1.00  0.00     0.187 HD
BRANCH  10  16
HETATM   16  N3  UNL     1      18.412  13.060  30.445  1.00  0.00    -0.233 N 
ATOM     17  H32 UNL     1      18.042  13.954  30.768  1.00  0.00     0.174 HD
ATOM     18  H31 UNL     1      18.719  13.018  29.473  1.00  0.00     0.174 HD
ENDBRANCH  10  16
ENDBRANCH   6   7
ENDBRANCH   5   6
ENDBRANCH   4   5
BRANCH   4  19
HETATM   19  N6  UNL     1      17.547  11.681  36.234  1.00  0.00    -0.359 N 
HETATM   20  C7  UNL     1      17.636  12.688  35.193  1.00  0.00     0.145 C 
HETATM   21  C8  UNL     1      16.885  13.946  35.610  1.00  0.00     0.145 C 
HETATM   22  N7  UNL     1      17.138  14.229  37.000  1.00  0.00    -0.353 N 
HETATM   23  C9  UNL     1      16.407  15.249  37.666  1.00  0.00     0.184 C 
HETATM   24  C10 UNL     1      18.141  13.468  37.721  1.00  0.00     0.145 C 
HETATM   25  N8  UNL     1      15.228  15.555  37.280  1.00  0.00    -0.374 N 
HETATM   26  N9  UNL     1      16.977  15.938  38.762  1.00  0.00    -0.064 NA
ATOM     27  H82 UNL     1      14.817  15.058  36.490  1.00  0.00     0.158 HD
ATOM     28  H81 UNL     1      14.703  16.287  37.758  1.00  0.00     0.158 HD
HETATM   29  C11 UNL     1      17.702  12.006  37.638  1.00  0.00     0.145 C 
ENDBRANCH   4  19
TORSDOF 5
ENDMDL
MODEL 5
REMARK VINA RESULT: -5.044881446      1.660      2.152
REMARK  5 active torsions:
REMARK  status: ('A' for Active; 'I' for Inactive)
REMARK    1  A    between atoms: C2_4  and  S1_5 
REMARK    2  A    between atoms: C2_4  and  N6_19 
REMARK    3  A    between atoms: S1_5  and  C3_6 
REMARK    4  A    between atoms: C3_6  and  C4_7 
REMARK    5  A    between atoms: C6_11  and  N3_12 
REMARK       I    between atoms: N7_22  and  C9_23 
ROOT
HETATM    1  C1  UNL     1      18.138  12.485  36.831  1.00  0.00     0.148 C 
HETATM    2  N1  UNL     1      18.821  11.446  36.113  1.00  0.00    -0.375 N 
ATOM      3  H1  UNL     1      19.645  11.673  35.556  1.00  0.00     0.161 HD
HETATM    4  C2  UNL     1      18.402  10.233  36.166  1.00  0.00     0.138 C 
ENDROOT
BRANCH   4   5
HETATM    5  S1  UNL     1      19.261   8.976  35.273  1.00  0.00    -0.088 SA
BRANCH   5   6
HETATM    6  C3  UNL     1      18.448   8.601  33.698  1.00  0.00     0.142 C 
BRANCH   6   7
HETATM    7  C4  UNL     1      18.475   9.807  32.833  1.00  0.00     0.052 A 
HETATM    8  C5  UNL     1      19.579  10.631  32.746  1.00  0.00     0.133 A 
HETATM    9  N2  UNL     1      19.560  11.715  31.948  1.00  0.00    -0.199 N 
HETATM   10  C6  UNL     1      18.484  12.044  31.210  1.00  0.00     0.690 A 
ATOM     11  H2  UNL     1      20.389  12.308  31.901  1.00  0.00     0.183 HD
HETATM   12  N4  UNL     1      17.415  11.230  31.305  1.00  0.00    -0.132 N 
HETATM   13  N5  UNL     1      17.406  10.158  32.082  1.00  0.00    -0.288 N 
ATOM     14  H4  UNL     1      16.581  11.448  30.759  1.00  0.00     0.205 HD
ATOM     15  H5  UNL     1      16.567   9.580  32.115  1.00  0.00     0.187 HD
BRANCH  10  16
HETATM   16  N3  UNL     1      18.461  13.094  30.435  1.00  0.00    -0.233 N 
ATOM     17  H32 UNL     1      18.712  13.024  29.449  1.00  0.00     0.174 HD
ATOM     18  H31 UNL     1      18.195  14.018  30.775  1.00  0.00     0.174 HD
ENDBRANCH  10  16
ENDBRANCH   6   7
ENDBRANCH   5   6
ENDBRANCH   4   5
BRANCH   4  19
HETATM   19  N6  UNL     1      17.255   9.933  36.945  1.00  0.00    -0.359 N 
HETATM   20  C7  UNL     1      17.403   9.517  38.327  1.00  0.00     0.145 C 
HETATM   21  C8  UNL     1      16.366  10.209  39.201  1.00  0.00     0.145 C 
HETATM   22  N7  UNL     1      15.095  10.241  38.522  1.00  0.00    -0.353 N 
HETATM   23  C9  UNL     1      14.016  10.993  39.059  1.00  0.00     0.184 C 
HETATM   24  C10 UNL     1      14.918   9.502  37.285  1.00  0.00     0.145 C 
HETATM   25  N8  UNL     1      14.243  12.022  39.781  1.00  0.00    -0.374 N 
HETATM   26  N9  UNL     1      12.679  10.611  38.800  1.00  0.00    -0.064 NA
ATOM     27  H82 UNL     1      15.208  12.297  39.968  1.00  0.00     0.158 HD
ATOM     28  H81 UNL     1      13.469  12.562  40.167  1.00  0.00     0.158 HD
HETATM   29  C11 UNL     1      15.957  10.058  36.310  1.00  0.00     0.145 C 
ENDBRANCH   4  19
TORSDOF 5
ENDMDL
