MODEL 1
REMARK VINA RESULT: -5.381801257      0.000      0.000
REMARK  6 active torsions:
REMARK  status: ('A' for Active; 'I' for Inactive)
REMARK    1  A    between atoms: C2_2  and  C4_4 
REMARK    2  A    between atoms: C4_4  and  O1_5 
REMARK    3  A    between atoms: C4_4  and  C5_7 
REMARK       I    between atoms: C5_7  and  N1_9 
REMARK    4  A    between atoms: N1_9  and  C6_11 
REMARK    5  A    between atoms: C7_14  and  N3_15 
REMARK    6  A    between atoms: C9_21  and  N5_22 
ROOT
HETATM    1  C6  UNL     1      16.820  12.231  35.207  1.00  0.00     0.153 A 
HETATM    2  N2  UNL     1      18.144  12.505  35.350  1.00  0.00    -0.174 N 
ATOM      3  H2  UNL     1      18.839  11.871  34.955  1.00  0.00     0.186 HD
HETATM    4  C7  UNL     1      18.538  13.602  36.007  1.00  0.00     0.678 A 
HETATM    5  N4  UNL     1      17.629  14.468  36.545  1.00  0.00    -0.186 N 
ATOM      6  H4  UNL     1      17.958  15.297  37.041  1.00  0.00     0.184 HD
HETATM    7  C8  UNL     1      16.326  14.250  36.434  1.00  0.00     0.123 A 
HETATM    8  C9  UNL     1      15.420  15.123  36.981  1.00  0.00     0.133 A 
HETATM    9  N6  UNL     1      14.109  14.846  36.840  1.00  0.00    -0.337 N 
ATOM     10  H6  UNL     1      13.425  15.488  37.242  1.00  0.00     0.168 HD
HETATM   11  C12 UNL     1      13.668  13.753  36.189  1.00  0.00     0.182 A 
HETATM   12  N7  UNL     1      14.584  12.920  35.665  1.00  0.00    -0.347 N 
ATOM     13  H7  UNL     1      14.247  12.094  35.170  1.00  0.00     0.167 HD
HETATM   14  C13 UNL     1      15.909  13.102  35.748  1.00  0.00     0.109 A 
ENDROOT
BRANCH   1  15
HETATM   15  N1  UNL     1      16.465  11.193  34.584  1.00  0.00    -0.308 N 
HETATM   16  C5  UNL     1      17.247  10.233  33.925  1.00  0.00     0.252 C 
HETATM   17  O2  UNL     1      17.784   9.231  34.514  1.00  0.00    -0.270 OA
ATOM     18  H1  UNL     1      15.458  11.026  34.557  1.00  0.00     0.170 HD
BRANCH  16  19
HETATM   19  C4  UNL     1      17.498  10.323  32.473  1.00  0.00     0.213 C 
BRANCH  19  20
HETATM   20  C2  UNL     1      18.500  11.413  32.142  1.00  0.00     0.015 C 
HETATM   21  C1  UNL     1      18.147  12.185  30.915  1.00  0.00     0.012 C 
HETATM   22  C3  UNL     1      19.874  10.824  32.123  1.00  0.00     0.012 C 
ENDBRANCH  19  20
BRANCH  19  23
HETATM   23  O1  UNL     1      17.929   9.081  32.027  1.00  0.00    -0.386 OA
ATOM     24  H1  UNL     1      17.596   8.886  31.159  1.00  0.00     0.210 HD
ENDBRANCH  19  23
ENDBRANCH  16  19
ENDBRANCH   1  15
BRANCH   4  25
HETATM   25  N3  UNL     1      19.797  13.850  36.137  1.00  0.00    -0.234 N 
ATOM     26  H32 UNL     1      20.322  14.196  35.333  1.00  0.00     0.174 HD
ATOM     27  H31 UNL     1      20.251  13.697  37.037  1.00  0.00     0.174 HD
ENDBRANCH   4  25
BRANCH   8  28
HETATM   28  N5  UNL     1      15.769  16.299  37.661  1.00  0.00    -0.374 N 
HETATM   29  C10 UNL     1      15.964  16.288  39.083  1.00  0.00     0.150 C 
HETATM   30  C11 UNL     1      15.936  17.534  36.940  1.00  0.00     0.150 C 
ENDBRANCH   8  28
TORSDOF 6
ENDMDL
MODEL 2
REMARK VINA RESULT: -5.334953018      1.822      2.107
REMARK  6 active torsions:
REMARK  status: ('A' for Active; 'I' for Inactive)
REMARK    1  A    between atoms: C2_2  and  C4_4 
REMARK    2  A    between atoms: C4_4  and  O1_5 
REMARK    3  A    between atoms: C4_4  and  C5_7 
REMARK       I    between atoms: C5_7  and  N1_9 
REMARK    4  A    between atoms: N1_9  and  C6_11 
REMARK    5  A    between atoms: C7_14  and  N3_15 
REMARK    6  A    between atoms: C9_21  and  N5_22 
ROOT
HETATM    1  C6  UNL     1      16.116  11.439  35.281  1.00  0.00     0.153 A 
HETATM    2  N2  UNL     1      16.844  12.522  34.900  1.00  0.00    -0.174 N 
ATOM      3  H2  UNL     1      17.421  12.476  34.060  1.00  0.00     0.186 HD
HETATM    4  C7  UNL     1      16.805  13.649  35.622  1.00  0.00     0.678 A 
HETATM    5  N4  UNL     1      16.040  13.739  36.750  1.00  0.00    -0.186 N 
ATOM      6  H4  UNL     1      16.030  14.610  37.281  1.00  0.00     0.184 HD
HETATM    7  C8  UNL     1      15.310  12.714  37.167  1.00  0.00     0.123 A 
HETATM    8  C9  UNL     1      14.548  12.812  38.303  1.00  0.00     0.133 A 
HETATM    9  N6  UNL     1      13.832  11.735  38.680  1.00  0.00    -0.337 N 
ATOM     10  H6  UNL     1      13.261  11.795  39.523  1.00  0.00     0.168 HD
HETATM   11  C12 UNL     1      13.843  10.582  37.984  1.00  0.00     0.182 A 
HETATM   12  N7  UNL     1      14.600  10.521  36.876  1.00  0.00    -0.347 N 
ATOM     13  H7  UNL     1      14.605   9.647  36.350  1.00  0.00     0.167 HD
HETATM   14  C13 UNL     1      15.349  11.532  36.414  1.00  0.00     0.109 A 
ENDROOT
BRANCH   1  15
HETATM   15  N1  UNL     1      16.163  10.385  34.590  1.00  0.00    -0.308 N 
HETATM   16  C5  UNL     1      17.254   9.789  33.940  1.00  0.00     0.252 C 
HETATM   17  O2  UNL     1      18.071   8.989  34.516  1.00  0.00    -0.270 OA
ATOM     18  H1  UNL     1      15.275   9.893  34.488  1.00  0.00     0.170 HD
BRANCH  16  19
HETATM   19  C4  UNL     1      17.528  10.054  32.513  1.00  0.00     0.213 C 
BRANCH  19  20
HETATM   20  C2  UNL     1      18.445  11.247  32.328  1.00  0.00     0.015 C 
HETATM   21  C1  UNL     1      18.042  12.130  31.195  1.00  0.00     0.012 C 
HETATM   22  C3  UNL     1      19.861  10.771  32.263  1.00  0.00     0.012 C 
ENDBRANCH  19  20
BRANCH  19  23
HETATM   23  O1  UNL     1      18.067   8.904  31.953  1.00  0.00    -0.386 OA
ATOM     24  H1  UNL     1      17.680   8.712  31.106  1.00  0.00     0.210 HD
ENDBRANCH  19  23
ENDBRANCH  16  19
ENDBRANCH   1  15
BRANCH   4  25
HETATM   25  N3  UNL     1      17.501  14.670  35.249  1.00  0.00    -0.234 N 
ATOM     26  H32 UNL     1      18.083  14.598  34.415  1.00  0.00     0.174 HD
ATOM     27  H31 UNL     1      17.462  15.532  35.792  1.00  0.00     0.174 HD
ENDBRANCH   4  25
BRANCH   8  28
HETATM   28  N5  UNL     1      14.450  13.969  39.089  1.00  0.00    -0.374 N 
HETATM   29  C10 UNL     1      15.349  14.184  40.187  1.00  0.00     0.150 C 
HETATM   30  C11 UNL     1      13.442  14.957  38.805  1.00  0.00     0.150 C 
ENDBRANCH   8  28
TORSDOF 6
ENDMDL
MODEL 3
REMARK VINA RESULT: -5.267145257      1.778      2.965
REMARK  6 active torsions:
REMARK  status: ('A' for Active; 'I' for Inactive)
REMARK    1  A    between atoms: C2_2  and  C4_4 
REMARK    2  A    between atoms: C4_4  and  O1_5 
REMARK    3  A    between atoms: C4_4  and  C5_7 
REMARK       I    between atoms: C5_7  and  N1_9 
REMARK    4  A    between atoms: N1_9  and  C6_11 
REMARK    5  A    between atoms: C7_14  and  N3_15 
REMARK    6  A    between atoms: C9_21  and  N5_22 
ROOT
HETATM    1  C6  UNL     1      17.205  12.514  34.366  1.00  0.00     0.153 A 
HETATM    2  N2  UNL     1      16.574  11.330  34.587  1.00  0.00    -0.174 N 
ATOM      3  H2  UNL     1      16.629  10.587  33.891  1.00  0.00     0.186 HD
HETATM    4  C7  UNL     1      15.882  11.137  35.716  1.00  0.00     0.678 A 
HETATM    5  N4  UNL     1      15.792  12.114  36.667  1.00  0.00    -0.186 N 
ATOM      6  H4  UNL     1      15.258  11.938  37.518  1.00  0.00     0.184 HD
HETATM    7  C8  UNL     1      16.389  13.286  36.502  1.00  0.00     0.123 A 
HETATM    8  C9  UNL     1      16.291  14.263  37.460  1.00  0.00     0.133 A 
HETATM    9  N6  UNL     1      16.914  15.437  37.235  1.00  0.00    -0.337 N 
ATOM     10  H6  UNL     1      16.849  16.171  37.939  1.00  0.00     0.168 HD
HETATM   11  C12 UNL     1      17.619  15.674  36.112  1.00  0.00     0.182 A 
HETATM   12  N7  UNL     1      17.696  14.694  35.196  1.00  0.00    -0.347 N 
ATOM     13  H7  UNL     1      18.232  14.876  34.348  1.00  0.00     0.167 HD
HETATM   14  C13 UNL     1      17.114  13.493  35.321  1.00  0.00     0.109 A 
ENDROOT
BRANCH   1  15
HETATM   15  N1  UNL     1      17.854  12.680  33.297  1.00  0.00    -0.308 N 
HETATM   16  C5  UNL     1      17.968  11.841  32.178  1.00  0.00     0.252 C 
HETATM   17  O2  UNL     1      17.126  11.828  31.214  1.00  0.00    -0.270 OA
ATOM     18  H1  UNL     1      18.374  13.556  33.237  1.00  0.00     0.170 HD
BRANCH  16  19
HETATM   19  C4  UNL     1      19.098  10.900  32.044  1.00  0.00     0.213 C 
BRANCH  19  20
HETATM   20  C2  UNL     1      20.179  11.168  33.073  1.00  0.00     0.015 C 
HETATM   21  C1  UNL     1      21.502  11.495  32.467  1.00  0.00     0.012 C 
HETATM   22  C3  UNL     1      20.214  10.038  34.052  1.00  0.00     0.012 C 
ENDBRANCH  19  20
BRANCH  19  23
HETATM   23  O1  UNL     1      18.603   9.607  32.148  1.00  0.00    -0.386 OA
ATOM     24  H1  UNL     1      17.988   9.525  32.868  1.00  0.00     0.210 HD
ENDBRANCH  19  23
ENDBRANCH  16  19
ENDBRANCH   1  15
BRANCH   4  25
HETATM   25  N3  UNL     1      15.287  10.009  35.915  1.00  0.00    -0.234 N 
ATOM     26  H32 UNL     1      15.847   9.165  36.035  1.00  0.00     0.174 HD
ATOM     27  H31 UNL     1      14.268   9.975  35.948  1.00  0.00     0.174 HD
ENDBRANCH   4  25
BRANCH   8  28
HETATM   28  N5  UNL     1      15.598  14.114  38.671  1.00  0.00    -0.374 N 
HETATM   29  C10 UNL     1      16.270  13.621  39.839  1.00  0.00     0.150 C 
HETATM   30  C11 UNL     1      14.201  14.454  38.755  1.00  0.00     0.150 C 
ENDBRANCH   8  28
TORSDOF 6
ENDMDL
MODEL 4
REMARK VINA RESULT: -5.206336704      1.645      2.959
REMARK  6 active torsions:
REMARK  status: ('A' for Active; 'I' for Inactive)
REMARK    1  A    between atoms: C2_2  and  C4_4 
REMARK    2  A    between atoms: C4_4  and  O1_5 
REMARK    3  A    between atoms: C4_4  and  C5_7 
REMARK       I    between atoms: C5_7  and  N1_9 
REMARK    4  A    between atoms: N1_9  and  C6_11 
REMARK    5  A    between atoms: C7_14  and  N3_15 
REMARK    6  A    between atoms: C9_21  and  N5_22 
ROOT
HETATM    1  C6  UNL     1      17.097  12.458  34.565  1.00  0.00     0.153 A 
HETATM    2  N2  UNL     1      16.366  11.367  34.917  1.00  0.00    -0.174 N 
ATOM      3  H2  UNL     1      16.464  10.499  34.390  1.00  0.00     0.186 HD
HETATM    4  C7  UNL     1      15.520  11.428  35.952  1.00  0.00     0.678 A 
HETATM    5  N4  UNL     1      15.370  12.577  36.676  1.00  0.00    -0.186 N 
ATOM      6  H4  UNL     1      14.718  12.594  37.460  1.00  0.00     0.184 HD
HETATM    7  C8  UNL     1      16.058  13.670  36.376  1.00  0.00     0.123 A 
HETATM    8  C9  UNL     1      15.899  14.821  37.106  1.00  0.00     0.133 A 
HETATM    9  N6  UNL     1      16.621  15.901  36.751  1.00  0.00    -0.337 N 
ATOM     10  H6  UNL     1      16.512  16.763  37.286  1.00  0.00     0.168 HD
HETATM   11  C12 UNL     1      17.482  15.884  35.716  1.00  0.00     0.182 A 
HETATM   12  N7  UNL     1      17.614  14.740  35.024  1.00  0.00    -0.347 N 
ATOM     13  H7  UNL     1      18.269  14.730  34.241  1.00  0.00     0.167 HD
HETATM   14  C13 UNL     1      16.944  13.611  35.293  1.00  0.00     0.109 A 
ENDROOT
BRANCH   1  15
HETATM   15  N1  UNL     1      17.890  12.385  33.587  1.00  0.00    -0.308 N 
HETATM   16  C5  UNL     1      17.865  11.528  32.476  1.00  0.00     0.252 C 
HETATM   17  O2  UNL     1      17.187  11.763  31.416  1.00  0.00    -0.270 OA
ATOM     18  H1  UNL     1      18.666  13.047  33.606  1.00  0.00     0.170 HD
BRANCH  16  19
HETATM   19  C4  UNL     1      18.643  10.273  32.465  1.00  0.00     0.213 C 
BRANCH  19  20
HETATM   20  C2  UNL     1      19.235   9.966  33.827  1.00  0.00     0.015 C 
HETATM   21  C1  UNL     1      20.682  10.313  33.932  1.00  0.00     0.012 C 
HETATM   22  C3  UNL     1      18.914   8.552  34.193  1.00  0.00     0.012 C 
ENDBRANCH  19  20
BRANCH  19  23
HETATM   23  O1  UNL     1      17.813   9.250  32.027  1.00  0.00    -0.386 OA
ATOM     24  H1  UNL     1      17.396   9.467  31.200  1.00  0.00     0.210 HD
ENDBRANCH  19  23
ENDBRANCH  16  19
ENDBRANCH   1  15
BRANCH   4  25
HETATM   25  N3  UNL     1      14.832  10.385  36.276  1.00  0.00    -0.234 N 
ATOM     26  H32 UNL     1      15.320   9.534  36.555  1.00  0.00     0.174 HD
ATOM     27  H31 UNL     1      13.813  10.425  36.248  1.00  0.00     0.174 HD
ENDBRANCH   4  25
BRANCH   8  28
HETATM   28  N5  UNL     1      15.045  14.941  38.212  1.00  0.00    -0.374 N 
HETATM   29  C10 UNL     1      13.688  15.376  38.043  1.00  0.00     0.150 C 
HETATM   30  C11 UNL     1      15.522  14.630  39.535  1.00  0.00     0.150 C 
ENDBRANCH   8  28
TORSDOF 6
ENDMDL
MODEL 5
REMARK VINA RESULT: -5.143099714      4.792      7.767
REMARK  6 active torsions:
REMARK  status: ('A' for Active; 'I' for Inactive)
REMARK    1  A    between atoms: C2_2  and  C4_4 
REMARK    2  A    between atoms: C4_4  and  O1_5 
REMARK    3  A    between atoms: C4_4  and  C5_7 
REMARK       I    between atoms: C5_7  and  N1_9 
REMARK    4  A    between atoms: N1_9  and  C6_11 
REMARK    5  A    between atoms: C7_14  and  N3_15 
REMARK    6  A    between atoms: C9_21  and  N5_22 
ROOT
HETATM    1  C6  UNL     1      19.868   8.773  34.943  1.00  0.00     0.153 A 
HETATM    2  N2  UNL     1      19.413   7.506  34.755  1.00  0.00    -0.174 N 
ATOM      3  H2  UNL     1      18.456   7.351  34.439  1.00  0.00     0.186 HD
HETATM    4  C7  UNL     1      20.218   6.461  34.982  1.00  0.00     0.678 A 
HETATM    5  N4  UNL     1      21.505   6.638  35.405  1.00  0.00    -0.186 N 
ATOM      6  H4  UNL     1      22.096   5.823  35.571  1.00  0.00     0.184 HD
HETATM    7  C8  UNL     1      21.999   7.853  35.604  1.00  0.00     0.123 A 
HETATM    8  C9  UNL     1      23.291   8.022  36.033  1.00  0.00     0.133 A 
HETATM    9  N6  UNL     1      23.736   9.280  36.223  1.00  0.00    -0.337 N 
ATOM     10  H6  UNL     1      24.694   9.419  36.541  1.00  0.00     0.168 HD
HETATM   11  C12 UNL     1      22.960  10.359  36.008  1.00  0.00     0.182 A 
HETATM   12  N7  UNL     1      21.700  10.156  35.587  1.00  0.00    -0.347 N 
ATOM     13  H7  UNL     1      21.115  10.976  35.424  1.00  0.00     0.167 HD
HETATM   14  C13 UNL     1      21.160   8.949  35.368  1.00  0.00     0.109 A 
ENDROOT
BRANCH   1  15
HETATM   15  N1  UNL     1      19.096   9.747  34.724  1.00  0.00    -0.308 N 
HETATM   16  C5  UNL     1      17.817   9.765  34.148  1.00  0.00     0.252 C 
HETATM   17  O2  UNL     1      16.740   9.556  34.807  1.00  0.00    -0.270 OA
ATOM     18  H1  UNL     1      19.457  10.659  35.009  1.00  0.00     0.170 HD
BRANCH  16  19
HETATM   19  C4  UNL     1      17.636  10.037  32.708  1.00  0.00     0.213 C 
BRANCH  19  20
HETATM   20  C2  UNL     1      18.383  11.282  32.271  1.00  0.00     0.015 C 
HETATM   21  C1  UNL     1      17.663  12.065  31.224  1.00  0.00     0.012 C 
HETATM   22  C3  UNL     1      19.784  10.908  31.904  1.00  0.00     0.012 C 
ENDBRANCH  19  20
BRANCH  19  23
HETATM   23  O1  UNL     1      18.049   8.917  31.999  1.00  0.00    -0.386 OA
ATOM     24  H1  UNL     1      18.570   8.334  32.538  1.00  0.00     0.210 HD
ENDBRANCH  19  23
ENDBRANCH  16  19
ENDBRANCH   1  15
BRANCH   4  25
HETATM   25  N3  UNL     1      19.775   5.262  34.800  1.00  0.00    -0.234 N 
ATOM     26  H32 UNL     1      19.813   4.595  35.571  1.00  0.00     0.174 HD
ATOM     27  H31 UNL     1      19.395   4.998  33.891  1.00  0.00     0.174 HD
ENDBRANCH   4  25
BRANCH   8  28
HETATM   28  N5  UNL     1      24.188   6.970  36.269  1.00  0.00    -0.374 N 
HETATM   29  C10 UNL     1      24.653   6.151  35.186  1.00  0.00     0.150 C 
HETATM   30  C11 UNL     1      24.654   6.698  37.604  1.00  0.00     0.150 C 
ENDBRANCH   8  28
TORSDOF 6
ENDMDL
