MODEL 1
REMARK VINA RESULT: -5.383807473      0.000      0.000
REMARK  4 active torsions:
REMARK  status: ('A' for Active; 'I' for Inactive)
REMARK    1  A    between atoms: C2_2  and  C4_4 
REMARK    2  A    between atoms: C4_4  and  N2_8 
REMARK    3  A    between atoms: N2_8  and  C5_10 
REMARK    4  A    between atoms: C9_19  and  C10_20 
ROOT
HETATM    1  C5  UNL     1      17.330  11.178  34.801  1.00  0.00     0.107 C 
HETATM    2  C6  UNL     1      17.483  12.549  34.791  1.00  0.00     0.077 C 
HETATM    3  C7  UNL     1      16.861  13.428  35.652  1.00  0.00     0.118 C 
HETATM    4  S1  UNL     1      17.342  14.975  35.440  1.00  0.00    -0.060 SA
HETATM    5  N3  UNL     1      15.939  13.177  36.613  1.00  0.00    -0.179 N 
ATOM      6  H3  UNL     1      15.675  13.977  37.187  1.00  0.00     0.185 HD
HETATM    7  C8  UNL     1      15.315  12.002  36.920  1.00  0.00     0.709 A 
HETATM    8  N4  UNL     1      14.369  11.863  37.868  1.00  0.00    -0.168 N 
ATOM      9  H4  UNL     1      14.022  12.622  38.455  1.00  0.00     0.186 HD
HETATM   10  C9  UNL     1      13.943  10.589  37.939  1.00  0.00     0.202 A 
HETATM   11  N6  UNL     1      14.657   9.934  36.999  1.00  0.00    -0.257 N 
ATOM     12  H6  UNL     1      14.576   8.939  36.790  1.00  0.00     0.190 HD
HETATM   13  N7  UNL     1      15.476  10.775  36.389  1.00  0.00    -0.044 N 
HETATM   14  C11 UNL     1      16.323  10.420  35.400  1.00  0.00     0.309 C 
HETATM   15  O2  UNL     1      16.194   9.263  34.954  1.00  0.00    -0.263 OA
ENDROOT
BRANCH   1  16
HETATM   16  N2  UNL     1      18.342  10.471  34.107  1.00  0.00    -0.341 N 
ATOM     17  H2  UNL     1      19.110  10.049  34.631  1.00  0.00     0.167 HD
BRANCH  16  18
HETATM   18  C4  UNL     1      18.307  10.339  32.691  1.00  0.00     0.078 C 
HETATM   19  N1  UNL     1      17.335   9.655  32.195  1.00  0.00    -0.389 N 
ATOM     20  H12 UNL     1      17.310   9.561  31.179  1.00  0.00     0.157 HD
ATOM     21  H11 UNL     1      16.640   9.239  32.814  1.00  0.00     0.157 HD
BRANCH  18  22
HETATM   22  C2  UNL     1      19.311  10.940  31.798  1.00  0.00     0.045 C 
HETATM   23  C1  UNL     1      20.518  11.349  32.610  1.00  0.00     0.017 C 
HETATM   24  C3  UNL     1      18.734  12.207  31.191  1.00  0.00     0.017 C 
ENDBRANCH  18  22
ENDBRANCH  16  18
ENDBRANCH   1  16
BRANCH  10  25
HETATM   25  C10 UNL     1      12.937  10.012  38.820  1.00  0.00     0.300 C 
HETATM   26  N5  UNL     1      11.921  10.816  39.385  1.00  0.00    -0.054 NA
HETATM   27  O1  UNL     1      12.951   8.790  39.098  1.00  0.00    -0.268 OA
ENDBRANCH  10  25
TORSDOF 4
ENDMDL
MODEL 2
REMARK VINA RESULT: -5.364845263      4.855      6.803
REMARK  4 active torsions:
REMARK  status: ('A' for Active; 'I' for Inactive)
REMARK    1  A    between atoms: C2_2  and  C4_4 
REMARK    2  A    between atoms: C4_4  and  N2_8 
REMARK    3  A    between atoms: N2_8  and  C5_10 
REMARK    4  A    between atoms: C9_19  and  C10_20 
ROOT
HETATM    1  C5  UNL     1      20.165   9.774  34.938  1.00  0.00     0.107 C 
HETATM    2  C6  UNL     1      21.317  10.227  35.546  1.00  0.00     0.077 C 
HETATM    3  C7  UNL     1      22.393   9.440  35.904  1.00  0.00     0.118 C 
HETATM    4  S1  UNL     1      23.641  10.306  36.505  1.00  0.00    -0.060 SA
HETATM    5  N3  UNL     1      22.534   8.096  35.820  1.00  0.00    -0.179 N 
ATOM      6  H3  UNL     1      23.455   7.736  36.071  1.00  0.00     0.185 HD
HETATM    7  C8  UNL     1      21.618   7.155  35.447  1.00  0.00     0.709 A 
HETATM    8  N4  UNL     1      21.842   5.827  35.443  1.00  0.00    -0.168 N 
ATOM      9  H4  UNL     1      22.720   5.388  35.719  1.00  0.00     0.186 HD
HETATM   10  C9  UNL     1      20.753   5.157  35.026  1.00  0.00     0.202 A 
HETATM   11  N6  UNL     1      19.837   6.115  34.769  1.00  0.00    -0.257 N 
ATOM     12  H6  UNL     1      18.890   5.944  34.431  1.00  0.00     0.190 HD
HETATM   13  N7  UNL     1      20.351   7.309  35.020  1.00  0.00    -0.044 N 
HETATM   14  C11 UNL     1      19.679   8.468  34.858  1.00  0.00     0.309 C 
HETATM   15  O2  UNL     1      18.463   8.369  34.604  1.00  0.00    -0.263 OA
ENDROOT
BRANCH   1  16
HETATM   16  N2  UNL     1      19.391  10.788  34.322  1.00  0.00    -0.341 N 
ATOM     17  H2  UNL     1      18.649  11.245  34.852  1.00  0.00     0.167 HD
BRANCH  16  18
HETATM   18  C4  UNL     1      19.630  11.179  32.976  1.00  0.00     0.078 C 
HETATM   19  N1  UNL     1      20.756  11.752  32.728  1.00  0.00    -0.389 N 
ATOM     20  H12 UNL     1      20.928  12.033  31.762  1.00  0.00     0.157 HD
ATOM     21  H11 UNL     1      21.424  11.906  33.484  1.00  0.00     0.157 HD
BRANCH  18  22
HETATM   22  C2  UNL     1      18.666  10.958  31.885  1.00  0.00     0.045 C 
HETATM   23  C1  UNL     1      18.503  12.238  31.099  1.00  0.00     0.017 C 
HETATM   24  C3  UNL     1      17.310  10.630  32.485  1.00  0.00     0.017 C 
ENDBRANCH  18  22
ENDBRANCH  16  18
ENDBRANCH   1  16
BRANCH  10  25
HETATM   25  C10 UNL     1      20.569   3.721  34.876  1.00  0.00     0.300 C 
HETATM   26  N5  UNL     1      19.771   2.993  35.787  1.00  0.00    -0.054 NA
HETATM   27  O1  UNL     1      21.116   3.097  33.936  1.00  0.00    -0.268 OA
ENDBRANCH  10  25
TORSDOF 4
ENDMDL
MODEL 3
REMARK VINA RESULT: -5.226177650      2.703      6.357
REMARK  4 active torsions:
REMARK  status: ('A' for Active; 'I' for Inactive)
REMARK    1  A    between atoms: C2_2  and  C4_4 
REMARK    2  A    between atoms: C4_4  and  N2_8 
REMARK    3  A    between atoms: N2_8  and  C5_10 
REMARK    4  A    between atoms: C9_19  and  C10_20 
ROOT
HETATM    1  C5  UNL     1      15.001  13.192  36.426  1.00  0.00     0.107 C 
HETATM    2  C6  UNL     1      15.637  14.392  36.671  1.00  0.00     0.077 C 
HETATM    3  C7  UNL     1      16.762  14.847  36.014  1.00  0.00     0.118 C 
HETATM    4  S1  UNL     1      17.198  16.354  36.470  1.00  0.00    -0.060 SA
HETATM    5  N3  UNL     1      17.516  14.224  35.077  1.00  0.00    -0.179 N 
ATOM      6  H3  UNL     1      18.262  14.788  34.669  1.00  0.00     0.185 HD
HETATM    7  C8  UNL     1      17.418  12.948  34.602  1.00  0.00     0.709 A 
HETATM    8  N4  UNL     1      18.253  12.402  33.698  1.00  0.00    -0.168 N 
ATOM      9  H4  UNL     1      19.045  12.886  33.275  1.00  0.00     0.186 HD
HETATM   10  C9  UNL     1      17.903  11.131  33.427  1.00  0.00     0.202 A 
HETATM   11  N6  UNL     1      16.817  10.901  34.195  1.00  0.00    -0.257 N 
ATOM     12  H6  UNL     1      16.299  10.024  34.228  1.00  0.00     0.190 HD
HETATM   13  N7  UNL     1      16.526  11.984  34.898  1.00  0.00    -0.044 N 
HETATM   14  C11 UNL     1      15.491  12.068  35.760  1.00  0.00     0.309 C 
HETATM   15  O2  UNL     1      14.887  11.005  36.000  1.00  0.00    -0.263 OA
ENDROOT
BRANCH   1  16
HETATM   16  N2  UNL     1      13.678  13.119  36.927  1.00  0.00    -0.341 N 
ATOM     17  H2  UNL     1      13.343  12.245  37.333  1.00  0.00     0.167 HD
BRANCH  16  18
HETATM   18  C4  UNL     1      12.809  14.243  36.873  1.00  0.00     0.078 C 
HETATM   19  N1  UNL     1      12.516  14.806  37.994  1.00  0.00    -0.389 N 
ATOM     20  H12 UNL     1      11.893  15.613  37.956  1.00  0.00     0.157 HD
ATOM     21  H11 UNL     1      12.905  14.439  38.863  1.00  0.00     0.157 HD
BRANCH  18  22
HETATM   22  C2  UNL     1      12.248  14.773  35.620  1.00  0.00     0.045 C 
HETATM   23  C1  UNL     1      12.647  16.223  35.471  1.00  0.00     0.017 C 
HETATM   24  C3  UNL     1      10.732  14.737  35.705  1.00  0.00     0.017 C 
ENDBRANCH  18  22
ENDBRANCH  16  18
ENDBRANCH   1  16
BRANCH  10  25
HETATM   25  C10 UNL     1      18.534  10.187  32.515  1.00  0.00     0.300 C 
HETATM   26  N5  UNL     1      19.622  10.580  31.703  1.00  0.00    -0.054 NA
HETATM   27  O1  UNL     1      18.124   9.006  32.428  1.00  0.00    -0.268 OA
ENDBRANCH  10  25
TORSDOF 4
ENDMDL
MODEL 4
REMARK VINA RESULT: -5.184016265      5.088      6.974
REMARK  4 active torsions:
REMARK  status: ('A' for Active; 'I' for Inactive)
REMARK    1  A    between atoms: C2_2  and  C4_4 
REMARK    2  A    between atoms: C4_4  and  N2_8 
REMARK    3  A    between atoms: N2_8  and  C5_10 
REMARK    4  A    between atoms: C9_19  and  C10_20 
ROOT
HETATM    1  C5  UNL     1      20.291   8.409  35.317  1.00  0.00     0.107 C 
HETATM    2  C6  UNL     1      21.585   8.829  35.547  1.00  0.00     0.077 C 
HETATM    3  C7  UNL     1      22.152   9.981  35.041  1.00  0.00     0.118 C 
HETATM    4  S1  UNL     1      23.668  10.238  35.593  1.00  0.00    -0.060 SA
HETATM    5  N3  UNL     1      21.627  10.886  34.182  1.00  0.00    -0.179 N 
ATOM      6  H3  UNL     1      22.202  11.710  34.007  1.00  0.00     0.185 HD
HETATM    7  C8  UNL     1      20.435  10.851  33.516  1.00  0.00     0.709 A 
HETATM    8  N4  UNL     1      20.021  11.784  32.638  1.00  0.00    -0.168 N 
ATOM      9  H4  UNL     1      20.556  12.614  32.380  1.00  0.00     0.186 HD
HETATM   10  C9  UNL     1      18.807  11.477  32.146  1.00  0.00     0.202 A 
HETATM   11  N6  UNL     1      18.475  10.315  32.750  1.00  0.00    -0.257 N 
ATOM     12  H6  UNL     1      17.606   9.804  32.598  1.00  0.00     0.190 HD
HETATM   13  N7  UNL     1      19.446   9.940  33.568  1.00  0.00    -0.044 N 
HETATM   14  C11 UNL     1      19.409   8.817  34.316  1.00  0.00     0.309 C 
HETATM   15  O2  UNL     1      18.466   8.035  34.089  1.00  0.00    -0.263 OA
ENDROOT
BRANCH   1  16
HETATM   16  N2  UNL     1      19.821   7.435  36.233  1.00  0.00    -0.341 N 
ATOM     17  H2  UNL     1      19.092   7.686  36.901  1.00  0.00     0.167 HD
BRANCH  16  18
HETATM   18  C4  UNL     1      20.349   6.115  36.236  1.00  0.00     0.078 C 
HETATM   19  N1  UNL     1      20.389   5.507  37.371  1.00  0.00    -0.389 N 
ATOM     20  H12 UNL     1      20.768   4.560  37.373  1.00  0.00     0.157 HD
ATOM     21  H11 UNL     1      20.051   5.978  38.210  1.00  0.00     0.157 HD
BRANCH  18  22
HETATM   22  C2  UNL     1      20.837   5.436  35.024  1.00  0.00     0.045 C 
HETATM   23  C1  UNL     1      20.168   4.085  34.909  1.00  0.00     0.017 C 
HETATM   24  C3  UNL     1      22.327   5.182  35.168  1.00  0.00     0.017 C 
ENDBRANCH  18  22
ENDBRANCH  16  18
ENDBRANCH   1  16
BRANCH  10  25
HETATM   25  C10 UNL     1      18.003  12.210  31.179  1.00  0.00     0.300 C 
HETATM   26  N5  UNL     1      18.567  13.253  30.410  1.00  0.00    -0.054 NA
HETATM   27  O1  UNL     1      16.792  11.932  31.007  1.00  0.00    -0.268 OA
ENDBRANCH  10  25
TORSDOF 4
ENDMDL
MODEL 5
REMARK VINA RESULT: -5.093548282      1.945      6.638
REMARK  4 active torsions:
REMARK  status: ('A' for Active; 'I' for Inactive)
REMARK    1  A    between atoms: C2_2  and  C4_4 
REMARK    2  A    between atoms: C4_4  and  N2_8 
REMARK    3  A    between atoms: N2_8  and  C5_10 
REMARK    4  A    between atoms: C9_19  and  C10_20 
ROOT
HETATM    1  C5  UNL     1      14.396  10.913  37.269  1.00  0.00     0.107 C 
HETATM    2  C6  UNL     1      14.249  12.282  37.370  1.00  0.00     0.077 C 
HETATM    3  C7  UNL     1      14.756  13.206  36.480  1.00  0.00     0.118 C 
HETATM    4  S1  UNL     1      14.309  14.738  36.832  1.00  0.00    -0.060 SA
HETATM    5  N3  UNL     1      15.544  13.007  35.396  1.00  0.00    -0.179 N 
ATOM      6  H3  UNL     1      15.732  13.837  34.834  1.00  0.00     0.185 HD
HETATM    7  C8  UNL     1      16.120  11.853  34.951  1.00  0.00     0.709 A 
HETATM    8  N4  UNL     1      16.934  11.766  33.881  1.00  0.00    -0.168 N 
ATOM      9  H4  UNL     1      17.203  12.556  33.294  1.00  0.00     0.186 HD
HETATM   10  C9  UNL     1      17.344  10.499  33.691  1.00  0.00     0.202 A 
HETATM   11  N6  UNL     1      16.758   9.794  34.682  1.00  0.00    -0.257 N 
ATOM     12  H6  UNL     1      16.862   8.790  34.827  1.00  0.00     0.190 HD
HETATM   13  N7  UNL     1      16.026  10.600  35.436  1.00  0.00    -0.044 N 
HETATM   14  C11 UNL     1      15.315  10.191  36.507  1.00  0.00     0.309 C 
HETATM   15  O2  UNL     1      15.499   9.014  36.873  1.00  0.00    -0.263 OA
ENDROOT
BRANCH   1  16
HETATM   16  N2  UNL     1      13.482  10.167  38.053  1.00  0.00    -0.341 N 
ATOM     17  H2  UNL     1      12.758   9.616  37.591  1.00  0.00     0.167 HD
BRANCH  16  18
HETATM   18  C4  UNL     1      13.556  10.174  39.473  1.00  0.00     0.078 C 
HETATM   19  N1  UNL     1      14.602   9.642  40.004  1.00  0.00    -0.389 N 
ATOM     20  H12 UNL     1      14.654   9.647  41.022  1.00  0.00     0.157 HD
ATOM     21  H11 UNL     1      15.325   9.242  39.407  1.00  0.00     0.157 HD
BRANCH  18  22
HETATM   22  C2  UNL     1      12.511  10.752  40.335  1.00  0.00     0.045 C 
HETATM   23  C1  UNL     1      11.305  11.095  39.492  1.00  0.00     0.017 C 
HETATM   24  C3  UNL     1      13.025  12.053  40.926  1.00  0.00     0.017 C 
ENDBRANCH  18  22
ENDBRANCH  16  18
ENDBRANCH   1  16
BRANCH  10  25
HETATM   25  C10 UNL     1      18.225   9.972  32.658  1.00  0.00     0.300 C 
HETATM   26  N5  UNL     1      19.109  10.822  31.957  1.00  0.00    -0.054 NA
HETATM   27  O1  UNL     1      18.216   8.753  32.367  1.00  0.00    -0.268 OA
ENDBRANCH  10  25
TORSDOF 4
ENDMDL
