MODEL 1
REMARK VINA RESULT: -5.501612124      0.000      0.000
REMARK  4 active torsions:
REMARK  status: ('A' for Active; 'I' for Inactive)
REMARK    1  A    between atoms: C3_3  and  C4_4 
REMARK       I    between atoms: C4_4  and  N1_6 
REMARK    2  A    between atoms: N1_6  and  C5_8 
REMARK    3  A    between atoms: C7_14  and  O3_15 
REMARK    4  A    between atoms: C8_20  and  C10_22 
REMARK       I    between atoms: C10_22  and  N4_24 
ROOT
HETATM    1  C1  UNL     1      20.262  10.700  34.018  1.00  0.00     0.025 C 
HETATM    2  C2  UNL     1      19.249   9.918  33.800  1.00  0.00     0.013 C 
HETATM    3  C3  UNL     1      19.127   8.482  33.995  1.00  0.00     0.131 C 
HETATM    4  N3  UNL     1      18.263   8.066  33.091  1.00  0.00    -0.259 N 
ATOM      5  H3  UNL     1      17.966   7.098  32.969  1.00  0.00     0.194 HD
HETATM    6  O4  UNL     1      17.819   9.129  32.333  1.00  0.00    -0.254 OA
HETATM    7  C8  UNL     1      17.897  10.281  33.209  1.00  0.00     0.194 C 
HETATM    8  C9  UNL     1      16.893  10.162  34.297  1.00  0.00     0.065 C 
ENDROOT
BRANCH   3   9
HETATM    9  C4  UNL     1      19.780   7.614  34.943  1.00  0.00     0.275 C 
HETATM   10  O1  UNL     1      20.285   8.150  35.994  1.00  0.00    -0.266 OA
HETATM   11  N1  UNL     1      19.921   6.232  34.825  1.00  0.00    -0.312 N 
ATOM     12  H1  UNL     1      19.549   5.742  34.012  1.00  0.00     0.170 HD
BRANCH  11  13
HETATM   13  C5  UNL     1      20.600   5.505  35.869  1.00  0.00     0.133 A 
HETATM   14  S1  UNL     1      19.952   4.949  37.349  1.00  0.00    -0.007 SA
HETATM   15  C6  UNL     1      21.362   4.217  37.972  1.00  0.00     0.292 A 
HETATM   16  O2  UNL     1      21.531   3.606  39.086  1.00  0.00    -0.260 OA
HETATM   17  N2  UNL     1      22.257   4.437  37.012  1.00  0.00    -0.296 N 
HETATM   18  C7  UNL     1      21.899   5.082  35.943  1.00  0.00     0.178 A 
ATOM     19  H2  UNL     1      23.215   4.101  37.115  1.00  0.00     0.171 HD
BRANCH  18  20
HETATM   20  O3  UNL     1      22.777   5.372  34.856  1.00  0.00    -0.344 OA
ATOM     21  H3  UNL     1      22.502   5.143  33.976  1.00  0.00     0.219 HD
ENDBRANCH  18  20
ENDBRANCH  11  13
ENDBRANCH   3   9
BRANCH   7  22
HETATM   22  C10 UNL     1      17.918  11.536  32.472  1.00  0.00     0.259 C 
HETATM   23  O5  UNL     1      17.470  12.575  33.020  1.00  0.00    -0.270 OA
HETATM   24  N4  UNL     1      18.426  11.654  31.149  1.00  0.00    -0.362 N 
HETATM   25  C11 UNL     1      18.433  12.918  30.443  1.00  0.00     0.149 C 
ATOM     26  H4  UNL     1      18.796  10.825  30.684  1.00  0.00     0.162 HD
ENDBRANCH   7  22
TORSDOF 4
ENDMDL
MODEL 2
REMARK VINA RESULT: -5.499000731      4.981      7.381
REMARK  4 active torsions:
REMARK  status: ('A' for Active; 'I' for Inactive)
REMARK    1  A    between atoms: C3_3  and  C4_4 
REMARK       I    between atoms: C4_4  and  N1_6 
REMARK    2  A    between atoms: N1_6  and  C5_8 
REMARK    3  A    between atoms: C7_14  and  O3_15 
REMARK    4  A    between atoms: C8_20  and  C10_22 
REMARK       I    between atoms: C10_22  and  N4_24 
ROOT
HETATM    1  C1  UNL     1      14.096  13.201  36.289  1.00  0.00     0.025 C 
HETATM    2  C2  UNL     1      14.481  12.064  36.782  1.00  0.00     0.013 C 
HETATM    3  C3  UNL     1      15.305  11.025  36.185  1.00  0.00     0.131 C 
HETATM    4  N3  UNL     1      14.900   9.890  36.717  1.00  0.00    -0.259 N 
ATOM      5  H3  UNL     1      15.285   8.972  36.497  1.00  0.00     0.194 HD
HETATM    6  O4  UNL     1      13.879  10.124  37.614  1.00  0.00    -0.254 OA
HETATM    7  C8  UNL     1      14.120  11.457  38.128  1.00  0.00     0.194 C 
HETATM    8  C9  UNL     1      15.349  11.468  38.961  1.00  0.00     0.065 C 
ENDROOT
BRANCH   3   9
HETATM    9  C4  UNL     1      16.358  11.123  35.204  1.00  0.00     0.275 C 
HETATM   10  O1  UNL     1      16.485  12.233  34.573  1.00  0.00    -0.266 OA
HETATM   11  N1  UNL     1      17.262  10.115  34.870  1.00  0.00    -0.312 N 
ATOM     12  H1  UNL     1      17.215   9.206  35.329  1.00  0.00     0.170 HD
BRANCH  11  13
HETATM   13  C5  UNL     1      18.264  10.377  33.867  1.00  0.00     0.133 A 
HETATM   14  S1  UNL     1      19.763  11.173  34.068  1.00  0.00    -0.007 SA
HETATM   15  C6  UNL     1      20.314  11.063  32.456  1.00  0.00     0.292 A 
HETATM   16  O2  UNL     1      21.411  11.489  31.946  1.00  0.00    -0.260 OA
HETATM   17  N2  UNL     1      19.320  10.421  31.848  1.00  0.00    -0.296 N 
HETATM   18  C7  UNL     1      18.277  10.064  32.535  1.00  0.00     0.178 A 
ATOM     19  H2  UNL     1      19.377  10.210  30.851  1.00  0.00     0.171 HD
BRANCH  18  20
HETATM   20  O3  UNL     1      17.157   9.374  31.984  1.00  0.00    -0.344 OA
ATOM     21  H3  UNL     1      17.212   8.432  31.874  1.00  0.00     0.219 HD
ENDBRANCH  18  20
ENDBRANCH  11  13
ENDBRANCH   3   9
BRANCH   7  22
HETATM   22  C10 UNL     1      12.926  12.049  38.714  1.00  0.00     0.259 C 
HETATM   23  O5  UNL     1      11.850  11.399  38.701  1.00  0.00    -0.270 OA
HETATM   24  N4  UNL     1      12.910  13.340  39.311  1.00  0.00    -0.362 N 
HETATM   25  C11 UNL     1      11.706  13.901  39.885  1.00  0.00     0.149 C 
ATOM     26  H4  UNL     1      13.771  13.886  39.334  1.00  0.00     0.162 HD
ENDBRANCH   7  22
TORSDOF 4
ENDMDL
MODEL 3
REMARK VINA RESULT: -5.477277699      1.289      1.455
REMARK  4 active torsions:
REMARK  status: ('A' for Active; 'I' for Inactive)
REMARK    1  A    between atoms: C3_3  and  C4_4 
REMARK       I    between atoms: C4_4  and  N1_6 
REMARK    2  A    between atoms: N1_6  and  C5_8 
REMARK    3  A    between atoms: C7_14  and  O3_15 
REMARK    4  A    between atoms: C8_20  and  C10_22 
REMARK       I    between atoms: C10_22  and  N4_24 
ROOT
HETATM    1  C1  UNL     1      20.191  10.857  34.171  1.00  0.00     0.025 C 
HETATM    2  C2  UNL     1      19.230  10.017  33.936  1.00  0.00     0.013 C 
HETATM    3  C3  UNL     1      19.160   8.588  34.201  1.00  0.00     0.131 C 
HETATM    4  N3  UNL     1      18.375   8.085  33.271  1.00  0.00    -0.259 N 
ATOM      5  H3  UNL     1      18.130   7.099  33.184  1.00  0.00     0.194 HD
HETATM    6  O4  UNL     1      17.931   9.085  32.431  1.00  0.00    -0.254 OA
HETATM    7  C8  UNL     1      17.902  10.283  33.245  1.00  0.00     0.194 C 
HETATM    8  C9  UNL     1      16.839  10.172  34.276  1.00  0.00     0.065 C 
ENDROOT
BRANCH   3   9
HETATM    9  C4  UNL     1      19.792   7.803  35.232  1.00  0.00     0.275 C 
HETATM   10  O1  UNL     1      20.002   8.365  36.366  1.00  0.00    -0.266 OA
HETATM   11  N1  UNL     1      20.204   6.476  35.114  1.00  0.00    -0.312 N 
ATOM     12  H1  UNL     1      20.073   5.971  34.238  1.00  0.00     0.170 HD
BRANCH  11  13
HETATM   13  C5  UNL     1      20.818   5.829  36.247  1.00  0.00     0.133 A 
HETATM   14  S1  UNL     1      22.462   5.409  36.446  1.00  0.00    -0.007 SA
HETATM   15  C6  UNL     1      22.348   4.714  38.001  1.00  0.00     0.292 A 
HETATM   16  O2  UNL     1      23.271   4.194  38.725  1.00  0.00    -0.260 OA
HETATM   17  N2  UNL     1      21.055   4.840  38.286  1.00  0.00    -0.296 N 
HETATM   18  C7  UNL     1      20.263   5.398  37.420  1.00  0.00     0.178 A 
ATOM     19  H2  UNL     1      20.688   4.503  39.176  1.00  0.00     0.171 HD
BRANCH  18  20
HETATM   20  O3  UNL     1      18.863   5.584  37.624  1.00  0.00    -0.344 OA
ATOM     21  H3  UNL     1      18.281   4.846  37.484  1.00  0.00     0.219 HD
ENDBRANCH  18  20
ENDBRANCH  11  13
ENDBRANCH   3   9
BRANCH   7  22
HETATM   22  C10 UNL     1      17.913  11.498  32.444  1.00  0.00     0.259 C 
HETATM   23  O5  UNL     1      17.383  12.540  32.905  1.00  0.00    -0.270 OA
HETATM   24  N4  UNL     1      18.500  11.572  31.151  1.00  0.00    -0.362 N 
HETATM   25  C11 UNL     1      18.494  12.797  30.379  1.00  0.00     0.149 C 
ATOM     26  H4  UNL     1      18.937  10.740  30.756  1.00  0.00     0.162 HD
ENDBRANCH   7  22
TORSDOF 4
ENDMDL
MODEL 4
REMARK VINA RESULT: -5.358207661      1.321      1.326
REMARK  4 active torsions:
REMARK  status: ('A' for Active; 'I' for Inactive)
REMARK    1  A    between atoms: C3_3  and  C4_4 
REMARK       I    between atoms: C4_4  and  N1_6 
REMARK    2  A    between atoms: N1_6  and  C5_8 
REMARK    3  A    between atoms: C7_14  and  O3_15 
REMARK    4  A    between atoms: C8_20  and  C10_22 
REMARK       I    between atoms: C10_22  and  N4_24 
ROOT
HETATM    1  C1  UNL     1      20.318  10.865  34.078  1.00  0.00     0.025 C 
HETATM    2  C2  UNL     1      19.359  10.006  33.913  1.00  0.00     0.013 C 
HETATM    3  C3  UNL     1      19.336   8.577  34.185  1.00  0.00     0.131 C 
HETATM    4  N3  UNL     1      18.496   8.056  33.315  1.00  0.00    -0.259 N 
ATOM      5  H3  UNL     1      18.265   7.065  33.248  1.00  0.00     0.194 HD
HETATM    6  O4  UNL     1      17.975   9.044  32.507  1.00  0.00    -0.254 OA
HETATM    7  C8  UNL     1      17.981  10.244  33.319  1.00  0.00     0.194 C 
HETATM    8  C9  UNL     1      16.996  10.116  34.424  1.00  0.00     0.065 C 
ENDROOT
BRANCH   3   9
HETATM    9  C4  UNL     1      20.055   7.807  35.171  1.00  0.00     0.275 C 
HETATM   10  O1  UNL     1      19.369   7.121  36.010  1.00  0.00    -0.266 OA
HETATM   11  N1  UNL     1      21.442   7.738  35.303  1.00  0.00    -0.312 N 
ATOM     12  H1  UNL     1      22.048   8.263  34.673  1.00  0.00     0.170 HD
BRANCH  11  13
HETATM   13  C5  UNL     1      22.006   6.914  36.343  1.00  0.00     0.133 A 
HETATM   14  S1  UNL     1      22.182   7.295  37.999  1.00  0.00    -0.007 SA
HETATM   15  C6  UNL     1      22.907   5.836  38.508  1.00  0.00     0.292 A 
HETATM   16  O2  UNL     1      23.295   5.492  39.681  1.00  0.00    -0.260 OA
HETATM   17  N2  UNL     1      22.977   5.132  37.381  1.00  0.00    -0.296 N 
HETATM   18  C7  UNL     1      22.530   5.652  36.277  1.00  0.00     0.178 A 
ATOM     19  H2  UNL     1      23.376   4.194  37.383  1.00  0.00     0.171 HD
BRANCH  18  20
HETATM   20  O3  UNL     1      22.555   4.986  35.015  1.00  0.00    -0.344 OA
ATOM     21  H3  UNL     1      23.346   5.035  34.491  1.00  0.00     0.219 HD
ENDBRANCH  18  20
ENDBRANCH  11  13
ENDBRANCH   3   9
BRANCH   7  22
HETATM   22  C10 UNL     1      17.911  11.457  32.517  1.00  0.00     0.259 C 
HETATM   23  O5  UNL     1      17.346  12.474  32.993  1.00  0.00    -0.270 OA
HETATM   24  N4  UNL     1      18.455  11.555  31.207  1.00  0.00    -0.362 N 
HETATM   25  C11 UNL     1      18.368  12.776  30.435  1.00  0.00     0.149 C 
ATOM     26  H4  UNL     1      18.918  10.743  30.800  1.00  0.00     0.162 HD
ENDBRANCH   7  22
TORSDOF 4
ENDMDL
MODEL 5
REMARK VINA RESULT: -5.348918577      1.739      1.989
REMARK  4 active torsions:
REMARK  status: ('A' for Active; 'I' for Inactive)
REMARK    1  A    between atoms: C3_3  and  C4_4 
REMARK       I    between atoms: C4_4  and  N1_6 
REMARK    2  A    between atoms: N1_6  and  C5_8 
REMARK    3  A    between atoms: C7_14  and  O3_15 
REMARK    4  A    between atoms: C8_20  and  C10_22 
REMARK       I    between atoms: C10_22  and  N4_24 
ROOT
HETATM    1  C1  UNL     1      20.112  10.871  34.265  1.00  0.00     0.025 C 
HETATM    2  C2  UNL     1      19.175  10.021  33.980  1.00  0.00     0.013 C 
HETATM    3  C3  UNL     1      19.114   8.589  34.228  1.00  0.00     0.131 C 
HETATM    4  N3  UNL     1      18.377   8.084  33.259  1.00  0.00    -0.259 N 
ATOM      5  H3  UNL     1      18.151   7.096  33.153  1.00  0.00     0.194 HD
HETATM    6  O4  UNL     1      17.957   9.086  32.411  1.00  0.00    -0.254 OA
HETATM    7  C8  UNL     1      17.875  10.275  33.235  1.00  0.00     0.194 C 
HETATM    8  C9  UNL     1      16.769  10.139  34.217  1.00  0.00     0.065 C 
ENDROOT
BRANCH   3   9
HETATM    9  C4  UNL     1      19.712   7.802  35.278  1.00  0.00     0.275 C 
HETATM   10  O1  UNL     1      20.252   6.684  34.954  1.00  0.00    -0.266 OA
HETATM   11  N1  UNL     1      19.757   8.141  36.630  1.00  0.00    -0.312 N 
ATOM     12  H1  UNL     1      19.341   9.013  36.958  1.00  0.00     0.170 HD
BRANCH  11  13
HETATM   13  C5  UNL     1      20.399   7.243  37.557  1.00  0.00     0.133 A 
HETATM   14  S1  UNL     1      22.010   7.299  38.122  1.00  0.00    -0.007 SA
HETATM   15  C6  UNL     1      21.957   5.934  39.145  1.00  0.00     0.292 A 
HETATM   16  O2  UNL     1      22.885   5.435  39.876  1.00  0.00    -0.260 OA
HETATM   17  N2  UNL     1      20.705   5.507  39.001  1.00  0.00    -0.296 N 
HETATM   18  C7  UNL     1      19.901   6.148  38.208  1.00  0.00     0.178 A 
ATOM     19  H2  UNL     1      20.381   4.683  39.509  1.00  0.00     0.171 HD
BRANCH  18  20
HETATM   20  O3  UNL     1      18.542   5.776  37.980  1.00  0.00    -0.344 OA
ATOM     21  H3  UNL     1      18.313   5.373  37.151  1.00  0.00     0.219 HD
ENDBRANCH  18  20
ENDBRANCH  11  13
ENDBRANCH   3   9
BRANCH   7  22
HETATM   22  C10 UNL     1      17.903  11.498  32.446  1.00  0.00     0.259 C 
HETATM   23  O5  UNL     1      17.410  12.550  32.929  1.00  0.00    -0.270 OA
HETATM   24  N4  UNL     1      18.466  11.571  31.143  1.00  0.00    -0.362 N 
HETATM   25  C11 UNL     1      18.478  12.804  30.384  1.00  0.00     0.149 C 
ATOM     26  H4  UNL     1      18.873  10.732  30.730  1.00  0.00     0.162 HD
ENDBRANCH   7  22
TORSDOF 4
ENDMDL
