MODEL 1
REMARK VINA RESULT: -6.368912843      0.000      0.000
REMARK  5 active torsions:
REMARK  status: ('A' for Active; 'I' for Inactive)
REMARK    1  A    between atoms: C4_4  and  N1_5 
REMARK    2  A    between atoms: N1_5  and  C5_7 
REMARK    3  A    between atoms: C8_16  and  N5_17 
REMARK    4  A    between atoms: C9_22  and  N7_23 
REMARK    5  A    between atoms: N7_23  and  C10_25 
REMARK       I    between atoms: N8_27  and  C12_28 
ROOT
HETATM    1  C5  UNL     1      20.031  11.299  34.655  1.00  0.00     0.125 A 
HETATM    2  N2  UNL     1      21.378  11.463  34.787  1.00  0.00    -0.338 N 
ATOM      3  H2  UNL     1      21.821  11.067  35.616  1.00  0.00     0.168 HD
HETATM    4  C6  UNL     1      22.158  12.098  33.918  1.00  0.00     0.183 A 
HETATM    5  N3  UNL     1      21.567  12.620  32.824  1.00  0.00    -0.337 N 
ATOM      6  H3  UNL     1      22.143  13.114  32.141  1.00  0.00     0.168 HD
HETATM    7  C7  UNL     1      20.256  12.511  32.604  1.00  0.00     0.139 A 
HETATM    8  N4  UNL     1      19.679  13.056  31.534  1.00  0.00    -0.176 N 
ATOM      9  H4  UNL     1      20.262  13.551  30.859  1.00  0.00     0.186 HD
HETATM   10  C8  UNL     1      18.351  12.978  31.312  1.00  0.00     0.679 A 
HETATM   11  N6  UNL     1      17.611  12.331  32.198  1.00  0.00    -0.176 N 
ATOM     12  H6  UNL     1      16.607  12.276  32.025  1.00  0.00     0.186 HD
HETATM   13  C9  UNL     1      18.090  11.731  33.331  1.00  0.00     0.140 A 
HETATM   14  C15 UNL     1      19.446  11.835  33.530  1.00  0.00     0.097 A 
ENDROOT
BRANCH  13  15
HETATM   15  N7  UNL     1      17.210  10.949  34.078  1.00  0.00    -0.326 N 
ATOM     16  H7  UNL     1      17.233   9.935  33.964  1.00  0.00     0.169 HD
BRANCH  15  17
HETATM   17  C10 UNL     1      16.275  11.521  35.002  1.00  0.00     0.124 A 
HETATM   18  C11 UNL     1      15.633  10.997  36.079  1.00  0.00     0.151 A 
HETATM   19  N8  UNL     1      14.839  11.945  36.664  1.00  0.00    -0.263 N 
HETATM   20  C12 UNL     1      14.017  11.805  37.795  1.00  0.00     0.340 C 
HETATM   21  C13 UNL     1      14.988  13.069  35.942  1.00  0.00     0.089 A 
HETATM   22  N9  UNL     1      13.941  10.544  38.490  1.00  0.00    -0.039 NA
HETATM   23  O1  UNL     1      13.316  12.734  38.269  1.00  0.00    -0.250 OA
HETATM   24  C14 UNL     1      14.327  14.387  36.182  1.00  0.00     0.089 C 
HETATM   25  N10 UNL     1      15.836  12.823  34.959  1.00  0.00    -0.331 N 
ATOM     26  H10 UNL     1      16.125  13.509  34.260  1.00  0.00     0.168 HD
ENDBRANCH  15  17
ENDBRANCH  13  15
BRANCH  10  27
HETATM   27  N5  UNL     1      17.839  13.534  30.245  1.00  0.00    -0.234 N 
ATOM     28  H52 UNL     1      18.384  13.696  29.399  1.00  0.00     0.174 HD
ATOM     29  H51 UNL     1      16.860  13.820  30.245  1.00  0.00     0.174 HD
ENDBRANCH  10  27
BRANCH   1  30
HETATM   30  N1  UNL     1      19.290  10.676  35.663  1.00  0.00    -0.327 N 
ATOM     31  H1  UNL     1      18.562  11.218  36.130  1.00  0.00     0.169 HD
BRANCH  30  32
HETATM   32  C4  UNL     1      19.478   9.430  36.044  1.00  0.00     0.123 A 
HETATM   33  C3  UNL     1      19.771   8.322  35.287  1.00  0.00     0.075 A 
HETATM   34  C2  UNL     1      19.870   7.234  36.156  1.00  0.00     0.025 A 
HETATM   35  C1  UNL     1      20.171   5.825  35.802  1.00  0.00     0.070 C 
HETATM   36  N12 UNL     1      19.639   7.695  37.395  1.00  0.00    -0.304 N 
HETATM   37  N11 UNL     1      19.414   8.970  37.310  1.00  0.00    -0.285 N 
ATOM     38  H12 UNL     1      19.640   7.141  38.251  1.00  0.00     0.186 HD
ATOM     39  H11 UNL     1      19.210   9.562  38.115  1.00  0.00     0.188 HD
ENDBRANCH  30  32
ENDBRANCH   1  30
TORSDOF 5
ENDMDL
MODEL 2
REMARK VINA RESULT: -6.264798773      2.400      5.711
REMARK  5 active torsions:
REMARK  status: ('A' for Active; 'I' for Inactive)
REMARK    1  A    between atoms: C4_4  and  N1_5 
REMARK    2  A    between atoms: N1_5  and  C5_7 
REMARK    3  A    between atoms: C8_16  and  N5_17 
REMARK    4  A    between atoms: C9_22  and  N7_23 
REMARK    5  A    between atoms: N7_23  and  C10_25 
REMARK       I    between atoms: N8_27  and  C12_28 
ROOT
HETATM    1  C5  UNL     1      17.868  10.570  35.056  1.00  0.00     0.125 A 
HETATM    2  N2  UNL     1      18.995   9.825  34.873  1.00  0.00    -0.338 N 
ATOM      3  H2  UNL     1      19.291   9.648  33.913  1.00  0.00     0.168 HD
HETATM    4  C6  UNL     1      19.737   9.312  35.849  1.00  0.00     0.183 A 
HETATM    5  N3  UNL     1      19.341   9.549  37.116  1.00  0.00    -0.337 N 
ATOM      6  H3  UNL     1      19.892   9.165  37.885  1.00  0.00     0.168 HD
HETATM    7  C7  UNL     1      18.253  10.268  37.398  1.00  0.00     0.139 A 
HETATM    8  N4  UNL     1      17.854  10.470  38.653  1.00  0.00    -0.176 N 
ATOM      9  H4  UNL     1      18.410  10.080  39.414  1.00  0.00     0.186 HD
HETATM   10  C8  UNL     1      16.742  11.172  38.953  1.00  0.00     0.679 A 
HETATM   11  N6  UNL     1      16.035  11.671  37.952  1.00  0.00    -0.176 N 
ATOM     12  H6  UNL     1      15.195  12.200  38.185  1.00  0.00     0.186 HD
HETATM   13  C9  UNL     1      16.346  11.530  36.626  1.00  0.00     0.140 A 
HETATM   14  C15 UNL     1      17.481  10.804  36.356  1.00  0.00     0.097 A 
ENDROOT
BRANCH  13  15
HETATM   15  N7  UNL     1      15.595  12.253  35.699  1.00  0.00    -0.326 N 
ATOM     16  H7  UNL     1      15.109  11.748  34.958  1.00  0.00     0.169 HD
BRANCH  15  17
HETATM   17  C10 UNL     1      15.483  13.681  35.753  1.00  0.00     0.124 A 
HETATM   18  C11 UNL     1      16.419  14.664  35.690  1.00  0.00     0.151 A 
HETATM   19  N8  UNL     1      15.821  15.893  35.771  1.00  0.00    -0.263 N 
HETATM   20  C12 UNL     1      16.436  17.155  35.742  1.00  0.00     0.340 C 
HETATM   21  C13 UNL     1      14.501  15.669  35.887  1.00  0.00     0.089 A 
HETATM   22  N9  UNL     1      17.868  17.267  35.613  1.00  0.00    -0.039 NA
HETATM   23  O1  UNL     1      15.808  18.241  35.824  1.00  0.00    -0.250 OA
HETATM   24  C14 UNL     1      13.423  16.696  36.007  1.00  0.00     0.089 C 
HETATM   25  N10 UNL     1      14.296  14.364  35.877  1.00  0.00    -0.331 N 
ATOM     26  H10 UNL     1      13.379  13.923  35.952  1.00  0.00     0.168 HD
ENDBRANCH  15  17
ENDBRANCH  13  15
BRANCH  10  27
HETATM   27  N5  UNL     1      16.399  11.337  40.203  1.00  0.00    -0.234 N 
ATOM     28  H52 UNL     1      17.002  11.806  40.879  1.00  0.00     0.174 HD
ATOM     29  H51 UNL     1      15.496  10.989  40.529  1.00  0.00     0.174 HD
ENDBRANCH  10  27
BRANCH   1  30
HETATM   30  N1  UNL     1      17.118  11.003  33.959  1.00  0.00    -0.327 N 
ATOM     31  H1  UNL     1      16.105  10.885  33.991  1.00  0.00     0.169 HD
BRANCH  30  32
HETATM   32  C4  UNL     1      17.645  11.555  32.885  1.00  0.00     0.123 A 
HETATM   33  C3  UNL     1      17.362  12.764  32.299  1.00  0.00     0.075 A 
HETATM   34  C2  UNL     1      18.187  12.892  31.181  1.00  0.00     0.025 A 
HETATM   35  C1  UNL     1      18.243  14.030  30.229  1.00  0.00     0.070 C 
HETATM   36  N12 UNL     1      18.936  11.781  31.112  1.00  0.00    -0.304 N 
HETATM   37  N11 UNL     1      18.608  11.018  32.110  1.00  0.00    -0.285 N 
ATOM     38  H12 UNL     1      19.639  11.573  30.403  1.00  0.00     0.186 HD
ATOM     39  H11 UNL     1      19.033  10.108  32.288  1.00  0.00     0.188 HD
ENDBRANCH  30  32
ENDBRANCH   1  30
TORSDOF 5
ENDMDL
MODEL 3
REMARK VINA RESULT: -6.264292697      2.613      6.400
REMARK  5 active torsions:
REMARK  status: ('A' for Active; 'I' for Inactive)
REMARK    1  A    between atoms: C4_4  and  N1_5 
REMARK    2  A    between atoms: N1_5  and  C5_7 
REMARK    3  A    between atoms: C8_16  and  N5_17 
REMARK    4  A    between atoms: C9_22  and  N7_23 
REMARK    5  A    between atoms: N7_23  and  C10_25 
REMARK       I    between atoms: N8_27  and  C12_28 
ROOT
HETATM    1  C5  UNL     1      19.541  12.213  32.704  1.00  0.00     0.125 A 
HETATM    2  N2  UNL     1      19.182  12.898  31.582  1.00  0.00    -0.338 N 
ATOM      3  H2  UNL     1      19.925  13.172  30.940  1.00  0.00     0.168 HD
HETATM    4  C6  UNL     1      17.937  13.237  31.261  1.00  0.00     0.183 A 
HETATM    5  N3  UNL     1      16.958  12.873  32.114  1.00  0.00    -0.337 N 
ATOM      6  H3  UNL     1      15.993  13.122  31.892  1.00  0.00     0.168 HD
HETATM    7  C7  UNL     1      17.209  12.199  33.237  1.00  0.00     0.139 A 
HETATM    8  N4  UNL     1      16.237  11.870  34.087  1.00  0.00    -0.176 N 
ATOM      9  H4  UNL     1      15.276  12.126  33.859  1.00  0.00     0.186 HD
HETATM   10  C8  UNL     1      16.477  11.213  35.240  1.00  0.00     0.679 A 
HETATM   11  N6  UNL     1      17.730  10.889  35.519  1.00  0.00    -0.176 N 
ATOM     12  H6  UNL     1      17.906  10.392  36.393  1.00  0.00     0.186 HD
HETATM   13  C9  UNL     1      18.808  11.170  34.725  1.00  0.00     0.140 A 
HETATM   14  C15 UNL     1      18.528  11.847  33.561  1.00  0.00     0.097 A 
ENDROOT
BRANCH  13  15
HETATM   15  N7  UNL     1      20.040  10.619  35.075  1.00  0.00    -0.326 N 
ATOM     16  H7  UNL     1      20.890  11.151  34.884  1.00  0.00     0.169 HD
BRANCH  15  17
HETATM   17  C10 UNL     1      20.153   9.332  35.695  1.00  0.00     0.124 A 
HETATM   18  C11 UNL     1      19.943   8.077  35.218  1.00  0.00     0.151 A 
HETATM   19  N8  UNL     1      20.196   7.151  36.193  1.00  0.00    -0.263 N 
HETATM   20  C12 UNL     1      20.098   5.752  36.101  1.00  0.00     0.340 C 
HETATM   21  C13 UNL     1      20.564   7.838  37.287  1.00  0.00     0.089 A 
HETATM   22  N9  UNL     1      19.691   5.128  34.867  1.00  0.00    -0.039 NA
HETATM   23  O1  UNL     1      20.350   4.970  37.052  1.00  0.00    -0.250 OA
HETATM   24  C14 UNL     1      20.944   7.274  38.617  1.00  0.00     0.089 C 
HETATM   25  N10 UNL     1      20.540   9.127  36.999  1.00  0.00    -0.331 N 
ATOM     26  H10 UNL     1      20.777   9.870  37.656  1.00  0.00     0.168 HD
ENDBRANCH  15  17
ENDBRANCH  13  15
BRANCH  10  27
HETATM   27  N5  UNL     1      15.484  10.918  36.037  1.00  0.00    -0.234 N 
ATOM     28  H52 UNL     1      14.731  10.288  35.761  1.00  0.00     0.174 HD
ATOM     29  H51 UNL     1      15.449  11.326  36.972  1.00  0.00     0.174 HD
ENDBRANCH  10  27
BRANCH   1  30
HETATM   30  N1  UNL     1      20.889  11.969  32.985  1.00  0.00    -0.327 N 
ATOM     31  H1  UNL     1      21.164  11.019  33.235  1.00  0.00     0.169 HD
BRANCH  30  32
HETATM   32  C4  UNL     1      21.822  12.896  32.946  1.00  0.00     0.123 A 
HETATM   33  C3  UNL     1      23.033  12.887  32.297  1.00  0.00     0.075 A 
HETATM   34  C2  UNL     1      23.663  14.102  32.566  1.00  0.00     0.025 A 
HETATM   35  C1  UNL     1      24.993  14.553  32.082  1.00  0.00     0.070 C 
HETATM   36  N12 UNL     1      22.841  14.809  33.356  1.00  0.00    -0.304 N 
HETATM   37  N11 UNL     1      21.778  14.093  33.566  1.00  0.00    -0.285 N 
ATOM     38  H12 UNL     1      23.019  15.742  33.727  1.00  0.00     0.186 HD
ATOM     39  H11 UNL     1      20.993  14.403  34.138  1.00  0.00     0.188 HD
ENDBRANCH  30  32
ENDBRANCH   1  30
TORSDOF 5
ENDMDL
MODEL 4
REMARK VINA RESULT: -6.219674645     12.652     14.873
REMARK  5 active torsions:
REMARK  status: ('A' for Active; 'I' for Inactive)
REMARK    1  A    between atoms: C4_4  and  N1_5 
REMARK    2  A    between atoms: N1_5  and  C5_7 
REMARK    3  A    between atoms: C8_16  and  N5_17 
REMARK    4  A    between atoms: C9_22  and  N7_23 
REMARK    5  A    between atoms: N7_23  and  C10_25 
REMARK       I    between atoms: N8_27  and  C12_28 
ROOT
HETATM    1  C5  UNL     1      16.084  24.651  30.547  1.00  0.00     0.125 A 
HETATM    2  N2  UNL     1      17.379  24.900  30.201  1.00  0.00    -0.338 N 
ATOM      3  H2  UNL     1      17.552  25.287  29.273  1.00  0.00     0.168 HD
HETATM    4  C6  UNL     1      18.433  24.677  30.979  1.00  0.00     0.183 A 
HETATM    5  N3  UNL     1      18.199  24.164  32.204  1.00  0.00    -0.337 N 
ATOM      6  H3  UNL     1      18.991  23.982  32.822  1.00  0.00     0.168 HD
HETATM    7  C7  UNL     1      16.968  23.888  32.636  1.00  0.00     0.139 A 
HETATM    8  N4  UNL     1      16.751  23.354  33.837  1.00  0.00    -0.176 N 
ATOM      9  H4  UNL     1      17.549  23.173  34.446  1.00  0.00     0.186 HD
HETATM   10  C8  UNL     1      15.514  23.045  34.277  1.00  0.00     0.679 A 
HETATM   11  N6  UNL     1      14.491  23.288  33.473  1.00  0.00    -0.176 N 
ATOM     12  H6  UNL     1      13.559  23.050  33.811  1.00  0.00     0.186 HD
HETATM   13  C9  UNL     1      14.590  23.833  32.222  1.00  0.00     0.140 A 
HETATM   14  C15 UNL     1      15.865  24.131  31.803  1.00  0.00     0.097 A 
ENDROOT
BRANCH  13  15
HETATM   15  N7  UNL     1      13.410  24.181  31.566  1.00  0.00    -0.326 N 
ATOM     16  H7  UNL     1      13.328  23.993  30.566  1.00  0.00     0.169 HD
BRANCH  15  17
HETATM   17  C10 UNL     1      12.308  24.793  32.248  1.00  0.00     0.124 A 
HETATM   18  C11 UNL     1      12.254  25.808  33.149  1.00  0.00     0.151 A 
HETATM   19  N8  UNL     1      10.957  26.052  33.512  1.00  0.00    -0.263 N 
HETATM   20  C12 UNL     1      10.479  27.015  34.415  1.00  0.00     0.340 C 
HETATM   21  C13 UNL     1      10.198  25.177  32.829  1.00  0.00     0.089 A 
HETATM   22  N9  UNL     1      11.395  27.901  35.089  1.00  0.00    -0.039 NA
HETATM   23  O1  UNL     1       9.263  27.172  34.693  1.00  0.00    -0.250 OA
HETATM   24  C14 UNL     1       8.711  25.045  32.882  1.00  0.00     0.089 C 
HETATM   25  N10 UNL     1      10.991  24.431  32.081  1.00  0.00    -0.331 N 
ATOM     26  H10 UNL     1      10.670  23.686  31.463  1.00  0.00     0.168 HD
ENDBRANCH  15  17
ENDBRANCH  13  15
BRANCH  10  27
HETATM   27  N5  UNL     1      15.362  22.520  35.465  1.00  0.00    -0.234 N 
ATOM     28  H52 UNL     1      16.113  22.024  35.943  1.00  0.00     0.174 HD
ATOM     29  H51 UNL     1      14.464  22.604  35.943  1.00  0.00     0.174 HD
ENDBRANCH  10  27
BRANCH   1  30
HETATM   30  N1  UNL     1      15.052  24.854  29.626  1.00  0.00    -0.327 N 
ATOM     31  H1  UNL     1      14.413  25.633  29.784  1.00  0.00     0.169 HD
BRANCH  30  32
HETATM   32  C4  UNL     1      14.858  24.096  28.567  1.00  0.00     0.123 A 
HETATM   33  C3  UNL     1      15.726  23.781  27.550  1.00  0.00     0.075 A 
HETATM   34  C2  UNL     1      15.047  22.947  26.661  1.00  0.00     0.025 A 
HETATM   35  C1  UNL     1      15.573  22.349  25.408  1.00  0.00     0.070 C 
HETATM   36  N12 UNL     1      13.808  22.777  27.146  1.00  0.00    -0.304 N 
HETATM   37  N11 UNL     1      13.717  23.451  28.253  1.00  0.00    -0.285 N 
ATOM     38  H12 UNL     1      13.068  22.218  26.722  1.00  0.00     0.186 HD
ATOM     39  H11 UNL     1      12.873  23.488  28.823  1.00  0.00     0.188 HD
ENDBRANCH  30  32
ENDBRANCH   1  30
TORSDOF 5
ENDMDL
MODEL 5
REMARK VINA RESULT: -6.185493359      3.055      7.339
REMARK  5 active torsions:
REMARK  status: ('A' for Active; 'I' for Inactive)
REMARK    1  A    between atoms: C4_4  and  N1_5 
REMARK    2  A    between atoms: N1_5  and  C5_7 
REMARK    3  A    between atoms: C8_16  and  N5_17 
REMARK    4  A    between atoms: C9_22  and  N7_23 
REMARK    5  A    between atoms: N7_23  and  C10_25 
REMARK       I    between atoms: N8_27  and  C12_28 
ROOT
HETATM    1  C5  UNL     1      17.465  10.892  34.869  1.00  0.00     0.125 A 
HETATM    2  N2  UNL     1      16.127  11.121  34.744  1.00  0.00    -0.338 N 
ATOM      3  H2  UNL     1      15.733  11.102  33.803  1.00  0.00     0.168 HD
HETATM    4  C6  UNL     1      15.297  11.366  35.752  1.00  0.00     0.183 A 
HETATM    5  N3  UNL     1      15.822  11.390  36.994  1.00  0.00    -0.337 N 
ATOM      6  H3  UNL     1      15.208  11.579  37.786  1.00  0.00     0.168 HD
HETATM    7  C7  UNL     1      17.119  11.177  37.220  1.00  0.00     0.139 A 
HETATM    8  N4  UNL     1      17.634  11.233  38.448  1.00  0.00    -0.176 N 
ATOM      9  H4  UNL     1      17.012  11.424  39.233  1.00  0.00     0.186 HD
HETATM   10  C8  UNL     1      18.947  11.045  38.690  1.00  0.00     0.679 A 
HETATM   11  N6  UNL     1      19.738  10.798  37.659  1.00  0.00    -0.176 N 
ATOM     12  H6  UNL     1      20.731  10.658  37.848  1.00  0.00     0.186 HD
HETATM   13  C9  UNL     1      19.326  10.715  36.356  1.00  0.00     0.140 A 
HETATM   14  C15 UNL     1      17.983  10.917  36.145  1.00  0.00     0.097 A 
ENDROOT
BRANCH  13  15
HETATM   15  N7  UNL     1      20.249  10.284  35.405  1.00  0.00    -0.326 N 
ATOM     16  H7  UNL     1      20.549  10.935  34.678  1.00  0.00     0.169 HD
BRANCH  15  17
HETATM   17  C10 UNL     1      20.792   8.957  35.412  1.00  0.00     0.124 A 
HETATM   18  C11 UNL     1      20.208   7.740  35.254  1.00  0.00     0.151 A 
HETATM   19  N8  UNL     1      21.149   6.750  35.327  1.00  0.00    -0.263 N 
HETATM   20  C12 UNL     1      20.954   5.363  35.213  1.00  0.00     0.340 C 
HETATM   21  C13 UNL     1      22.330   7.358  35.533  1.00  0.00     0.089 A 
HETATM   22  N9  UNL     1      19.634   4.828  34.990  1.00  0.00    -0.039 NA
HETATM   23  O1  UNL     1      21.881   4.518  35.293  1.00  0.00    -0.250 OA
HETATM   24  C14 UNL     1      23.665   6.704  35.682  1.00  0.00     0.089 C 
HETATM   25  N10 UNL     1      22.125   8.662  35.585  1.00  0.00    -0.331 N 
ATOM     26  H10 UNL     1      22.857   9.357  35.733  1.00  0.00     0.168 HD
ENDBRANCH  15  17
ENDBRANCH  13  15
BRANCH  10  27
HETATM   27  N5  UNL     1      19.396  11.114  39.916  1.00  0.00    -0.234 N 
ATOM     28  H52 UNL     1      18.780  11.056  40.727  1.00  0.00     0.174 HD
ATOM     29  H51 UNL     1      20.396  11.229  40.082  1.00  0.00     0.174 HD
ENDBRANCH  10  27
BRANCH   1  30
HETATM   30  N1  UNL     1      18.264  10.714  33.737  1.00  0.00    -0.327 N 
ATOM     31  H1  UNL     1      18.656   9.788  33.564  1.00  0.00     0.169 HD
BRANCH  30  32
HETATM   32  C4  UNL     1      18.539  11.674  32.879  1.00  0.00     0.123 A 
HETATM   33  C3  UNL     1      17.756  12.205  31.884  1.00  0.00     0.075 A 
HETATM   34  C2  UNL     1      18.501  13.199  31.248  1.00  0.00     0.025 A 
HETATM   35  C1  UNL     1      18.076  14.052  30.110  1.00  0.00     0.070 C 
HETATM   36  N12 UNL     1      19.695  13.249  31.857  1.00  0.00    -0.304 N 
HETATM   37  N11 UNL     1      19.699  12.358  32.801  1.00  0.00    -0.285 N 
ATOM     38  H12 UNL     1      20.464  13.877  31.620  1.00  0.00     0.186 HD
ATOM     39  H11 UNL     1      20.494  12.193  33.418  1.00  0.00     0.188 HD
ENDBRANCH  30  32
ENDBRANCH   1  30
TORSDOF 5
ENDMDL
