MODEL 1
REMARK VINA RESULT: -5.882662208      0.000      0.000
REMARK  4 active torsions:
REMARK  status: ('A' for Active; 'I' for Inactive)
REMARK    1  A    between atoms: C6_9  and  N3_10 
REMARK    2  A    between atoms: C9_18  and  S1_19 
REMARK    3  A    between atoms: S1_19  and  C10_20 
REMARK    4  A    between atoms: C13_24  and  C14_25 
ROOT
HETATM    1  C1  UNL     1      22.183  14.066  34.921  1.00  0.00     0.070 C 
HETATM    2  C2  UNL     1      20.886  13.396  34.636  1.00  0.00     0.032 A 
HETATM    3  N1  UNL     1      19.809  13.310  35.453  1.00  0.00    -0.344 N 
ATOM      4  H1  UNL     1      19.756  13.709  36.391  1.00  0.00     0.167 HD
HETATM    5  C3  UNL     1      18.827  12.631  34.855  1.00  0.00     0.126 A 
HETATM    6  C4  UNL     1      19.258  12.251  33.601  1.00  0.00     0.078 A 
HETATM    7  C5  UNL     1      20.552  12.732  33.463  1.00  0.00     0.086 A 
HETATM    8  N2  UNL     1      21.358  12.556  32.315  1.00  0.00    -0.099 NA
HETATM    9  C6  UNL     1      18.453  11.526  32.738  1.00  0.00     0.117 A 
HETATM   10  N4  UNL     1      17.216  11.186  33.140  1.00  0.00    -0.314 N 
ATOM     11  H4  UNL     1      16.604  10.652  32.524  1.00  0.00     0.170 HD
HETATM   12  C7  UNL     1      16.787  11.562  34.381  1.00  0.00     0.186 A 
HETATM   13  N5  UNL     1      17.581  12.266  35.209  1.00  0.00    -0.301 N 
HETATM   14  C8  UNL     1      16.883  12.530  36.446  1.00  0.00     0.170 C 
HETATM   15  C9  UNL     1      15.496  12.024  36.221  1.00  0.00     0.170 C 
HETATM   16  N8  UNL     1      15.540  11.299  34.974  1.00  0.00    -0.346 N 
ATOM     17  H8  UNL     1      14.803  10.706  34.593  1.00  0.00     0.163 HD
ENDROOT
BRANCH  15  18
HETATM   18  S1  UNL     1      14.986  10.860  37.537  1.00  0.00    -0.095 SA
BRANCH  18  19
HETATM   19  C10 UNL     1      13.555  11.556  38.377  1.00  0.00     0.046 A 
HETATM   20  C11 UNL     1      13.099  12.843  38.409  1.00  0.00     0.054 A 
HETATM   21  C12 UNL     1      11.995  13.090  39.127  1.00  0.00     0.070 A 
HETATM   22  N6  UNL     1      11.404  14.418  39.244  1.00  0.00    -0.101 NA
HETATM   23  C13 UNL     1      11.413  12.028  39.771  1.00  0.00     0.095 A 
HETATM   24  S2  UNL     1      12.428  10.727  39.350  1.00  0.00    -0.076 SA
BRANCH  23  25
HETATM   25  C14 UNL     1      10.199  12.046  40.621  1.00  0.00     0.273 C 
HETATM   26  N7  UNL     1       8.937  11.952  39.976  1.00  0.00    -0.057 NA
HETATM   27  O1  UNL     1      10.256  12.138  41.850  1.00  0.00    -0.270 OA
ENDBRANCH  23  25
ENDBRANCH  18  19
ENDBRANCH  15  18
BRANCH   9  28
HETATM   28  N3  UNL     1      18.928  11.211  31.588  1.00  0.00    -0.385 N 
ATOM     29  H32 UNL     1      19.690  10.545  31.464  1.00  0.00     0.157 HD
ATOM     30  H31 UNL     1      18.521  11.652  30.763  1.00  0.00     0.157 HD
ENDBRANCH   9  28
TORSDOF 4
ENDMDL
MODEL 2
REMARK VINA RESULT: -5.726957653      4.617      9.593
REMARK  4 active torsions:
REMARK  status: ('A' for Active; 'I' for Inactive)
REMARK    1  A    between atoms: C6_9  and  N3_10 
REMARK    2  A    between atoms: C9_18  and  S1_19 
REMARK    3  A    between atoms: S1_19  and  C10_20 
REMARK    4  A    between atoms: C13_24  and  C14_25 
ROOT
HETATM    1  C1  UNL     1       8.948  17.595  33.967  1.00  0.00     0.070 C 
HETATM    2  C2  UNL     1       9.903  17.169  35.026  1.00  0.00     0.032 A 
HETATM    3  N1  UNL     1      11.046  16.461  34.863  1.00  0.00    -0.344 N 
ATOM      4  H1  UNL     1      11.400  16.124  33.968  1.00  0.00     0.167 HD
HETATM    5  C3  UNL     1      11.642  16.266  36.043  1.00  0.00     0.126 A 
HETATM    6  C4  UNL     1      10.876  16.863  37.023  1.00  0.00     0.078 A 
HETATM    7  C5  UNL     1       9.784  17.431  36.384  1.00  0.00     0.086 A 
HETATM    8  N2  UNL     1       8.751  18.143  37.036  1.00  0.00    -0.099 NA
HETATM    9  C6  UNL     1      11.241  16.829  38.359  1.00  0.00     0.117 A 
HETATM   10  N4  UNL     1      12.374  16.194  38.704  1.00  0.00    -0.314 N 
ATOM     11  H4  UNL     1      12.665  16.154  39.681  1.00  0.00     0.170 HD
HETATM   12  C7  UNL     1      13.134  15.604  37.735  1.00  0.00     0.186 A 
HETATM   13  N5  UNL     1      12.767  15.645  36.440  1.00  0.00    -0.301 N 
HETATM   14  C8  UNL     1      13.743  14.949  35.634  1.00  0.00     0.170 C 
HETATM   15  C9  UNL     1      14.843  14.596  36.582  1.00  0.00     0.170 C 
HETATM   16  N8  UNL     1      14.338  14.897  37.899  1.00  0.00    -0.346 N 
ATOM     17  H8  UNL     1      14.774  14.645  38.786  1.00  0.00     0.163 HD
ENDROOT
BRANCH  15  18
HETATM   18  S1  UNL     1      15.235  12.809  36.517  1.00  0.00    -0.095 SA
BRANCH  18  19
HETATM   19  C10 UNL     1      16.232  12.508  35.051  1.00  0.00     0.046 A 
HETATM   20  C11 UNL     1      16.627  11.328  34.487  1.00  0.00     0.054 A 
HETATM   21  C12 UNL     1      17.381  11.393  33.381  1.00  0.00     0.070 A 
HETATM   22  N6  UNL     1      17.868  10.209  32.683  1.00  0.00    -0.101 NA
HETATM   23  C13 UNL     1      17.694  12.640  32.906  1.00  0.00     0.095 A 
HETATM   24  S2  UNL     1      16.925  13.675  34.019  1.00  0.00    -0.076 SA
BRANCH  23  25
HETATM   25  C14 UNL     1      18.509  12.971  31.713  1.00  0.00     0.273 C 
HETATM   26  N7  UNL     1      17.868  13.642  30.638  1.00  0.00    -0.057 NA
HETATM   27  O1  UNL     1      19.706  12.683  31.632  1.00  0.00    -0.270 OA
ENDBRANCH  23  25
ENDBRANCH  18  19
ENDBRANCH  15  18
BRANCH   9  28
HETATM   28  N3  UNL     1      10.475  17.409  39.210  1.00  0.00    -0.385 N 
ATOM     29  H32 UNL     1       9.631  17.916  38.944  1.00  0.00     0.157 HD
ATOM     30  H31 UNL     1      10.727  17.357  40.197  1.00  0.00     0.157 HD
ENDBRANCH   9  28
TORSDOF 4
ENDMDL
MODEL 3
REMARK VINA RESULT: -5.686229535      4.381      5.275
REMARK  4 active torsions:
REMARK  status: ('A' for Active; 'I' for Inactive)
REMARK    1  A    between atoms: C6_9  and  N3_10 
REMARK    2  A    between atoms: C9_18  and  S1_19 
REMARK    3  A    between atoms: S1_19  and  C10_20 
REMARK    4  A    between atoms: C13_24  and  C14_25 
ROOT
HETATM    1  C1  UNL     1      18.253  13.402  30.363  1.00  0.00     0.070 C 
HETATM    2  C2  UNL     1      18.093  13.112  31.813  1.00  0.00     0.032 A 
HETATM    3  N1  UNL     1      17.067  13.482  32.616  1.00  0.00    -0.344 N 
ATOM      4  H1  UNL     1      16.255  14.020  32.313  1.00  0.00     0.167 HD
HETATM    5  C3  UNL     1      17.270  13.041  33.860  1.00  0.00     0.126 A 
HETATM    6  C4  UNL     1      18.467  12.355  33.891  1.00  0.00     0.078 A 
HETATM    7  C5  UNL     1      18.984  12.399  32.604  1.00  0.00     0.086 A 
HETATM    8  N2  UNL     1      20.206  11.811  32.208  1.00  0.00    -0.099 NA
HETATM    9  C6  UNL     1      18.951  11.778  35.054  1.00  0.00     0.117 A 
HETATM   10  N4  UNL     1      18.229  11.893  36.182  1.00  0.00    -0.314 N 
ATOM     11  H4  UNL     1      18.562  11.478  37.051  1.00  0.00     0.170 HD
HETATM   12  C7  UNL     1      17.043  12.571  36.153  1.00  0.00     0.186 A 
HETATM   13  N5  UNL     1      16.586  13.127  35.015  1.00  0.00    -0.301 N 
HETATM   14  C8  UNL     1      15.319  13.776  35.265  1.00  0.00     0.170 C 
HETATM   15  C9  UNL     1      14.978  13.423  36.675  1.00  0.00     0.170 C 
HETATM   16  N8  UNL     1      16.158  12.798  37.221  1.00  0.00    -0.346 N 
ATOM     17  H8  UNL     1      16.320  12.563  38.200  1.00  0.00     0.163 HD
ENDROOT
BRANCH  15  18
HETATM   18  S1  UNL     1      14.613  14.915  37.669  1.00  0.00    -0.095 SA
BRANCH  18  19
HETATM   19  C10 UNL     1      13.709  16.073  36.630  1.00  0.00     0.046 A 
HETATM   20  C11 UNL     1      12.539  15.907  35.947  1.00  0.00     0.054 A 
HETATM   21  C12 UNL     1      12.085  16.949  35.236  1.00  0.00     0.070 A 
HETATM   22  N6  UNL     1      10.850  16.904  34.462  1.00  0.00    -0.101 NA
HETATM   23  C13 UNL     1      12.834  18.097  35.253  1.00  0.00     0.095 A 
HETATM   24  S2  UNL     1      14.144  17.679  36.261  1.00  0.00    -0.076 SA
BRANCH  23  25
HETATM   25  C14 UNL     1      12.548  19.370  34.551  1.00  0.00     0.273 C 
HETATM   26  N7  UNL     1      11.883  20.392  35.279  1.00  0.00    -0.057 NA
HETATM   27  O1  UNL     1      12.867  19.562  33.375  1.00  0.00    -0.270 OA
ENDBRANCH  23  25
ENDBRANCH  18  19
ENDBRANCH  15  18
BRANCH   9  28
HETATM   28  N3  UNL     1      20.072  11.157  35.000  1.00  0.00    -0.385 N 
ATOM     29  H32 UNL     1      20.968  11.634  34.901  1.00  0.00     0.157 HD
ATOM     30  H31 UNL     1      20.061  10.138  35.059  1.00  0.00     0.157 HD
ENDBRANCH   9  28
TORSDOF 4
ENDMDL
MODEL 4
REMARK VINA RESULT: -5.668331278      4.483      5.363
REMARK  4 active torsions:
REMARK  status: ('A' for Active; 'I' for Inactive)
REMARK    1  A    between atoms: C6_9  and  N3_10 
REMARK    2  A    between atoms: C9_18  and  S1_19 
REMARK    3  A    between atoms: S1_19  and  C10_20 
REMARK    4  A    between atoms: C13_24  and  C14_25 
ROOT
HETATM    1  C1  UNL     1      19.405   8.841  35.372  1.00  0.00     0.070 C 
HETATM    2  C2  UNL     1      18.877  10.190  35.031  1.00  0.00     0.032 A 
HETATM    3  N1  UNL     1      18.777  11.264  35.850  1.00  0.00    -0.344 N 
ATOM      4  H1  UNL     1      19.062  11.278  36.829  1.00  0.00     0.167 HD
HETATM    5  C3  UNL     1      18.253  12.301  35.191  1.00  0.00     0.126 A 
HETATM    6  C4  UNL     1      17.995  11.910  33.894  1.00  0.00     0.078 A 
HETATM    7  C5  UNL     1      18.387  10.583  33.792  1.00  0.00     0.086 A 
HETATM    8  N2  UNL     1      18.289   9.803  32.618  1.00  0.00    -0.099 NA
HETATM    9  C6  UNL     1      17.445  12.777  32.964  1.00  0.00     0.117 A 
HETATM   10  N4  UNL     1      17.156  14.034  33.342  1.00  0.00    -0.314 N 
ATOM     11  H4  UNL     1      16.750  14.691  32.677  1.00  0.00     0.170 HD
HETATM   12  C7  UNL     1      17.412  14.423  34.627  1.00  0.00     0.186 A 
HETATM   13  N5  UNL     1      17.947  13.569  35.520  1.00  0.00    -0.301 N 
HETATM   14  C8  UNL     1      18.113  14.235  36.791  1.00  0.00     0.170 C 
HETATM   15  C9  UNL     1      17.747  15.659  36.530  1.00  0.00     0.170 C 
HETATM   16  N8  UNL     1      17.177  15.682  35.204  1.00  0.00    -0.346 N 
ATOM     17  H8  UNL     1      16.694  16.466  34.768  1.00  0.00     0.163 HD
ENDROOT
BRANCH  15  18
HETATM   18  S1  UNL     1      16.476  16.251  37.706  1.00  0.00    -0.095 SA
BRANCH  18  19
HETATM   19  C10 UNL     1      15.055  16.816  36.758  1.00  0.00     0.046 A 
HETATM   20  C11 UNL     1      14.014  16.106  36.234  1.00  0.00     0.054 A 
HETATM   21  C12 UNL     1      13.079  16.787  35.557  1.00  0.00     0.070 A 
HETATM   22  N6  UNL     1      11.917  16.151  34.948  1.00  0.00    -0.101 NA
HETATM   23  C13 UNL     1      13.246  18.144  35.446  1.00  0.00     0.095 A 
HETATM   24  S2  UNL     1      14.701  18.416  36.291  1.00  0.00    -0.076 SA
BRANCH  23  25
HETATM   25  C14 UNL     1      12.360  19.107  34.751  1.00  0.00     0.273 C 
HETATM   26  N7  UNL     1      12.663  19.431  33.402  1.00  0.00    -0.057 NA
HETATM   27  O1  UNL     1      11.387  19.626  35.304  1.00  0.00    -0.270 OA
ENDBRANCH  23  25
ENDBRANCH  18  19
ENDBRANCH  15  18
BRANCH   9  28
HETATM   28  N3  UNL     1      17.235  12.337  31.777  1.00  0.00    -0.385 N 
ATOM     29  H32 UNL     1      17.226  12.939  30.953  1.00  0.00     0.157 HD
ATOM     30  H31 UNL     1      17.070  11.337  31.657  1.00  0.00     0.157 HD
ENDBRANCH   9  28
TORSDOF 4
ENDMDL
MODEL 5
REMARK VINA RESULT: -5.656527727      5.270      9.568
REMARK  4 active torsions:
REMARK  status: ('A' for Active; 'I' for Inactive)
REMARK    1  A    between atoms: C6_9  and  N3_10 
REMARK    2  A    between atoms: C9_18  and  S1_19 
REMARK    3  A    between atoms: S1_19  and  C10_20 
REMARK    4  A    between atoms: C13_24  and  C14_25 
ROOT
HETATM    1  C1  UNL     1       8.123  18.045  33.337  1.00  0.00     0.070 C 
HETATM    2  C2  UNL     1       9.296  18.016  34.253  1.00  0.00     0.032 A 
HETATM    3  N1  UNL     1      10.296  17.104  34.276  1.00  0.00    -0.344 N 
ATOM      4  H1  UNL     1      10.369  16.303  33.649  1.00  0.00     0.167 HD
HETATM    5  C3  UNL     1      11.174  17.404  35.237  1.00  0.00     0.126 A 
HETATM    6  C4  UNL     1      10.749  18.551  35.875  1.00  0.00     0.078 A 
HETATM    7  C5  UNL     1       9.569  18.936  35.257  1.00  0.00     0.086 A 
HETATM    8  N2  UNL     1       8.806  20.071  35.614  1.00  0.00    -0.099 NA
HETATM    9  C6  UNL     1      11.459  19.111  36.925  1.00  0.00     0.117 A 
HETATM   10  N4  UNL     1      12.594  18.515  37.329  1.00  0.00    -0.314 N 
ATOM     11  H4  UNL     1      13.135  18.906  38.100  1.00  0.00     0.170 HD
HETATM   12  C7  UNL     1      13.017  17.380  36.698  1.00  0.00     0.186 A 
HETATM   13  N5  UNL     1      12.316  16.847  35.679  1.00  0.00    -0.301 N 
HETATM   14  C8  UNL     1      12.984  15.660  35.197  1.00  0.00     0.170 C 
HETATM   15  C9  UNL     1      14.270  15.607  35.954  1.00  0.00     0.170 C 
HETATM   16  N8  UNL     1      14.165  16.619  36.977  1.00  0.00    -0.346 N 
ATOM     17  H8  UNL     1      14.806  16.758  37.759  1.00  0.00     0.163 HD
ENDROOT
BRANCH  15  18
HETATM   18  S1  UNL     1      14.498  13.988  36.776  1.00  0.00    -0.095 SA
BRANCH  18  19
HETATM   19  C10 UNL     1      15.802  13.100  35.911  1.00  0.00     0.046 A 
HETATM   20  C11 UNL     1      17.071  13.493  35.596  1.00  0.00     0.054 A 
HETATM   21  C12 UNL     1      17.843  12.621  34.933  1.00  0.00     0.070 A 
HETATM   22  N6  UNL     1      19.215  12.916  34.538  1.00  0.00    -0.101 NA
HETATM   23  C13 UNL     1      17.293  11.404  34.624  1.00  0.00     0.095 A 
HETATM   24  S2  UNL     1      15.721  11.522  35.271  1.00  0.00    -0.076 SA
BRANCH  23  25
HETATM   25  C14 UNL     1      17.937  10.283  33.899  1.00  0.00     0.273 C 
HETATM   26  N7  UNL     1      17.949  10.332  32.480  1.00  0.00    -0.057 NA
HETATM   27  O1  UNL     1      18.451   9.327  34.486  1.00  0.00    -0.270 OA
ENDBRANCH  23  25
ENDBRANCH  18  19
ENDBRANCH  15  18
BRANCH   9  28
HETATM   28  N3  UNL     1      10.997  20.179  37.466  1.00  0.00    -0.385 N 
ATOM     29  H32 UNL     1      10.128  20.202  37.999  1.00  0.00     0.157 HD
ATOM     30  H31 UNL     1      11.528  21.043  37.354  1.00  0.00     0.157 HD
ENDBRANCH   9  28
TORSDOF 4
ENDMDL
