MODEL 1
REMARK VINA RESULT: -6.027639293      0.000      0.000
REMARK  13 active torsions:
REMARK  status: ('A' for Active; 'I' for Inactive)
REMARK    1  A    between atoms: C1_4  and  C2_6 
REMARK    2  A    between atoms: C3_8  and  O2_9 
REMARK    3  A    between atoms: O2_9  and  C4_10 
REMARK    4  A    between atoms: C5_11  and  N3_12 
REMARK    5  A    between atoms: C7_17  and  N4_18 
REMARK    6  A    between atoms: C8_22  and  O3_23 
REMARK    7  A    between atoms: O3_23  and  C9_24 
REMARK    8  A    between atoms: C10_26  and  C11_27 
REMARK    9  A    between atoms: C11_27  and  N5_28 
REMARK   10  A    between atoms: C14_34  and  N6_35 
REMARK   11  A    between atoms: C15_39  and  N7_40 
REMARK   12  A    between atoms: C16_44  and  N8_45 
REMARK   13  A    between atoms: C18_50  and  N9_51 
ROOT
HETATM    1  C4  UNL     1     -26.068  -1.887  12.680  1.00  0.00     0.188 C 
HETATM    2  C5  UNL     1     -25.647  -2.228  11.247  1.00  0.00     0.216 C 
HETATM    3  C6  UNL     1     -24.143  -2.045  11.108  1.00  0.00     0.070 C 
HETATM    4  C7  UNL     1     -23.637  -1.006  12.121  1.00  0.00     0.216 C 
HETATM    5  C8  UNL     1     -24.638   0.102  12.153  1.00  0.00     0.188 C 
HETATM    6  C15 UNL     1     -25.808  -0.450  12.997  1.00  0.00     0.245 C 
ENDROOT
BRANCH   1   7
HETATM    7  O2  UNL     1     -27.385  -2.155  12.847  1.00  0.00    -0.350 OA
BRANCH   7   8
HETATM    8  C3  UNL     1     -27.665  -3.344  13.484  1.00  0.00     0.291 C 
HETATM    9  O1  UNL     1     -28.401  -3.139  14.669  1.00  0.00    -0.345 OA
HETATM   10  C2  UNL     1     -28.165  -4.299  15.437  1.00  0.00     0.211 C 
HETATM   11  C18 UNL     1     -28.846  -5.484  14.816  1.00  0.00     0.122 C 
HETATM   12  C17 UNL     1     -28.436  -5.648  13.355  1.00  0.00     0.066 C 
HETATM   13  C16 UNL     1     -28.413  -4.321  12.648  1.00  0.00     0.240 C 
BRANCH  10  14
HETATM   14  C1  UNL     1     -28.683  -4.072  16.784  1.00  0.00     0.118 C 
HETATM   15  N1  UNL     1     -27.945  -3.533  17.682  1.00  0.00    -0.389 N 
ATOM     16  H12 UNL     1     -28.307  -3.375  18.622  1.00  0.00     0.157 HD
ATOM     17  H11 UNL     1     -26.992  -3.269  17.437  1.00  0.00     0.157 HD
HETATM   18  N2  UNL     1     -30.008  -4.440  17.124  1.00  0.00    -0.085 NA
ENDBRANCH  10  14
BRANCH  11  19
HETATM   19  N9  UNL     1     -28.468  -6.698  15.486  1.00  0.00    -0.359 N 
HETATM   20  C19 UNL     1     -29.263  -7.669  15.781  1.00  0.00     0.197 C 
HETATM   21  N10 UNL     1     -30.647  -7.702  15.494  1.00  0.00    -0.067 NA
HETATM   22  N11 UNL     1     -28.680  -8.784  16.437  1.00  0.00    -0.067 NA
ATOM     23  H9  UNL     1     -27.489  -6.799  15.751  1.00  0.00     0.162 HD
ENDBRANCH  11  19
BRANCH  13  24
HETATM   24  N8  UNL     1     -29.835  -3.898  12.528  1.00  0.00    -0.070 N 
ATOM     25  H83 UNL     1     -30.069  -3.149  13.179  1.00  0.00     0.274 HD
ATOM     26  H82 UNL     1     -30.014  -3.397  11.658  1.00  0.00     0.274 HD
ATOM     27  H81 UNL     1     -30.447  -4.706  12.638  1.00  0.00     0.274 HD
ENDBRANCH  13  24
ENDBRANCH   7   8
ENDBRANCH   1   7
BRANCH   2  28
HETATM   28  N3  UNL     1     -26.421  -1.525  10.267  1.00  0.00    -0.072 N 
ATOM     29  H33 UNL     1     -27.028  -0.833  10.706  1.00  0.00     0.274 HD
ATOM     30  H32 UNL     1     -25.834  -0.900   9.714  1.00  0.00     0.274 HD
ATOM     31  H31 UNL     1     -26.955  -2.155   9.668  1.00  0.00     0.274 HD
ENDBRANCH   2  28
BRANCH   6  32
HETATM   32  N7  UNL     1     -25.420  -0.247  14.381  1.00  0.00    -0.070 N 
ATOM     33  H73 UNL     1     -25.035  -1.101  14.783  1.00  0.00     0.274 HD
ATOM     34  H72 UNL     1     -24.598   0.352  14.448  1.00  0.00     0.274 HD
ATOM     35  H71 UNL     1     -26.184   0.115  14.952  1.00  0.00     0.274 HD
ENDBRANCH   6  32
BRANCH   5  36
HETATM   36  O3  UNL     1     -24.198   1.207  12.839  1.00  0.00    -0.350 OA
BRANCH  36  37
HETATM   37  C9  UNL     1     -24.199   2.352  12.019  1.00  0.00     0.291 C 
HETATM   38  O4  UNL     1     -22.903   2.517  11.444  1.00  0.00    -0.352 OA
HETATM   39  C10 UNL     1     -22.908   3.741  10.824  1.00  0.00     0.150 C 
HETATM   40  C12 UNL     1     -23.797   3.719   9.607  1.00  0.00     0.036 C 
HETATM   41  C13 UNL     1     -24.797   2.620   9.597  1.00  0.00     0.040 C 
HETATM   42  C14 UNL     1     -25.246   2.240  10.988  1.00  0.00     0.238 C 
BRANCH  39  43
HETATM   43  C11 UNL     1     -23.259   4.915  11.728  1.00  0.00     0.261 C 
BRANCH  43  44
HETATM   44  N5  UNL     1     -24.228   5.741  11.062  1.00  0.00    -0.077 N 
ATOM     45  H53 UNL     1     -24.252   5.579  10.055  1.00  0.00     0.274 HD
ATOM     46  H52 UNL     1     -25.186   5.463  11.272  1.00  0.00     0.274 HD
ATOM     47  H51 UNL     1     -24.046   6.717  11.294  1.00  0.00     0.274 HD
ENDBRANCH  43  44
ENDBRANCH  39  43
BRANCH  42  48
HETATM   48  N6  UNL     1     -26.487   2.943  11.269  1.00  0.00    -0.070 N 
ATOM     49  H63 UNL     1     -26.897   2.593  12.135  1.00  0.00     0.274 HD
ATOM     50  H62 UNL     1     -26.288   3.906  11.539  1.00  0.00     0.274 HD
ATOM     51  H61 UNL     1     -27.184   2.928  10.524  1.00  0.00     0.274 HD
ENDBRANCH  42  48
ENDBRANCH  36  37
ENDBRANCH   5  36
BRANCH   4  52
HETATM   52  N4  UNL     1     -22.288  -0.613  11.839  1.00  0.00    -0.072 N 
ATOM     53  H43 UNL     1     -21.942  -1.053  10.985  1.00  0.00     0.274 HD
ATOM     54  H42 UNL     1     -22.236   0.363  11.546  1.00  0.00     0.274 HD
ATOM     55  H41 UNL     1     -21.672  -0.799  12.631  1.00  0.00     0.274 HD
ENDBRANCH   4  52
TORSDOF 13
ENDMDL
MODEL 2
REMARK VINA RESULT: -5.972179271      1.640      2.279
REMARK  13 active torsions:
REMARK  status: ('A' for Active; 'I' for Inactive)
REMARK    1  A    between atoms: C1_4  and  C2_6 
REMARK    2  A    between atoms: C3_8  and  O2_9 
REMARK    3  A    between atoms: O2_9  and  C4_10 
REMARK    4  A    between atoms: C5_11  and  N3_12 
REMARK    5  A    between atoms: C7_17  and  N4_18 
REMARK    6  A    between atoms: C8_22  and  O3_23 
REMARK    7  A    between atoms: O3_23  and  C9_24 
REMARK    8  A    between atoms: C10_26  and  C11_27 
REMARK    9  A    between atoms: C11_27  and  N5_28 
REMARK   10  A    between atoms: C14_34  and  N6_35 
REMARK   11  A    between atoms: C15_39  and  N7_40 
REMARK   12  A    between atoms: C16_44  and  N8_45 
REMARK   13  A    between atoms: C18_50  and  N9_51 
ROOT
HETATM    1  C4  UNL     1     -25.777  -1.891  12.754  1.00  0.00     0.188 C 
HETATM    2  C5  UNL     1     -25.410  -2.209  11.301  1.00  0.00     0.216 C 
HETATM    3  C6  UNL     1     -23.923  -1.967  11.094  1.00  0.00     0.070 C 
HETATM    4  C7  UNL     1     -23.411  -0.913  12.089  1.00  0.00     0.216 C 
HETATM    5  C8  UNL     1     -24.452   0.155  12.173  1.00  0.00     0.188 C 
HETATM    6  C15 UNL     1     -25.558  -0.446  13.067  1.00  0.00     0.245 C 
ENDROOT
BRANCH   1   7
HETATM    7  O2  UNL     1     -27.073  -2.211  12.980  1.00  0.00    -0.350 OA
BRANCH   7   8
HETATM    8  C3  UNL     1     -27.330  -3.558  13.115  1.00  0.00     0.291 C 
HETATM    9  O1  UNL     1     -26.207  -4.256  13.604  1.00  0.00    -0.345 OA
HETATM   10  C2  UNL     1     -26.423  -5.594  13.206  1.00  0.00     0.211 C 
HETATM   11  C18 UNL     1     -27.559  -6.192  13.984  1.00  0.00     0.122 C 
HETATM   12  C17 UNL     1     -28.814  -5.332  13.870  1.00  0.00     0.066 C 
HETATM   13  C16 UNL     1     -28.483  -3.871  14.003  1.00  0.00     0.240 C 
BRANCH  10  14
HETATM   14  C1  UNL     1     -25.196  -6.348  13.450  1.00  0.00     0.118 C 
HETATM   15  N1  UNL     1     -24.583  -6.248  14.571  1.00  0.00    -0.389 N 
ATOM     16  H12 UNL     1     -23.727  -6.775  14.740  1.00  0.00     0.157 HD
ATOM     17  H11 UNL     1     -24.968  -5.631  15.285  1.00  0.00     0.157 HD
HETATM   18  N2  UNL     1     -24.662  -7.206  12.458  1.00  0.00    -0.085 NA
ENDBRANCH  10  14
BRANCH  11  19
HETATM   19  N9  UNL     1     -27.903  -7.488  13.467  1.00  0.00    -0.359 N 
HETATM   20  C19 UNL     1     -28.126  -8.542  14.175  1.00  0.00     0.197 C 
HETATM   21  N10 UNL     1     -28.069  -8.599  15.587  1.00  0.00    -0.067 NA
HETATM   22  N11 UNL     1     -28.461  -9.721  13.462  1.00  0.00    -0.067 NA
ATOM     23  H9  UNL     1     -27.975  -7.583  12.454  1.00  0.00     0.162 HD
ENDBRANCH  11  19
BRANCH  13  24
HETATM   24  N8  UNL     1     -28.093  -3.668  15.425  1.00  0.00    -0.070 N 
ATOM     25  H83 UNL     1     -27.086  -3.549  15.534  1.00  0.00     0.274 HD
ATOM     26  H82 UNL     1     -28.388  -2.758  15.778  1.00  0.00     0.274 HD
ATOM     27  H81 UNL     1     -28.452  -4.435  15.994  1.00  0.00     0.274 HD
ENDBRANCH  13  24
ENDBRANCH   7   8
ENDBRANCH   1   7
BRANCH   2  28
HETATM   28  N3  UNL     1     -26.255  -1.534  10.362  1.00  0.00    -0.072 N 
ATOM     29  H33 UNL     1     -27.061  -1.117  10.828  1.00  0.00     0.274 HD
ATOM     30  H32 UNL     1     -25.811  -0.684  10.013  1.00  0.00     0.274 HD
ATOM     31  H31 UNL     1     -26.546  -2.139   9.594  1.00  0.00     0.274 HD
ENDBRANCH   2  28
BRANCH   6  32
HETATM   32  N7  UNL     1     -25.115  -0.233  14.432  1.00  0.00    -0.070 N 
ATOM     33  H73 UNL     1     -25.892   0.047  15.031  1.00  0.00     0.274 HD
ATOM     34  H72 UNL     1     -24.873  -1.116  14.881  1.00  0.00     0.274 HD
ATOM     35  H71 UNL     1     -24.345   0.433  14.495  1.00  0.00     0.274 HD
ENDBRANCH   6  32
BRANCH   5  36
HETATM   36  O3  UNL     1     -24.024   1.273  12.844  1.00  0.00    -0.350 OA
BRANCH  36  37
HETATM   37  C9  UNL     1     -24.080   2.416  12.022  1.00  0.00     0.291 C 
HETATM   38  O4  UNL     1     -22.801   2.628  11.426  1.00  0.00    -0.352 OA
HETATM   39  C10 UNL     1     -22.861   3.849  10.805  1.00  0.00     0.150 C 
HETATM   40  C12 UNL     1     -23.769   3.792   9.603  1.00  0.00     0.036 C 
HETATM   41  C13 UNL     1     -24.727   2.657   9.610  1.00  0.00     0.040 C 
HETATM   42  C14 UNL     1     -25.139   2.263  11.009  1.00  0.00     0.238 C 
BRANCH  39  43
HETATM   43  C11 UNL     1     -23.241   5.012  11.712  1.00  0.00     0.261 C 
BRANCH  43  44
HETATM   44  N5  UNL     1     -24.269   5.785  11.072  1.00  0.00    -0.077 N 
ATOM     45  H53 UNL     1     -24.808   5.236  10.401  1.00  0.00     0.274 HD
ATOM     46  H52 UNL     1     -25.032   6.019  11.707  1.00  0.00     0.274 HD
ATOM     47  H51 UNL     1     -23.847   6.611  10.650  1.00  0.00     0.274 HD
ENDBRANCH  43  44
ENDBRANCH  39  43
BRANCH  42  48
HETATM   48  N6  UNL     1     -26.401   2.920  11.309  1.00  0.00    -0.070 N 
ATOM     49  H63 UNL     1     -27.150   2.229  11.353  1.00  0.00     0.274 HD
ATOM     50  H62 UNL     1     -26.400   3.250  12.274  1.00  0.00     0.274 HD
ATOM     51  H61 UNL     1     -26.666   3.679  10.682  1.00  0.00     0.274 HD
ENDBRANCH  42  48
ENDBRANCH  36  37
ENDBRANCH   5  36
BRANCH   4  52
HETATM   52  N4  UNL     1     -22.092  -0.467  11.746  1.00  0.00    -0.072 N 
ATOM     53  H43 UNL     1     -21.988  -0.350  10.738  1.00  0.00     0.274 HD
ATOM     54  H42 UNL     1     -21.938   0.500  12.034  1.00  0.00     0.274 HD
ATOM     55  H41 UNL     1     -21.378  -1.088  12.127  1.00  0.00     0.274 HD
ENDBRANCH   4  52
TORSDOF 13
ENDMDL
MODEL 3
REMARK VINA RESULT: -5.947710558      3.632      6.793
REMARK  13 active torsions:
REMARK  status: ('A' for Active; 'I' for Inactive)
REMARK    1  A    between atoms: C1_4  and  C2_6 
REMARK    2  A    between atoms: C3_8  and  O2_9 
REMARK    3  A    between atoms: O2_9  and  C4_10 
REMARK    4  A    between atoms: C5_11  and  N3_12 
REMARK    5  A    between atoms: C7_17  and  N4_18 
REMARK    6  A    between atoms: C8_22  and  O3_23 
REMARK    7  A    between atoms: O3_23  and  C9_24 
REMARK    8  A    between atoms: C10_26  and  C11_27 
REMARK    9  A    between atoms: C11_27  and  N5_28 
REMARK   10  A    between atoms: C14_34  and  N6_35 
REMARK   11  A    between atoms: C15_39  and  N7_40 
REMARK   12  A    between atoms: C16_44  and  N8_45 
REMARK   13  A    between atoms: C18_50  and  N9_51 
ROOT
HETATM    1  C4  UNL     1     -23.584   3.806   9.839  1.00  0.00     0.188 C 
HETATM    2  C5  UNL     1     -24.191   3.771   8.432  1.00  0.00     0.216 C 
HETATM    3  C6  UNL     1     -24.614   5.176   8.032  1.00  0.00     0.070 C 
HETATM    4  C7  UNL     1     -24.933   6.013   9.282  1.00  0.00     0.216 C 
HETATM    5  C8  UNL     1     -25.678   5.126  10.226  1.00  0.00     0.188 C 
HETATM    6  C15 UNL     1     -24.594   4.226  10.857  1.00  0.00     0.245 C 
ENDROOT
BRANCH   1   7
HETATM    7  O2  UNL     1     -23.101   2.583  10.160  1.00  0.00    -0.350 OA
BRANCH   7   8
HETATM    8  C3  UNL     1     -23.833   1.891  11.100  1.00  0.00     0.291 C 
HETATM    9  O1  UNL     1     -24.776   1.034  10.499  1.00  0.00    -0.345 OA
HETATM   10  C2  UNL     1     -25.746   0.817  11.503  1.00  0.00     0.211 C 
HETATM   11  C18 UNL     1     -25.175  -0.027  12.605  1.00  0.00     0.122 C 
HETATM   12  C17 UNL     1     -23.887   0.582  13.151  1.00  0.00     0.066 C 
HETATM   13  C16 UNL     1     -23.008   1.077  12.035  1.00  0.00     0.240 C 
BRANCH  10  14
HETATM   14  C1  UNL     1     -26.891   0.142  10.897  1.00  0.00     0.118 C 
HETATM   15  N1  UNL     1     -26.724  -0.911  10.186  1.00  0.00    -0.389 N 
ATOM     16  H12 UNL     1     -27.524  -1.381   9.763  1.00  0.00     0.157 HD
ATOM     17  H11 UNL     1     -25.777  -1.264  10.052  1.00  0.00     0.157 HD
HETATM   18  N2  UNL     1     -28.206   0.634  11.083  1.00  0.00    -0.085 NA
ENDBRANCH  10  14
BRANCH  11  19
HETATM   19  N9  UNL     1     -26.090  -0.106  13.711  1.00  0.00    -0.359 N 
HETATM   20  C19 UNL     1     -26.845  -1.114  13.988  1.00  0.00     0.197 C 
HETATM   21  N10 UNL     1     -26.900  -2.316  13.245  1.00  0.00    -0.067 NA
HETATM   22  N11 UNL     1     -27.669  -0.987  15.135  1.00  0.00    -0.067 NA
ATOM     23  H9  UNL     1     -26.147   0.703  14.329  1.00  0.00     0.162 HD
ENDBRANCH  11  19
BRANCH  13  24
HETATM   24  N8  UNL     1     -22.509  -0.139  11.337  1.00  0.00    -0.070 N 
ATOM     25  H83 UNL     1     -23.245  -0.832  11.199  1.00  0.00     0.274 HD
ATOM     26  H82 UNL     1     -22.292   0.042  10.357  1.00  0.00     0.274 HD
ATOM     27  H81 UNL     1     -21.711  -0.524  11.842  1.00  0.00     0.274 HD
ENDBRANCH  13  24
ENDBRANCH   7   8
ENDBRANCH   1   7
BRANCH   2  28
HETATM   28  N3  UNL     1     -25.222   2.785   8.305  1.00  0.00    -0.072 N 
ATOM     29  H33 UNL     1     -26.084   3.096   8.752  1.00  0.00     0.274 HD
ATOM     30  H32 UNL     1     -25.551   2.719   7.341  1.00  0.00     0.274 HD
ATOM     31  H31 UNL     1     -24.933   1.872   8.658  1.00  0.00     0.274 HD
ENDBRANCH   2  28
BRANCH   6  32
HETATM   32  N7  UNL     1     -24.011   5.011  11.929  1.00  0.00    -0.070 N 
ATOM     33  H73 UNL     1     -22.996   5.061  11.837  1.00  0.00     0.274 HD
ATOM     34  H72 UNL     1     -24.235   6.000  11.824  1.00  0.00     0.274 HD
ATOM     35  H71 UNL     1     -24.278   4.671  12.854  1.00  0.00     0.274 HD
ENDBRANCH   6  32
BRANCH   5  36
HETATM   36  O3  UNL     1     -26.231   5.807  11.282  1.00  0.00    -0.350 OA
BRANCH  36  37
HETATM   37  C9  UNL     1     -27.634   5.684  11.293  1.00  0.00     0.291 C 
HETATM   38  O4  UNL     1     -28.188   6.541  10.295  1.00  0.00    -0.352 OA
HETATM   39  C10 UNL     1     -29.546   6.528  10.485  1.00  0.00     0.150 C 
HETATM   40  C12 UNL     1     -30.125   5.187  10.112  1.00  0.00     0.036 C 
HETATM   41  C13 UNL     1     -29.137   4.078  10.084  1.00  0.00     0.040 C 
HETATM   42  C14 UNL     1     -28.023   4.278  11.085  1.00  0.00     0.238 C 
BRANCH  39  43
HETATM   43  C11 UNL     1     -30.003   6.943  11.877  1.00  0.00     0.261 C 
BRANCH  43  44
HETATM   44  N5  UNL     1     -31.204   6.227  12.206  1.00  0.00    -0.077 N 
ATOM     45  H53 UNL     1     -31.094   5.217  12.109  1.00  0.00     0.274 HD
ATOM     46  H52 UNL     1     -31.411   6.251  13.204  1.00  0.00     0.274 HD
ATOM     47  H51 UNL     1     -31.970   6.590  11.640  1.00  0.00     0.274 HD
ENDBRANCH  43  44
ENDBRANCH  39  43
BRANCH  42  48
HETATM   48  N6  UNL     1     -28.358   3.530  12.287  1.00  0.00    -0.070 N 
ATOM     49  H63 UNL     1     -27.679   3.730  13.021  1.00  0.00     0.274 HD
ATOM     50  H62 UNL     1     -29.202   3.914  12.711  1.00  0.00     0.274 HD
ATOM     51  H61 UNL     1     -28.456   2.522  12.169  1.00  0.00     0.274 HD
ENDBRANCH  42  48
ENDBRANCH  36  37
ENDBRANCH   5  36
BRANCH   4  52
HETATM   52  N4  UNL     1     -25.588   7.240   8.937  1.00  0.00    -0.072 N 
ATOM     53  H43 UNL     1     -24.992   7.831   8.358  1.00  0.00     0.274 HD
ATOM     54  H42 UNL     1     -26.348   7.085   8.275  1.00  0.00     0.274 HD
ATOM     55  H41 UNL     1     -25.912   7.736   9.768  1.00  0.00     0.274 HD
ENDBRANCH   4  52
TORSDOF 13
ENDMDL
MODEL 4
REMARK VINA RESULT: -5.776288909      4.750     10.265
REMARK  13 active torsions:
REMARK  status: ('A' for Active; 'I' for Inactive)
REMARK    1  A    between atoms: C1_4  and  C2_6 
REMARK    2  A    between atoms: C3_8  and  O2_9 
REMARK    3  A    between atoms: O2_9  and  C4_10 
REMARK    4  A    between atoms: C5_11  and  N3_12 
REMARK    5  A    between atoms: C7_17  and  N4_18 
REMARK    6  A    between atoms: C8_22  and  O3_23 
REMARK    7  A    between atoms: O3_23  and  C9_24 
REMARK    8  A    between atoms: C10_26  and  C11_27 
REMARK    9  A    between atoms: C11_27  and  N5_28 
REMARK   10  A    between atoms: C14_34  and  N6_35 
REMARK   11  A    between atoms: C15_39  and  N7_40 
REMARK   12  A    between atoms: C16_44  and  N8_45 
REMARK   13  A    between atoms: C18_50  and  N9_51 
ROOT
HETATM    1  C4  UNL     1     -25.839   4.794  10.431  1.00  0.00     0.188 C 
HETATM    2  C5  UNL     1     -24.373   5.196  10.244  1.00  0.00     0.216 C 
HETATM    3  C6  UNL     1     -23.752   4.339   9.151  1.00  0.00     0.070 C 
HETATM    4  C7  UNL     1     -24.480   2.989   9.055  1.00  0.00     0.216 C 
HETATM    5  C8  UNL     1     -24.754   2.536  10.452  1.00  0.00     0.188 C 
HETATM    6  C15 UNL     1     -25.960   3.383  10.910  1.00  0.00     0.245 C 
ENDROOT
BRANCH   1   7
HETATM    7  O2  UNL     1     -26.433   5.625  11.320  1.00  0.00    -0.350 OA
BRANCH   7   8
HETATM    8  C3  UNL     1     -27.506   6.337  10.831  1.00  0.00     0.291 C 
HETATM    9  O1  UNL     1     -28.100   7.136  11.829  1.00  0.00    -0.345 OA
HETATM   10  C2  UNL     1     -29.412   7.369  11.361  1.00  0.00     0.211 C 
HETATM   11  C18 UNL     1     -29.384   8.281  10.169  1.00  0.00     0.122 C 
HETATM   12  C17 UNL     1     -28.458   7.739   9.085  1.00  0.00     0.066 C 
HETATM   13  C16 UNL     1     -27.178   7.219   9.678  1.00  0.00     0.240 C 
BRANCH  10  14
HETATM   14  C1  UNL     1     -30.183   7.979  12.441  1.00  0.00     0.118 C 
HETATM   15  N1  UNL     1     -30.957   7.265  13.171  1.00  0.00    -0.389 N 
ATOM     16  H12 UNL     1     -31.495   7.691  13.925  1.00  0.00     0.157 HD
ATOM     17  H11 UNL     1     -31.023   6.265  12.981  1.00  0.00     0.157 HD
HETATM   18  N2  UNL     1     -30.091   9.368  12.706  1.00  0.00    -0.085 NA
ENDBRANCH  10  14
BRANCH  11  19
HETATM   19  N9  UNL     1     -30.690   8.384   9.577  1.00  0.00    -0.359 N 
HETATM   20  C19 UNL     1     -31.266   9.480   9.218  1.00  0.00     0.197 C 
HETATM   21  N10 UNL     1     -30.706  10.772   9.348  1.00  0.00    -0.067 NA
HETATM   22  N11 UNL     1     -32.557   9.355   8.643  1.00  0.00    -0.067 NA
ATOM     23  H9  UNL     1     -31.206   7.516   9.430  1.00  0.00     0.162 HD
ENDBRANCH  11  19
BRANCH  13  24
HETATM   24  N8  UNL     1     -26.433   8.417  10.156  1.00  0.00    -0.070 N 
ATOM     25  H83 UNL     1     -26.573   9.223   9.548  1.00  0.00     0.274 HD
ATOM     26  H82 UNL     1     -26.836   8.804  11.009  1.00  0.00     0.274 HD
ATOM     27  H81 UNL     1     -25.446   8.188  10.267  1.00  0.00     0.274 HD
ENDBRANCH  13  24
ENDBRANCH   7   8
ENDBRANCH   1   7
BRANCH   2  28
HETATM   28  N3  UNL     1     -23.645   5.200  11.477  1.00  0.00    -0.072 N 
ATOM     29  H33 UNL     1     -22.674   5.476  11.330  1.00  0.00     0.274 HD
ATOM     30  H32 UNL     1     -23.944   5.969  12.078  1.00  0.00     0.274 HD
ATOM     31  H31 UNL     1     -23.703   4.307  11.967  1.00  0.00     0.274 HD
ENDBRANCH   2  28
BRANCH   6  32
HETATM   32  N7  UNL     1     -27.133   2.714  10.379  1.00  0.00    -0.070 N 
ATOM     33  H73 UNL     1     -27.750   3.374   9.906  1.00  0.00     0.274 HD
ATOM     34  H72 UNL     1     -26.888   2.121   9.586  1.00  0.00     0.274 HD
ATOM     35  H71 UNL     1     -27.638   2.185  11.090  1.00  0.00     0.274 HD
ENDBRANCH   6  32
BRANCH   5  36
HETATM   36  O3  UNL     1     -25.189   1.235  10.521  1.00  0.00    -0.350 OA
BRANCH  36  37
HETATM   37  C9  UNL     1     -24.550   0.538  11.564  1.00  0.00     0.291 C 
HETATM   38  O4  UNL     1     -23.661   1.422  12.246  1.00  0.00    -0.352 OA
HETATM   39  C10 UNL     1     -22.930   0.648  13.109  1.00  0.00     0.150 C 
HETATM   40  C12 UNL     1     -23.796   0.137  14.232  1.00  0.00     0.036 C 
HETATM   41  C13 UNL     1     -25.252   0.160  13.944  1.00  0.00     0.040 C 
HETATM   42  C14 UNL     1     -25.550  -0.045  12.476  1.00  0.00     0.238 C 
BRANCH  39  43
HETATM   43  C11 UNL     1     -22.167  -0.496  12.454  1.00  0.00     0.261 C 
BRANCH  43  44
HETATM   44  N5  UNL     1     -20.957  -0.732  13.193  1.00  0.00    -0.077 N 
ATOM     45  H53 UNL     1     -21.092  -1.387  13.963  1.00  0.00     0.274 HD
ATOM     46  H52 UNL     1     -20.277  -1.275  12.662  1.00  0.00     0.274 HD
ATOM     47  H51 UNL     1     -20.582   0.163  13.505  1.00  0.00     0.274 HD
ENDBRANCH  43  44
ENDBRANCH  39  43
BRANCH  42  48
HETATM   48  N6  UNL     1     -25.851  -1.452  12.270  1.00  0.00    -0.070 N 
ATOM     49  H63 UNL     1     -26.756  -1.550  11.810  1.00  0.00     0.274 HD
ATOM     50  H62 UNL     1     -25.239  -1.837  11.550  1.00  0.00     0.274 HD
ATOM     51  H61 UNL     1     -25.819  -2.040  13.103  1.00  0.00     0.274 HD
ENDBRANCH  42  48
ENDBRANCH  36  37
ENDBRANCH   5  36
BRANCH   4  52
HETATM   52  N4  UNL     1     -23.759   2.062   8.233  1.00  0.00    -0.072 N 
ATOM     53  H43 UNL     1     -24.373   1.340   7.856  1.00  0.00     0.274 HD
ATOM     54  H42 UNL     1     -23.463   2.492   7.357  1.00  0.00     0.274 HD
ATOM     55  H41 UNL     1     -22.968   1.656   8.736  1.00  0.00     0.274 HD
ENDBRANCH   4  52
TORSDOF 13
ENDMDL
MODEL 5
REMARK VINA RESULT: -5.773796076      5.467      8.200
REMARK  13 active torsions:
REMARK  status: ('A' for Active; 'I' for Inactive)
REMARK    1  A    between atoms: C1_4  and  C2_6 
REMARK    2  A    between atoms: C3_8  and  O2_9 
REMARK    3  A    between atoms: O2_9  and  C4_10 
REMARK    4  A    between atoms: C5_11  and  N3_12 
REMARK    5  A    between atoms: C7_17  and  N4_18 
REMARK    6  A    between atoms: C8_22  and  O3_23 
REMARK    7  A    between atoms: O3_23  and  C9_24 
REMARK    8  A    between atoms: C10_26  and  C11_27 
REMARK    9  A    between atoms: C11_27  and  N5_28 
REMARK   10  A    between atoms: C14_34  and  N6_35 
REMARK   11  A    between atoms: C15_39  and  N7_40 
REMARK   12  A    between atoms: C16_44  and  N8_45 
REMARK   13  A    between atoms: C18_50  and  N9_51 
ROOT
HETATM    1  C4  UNL     1     -25.543   4.712   8.980  1.00  0.00     0.188 C 
HETATM    2  C5  UNL     1     -26.134   5.401   7.745  1.00  0.00     0.216 C 
HETATM    3  C6  UNL     1     -25.931   6.904   7.864  1.00  0.00     0.070 C 
HETATM    4  C7  UNL     1     -25.844   7.314   9.343  1.00  0.00     0.216 C 
HETATM    5  C8  UNL     1     -26.876   6.525  10.080  1.00  0.00     0.188 C 
HETATM    6  C15 UNL     1     -26.262   5.116  10.226  1.00  0.00     0.245 C 
ENDROOT
BRANCH   1   7
HETATM    7  O2  UNL     1     -25.616   3.368   8.832  1.00  0.00    -0.350 OA
BRANCH   7   8
HETATM    8  C3  UNL     1     -24.754   2.643   9.627  1.00  0.00     0.291 C 
HETATM    9  O1  UNL     1     -25.426   2.040  10.710  1.00  0.00    -0.345 OA
HETATM   10  C2  UNL     1     -24.414   1.803  11.665  1.00  0.00     0.211 C 
HETATM   11  C18 UNL     1     -23.493   0.716  11.190  1.00  0.00     0.122 C 
HETATM   12  C17 UNL     1     -22.936   1.036   9.806  1.00  0.00     0.066 C 
HETATM   13  C16 UNL     1     -24.010   1.577   8.903  1.00  0.00     0.240 C 
BRANCH  10  14
HETATM   14  C1  UNL     1     -25.050   1.408  12.919  1.00  0.00     0.118 C 
HETATM   15  N1  UNL     1     -26.313   1.204  12.972  1.00  0.00    -0.389 N 
ATOM     16  H12 UNL     1     -26.757   0.929  13.847  1.00  0.00     0.157 HD
ATOM     17  H11 UNL     1     -26.863   1.324  12.121  1.00  0.00     0.157 HD
HETATM   18  N2  UNL     1     -24.285   1.242  14.101  1.00  0.00    -0.085 NA
ENDBRANCH  10  14
BRANCH  11  19
HETATM   19  N9  UNL     1     -22.362   0.588  12.067  1.00  0.00    -0.359 N 
HETATM   20  C19 UNL     1     -21.968  -0.503  12.628  1.00  0.00     0.197 C 
HETATM   21  N10 UNL     1     -22.588  -1.765  12.474  1.00  0.00    -0.067 NA
HETATM   22  N11 UNL     1     -20.818  -0.410  13.452  1.00  0.00    -0.067 NA
ATOM     23  H9  UNL     1     -21.825   1.433  12.263  1.00  0.00     0.162 HD
ENDBRANCH  11  19
BRANCH  13  24
HETATM   24  N8  UNL     1     -24.919   0.433   8.618  1.00  0.00    -0.070 N 
ATOM     25  H83 UNL     1     -24.419  -0.364   8.224  1.00  0.00     0.274 HD
ATOM     26  H82 UNL     1     -25.256  -0.011   9.471  1.00  0.00     0.274 HD
ATOM     27  H81 UNL     1     -25.683   0.740   8.017  1.00  0.00     0.274 HD
ENDBRANCH  13  24
ENDBRANCH   7   8
ENDBRANCH   1   7
BRANCH   2  28
HETATM   28  N3  UNL     1     -27.487   5.005   7.493  1.00  0.00    -0.072 N 
ATOM     29  H33 UNL     1     -27.749   4.205   8.067  1.00  0.00     0.274 HD
ATOM     30  H32 UNL     1     -28.146   5.693   7.859  1.00  0.00     0.274 HD
ATOM     31  H31 UNL     1     -27.661   4.820   6.504  1.00  0.00     0.274 HD
ENDBRANCH   2  28
BRANCH   6  32
HETATM   32  N7  UNL     1     -25.382   5.191  11.377  1.00  0.00    -0.070 N 
ATOM     33  H73 UNL     1     -25.757   4.658  12.161  1.00  0.00     0.274 HD
ATOM     34  H72 UNL     1     -24.523   4.665  11.217  1.00  0.00     0.274 HD
ATOM     35  H71 UNL     1     -25.177   6.152  11.652  1.00  0.00     0.274 HD
ENDBRANCH   6  32
BRANCH   5  36
HETATM   36  O3  UNL     1     -27.070   6.961  11.368  1.00  0.00    -0.350 OA
BRANCH  36  37
HETATM   37  C9  UNL     1     -28.422   7.277  11.603  1.00  0.00     0.291 C 
HETATM   38  O4  UNL     1     -28.749   8.484  10.916  1.00  0.00    -0.352 OA
HETATM   39  C10 UNL     1     -30.003   8.843  11.338  1.00  0.00     0.150 C 
HETATM   40  C12 UNL     1     -31.039   7.884  10.809  1.00  0.00     0.036 C 
HETATM   41  C13 UNL     1     -30.497   6.569  10.381  1.00  0.00     0.040 C 
HETATM   42  C14 UNL     1     -29.286   6.158  11.187  1.00  0.00     0.238 C 
BRANCH  39  43
HETATM   43  C11 UNL     1     -30.147   9.015  12.844  1.00  0.00     0.261 C 
BRANCH  43  44
HETATM   44  N5  UNL     1     -31.402   8.451  13.259  1.00  0.00    -0.077 N 
ATOM     45  H53 UNL     1     -31.798   7.823  12.558  1.00  0.00     0.274 HD
ATOM     46  H52 UNL     1     -31.294   7.772  14.012  1.00  0.00     0.274 HD
ATOM     47  H51 UNL     1     -32.039   9.208  13.506  1.00  0.00     0.274 HD
ENDBRANCH  43  44
ENDBRANCH  39  43
BRANCH  42  48
HETATM   48  N6  UNL     1     -29.733   5.274  12.251  1.00  0.00    -0.070 N 
ATOM     49  H63 UNL     1     -28.933   4.956  12.798  1.00  0.00     0.274 HD
ATOM     50  H62 UNL     1     -30.236   5.808  12.959  1.00  0.00     0.274 HD
ATOM     51  H61 UNL     1     -30.292   4.473  11.957  1.00  0.00     0.274 HD
ENDBRANCH  42  48
ENDBRANCH  36  37
ENDBRANCH   5  36
BRANCH   4  52
HETATM   52  N4  UNL     1     -25.926   8.737   9.497  1.00  0.00    -0.072 N 
ATOM     53  H43 UNL     1     -25.796   9.016  10.470  1.00  0.00     0.274 HD
ATOM     54  H42 UNL     1     -25.116   9.205   9.089  1.00  0.00     0.274 HD
ATOM     55  H41 UNL     1     -26.799   9.104   9.116  1.00  0.00     0.274 HD
ENDBRANCH   4  52
TORSDOF 13
ENDMDL
