MODEL 1
REMARK VINA RESULT: -5.879471257      0.000      0.000
REMARK  13 active torsions:
REMARK  status: ('A' for Active; 'I' for Inactive)
REMARK    1  A    between atoms: C2_2  and  C3_4 
REMARK    2  A    between atoms: C3_4  and  N1_5 
REMARK    3  A    between atoms: C3_4  and  C4_9 
REMARK       I    between atoms: C4_9  and  N2_11 
REMARK    4  A    between atoms: N2_11  and  C5_13 
REMARK    5  A    between atoms: C11_25  and  C12_26 
REMARK    6  A    between atoms: C12_26  and  C13_27 
REMARK    7  A    between atoms: C13_27  and  C14_28 
REMARK    8  A    between atoms: C14_28  and  C15_29 
REMARK    9  A    between atoms: C15_29  and  N7_30 
REMARK   10  A    between atoms: C16_34  and  O3_35 
REMARK   11  A    between atoms: C16_34  and  C17_37 
REMARK   12  A    between atoms: C17_37  and  N8_38 
REMARK   13  A    between atoms: C18_48  and  O4_49 
ROOT
HETATM    1  C5  UNL     1     -26.530   4.313   9.549  1.00  0.00     0.069 C 
HETATM    2  C6  UNL     1     -25.787   4.137   8.496  1.00  0.00     0.058 A 
HETATM    3  C7  UNL     1     -25.867   3.357   7.392  1.00  0.00     0.101 A 
HETATM    4  C8  UNL     1     -27.010   2.669   6.869  1.00  0.00     0.104 C 
HETATM    5  N3  UNL     1     -27.919   2.116   6.357  1.00  0.00    -0.191 NA
HETATM    6  C9  UNL     1     -24.656   3.406   6.657  1.00  0.00     0.139 A 
HETATM    7  N4  UNL     1     -24.436   2.690   5.466  1.00  0.00    -0.081 NA
HETATM    8  N5  UNL     1     -23.860   4.213   7.315  1.00  0.00    -0.329 N 
ATOM      9  H5  UNL     1     -22.910   4.453   7.030  1.00  0.00     0.168 HD
HETATM   10  C10 UNL     1     -24.482   4.684   8.436  1.00  0.00     0.117 A 
HETATM   11  N6  UNL     1     -23.922   5.373   9.346  1.00  0.00    -0.367 N 
ATOM     12  H6  UNL     1     -22.978   5.736   9.212  1.00  0.00     0.161 HD
HETATM   13  C11 UNL     1     -24.642   5.638  10.583  1.00  0.00     0.128 C 
HETATM   14  C16 UNL     1     -26.100   5.548  10.370  1.00  0.00     0.178 C 
ENDROOT
BRANCH   1  15
HETATM   15  N2  UNL     1     -27.699   3.709   9.944  1.00  0.00    -0.325 N 
HETATM   16  C4  UNL     1     -29.012   3.358   9.893  1.00  0.00     0.260 C 
HETATM   17  O2  UNL     1     -29.966   3.562   9.110  1.00  0.00    -0.270 OA
ATOM     18  H2  UNL     1     -27.399   3.234  10.796  1.00  0.00     0.169 HD
BRANCH  16  19
HETATM   19  C3  UNL     1     -29.627   2.480  11.031  1.00  0.00     0.343 C 
BRANCH  19  20
HETATM   20  C2  UNL     1     -28.850   2.648  12.270  1.00  0.00     0.162 C 
HETATM   21  C1  UNL     1     -28.077   1.532  12.849  1.00  0.00     0.093 C 
HETATM   22  O1  UNL     1     -28.837   3.723  12.837  1.00  0.00    -0.296 OA
ENDBRANCH  19  20
BRANCH  19  23
HETATM   23  N1  UNL     1     -29.802   1.137  10.634  1.00  0.00    -0.060 N 
ATOM     24  H13 UNL     1     -30.554   1.065   9.947  1.00  0.00     0.275 HD
ATOM     25  H12 UNL     1     -29.015   0.829  10.063  1.00  0.00     0.275 HD
ATOM     26  H11 UNL     1     -29.960   0.488  11.405  1.00  0.00     0.275 HD
ENDBRANCH  19  23
ENDBRANCH  16  19
ENDBRANCH   1  15
BRANCH  14  27
HETATM   27  O3  UNL     1     -26.674   5.478  11.657  1.00  0.00    -0.377 OA
ATOM     28  H3  UNL     1     -26.146   5.981  12.267  1.00  0.00     0.211 HD
ENDBRANCH  14  27
BRANCH  14  29
HETATM   29  C17 UNL     1     -26.607   6.836   9.739  1.00  0.00     0.289 C 
HETATM   30  N9  UNL     1     -25.882   8.005  10.097  1.00  0.00    -0.282 N 
HETATM   31  N10 UNL     1     -25.789   9.036   9.416  1.00  0.00    -0.232 N 
ATOM     32  H9  UNL     1     -25.396   7.994  10.994  1.00  0.00     0.184 HD
HETATM   33  N11 UNL     1     -26.441   9.075   8.185  1.00  0.00    -0.013 NA
ATOM     34  H10 UNL     1     -25.249   9.836   9.748  1.00  0.00     0.205 HD
HETATM   35  N12 UNL     1     -26.397   7.870   7.482  1.00  0.00    -0.088 NA
HETATM   36  C18 UNL     1     -26.899   6.769   8.293  1.00  0.00     0.290 C 
BRANCH  29  37
HETATM   37  N8  UNL     1     -27.941   7.052  10.395  1.00  0.00    -0.044 N 
ATOM     38  H83 UNL     1     -27.952   6.868  11.398  1.00  0.00     0.277 HD
ATOM     39  H82 UNL     1     -28.225   8.029  10.461  1.00  0.00     0.277 HD
ATOM     40  H81 UNL     1     -28.575   6.464   9.852  1.00  0.00     0.277 HD
ENDBRANCH  29  37
BRANCH  36  41
HETATM   41  O4  UNL     1     -28.298   6.769   8.017  1.00  0.00    -0.374 OA
ATOM     42  H4  UNL     1     -28.760   7.462   8.472  1.00  0.00     0.212 HD
ENDBRANCH  36  41
ENDBRANCH  14  29
BRANCH  13  43
HETATM   43  C12 UNL     1     -24.028   4.752  11.617  1.00  0.00     0.029 C 
BRANCH  43  44
HETATM   44  C13 UNL     1     -22.828   3.951  11.287  1.00  0.00     0.004 C 
BRANCH  44  45
HETATM   45  C14 UNL     1     -23.067   2.463  11.318  1.00  0.00     0.027 C 
BRANCH  45  46
HETATM   46  C15 UNL     1     -24.464   2.133  11.803  1.00  0.00     0.229 C 
BRANCH  46  47
HETATM   47  N7  UNL     1     -24.430   1.700  13.196  1.00  0.00    -0.079 N 
ATOM     48  H73 UNL     1     -24.752   0.738  13.303  1.00  0.00     0.274 HD
ATOM     49  H72 UNL     1     -23.475   1.579  13.532  1.00  0.00     0.274 HD
ATOM     50  H71 UNL     1     -24.961   2.346  13.781  1.00  0.00     0.274 HD
ENDBRANCH  46  47
ENDBRANCH  45  46
ENDBRANCH  44  45
ENDBRANCH  43  44
ENDBRANCH  13  43
TORSDOF 13
ENDMDL
MODEL 2
REMARK VINA RESULT: -5.867593836      0.958      1.255
REMARK  13 active torsions:
REMARK  status: ('A' for Active; 'I' for Inactive)
REMARK    1  A    between atoms: C2_2  and  C3_4 
REMARK    2  A    between atoms: C3_4  and  N1_5 
REMARK    3  A    between atoms: C3_4  and  C4_9 
REMARK       I    between atoms: C4_9  and  N2_11 
REMARK    4  A    between atoms: N2_11  and  C5_13 
REMARK    5  A    between atoms: C11_25  and  C12_26 
REMARK    6  A    between atoms: C12_26  and  C13_27 
REMARK    7  A    between atoms: C13_27  and  C14_28 
REMARK    8  A    between atoms: C14_28  and  C15_29 
REMARK    9  A    between atoms: C15_29  and  N7_30 
REMARK   10  A    between atoms: C16_34  and  O3_35 
REMARK   11  A    between atoms: C16_34  and  C17_37 
REMARK   12  A    between atoms: C17_37  and  N8_38 
REMARK   13  A    between atoms: C18_48  and  O4_49 
ROOT
HETATM    1  C5  UNL     1     -26.662   4.352   9.644  1.00  0.00     0.069 C 
HETATM    2  C6  UNL     1     -25.992   4.111   8.556  1.00  0.00     0.058 A 
HETATM    3  C7  UNL     1     -26.161   3.286   7.496  1.00  0.00     0.101 A 
HETATM    4  C8  UNL     1     -27.351   2.606   7.077  1.00  0.00     0.104 C 
HETATM    5  N3  UNL     1     -28.304   2.056   6.649  1.00  0.00    -0.191 NA
HETATM    6  C9  UNL     1     -24.999   3.271   6.685  1.00  0.00     0.139 A 
HETATM    7  N4  UNL     1     -24.872   2.498   5.517  1.00  0.00    -0.081 NA
HETATM    8  N5  UNL     1     -24.143   4.084   7.255  1.00  0.00    -0.329 N 
ATOM      9  H5  UNL     1     -23.208   4.287   6.901  1.00  0.00     0.168 HD
HETATM   10  C10 UNL     1     -24.681   4.620   8.390  1.00  0.00     0.117 A 
HETATM   11  N6  UNL     1     -24.048   5.333   9.232  1.00  0.00    -0.367 N 
ATOM     12  H6  UNL     1     -23.107   5.665   9.022  1.00  0.00     0.161 HD
HETATM   13  C11 UNL     1     -24.681   5.671  10.497  1.00  0.00     0.128 C 
HETATM   14  C16 UNL     1     -26.151   5.610  10.380  1.00  0.00     0.178 C 
ENDROOT
BRANCH   1  15
HETATM   15  N2  UNL     1     -27.817   3.797  10.140  1.00  0.00    -0.325 N 
HETATM   16  C4  UNL     1     -28.741   2.831  10.388  1.00  0.00     0.260 C 
HETATM   17  O2  UNL     1     -28.853   1.609  10.138  1.00  0.00    -0.270 OA
ATOM     18  H2  UNL     1     -28.240   4.601  10.606  1.00  0.00     0.169 HD
BRANCH  16  19
HETATM   19  C3  UNL     1     -30.046   3.185  11.172  1.00  0.00     0.343 C 
BRANCH  19  20
HETATM   20  C2  UNL     1     -30.158   4.644  11.328  1.00  0.00     0.162 C 
HETATM   21  C1  UNL     1     -31.085   5.436  10.498  1.00  0.00     0.093 C 
HETATM   22  O1  UNL     1     -29.477   5.220  12.155  1.00  0.00    -0.296 OA
ENDBRANCH  19  20
BRANCH  19  23
HETATM   23  N1  UNL     1     -30.156   2.462  12.379  1.00  0.00    -0.060 N 
ATOM     24  H13 UNL     1     -31.028   2.694  12.855  1.00  0.00     0.275 HD
ATOM     25  H12 UNL     1     -30.320   1.473  12.188  1.00  0.00     0.275 HD
ATOM     26  H11 UNL     1     -29.364   2.577  13.011  1.00  0.00     0.275 HD
ENDBRANCH  19  23
ENDBRANCH  16  19
ENDBRANCH   1  15
BRANCH  14  27
HETATM   27  O3  UNL     1     -26.644   5.612  11.703  1.00  0.00    -0.377 OA
ATOM     28  H3  UNL     1     -27.290   6.303  11.799  1.00  0.00     0.211 HD
ENDBRANCH  14  27
BRANCH  14  29
HETATM   29  C17 UNL     1     -26.667   6.883   9.725  1.00  0.00     0.289 C 
HETATM   30  N9  UNL     1     -25.851   8.030   9.919  1.00  0.00    -0.282 N 
HETATM   31  N10 UNL     1     -25.788   9.010   9.163  1.00  0.00    -0.232 N 
ATOM     32  H9  UNL     1     -25.264   8.048  10.753  1.00  0.00     0.184 HD
HETATM   33  N11 UNL     1     -26.578   9.008   8.013  1.00  0.00    -0.013 NA
ATOM     34  H10 UNL     1     -25.176   9.798   9.375  1.00  0.00     0.205 HD
HETATM   35  N12 UNL     1     -26.674   7.761   7.394  1.00  0.00    -0.088 NA
HETATM   36  C18 UNL     1     -27.129   6.742   8.330  1.00  0.00     0.290 C 
BRANCH  29  37
HETATM   37  N8  UNL     1     -27.903   7.211  10.512  1.00  0.00    -0.044 N 
ATOM     38  H83 UNL     1     -27.832   7.015  11.511  1.00  0.00     0.277 HD
ATOM     39  H82 UNL     1     -28.086   8.210  10.612  1.00  0.00     0.277 HD
ATOM     40  H81 UNL     1     -28.640   6.694  10.032  1.00  0.00     0.277 HD
ENDBRANCH  29  37
BRANCH  36  41
HETATM   41  O4  UNL     1     -28.549   6.801   8.215  1.00  0.00    -0.374 OA
ATOM     42  H4  UNL     1     -28.961   7.187   8.978  1.00  0.00     0.212 HD
ENDBRANCH  36  41
ENDBRANCH  14  29
BRANCH  13  43
HETATM   43  C12 UNL     1     -24.023   4.814  11.530  1.00  0.00     0.029 C 
BRANCH  43  44
HETATM   44  C13 UNL     1     -22.799   4.055  11.191  1.00  0.00     0.004 C 
BRANCH  44  45
HETATM   45  C14 UNL     1     -22.954   2.563  11.335  1.00  0.00     0.027 C 
BRANCH  45  46
HETATM   46  C15 UNL     1     -24.370   2.184  11.724  1.00  0.00     0.229 C 
BRANCH  46  47
HETATM   47  N7  UNL     1     -24.409   1.716  13.105  1.00  0.00    -0.079 N 
ATOM     48  H73 UNL     1     -25.235   1.148  13.291  1.00  0.00     0.274 HD
ATOM     49  H72 UNL     1     -23.695   1.010  13.287  1.00  0.00     0.274 HD
ATOM     50  H71 UNL     1     -24.337   2.504  13.749  1.00  0.00     0.274 HD
ENDBRANCH  46  47
ENDBRANCH  45  46
ENDBRANCH  44  45
ENDBRANCH  43  44
ENDBRANCH  13  43
TORSDOF 13
ENDMDL
MODEL 3
REMARK VINA RESULT: -5.857563049      2.149      5.588
REMARK  13 active torsions:
REMARK  status: ('A' for Active; 'I' for Inactive)
REMARK    1  A    between atoms: C2_2  and  C3_4 
REMARK    2  A    between atoms: C3_4  and  N1_5 
REMARK    3  A    between atoms: C3_4  and  C4_9 
REMARK       I    between atoms: C4_9  and  N2_11 
REMARK    4  A    between atoms: N2_11  and  C5_13 
REMARK    5  A    between atoms: C11_25  and  C12_26 
REMARK    6  A    between atoms: C12_26  and  C13_27 
REMARK    7  A    between atoms: C13_27  and  C14_28 
REMARK    8  A    between atoms: C14_28  and  C15_29 
REMARK    9  A    between atoms: C15_29  and  N7_30 
REMARK   10  A    between atoms: C16_34  and  O3_35 
REMARK   11  A    between atoms: C16_34  and  C17_37 
REMARK   12  A    between atoms: C17_37  and  N8_38 
REMARK   13  A    between atoms: C18_48  and  O4_49 
ROOT
HETATM    1  C5  UNL     1     -26.430   3.843  10.524  1.00  0.00     0.069 C 
HETATM    2  C6  UNL     1     -27.184   3.020  11.192  1.00  0.00     0.058 A 
HETATM    3  C7  UNL     1     -28.361   3.129  11.854  1.00  0.00     0.101 A 
HETATM    4  C8  UNL     1     -29.342   4.169  11.762  1.00  0.00     0.104 C 
HETATM    5  N3  UNL     1     -30.211   4.966  11.701  1.00  0.00    -0.191 NA
HETATM    6  C9  UNL     1     -28.625   1.952  12.597  1.00  0.00     0.139 A 
HETATM    7  N4  UNL     1     -29.770   1.773  13.394  1.00  0.00    -0.081 NA
HETATM    8  N5  UNL     1     -27.617   1.144  12.376  1.00  0.00    -0.329 N 
ATOM      9  H5  UNL     1     -27.522   0.209  12.774  1.00  0.00     0.168 HD
HETATM   10  C10 UNL     1     -26.712   1.732  11.539  1.00  0.00     0.117 A 
HETATM   11  N6  UNL     1     -25.568   1.257  11.251  1.00  0.00    -0.367 N 
ATOM     12  H6  UNL     1     -25.316   0.310  11.536  1.00  0.00     0.161 HD
HETATM   13  C11 UNL     1     -24.622   2.077  10.511  1.00  0.00     0.128 C 
HETATM   14  C16 UNL     1     -25.326   3.113   9.730  1.00  0.00     0.178 C 
ENDROOT
BRANCH   1  15
HETATM   15  N2  UNL     1     -26.555   5.189  10.276  1.00  0.00    -0.325 N 
HETATM   16  C4  UNL     1     -26.842   6.493  10.534  1.00  0.00     0.260 C 
HETATM   17  O2  UNL     1     -27.246   7.145  11.523  1.00  0.00    -0.270 OA
ATOM     18  H2  UNL     1     -26.238   5.243   9.308  1.00  0.00     0.169 HD
BRANCH  16  19
HETATM   19  C3  UNL     1     -26.676   7.563   9.407  1.00  0.00     0.343 C 
BRANCH  19  20
HETATM   20  C2  UNL     1     -26.125   6.936   8.195  1.00  0.00     0.162 C 
HETATM   21  C1  UNL     1     -26.899   6.876   6.942  1.00  0.00     0.093 C 
HETATM   22  O1  UNL     1     -25.008   6.455   8.216  1.00  0.00    -0.296 OA
ENDBRANCH  19  20
BRANCH  19  23
HETATM   23  N1  UNL     1     -25.964   8.698   9.849  1.00  0.00    -0.060 N 
ATOM     24  H13 UNL     1     -26.459   9.153  10.617  1.00  0.00     0.275 HD
ATOM     25  H12 UNL     1     -25.111   8.417  10.335  1.00  0.00     0.275 HD
ATOM     26  H11 UNL     1     -25.749   9.372   9.114  1.00  0.00     0.275 HD
ENDBRANCH  19  23
ENDBRANCH  16  19
ENDBRANCH   1  15
BRANCH  14  27
HETATM   27  O3  UNL     1     -24.337   4.041   9.339  1.00  0.00    -0.377 OA
ATOM     28  H3  UNL     1     -24.721   4.688   8.758  1.00  0.00     0.211 HD
ENDBRANCH  14  27
BRANCH  14  29
HETATM   29  C17 UNL     1     -25.876   2.503   8.448  1.00  0.00     0.289 C 
HETATM   30  N9  UNL     1     -25.307   1.251   8.088  1.00  0.00    -0.282 N 
HETATM   31  N10 UNL     1     -25.858   0.375   7.406  1.00  0.00    -0.232 N 
ATOM     32  H9  UNL     1     -24.362   1.057   8.420  1.00  0.00     0.184 HD
HETATM   33  N11 UNL     1     -27.151   0.615   6.943  1.00  0.00    -0.013 NA
ATOM     34  H10 UNL     1     -25.379  -0.498   7.189  1.00  0.00     0.205 HD
HETATM   35  N12 UNL     1     -27.966   1.283   7.859  1.00  0.00    -0.088 NA
HETATM   36  C18 UNL     1     -27.346   2.520   8.311  1.00  0.00     0.290 C 
BRANCH  29  37
HETATM   37  N8  UNL     1     -25.374   3.424   7.373  1.00  0.00    -0.044 N 
ATOM     38  H83 UNL     1     -24.407   3.725   7.494  1.00  0.00     0.277 HD
ATOM     39  H82 UNL     1     -25.236   2.977   6.467  1.00  0.00     0.277 HD
ATOM     40  H81 UNL     1     -26.055   4.184   7.369  1.00  0.00     0.277 HD
ENDBRANCH  29  37
BRANCH  36  41
HETATM   41  O4  UNL     1     -27.795   3.481   7.358  1.00  0.00    -0.374 OA
ATOM     42  H4  UNL     1     -28.506   4.017   7.688  1.00  0.00     0.212 HD
ENDBRANCH  36  41
ENDBRANCH  14  29
BRANCH  13  43
HETATM   43  C12 UNL     1     -23.597   2.524  11.503  1.00  0.00     0.029 C 
BRANCH  43  44
HETATM   44  C13 UNL     1     -22.213   2.004  11.422  1.00  0.00     0.004 C 
BRANCH  44  45
HETATM   45  C14 UNL     1     -22.128   0.501  11.477  1.00  0.00     0.027 C 
BRANCH  45  46
HETATM   46  C15 UNL     1     -22.139  -0.006  12.905  1.00  0.00     0.229 C 
BRANCH  46  47
HETATM   47  N7  UNL     1     -20.873  -0.659  13.222  1.00  0.00    -0.079 N 
ATOM     48  H73 UNL     1     -21.012  -1.601  13.589  1.00  0.00     0.274 HD
ATOM     49  H72 UNL     1     -20.349  -0.900  12.381  1.00  0.00     0.274 HD
ATOM     50  H71 UNL     1     -20.325  -0.080  13.859  1.00  0.00     0.274 HD
ENDBRANCH  46  47
ENDBRANCH  45  46
ENDBRANCH  44  45
ENDBRANCH  43  44
ENDBRANCH  13  43
TORSDOF 13
ENDMDL
MODEL 4
REMARK VINA RESULT: -5.843804459      3.528      6.873
REMARK  13 active torsions:
REMARK  status: ('A' for Active; 'I' for Inactive)
REMARK    1  A    between atoms: C2_2  and  C3_4 
REMARK    2  A    between atoms: C3_4  and  N1_5 
REMARK    3  A    between atoms: C3_4  and  C4_9 
REMARK       I    between atoms: C4_9  and  N2_11 
REMARK    4  A    between atoms: N2_11  and  C5_13 
REMARK    5  A    between atoms: C11_25  and  C12_26 
REMARK    6  A    between atoms: C12_26  and  C13_27 
REMARK    7  A    between atoms: C13_27  and  C14_28 
REMARK    8  A    between atoms: C14_28  and  C15_29 
REMARK    9  A    between atoms: C15_29  and  N7_30 
REMARK   10  A    between atoms: C16_34  and  O3_35 
REMARK   11  A    between atoms: C16_34  and  C17_37 
REMARK   12  A    between atoms: C17_37  and  N8_38 
REMARK   13  A    between atoms: C18_48  and  O4_49 
ROOT
HETATM    1  C5  UNL     1     -25.203   0.793  10.024  1.00  0.00     0.069 C 
HETATM    2  C6  UNL     1     -25.864   0.820  11.144  1.00  0.00     0.058 A 
HETATM    3  C7  UNL     1     -27.048   0.315  11.564  1.00  0.00     0.101 A 
HETATM    4  C8  UNL     1     -27.842  -0.714  10.963  1.00  0.00     0.104 C 
HETATM    5  N3  UNL     1     -28.520  -1.587  10.548  1.00  0.00    -0.191 NA
HETATM    6  C9  UNL     1     -27.388   0.837  12.837  1.00  0.00     0.139 A 
HETATM    7  N4  UNL     1     -28.568   0.504  13.527  1.00  0.00    -0.081 NA
HETATM    8  N5  UNL     1     -26.412   1.643  13.177  1.00  0.00    -0.329 N 
ATOM      9  H5  UNL     1     -26.368   2.169  14.050  1.00  0.00     0.168 HD
HETATM   10  C10 UNL     1     -25.463   1.679  12.195  1.00  0.00     0.117 A 
HETATM   11  N6  UNL     1     -24.469   2.472  12.170  1.00  0.00    -0.367 N 
ATOM     12  H6  UNL     1     -24.249   3.050  12.981  1.00  0.00     0.161 HD
HETATM   13  C11 UNL     1     -23.648   2.547  10.971  1.00  0.00     0.128 C 
HETATM   14  C16 UNL     1     -23.755   1.301  10.185  1.00  0.00     0.178 C 
ENDROOT
BRANCH   1  15
HETATM   15  N2  UNL     1     -25.513   0.245   8.802  1.00  0.00    -0.325 N 
HETATM   16  C4  UNL     1     -25.519  -0.679   7.805  1.00  0.00     0.260 C 
HETATM   17  O2  UNL     1     -25.043  -1.825   7.639  1.00  0.00    -0.270 OA
ATOM     18  H2  UNL     1     -26.089   0.982   8.394  1.00  0.00     0.169 HD
BRANCH  16  19
HETATM   19  C3  UNL     1     -26.269  -0.375   6.467  1.00  0.00     0.343 C 
BRANCH  19  20
HETATM   20  C2  UNL     1     -26.109   1.044   6.113  1.00  0.00     0.162 C 
HETATM   21  C1  UNL     1     -27.189   1.795   5.446  1.00  0.00     0.093 C 
HETATM   22  O1  UNL     1     -25.070   1.620   6.372  1.00  0.00    -0.296 OA
ENDBRANCH  19  20
BRANCH  19  23
HETATM   23  N1  UNL     1     -27.608  -0.820   6.493  1.00  0.00    -0.060 N 
ATOM     24  H13 UNL     1     -27.668  -1.744   6.922  1.00  0.00     0.275 HD
ATOM     25  H12 UNL     1     -28.150  -0.279   7.167  1.00  0.00     0.275 HD
ATOM     26  H11 UNL     1     -28.068  -0.819   5.583  1.00  0.00     0.275 HD
ENDBRANCH  19  23
ENDBRANCH  16  19
ENDBRANCH   1  15
BRANCH  14  27
HETATM   27  O3  UNL     1     -23.217   1.600   8.914  1.00  0.00    -0.377 OA
ATOM     28  H3  UNL     1     -22.296   1.816   9.003  1.00  0.00     0.211 HD
ENDBRANCH  14  27
BRANCH  14  29
HETATM   29  C17 UNL     1     -22.857   0.233  10.793  1.00  0.00     0.289 C 
HETATM   30  N9  UNL     1     -21.974   0.697  11.806  1.00  0.00    -0.282 N 
HETATM   31  N10 UNL     1     -21.506   0.013  12.727  1.00  0.00    -0.232 N 
ATOM     32  H9  UNL     1     -21.701   1.679  11.770  1.00  0.00     0.184 HD
HETATM   33  N11 UNL     1     -21.866  -1.332  12.799  1.00  0.00    -0.013 NA
ATOM     34  H10 UNL     1     -20.874   0.423  13.415  1.00  0.00     0.205 HD
HETATM   35  N12 UNL     1     -23.198  -1.580  12.466  1.00  0.00    -0.088 NA
HETATM   36  C18 UNL     1     -23.526  -1.032  11.158  1.00  0.00     0.290 C 
BRANCH  29  37
HETATM   37  N8  UNL     1     -21.926  -0.129   9.672  1.00  0.00    -0.044 N 
ATOM     38  H83 UNL     1     -21.441   0.665   9.254  1.00  0.00     0.277 HD
ATOM     39  H82 UNL     1     -21.085  -0.625   9.966  1.00  0.00     0.277 HD
ATOM     40  H81 UNL     1     -22.518  -0.649   9.024  1.00  0.00     0.277 HD
ENDBRANCH  29  37
BRANCH  36  41
HETATM   41  O4  UNL     1     -23.205  -2.097  10.266  1.00  0.00    -0.374 OA
ATOM     42  H4  UNL     1     -22.706  -2.787  10.686  1.00  0.00     0.212 HD
ENDBRANCH  36  41
ENDBRANCH  14  29
BRANCH  13  43
HETATM   43  C12 UNL     1     -24.011   3.832  10.300  1.00  0.00     0.029 C 
BRANCH  43  44
HETATM   44  C13 UNL     1     -24.317   5.030  11.113  1.00  0.00     0.004 C 
BRANCH  44  45
HETATM   45  C14 UNL     1     -25.583   5.735  10.700  1.00  0.00     0.027 C 
BRANCH  45  46
HETATM   46  C15 UNL     1     -26.703   4.752  10.424  1.00  0.00     0.229 C 
BRANCH  46  47
HETATM   47  N7  UNL     1     -27.571   4.630  11.590  1.00  0.00    -0.079 N 
ATOM     48  H73 UNL     1     -27.528   3.697  12.000  1.00  0.00     0.274 HD
ATOM     49  H72 UNL     1     -27.215   5.161  12.385  1.00  0.00     0.274 HD
ATOM     50  H71 UNL     1     -28.526   4.897  11.352  1.00  0.00     0.274 HD
ENDBRANCH  46  47
ENDBRANCH  45  46
ENDBRANCH  44  45
ENDBRANCH  43  44
ENDBRANCH  13  43
TORSDOF 13
ENDMDL
MODEL 5
REMARK VINA RESULT: -5.821319721      2.849      6.014
REMARK  13 active torsions:
REMARK  status: ('A' for Active; 'I' for Inactive)
REMARK    1  A    between atoms: C2_2  and  C3_4 
REMARK    2  A    between atoms: C3_4  and  N1_5 
REMARK    3  A    between atoms: C3_4  and  C4_9 
REMARK       I    between atoms: C4_9  and  N2_11 
REMARK    4  A    between atoms: N2_11  and  C5_13 
REMARK    5  A    between atoms: C11_25  and  C12_26 
REMARK    6  A    between atoms: C12_26  and  C13_27 
REMARK    7  A    between atoms: C13_27  and  C14_28 
REMARK    8  A    between atoms: C14_28  and  C15_29 
REMARK    9  A    between atoms: C15_29  and  N7_30 
REMARK   10  A    between atoms: C16_34  and  O3_35 
REMARK   11  A    between atoms: C16_34  and  C17_37 
REMARK   12  A    between atoms: C17_37  and  N8_38 
REMARK   13  A    between atoms: C18_48  and  O4_49 
ROOT
HETATM    1  C5  UNL     1     -24.577   3.675   8.675  1.00  0.00     0.069 C 
HETATM    2  C6  UNL     1     -25.263   4.462   9.449  1.00  0.00     0.058 A 
HETATM    3  C7  UNL     1     -25.760   5.717   9.334  1.00  0.00     0.101 A 
HETATM    4  C8  UNL     1     -25.951   6.494   8.145  1.00  0.00     0.104 C 
HETATM    5  N3  UNL     1     -26.179   7.169   7.204  1.00  0.00    -0.191 NA
HETATM    6  C9  UNL     1     -26.250   6.176  10.582  1.00  0.00     0.139 A 
HETATM    7  N4  UNL     1     -26.817   7.448  10.777  1.00  0.00    -0.081 NA
HETATM    8  N5  UNL     1     -26.053   5.200  11.435  1.00  0.00    -0.329 N 
ATOM      9  H5  UNL     1     -26.308   5.230  12.422  1.00  0.00     0.168 HD
HETATM   10  C10 UNL     1     -25.458   4.139  10.814  1.00  0.00     0.117 A 
HETATM   11  N6  UNL     1     -25.015   3.103  11.403  1.00  0.00    -0.367 N 
ATOM     12  H6  UNL     1     -25.213   2.948  12.392  1.00  0.00     0.161 HD
HETATM   13  C11 UNL     1     -24.223   2.141  10.653  1.00  0.00     0.128 C 
HETATM   14  C16 UNL     1     -24.523   2.228   9.210  1.00  0.00     0.178 C 
ENDROOT
BRANCH   1  15
HETATM   15  N2  UNL     1     -24.057   3.867   7.417  1.00  0.00    -0.325 N 
HETATM   16  C4  UNL     1     -23.209   4.344   6.467  1.00  0.00     0.260 C 
HETATM   17  O2  UNL     1     -22.180   5.058   6.458  1.00  0.00    -0.270 OA
ATOM     18  H2  UNL     1     -24.700   3.315   6.850  1.00  0.00     0.169 HD
BRANCH  16  19
HETATM   19  C3  UNL     1     -23.453   3.999   4.962  1.00  0.00     0.343 C 
BRANCH  19  20
HETATM   20  C2  UNL     1     -24.764   3.350   4.802  1.00  0.00     0.162 C 
HETATM   21  C1  UNL     1     -25.953   4.115   4.382  1.00  0.00     0.093 C 
HETATM   22  O1  UNL     1     -24.881   2.159   5.017  1.00  0.00    -0.296 OA
ENDBRANCH  19  20
BRANCH  19  23
HETATM   23  N1  UNL     1     -22.377   3.282   4.398  1.00  0.00    -0.060 N 
ATOM     24  H13 UNL     1     -22.060   2.553   5.038  1.00  0.00     0.275 HD
ATOM     25  H12 UNL     1     -22.701   2.703   3.623  1.00  0.00     0.275 HD
ATOM     26  H11 UNL     1     -21.592   3.864   4.105  1.00  0.00     0.275 HD
ENDBRANCH  19  23
ENDBRANCH  16  19
ENDBRANCH   1  15
BRANCH  14  27
HETATM   27  O3  UNL     1     -23.487   1.524   8.558  1.00  0.00    -0.377 OA
ATOM     28  H3  UNL     1     -23.658   0.590   8.610  1.00  0.00     0.211 HD
ENDBRANCH  14  27
BRANCH  14  29
HETATM   29  C17 UNL     1     -25.812   1.477   8.908  1.00  0.00     0.289 C 
HETATM   30  N9  UNL     1     -26.227   0.568   9.920  1.00  0.00    -0.282 N 
HETATM   31  N10 UNL     1     -27.393   0.206  10.132  1.00  0.00    -0.232 N 
ATOM     32  H9  UNL     1     -25.502   0.181  10.523  1.00  0.00     0.184 HD
HETATM   33  N11 UNL     1     -28.403   0.723   9.322  1.00  0.00    -0.013 NA
ATOM     34  H10 UNL     1     -27.608  -0.454  10.879  1.00  0.00     0.205 HD
HETATM   35  N12 UNL     1     -28.230   2.068   8.991  1.00  0.00    -0.088 NA
HETATM   36  C18 UNL     1     -26.924   2.298   8.390  1.00  0.00     0.290 C 
BRANCH  29  37
HETATM   37  N8  UNL     1     -25.436   0.569   7.772  1.00  0.00    -0.044 N 
ATOM     38  H83 UNL     1     -24.520   0.759   7.366  1.00  0.00     0.277 HD
ATOM     39  H82 UNL     1     -25.234  -0.391   8.050  1.00  0.00     0.277 HD
ATOM     40  H81 UNL     1     -26.215   0.664   7.120  1.00  0.00     0.277 HD
ENDBRANCH  29  37
BRANCH  36  41
HETATM   41  O4  UNL     1     -27.160   2.085   6.999  1.00  0.00    -0.374 OA
ATOM     42  H4  UNL     1     -27.484   1.212   6.814  1.00  0.00     0.212 HD
ENDBRANCH  36  41
ENDBRANCH  14  29
BRANCH  13  43
HETATM   43  C12 UNL     1     -22.807   2.342  11.088  1.00  0.00     0.029 C 
BRANCH  43  44
HETATM   44  C13 UNL     1     -22.029   1.203  11.624  1.00  0.00     0.004 C 
BRANCH  44  45
HETATM   45  C14 UNL     1     -22.879   0.152  12.291  1.00  0.00     0.027 C 
BRANCH  45  46
HETATM   46  C15 UNL     1     -22.242  -0.350  13.572  1.00  0.00     0.229 C 
BRANCH  46  47
HETATM   47  N7  UNL     1     -20.869  -0.775  13.324  1.00  0.00    -0.079 N 
ATOM     48  H73 UNL     1     -20.728  -1.759  13.552  1.00  0.00     0.274 HD
ATOM     49  H72 UNL     1     -20.660  -0.819  12.326  1.00  0.00     0.274 HD
ATOM     50  H71 UNL     1     -20.216  -0.172  13.824  1.00  0.00     0.274 HD
ENDBRANCH  46  47
ENDBRANCH  45  46
ENDBRANCH  44  45
ENDBRANCH  43  44
ENDBRANCH  13  43
TORSDOF 13
ENDMDL
