MODEL 1
REMARK VINA RESULT: -6.583951013      0.000      0.000
REMARK  6 active torsions:
REMARK  status: ('A' for Active; 'I' for Inactive)
REMARK    1  A    between atoms: C2_2  and  C3_4 
REMARK       I    between atoms: N1_7  and  C6_8 
REMARK    2  A    between atoms: C6_8  and  C7_10 
REMARK    3  A    between atoms: C7_10  and  O2_11 
REMARK    4  A    between atoms: O2_11  and  C8_12 
REMARK    5  A    between atoms: C11_15  and  N2_16 
REMARK    6  A    between atoms: C15_23  and  C16_24 
ROOT
HETATM    1  C3  UNL     1      54.911  50.319  34.919  1.00  0.00     0.034 C 
HETATM    2  C4  UNL     1      54.101  50.839  36.094  1.00  0.00     0.030 C 
HETATM    3  C5  UNL     1      52.690  51.045  35.573  1.00  0.00     0.126 C 
HETATM    4  N1  UNL     1      52.223  49.989  34.727  1.00  0.00    -0.350 N 
HETATM    5  C6  UNL     1      50.867  49.591  34.817  1.00  0.00     0.243 C 
HETATM    6  O1  UNL     1      50.430  48.675  34.093  1.00  0.00    -0.271 OA
HETATM    7  C14 UNL     1      53.070  49.292  33.767  1.00  0.00     0.133 C 
HETATM    8  C15 UNL     1      54.366  48.984  34.563  1.00  0.00     0.041 C 
ENDROOT
BRANCH   5   9
HETATM    9  C7  UNL     1      49.944  50.265  35.783  1.00  0.00     0.271 C 
BRANCH   9  10
HETATM   10  O2  UNL     1      48.718  49.598  35.796  1.00  0.00    -0.377 OA
BRANCH  10  11
HETATM   11  C8  UNL     1      47.687  50.367  35.332  1.00  0.00     0.122 C 
HETATM   12  C9  UNL     1      46.477  50.377  36.215  1.00  0.00     0.034 C 
HETATM   13  C10 UNL     1      45.456  51.341  35.734  1.00  0.00     0.035 C 
HETATM   14  C11 UNL     1      45.190  51.323  34.276  1.00  0.00     0.183 C 
HETATM   15  C12 UNL     1      46.389  51.095  33.416  1.00  0.00     0.035 C 
HETATM   16  C13 UNL     1      47.217  49.927  33.942  1.00  0.00     0.034 C 
BRANCH  14  17
HETATM   17  N2  UNL     1      44.647  52.643  33.913  1.00  0.00    -0.075 N 
ATOM     18  H23 UNL     1      43.628  52.657  33.868  1.00  0.00     0.274 HD
ATOM     19  H22 UNL     1      44.755  53.336  34.653  1.00  0.00     0.274 HD
ATOM     20  H21 UNL     1      45.088  52.923  33.037  1.00  0.00     0.274 HD
ENDBRANCH  14  17
ENDBRANCH  10  11
ENDBRANCH   9  10
ENDBRANCH   5   9
BRANCH   8  21
HETATM   21  C16 UNL     1      53.911  48.120  35.694  1.00  0.00     0.229 C 
HETATM   22  F1  UNL     1      54.726  47.102  36.051  1.00  0.00    -0.255 F 
ENDBRANCH   8  21
BRANCH   1  23
HETATM   23  C2  UNL     1      56.350  50.461  35.048  1.00  0.00    -0.016 C 
HETATM   24  C1  UNL     1      56.878  51.673  35.223  1.00  0.00     0.027 C 
HETATM   25 BR1  UNL     1      57.621  49.035  35.003  1.00  0.00    -0.056 Br
ENDBRANCH   1  23
TORSDOF 6
ENDMDL
MODEL 2
REMARK VINA RESULT: -6.453783368      1.804      2.300
REMARK  6 active torsions:
REMARK  status: ('A' for Active; 'I' for Inactive)
REMARK    1  A    between atoms: C2_2  and  C3_4 
REMARK       I    between atoms: N1_7  and  C6_8 
REMARK    2  A    between atoms: C6_8  and  C7_10 
REMARK    3  A    between atoms: C7_10  and  O2_11 
REMARK    4  A    between atoms: O2_11  and  C8_12 
REMARK    5  A    between atoms: C11_15  and  N2_16 
REMARK    6  A    between atoms: C15_23  and  C16_24 
ROOT
HETATM    1  C3  UNL     1      55.662  49.874  35.271  1.00  0.00     0.034 C 
HETATM    2  C4  UNL     1      54.711  48.770  34.844  1.00  0.00     0.030 C 
HETATM    3  C5  UNL     1      53.389  49.066  35.527  1.00  0.00     0.126 C 
HETATM    4  N1  UNL     1      53.019  50.449  35.503  1.00  0.00    -0.350 N 
HETATM    5  C6  UNL     1      51.655  50.788  35.328  1.00  0.00     0.243 C 
HETATM    6  O1  UNL     1      51.301  51.982  35.303  1.00  0.00    -0.271 OA
HETATM    7  C14 UNL     1      53.974  51.541  35.650  1.00  0.00     0.133 C 
HETATM    8  C15 UNL     1      55.143  51.147  34.708  1.00  0.00     0.041 C 
ENDROOT
BRANCH   5   9
HETATM    9  C7  UNL     1      50.624  49.715  35.171  1.00  0.00     0.271 C 
BRANCH   9  10
HETATM   10  O2  UNL     1      49.902  49.587  36.358  1.00  0.00    -0.377 OA
BRANCH  10  11
HETATM   11  C8  UNL     1      48.670  50.177  36.300  1.00  0.00     0.122 C 
HETATM   12  C9  UNL     1      47.623  49.504  37.133  1.00  0.00     0.034 C 
HETATM   13  C10 UNL     1      46.354  50.274  37.144  1.00  0.00     0.035 C 
HETATM   14  C11 UNL     1      45.901  50.789  35.829  1.00  0.00     0.183 C 
HETATM   15  C12 UNL     1      46.990  51.260  34.924  1.00  0.00     0.035 C 
HETATM   16  C13 UNL     1      48.126  50.242  34.870  1.00  0.00     0.034 C 
BRANCH  14  17
HETATM   17  N2  UNL     1      45.029  51.947  36.089  1.00  0.00    -0.075 N 
ATOM     18  H23 UNL     1      44.181  51.701  36.600  1.00  0.00     0.274 HD
ATOM     19  H22 UNL     1      45.416  52.591  36.777  1.00  0.00     0.274 HD
ATOM     20  H21 UNL     1      44.837  52.390  35.190  1.00  0.00     0.274 HD
ENDBRANCH  14  17
ENDBRANCH  10  11
ENDBRANCH   9  10
ENDBRANCH   5   9
BRANCH   8  21
HETATM   21  C16 UNL     1      54.521  51.078  33.352  1.00  0.00     0.229 C 
HETATM   22  F1  UNL     1      55.354  50.878  32.306  1.00  0.00    -0.255 F 
ENDBRANCH   8  21
BRANCH   1  23
HETATM   23  C2  UNL     1      57.073  49.576  35.104  1.00  0.00    -0.016 C 
HETATM   24  C1  UNL     1      57.929  50.566  34.844  1.00  0.00     0.027 C 
HETATM   25 BR1  UNL     1      57.872  47.845  35.236  1.00  0.00    -0.056 Br
ENDBRANCH   1  23
TORSDOF 6
ENDMDL
MODEL 3
REMARK VINA RESULT: -6.293438949      6.560      8.900
REMARK  6 active torsions:
REMARK  status: ('A' for Active; 'I' for Inactive)
REMARK    1  A    between atoms: C2_2  and  C3_4 
REMARK       I    between atoms: N1_7  and  C6_8 
REMARK    2  A    between atoms: C6_8  and  C7_10 
REMARK    3  A    between atoms: C7_10  and  O2_11 
REMARK    4  A    between atoms: O2_11  and  C8_12 
REMARK    5  A    between atoms: C11_15  and  N2_16 
REMARK    6  A    between atoms: C15_23  and  C16_24 
ROOT
HETATM    1  C3  UNL     1      44.842  50.599  30.917  1.00  0.00     0.034 C 
HETATM    2  C4  UNL     1      45.193  49.251  31.523  1.00  0.00     0.030 C 
HETATM    3  C5  UNL     1      46.038  49.548  32.748  1.00  0.00     0.126 C 
HETATM    4  N1  UNL     1      45.555  50.641  33.536  1.00  0.00    -0.350 N 
HETATM    5  C6  UNL     1      45.650  50.559  34.947  1.00  0.00     0.243 C 
HETATM    6  O1  UNL     1      45.239  51.494  35.661  1.00  0.00    -0.271 OA
HETATM    7  C14 UNL     1      44.965  51.846  32.967  1.00  0.00     0.133 C 
HETATM    8  C15 UNL     1      43.979  51.311  31.894  1.00  0.00     0.041 C 
ENDROOT
BRANCH   5   9
HETATM    9  C7  UNL     1      46.244  49.349  35.597  1.00  0.00     0.271 C 
BRANCH   9  10
HETATM   10  O2  UNL     1      47.551  49.631  35.996  1.00  0.00    -0.377 OA
BRANCH  10  11
HETATM   11  C8  UNL     1      47.738  49.498  37.344  1.00  0.00     0.122 C 
HETATM   12  C9  UNL     1      46.745  48.603  38.020  1.00  0.00     0.034 C 
HETATM   13  C10 UNL     1      47.089  48.383  39.447  1.00  0.00     0.035 C 
HETATM   14  C11 UNL     1      47.490  49.592  40.206  1.00  0.00     0.183 C 
HETATM   15  C12 UNL     1      48.306  50.580  39.440  1.00  0.00     0.035 C 
HETATM   16  C13 UNL     1      47.687  50.845  38.071  1.00  0.00     0.034 C 
BRANCH  14  17
HETATM   17  N2  UNL     1      48.315  49.143  41.341  1.00  0.00    -0.075 N 
ATOM     18  H23 UNL     1      47.792  48.590  42.020  1.00  0.00     0.274 HD
ATOM     19  H22 UNL     1      48.993  48.428  41.082  1.00  0.00     0.274 HD
ATOM     20  H21 UNL     1      48.745  49.973  41.750  1.00  0.00     0.274 HD
ENDBRANCH  14  17
ENDBRANCH  10  11
ENDBRANCH   9  10
ENDBRANCH   5   9
BRANCH   8  21
HETATM   21  C16 UNL     1      43.007  50.479  32.664  1.00  0.00     0.229 C 
HETATM   22  F1  UNL     1      41.952  49.981  31.981  1.00  0.00    -0.255 F 
ENDBRANCH   8  21
BRANCH   1  23
HETATM   23  C2  UNL     1      44.421  50.564  29.528  1.00  0.00    -0.016 C 
HETATM   24  C1  UNL     1      43.601  49.596  29.114  1.00  0.00     0.027 C 
HETATM   25 BR1  UNL     1      44.927  51.814  28.175  1.00  0.00    -0.056 Br
ENDBRANCH   1  23
TORSDOF 6
ENDMDL
MODEL 4
REMARK VINA RESULT: -6.223154347      3.869      8.276
REMARK  6 active torsions:
REMARK  status: ('A' for Active; 'I' for Inactive)
REMARK    1  A    between atoms: C2_2  and  C3_4 
REMARK       I    between atoms: N1_7  and  C6_8 
REMARK    2  A    between atoms: C6_8  and  C7_10 
REMARK    3  A    between atoms: C7_10  and  O2_11 
REMARK    4  A    between atoms: O2_11  and  C8_12 
REMARK    5  A    between atoms: C11_15  and  N2_16 
REMARK    6  A    between atoms: C15_23  and  C16_24 
ROOT
HETATM    1  C3  UNL     1      46.382  50.280  33.836  1.00  0.00     0.034 C 
HETATM    2  C4  UNL     1      47.530  49.320  33.573  1.00  0.00     0.030 C 
HETATM    3  C5  UNL     1      48.791  50.044  34.008  1.00  0.00     0.126 C 
HETATM    4  N1  UNL     1      48.655  50.758  35.241  1.00  0.00    -0.350 N 
HETATM    5  C6  UNL     1      49.748  50.777  36.142  1.00  0.00     0.243 C 
HETATM    6  O1  UNL     1      49.661  51.390  37.224  1.00  0.00    -0.271 OA
HETATM    7  C14 UNL     1      47.445  51.473  35.630  1.00  0.00     0.133 C 
HETATM    8  C15 UNL     1      46.300  50.477  35.306  1.00  0.00     0.041 C 
ENDROOT
BRANCH   5   9
HETATM    9  C7  UNL     1      51.019  50.063  35.806  1.00  0.00     0.271 C 
BRANCH   9  10
HETATM   10  O2  UNL     1      52.097  50.738  36.378  1.00  0.00    -0.377 OA
BRANCH  10  11
HETATM   11  C8  UNL     1      53.302  50.155  36.097  1.00  0.00     0.122 C 
HETATM   12  C9  UNL     1      54.293  51.069  35.444  1.00  0.00     0.034 C 
HETATM   13  C10 UNL     1      55.621  50.423  35.301  1.00  0.00     0.035 C 
HETATM   14  C11 UNL     1      55.608  49.026  34.805  1.00  0.00     0.183 C 
HETATM   15  C12 UNL     1      54.478  48.187  35.305  1.00  0.00     0.035 C 
HETATM   16  C13 UNL     1      53.154  48.936  35.183  1.00  0.00     0.034 C 
BRANCH  14  17
HETATM   17  N2  UNL     1      56.853  48.386  35.264  1.00  0.00    -0.075 N 
ATOM     18  H23 UNL     1      57.594  49.056  35.466  1.00  0.00     0.274 HD
ATOM     19  H22 UNL     1      56.775  47.988  36.199  1.00  0.00     0.274 HD
ATOM     20  H21 UNL     1      57.118  47.699  34.558  1.00  0.00     0.274 HD
ENDBRANCH  14  17
ENDBRANCH  10  11
ENDBRANCH   9  10
ENDBRANCH   5   9
BRANCH   8  21
HETATM   21  C16 UNL     1      46.589  49.287  36.162  1.00  0.00     0.229 C 
HETATM   22  F1  UNL     1      46.186  49.348  37.450  1.00  0.00    -0.255 F 
ENDBRANCH   8  21
BRANCH   1  23
HETATM   23  C2  UNL     1      45.156  49.992  33.113  1.00  0.00    -0.016 C 
HETATM   24  C1  UNL     1      43.981  50.126  33.731  1.00  0.00     0.027 C 
HETATM   25 BR1  UNL     1      45.039  49.433  31.290  1.00  0.00    -0.056 Br
ENDBRANCH   1  23
TORSDOF 6
ENDMDL
MODEL 5
REMARK VINA RESULT: -6.189575037      5.257      6.411
REMARK  6 active torsions:
REMARK  status: ('A' for Active; 'I' for Inactive)
REMARK    1  A    between atoms: C2_2  and  C3_4 
REMARK       I    between atoms: N1_7  and  C6_8 
REMARK    2  A    between atoms: C6_8  and  C7_10 
REMARK    3  A    between atoms: C7_10  and  O2_11 
REMARK    4  A    between atoms: O2_11  and  C8_12 
REMARK    5  A    between atoms: C11_15  and  N2_16 
REMARK    6  A    between atoms: C15_23  and  C16_24 
ROOT
HETATM    1  C3  UNL     1      48.681  46.920  31.637  1.00  0.00     0.034 C 
HETATM    2  C4  UNL     1      48.969  47.962  32.703  1.00  0.00     0.030 C 
HETATM    3  C5  UNL     1      48.169  49.192  32.314  1.00  0.00     0.126 C 
HETATM    4  N1  UNL     1      46.842  48.904  31.863  1.00  0.00    -0.350 N 
HETATM    5  C6  UNL     1      45.792  49.785  32.221  1.00  0.00     0.243 C 
HETATM    6  O1  UNL     1      44.626  49.561  31.843  1.00  0.00    -0.271 OA
HETATM    7  C14 UNL     1      46.502  47.743  31.047  1.00  0.00     0.133 C 
HETATM    8  C15 UNL     1      47.242  46.568  31.740  1.00  0.00     0.041 C 
ENDROOT
BRANCH   5   9
HETATM    9  C7  UNL     1      46.071  50.993  33.057  1.00  0.00     0.271 C 
BRANCH   9  10
HETATM   10  O2  UNL     1      45.272  50.962  34.200  1.00  0.00    -0.377 OA
BRANCH  10  11
HETATM   11  C8  UNL     1      45.998  50.970  35.359  1.00  0.00     0.122 C 
HETATM   12  C9  UNL     1      47.353  51.596  35.236  1.00  0.00     0.034 C 
HETATM   13  C10 UNL     1      48.027  51.705  36.554  1.00  0.00     0.035 C 
HETATM   14  C11 UNL     1      47.947  50.505  37.420  1.00  0.00     0.183 C 
HETATM   15  C12 UNL     1      46.650  49.768  37.364  1.00  0.00     0.035 C 
HETATM   16  C13 UNL     1      46.210  49.559  35.917  1.00  0.00     0.034 C 
BRANCH  14  17
HETATM   17  N2  UNL     1      48.123  50.956  38.811  1.00  0.00    -0.075 N 
ATOM     18  H23 UNL     1      48.766  51.744  38.897  1.00  0.00     0.274 HD
ATOM     19  H22 UNL     1      47.297  51.418  39.188  1.00  0.00     0.274 HD
ATOM     20  H21 UNL     1      48.412  50.145  39.359  1.00  0.00     0.274 HD
ENDBRANCH  14  17
ENDBRANCH  10  11
ENDBRANCH   9  10
ENDBRANCH   5   9
BRANCH   8  21
HETATM   21  C16 UNL     1      46.658  46.521  33.115  1.00  0.00     0.229 C 
HETATM   22  F1  UNL     1      46.257  45.312  33.568  1.00  0.00    -0.255 F 
ENDBRANCH   8  21
BRANCH   1  23
HETATM   23  C2  UNL     1      49.646  45.839  31.550  1.00  0.00    -0.016 C 
HETATM   24  C1  UNL     1      49.256  44.642  31.109  1.00  0.00     0.027 C 
HETATM   25 BR1  UNL     1      51.498  45.955  32.007  1.00  0.00    -0.056 Br
ENDBRANCH   1  23
TORSDOF 6
ENDMDL
