MODEL 1
REMARK VINA RESULT: -7.593101865      0.000      0.000
REMARK  5 active torsions:
REMARK  status: ('A' for Active; 'I' for Inactive)
REMARK    1  A    between atoms: C3_3  and  C4_4 
REMARK       I    between atoms: C4_4  and  N1_6 
REMARK    2  A    between atoms: N1_6  and  C5_8 
REMARK    3  A    between atoms: N2_10  and  C7_11 
REMARK    4  A    between atoms: N3_22  and  C16_23 
REMARK    5  A    between atoms: C16_23  and  C17_24 
ROOT
HETATM    1  C1  UNL     1      47.023  49.235  29.734  1.00  0.00     0.013 C 
HETATM    2  C2  UNL     1      46.623  49.844  30.709  1.00  0.00    -0.097 C 
HETATM    3  C3  UNL     1      46.157  50.593  31.900  1.00  0.00     0.107 C 
HETATM    4  C13 UNL     1      46.445  52.047  31.781  1.00  0.00     0.034 C 
HETATM    5  C14 UNL     1      46.179  52.679  30.462  1.00  0.00     0.022 C 
HETATM    6  C15 UNL     1      44.684  53.058  30.483  1.00  0.00     0.127 C 
HETATM    7  N3  UNL     1      43.986  51.826  30.384  1.00  0.00    -0.373 N 
HETATM    8  C20 UNL     1      43.692  51.116  31.530  1.00  0.00     0.065 C 
HETATM    9  C21 UNL     1      44.709  50.241  32.154  1.00  0.00     0.077 C 
ENDROOT
BRANCH   3  10
HETATM   10  C4  UNL     1      46.917  50.100  33.082  1.00  0.00     0.239 C 
HETATM   11  O1  UNL     1      47.735  49.161  32.894  1.00  0.00    -0.272 OA
HETATM   12  N1  UNL     1      46.774  50.615  34.389  1.00  0.00    -0.352 N 
ATOM     13  H1  UNL     1      46.125  51.375  34.592  1.00  0.00     0.163 HD
BRANCH  12  14
HETATM   14  C5  UNL     1      47.583  50.025  35.424  1.00  0.00     0.141 C 
HETATM   15  C6  UNL     1      46.906  49.009  36.305  1.00  0.00     0.299 C 
HETATM   16  N2  UNL     1      47.695  49.581  37.408  1.00  0.00     0.097 N 
HETATM   17  C12 UNL     1      47.516  50.865  36.712  1.00  0.00     0.299 C 
BRANCH  16  18
HETATM   18  C7  UNL     1      47.028  49.493  38.670  1.00  0.00     0.229 C 
HETATM   19  C8  UNL     1      47.750  50.364  39.698  1.00  0.00     0.042 C 
HETATM   20  C9  UNL     1      47.885  49.542  40.945  1.00  0.00     0.081 C 
HETATM   21  C10 UNL     1      46.940  48.357  40.712  1.00  0.00     0.245 C 
HETATM   22  F1  UNL     1      45.674  48.825  40.977  1.00  0.00    -0.206 F 
HETATM   23  F2  UNL     1      47.353  47.336  41.513  1.00  0.00    -0.206 F 
HETATM   24  C11 UNL     1      47.131  48.097  39.232  1.00  0.00     0.114 C 
ENDBRANCH  16  18
ENDBRANCH  12  14
ENDBRANCH   3  10
BRANCH   7  25
HETATM   25  C16 UNL     1      43.780  51.310  29.093  1.00  0.00     0.067 C 
BRANCH  25  26
HETATM   26  C17 UNL     1      43.200  49.909  29.086  1.00  0.00     0.024 A 
HETATM   27  C18 UNL     1      42.317  49.617  27.866  1.00  0.00     0.010 A 
HETATM   28  C19 UNL     1      43.652  48.914  28.049  1.00  0.00     0.010 A 
ENDBRANCH  25  26
ENDBRANCH   7  25
TORSDOF 5
ENDMDL
MODEL 2
REMARK VINA RESULT: -7.314918751      1.136      2.389
REMARK  5 active torsions:
REMARK  status: ('A' for Active; 'I' for Inactive)
REMARK    1  A    between atoms: C3_3  and  C4_4 
REMARK       I    between atoms: C4_4  and  N1_6 
REMARK    2  A    between atoms: N1_6  and  C5_8 
REMARK    3  A    between atoms: N2_10  and  C7_11 
REMARK    4  A    between atoms: N3_22  and  C16_23 
REMARK    5  A    between atoms: C16_23  and  C17_24 
ROOT
HETATM    1  C1  UNL     1      45.823  53.158  31.935  1.00  0.00     0.013 C 
HETATM    2  C2  UNL     1      45.901  51.945  31.880  1.00  0.00    -0.097 C 
HETATM    3  C3  UNL     1      45.986  50.466  31.833  1.00  0.00     0.107 C 
HETATM    4  C13 UNL     1      44.644  49.836  31.948  1.00  0.00     0.034 C 
HETATM    5  C14 UNL     1      43.541  50.456  31.168  1.00  0.00     0.022 C 
HETATM    6  C15 UNL     1      43.627  49.826  29.763  1.00  0.00     0.127 C 
HETATM    7  N3  UNL     1      44.785  50.394  29.171  1.00  0.00    -0.373 N 
HETATM    8  C20 UNL     1      46.014  49.803  29.373  1.00  0.00     0.065 C 
HETATM    9  C21 UNL     1      46.782  50.067  30.610  1.00  0.00     0.077 C 
ENDROOT
BRANCH   3  10
HETATM   10  C4  UNL     1      46.777  50.011  33.008  1.00  0.00     0.239 C 
HETATM   11  O1  UNL     1      47.617  49.092  32.820  1.00  0.00    -0.272 OA
HETATM   12  N1  UNL     1      46.642  50.540  34.311  1.00  0.00    -0.352 N 
ATOM     13  H1  UNL     1      45.975  51.284  34.515  1.00  0.00     0.163 HD
BRANCH  12  14
HETATM   14  C5  UNL     1      47.484  49.986  35.340  1.00  0.00     0.141 C 
HETATM   15  C6  UNL     1      46.847  48.971  36.251  1.00  0.00     0.299 C 
HETATM   16  N2  UNL     1      47.643  49.579  37.329  1.00  0.00     0.097 N 
HETATM   17  C12 UNL     1      47.422  50.847  36.614  1.00  0.00     0.299 C 
BRANCH  16  18
HETATM   18  C7  UNL     1      47.002  49.498  38.605  1.00  0.00     0.229 C 
HETATM   19  C8  UNL     1      47.739  50.384  39.610  1.00  0.00     0.042 C 
HETATM   20  C9  UNL     1      47.905  49.575  40.861  1.00  0.00     0.081 C 
HETATM   21  C10 UNL     1      46.964  48.381  40.659  1.00  0.00     0.245 C 
HETATM   22  F1  UNL     1      45.700  48.842  40.944  1.00  0.00    -0.206 F 
HETATM   23  F2  UNL     1      47.400  47.370  41.460  1.00  0.00    -0.206 F 
HETATM   24  C11 UNL     1      47.127  48.109  39.177  1.00  0.00     0.114 C 
ENDBRANCH  16  18
ENDBRANCH  12  14
ENDBRANCH   3  10
BRANCH   7  25
HETATM   25  C16 UNL     1      44.633  51.642  28.542  1.00  0.00     0.067 C 
BRANCH  25  26
HETATM   26  C17 UNL     1      45.942  52.243  28.064  1.00  0.00     0.024 A 
HETATM   27  C18 UNL     1      45.776  53.224  26.896  1.00  0.00     0.010 A 
HETATM   28  C19 UNL     1      46.213  53.711  28.268  1.00  0.00     0.010 A 
ENDBRANCH  25  26
ENDBRANCH   7  25
TORSDOF 5
ENDMDL
MODEL 3
REMARK VINA RESULT: -7.258210453      0.987      2.006
REMARK  5 active torsions:
REMARK  status: ('A' for Active; 'I' for Inactive)
REMARK    1  A    between atoms: C3_3  and  C4_4 
REMARK       I    between atoms: C4_4  and  N1_6 
REMARK    2  A    between atoms: N1_6  and  C5_8 
REMARK    3  A    between atoms: N2_10  and  C7_11 
REMARK    4  A    between atoms: N3_22  and  C16_23 
REMARK    5  A    between atoms: C16_23  and  C17_24 
ROOT
HETATM    1  C1  UNL     1      43.392  50.017  32.496  1.00  0.00     0.013 C 
HETATM    2  C2  UNL     1      44.558  49.976  32.147  1.00  0.00    -0.097 C 
HETATM    3  C3  UNL     1      45.978  49.906  31.731  1.00  0.00     0.107 C 
HETATM    4  C13 UNL     1      46.227  48.756  30.821  1.00  0.00     0.034 C 
HETATM    5  C14 UNL     1      45.217  48.509  29.758  1.00  0.00     0.022 C 
HETATM    6  C15 UNL     1      45.627  49.423  28.585  1.00  0.00     0.127 C 
HETATM    7  N3  UNL     1      45.313  50.740  29.011  1.00  0.00    -0.373 N 
HETATM    8  C20 UNL     1      46.243  51.462  29.731  1.00  0.00     0.065 C 
HETATM    9  C21 UNL     1      46.389  51.257  31.189  1.00  0.00     0.077 C 
ENDROOT
BRANCH   3  10
HETATM   10  C4  UNL     1      46.806  49.679  32.947  1.00  0.00     0.239 C 
HETATM   11  O1  UNL     1      47.816  48.937  32.830  1.00  0.00    -0.272 OA
HETATM   12  N1  UNL     1      46.527  50.239  34.214  1.00  0.00    -0.352 N 
ATOM     13  H1  UNL     1      45.721  50.846  34.360  1.00  0.00     0.163 HD
BRANCH  12  14
HETATM   14  C5  UNL     1      47.429  49.918  35.291  1.00  0.00     0.141 C 
HETATM   15  C6  UNL     1      46.970  48.856  36.253  1.00  0.00     0.299 C 
HETATM   16  N2  UNL     1      47.604  49.668  37.304  1.00  0.00     0.097 N 
HETATM   17  C12 UNL     1      47.167  50.825  36.506  1.00  0.00     0.299 C 
BRANCH  16  18
HETATM   18  C7  UNL     1      46.953  49.541  38.571  1.00  0.00     0.229 C 
HETATM   19  C8  UNL     1      47.676  50.398  39.610  1.00  0.00     0.042 C 
HETATM   20  C9  UNL     1      47.837  49.549  40.836  1.00  0.00     0.081 C 
HETATM   21  C10 UNL     1      46.905  48.357  40.587  1.00  0.00     0.245 C 
HETATM   22  F1  UNL     1      45.636  48.801  40.877  1.00  0.00    -0.206 F 
HETATM   23  F2  UNL     1      47.341  47.323  41.358  1.00  0.00    -0.206 F 
HETATM   24  C11 UNL     1      47.081  48.135  39.099  1.00  0.00     0.114 C 
ENDBRANCH  16  18
ENDBRANCH  12  14
ENDBRANCH   3  10
BRANCH   7  25
HETATM   25  C16 UNL     1      43.992  51.177  28.818  1.00  0.00     0.067 C 
BRANCH  25  26
HETATM   26  C17 UNL     1      43.345  50.618  27.565  1.00  0.00     0.024 A 
HETATM   27  C18 UNL     1      42.060  49.827  27.838  1.00  0.00     0.010 A 
HETATM   28  C19 UNL     1      42.017  51.156  27.102  1.00  0.00     0.010 A 
ENDBRANCH  25  26
ENDBRANCH   7  25
TORSDOF 5
ENDMDL
MODEL 4
REMARK VINA RESULT: -7.041010421      5.836      9.248
REMARK  5 active torsions:
REMARK  status: ('A' for Active; 'I' for Inactive)
REMARK    1  A    between atoms: C3_3  and  C4_4 
REMARK       I    between atoms: C4_4  and  N1_6 
REMARK    2  A    between atoms: N1_6  and  C5_8 
REMARK    3  A    between atoms: N2_10  and  C7_11 
REMARK    4  A    between atoms: N3_22  and  C16_23 
REMARK    5  A    between atoms: C16_23  and  C17_24 
ROOT
HETATM    1  C1  UNL     1      53.096  51.540  33.168  1.00  0.00     0.013 C 
HETATM    2  C2  UNL     1      52.692  50.555  33.759  1.00  0.00    -0.097 C 
HETATM    3  C3  UNL     1      52.185  49.354  34.462  1.00  0.00     0.107 C 
HETATM    4  C13 UNL     1      52.240  48.147  33.596  1.00  0.00     0.034 C 
HETATM    5  C14 UNL     1      53.469  47.961  32.780  1.00  0.00     0.022 C 
HETATM    6  C15 UNL     1      54.471  47.243  33.707  1.00  0.00     0.127 C 
HETATM    7  N3  UNL     1      54.871  48.223  34.652  1.00  0.00    -0.373 N 
HETATM    8  C20 UNL     1      54.131  48.402  35.802  1.00  0.00     0.065 C 
HETATM    9  C21 UNL     1      52.906  49.230  35.786  1.00  0.00     0.077 C 
ENDROOT
BRANCH   3  10
HETATM   10  C4  UNL     1      50.751  49.582  34.792  1.00  0.00     0.239 C 
HETATM   11  O1  UNL     1      50.376  49.314  35.964  1.00  0.00    -0.272 OA
HETATM   12  N1  UNL     1      49.794  50.073  33.876  1.00  0.00    -0.352 N 
ATOM     13  H1  UNL     1      50.047  50.304  32.916  1.00  0.00     0.163 HD
BRANCH  12  14
HETATM   14  C5  UNL     1      48.445  50.235  34.354  1.00  0.00     0.141 C 
HETATM   15  C6  UNL     1      47.426  49.264  33.822  1.00  0.00     0.299 C 
HETATM   16  N2  UNL     1      46.489  50.399  33.812  1.00  0.00     0.097 N 
HETATM   17  C12 UNL     1      47.664  51.211  33.456  1.00  0.00     0.299 C 
BRANCH  16  18
HETATM   18  C7  UNL     1      45.504  50.296  32.780  1.00  0.00     0.229 C 
HETATM   19  C8  UNL     1      45.184  51.687  32.232  1.00  0.00     0.042 C 
HETATM   20  C9  UNL     1      43.690  51.783  32.140  1.00  0.00     0.081 C 
HETATM   21  C10 UNL     1      43.214  50.335  32.311  1.00  0.00     0.245 C 
HETATM   22  F1  UNL     1      43.401  49.728  31.091  1.00  0.00    -0.206 F 
HETATM   23  F2  UNL     1      41.922  50.373  32.740  1.00  0.00    -0.206 F 
HETATM   24  C11 UNL     1      44.192  49.809  33.341  1.00  0.00     0.114 C 
ENDBRANCH  16  18
ENDBRANCH  12  14
ENDBRANCH   3  10
BRANCH   7  25
HETATM   25  C16 UNL     1      55.918  49.083  34.277  1.00  0.00     0.067 C 
BRANCH  25  26
HETATM   26  C17 UNL     1      56.379  50.000  35.394  1.00  0.00     0.024 A 
HETATM   27  C18 UNL     1      57.523  50.936  34.986  1.00  0.00     0.010 A 
HETATM   28  C19 UNL     1      56.139  51.483  35.296  1.00  0.00     0.010 A 
ENDBRANCH  25  26
ENDBRANCH   7  25
TORSDOF 5
ENDMDL
MODEL 5
REMARK VINA RESULT: -6.913467174      5.963      7.266
REMARK  5 active torsions:
REMARK  status: ('A' for Active; 'I' for Inactive)
REMARK    1  A    between atoms: C3_3  and  C4_4 
REMARK       I    between atoms: C4_4  and  N1_6 
REMARK    2  A    between atoms: N1_6  and  C5_8 
REMARK    3  A    between atoms: N2_10  and  C7_11 
REMARK    4  A    between atoms: N3_22  and  C16_23 
REMARK    5  A    between atoms: C16_23  and  C17_24 
ROOT
HETATM    1  C1  UNL     1      46.581  49.298  36.976  1.00  0.00     0.013 C 
HETATM    2  C2  UNL     1      47.348  49.706  36.123  1.00  0.00    -0.097 C 
HETATM    3  C3  UNL     1      48.293  50.185  35.088  1.00  0.00     0.107 C 
HETATM    4  C13 UNL     1      48.410  49.219  33.963  1.00  0.00     0.034 C 
HETATM    5  C14 UNL     1      47.150  48.606  33.469  1.00  0.00     0.022 C 
HETATM    6  C15 UNL     1      46.582  49.607  32.443  1.00  0.00     0.127 C 
HETATM    7  N3  UNL     1      46.113  50.704  33.213  1.00  0.00    -0.373 N 
HETATM    8  C20 UNL     1      46.980  51.726  33.540  1.00  0.00     0.065 C 
HETATM    9  C21 UNL     1      47.901  51.591  34.690  1.00  0.00     0.077 C 
ENDROOT
BRANCH   3  10
HETATM   10  C4  UNL     1      49.642  50.291  35.707  1.00  0.00     0.239 C 
HETATM   11  O1  UNL     1      49.723  50.862  36.826  1.00  0.00    -0.272 OA
HETATM   12  N1  UNL     1      50.827  49.796  35.119  1.00  0.00    -0.352 N 
ATOM     13  H1  UNL     1      50.815  49.326  34.214  1.00  0.00     0.163 HD
BRANCH  12  14
HETATM   14  C5  UNL     1      52.055  49.981  35.850  1.00  0.00     0.141 C 
HETATM   15  C6  UNL     1      52.998  51.026  35.318  1.00  0.00     0.299 C 
HETATM   16  N2  UNL     1      54.082  50.108  35.705  1.00  0.00     0.097 N 
HETATM   17  C12 UNL     1      53.149  49.037  35.321  1.00  0.00     0.299 C 
BRANCH  16  18
HETATM   18  C7  UNL     1      55.232  50.224  34.863  1.00  0.00     0.229 C 
HETATM   19  C8  UNL     1      56.099  48.971  34.999  1.00  0.00     0.042 C 
HETATM   20  C9  UNL     1      57.515  49.437  35.151  1.00  0.00     0.081 C 
HETATM   21  C10 UNL     1      57.463  50.918  34.756  1.00  0.00     0.245 C 
HETATM   22  F1  UNL     1      57.442  50.943  33.381  1.00  0.00    -0.206 F 
HETATM   23  F2  UNL     1      58.534  51.536  35.325  1.00  0.00    -0.206 F 
HETATM   24  C11 UNL     1      56.127  51.343  35.331  1.00  0.00     0.114 C 
ENDBRANCH  16  18
ENDBRANCH  12  14
ENDBRANCH   3  10
BRANCH   7  25
HETATM   25  C16 UNL     1      44.818  50.602  33.748  1.00  0.00     0.067 C 
BRANCH  25  26
HETATM   26  C17 UNL     1      43.860  49.816  32.873  1.00  0.00     0.024 A 
HETATM   27  C18 UNL     1      42.477  50.466  32.740  1.00  0.00     0.010 A 
HETATM   28  C19 UNL     1      43.417  50.381  31.549  1.00  0.00     0.010 A 
ENDBRANCH  25  26
ENDBRANCH   7  25
TORSDOF 5
ENDMDL
