MODEL 1
REMARK VINA RESULT: -7.181963403      0.000      0.000
REMARK  6 active torsions:
REMARK  status: ('A' for Active; 'I' for Inactive)
REMARK    1  A    between atoms: C2_2  and  C3_3 
REMARK    2  A    between atoms: C11_13  and  C13_15 
REMARK       I    between atoms: C13_15  and  N2_17 
REMARK    3  A    between atoms: N2_17  and  S1_19 
REMARK    4  A    between atoms: S1_19  and  N3_22 
REMARK    5  A    between atoms: N3_22  and  C15_24 
REMARK    6  A    between atoms: C15_24  and  C16_25 
ROOT
HETATM    1  C3  UNL     1      45.813  48.860  30.782  1.00  0.00     0.009 C 
HETATM    2  N1  UNL     1      46.190  47.937  31.595  1.00  0.00    -0.388 N 
ATOM      3  H1  UNL     1      45.968  46.948  31.475  1.00  0.00     0.159 HD
HETATM    4  C4  UNL     1      46.957  48.457  32.691  1.00  0.00     0.083 C 
HETATM    5  C5  UNL     1      48.429  48.137  32.370  1.00  0.00     0.032 C 
HETATM    6  C6  UNL     1      46.819  49.938  32.601  1.00  0.00     0.035 C 
HETATM    7  C7  UNL     1      46.277  50.168  31.232  1.00  0.00     0.043 C 
HETATM    8  C8  UNL     1      45.199  51.213  31.374  1.00  0.00     0.016 C 
HETATM    9  C9  UNL     1      45.315  51.748  32.786  1.00  0.00    -0.000 C 
HETATM   10  C10 UNL     1      46.199  52.932  32.763  1.00  0.00     0.011 C 
HETATM   11  C11 UNL     1      45.809  50.557  33.518  1.00  0.00     0.048 C 
HETATM   12  C12 UNL     1      44.578  49.619  33.643  1.00  0.00     0.026 C 
ENDROOT
BRANCH  11  13
HETATM   13  C13 UNL     1      46.277  50.759  34.879  1.00  0.00     0.241 C 
HETATM   14  O1  UNL     1      45.382  51.134  35.729  1.00  0.00    -0.272 OA
HETATM   15  N2  UNL     1      47.560  50.612  35.407  1.00  0.00    -0.237 N 
ATOM     16  H2  UNL     1      48.299  50.312  34.770  1.00  0.00     0.183 HD
BRANCH  15  17
HETATM   17  S1  UNL     1      47.996  50.897  37.055  1.00  0.00     0.323 S 
HETATM   18  O2  UNL     1      47.617  52.347  37.346  1.00  0.00    -0.182 OA
HETATM   19  O3  UNL     1      49.519  50.852  37.128  1.00  0.00    -0.182 OA
BRANCH  17  20
HETATM   20  N3  UNL     1      47.262  49.842  38.155  1.00  0.00    -0.293 N 
HETATM   21  C14 UNL     1      46.870  48.567  37.695  1.00  0.00     0.164 C 
BRANCH  20  22
HETATM   22  C15 UNL     1      47.577  50.002  39.523  1.00  0.00     0.207 C 
BRANCH  22  23
HETATM   23  C16 UNL     1      47.386  48.773  40.385  1.00  0.00     0.371 C 
HETATM   24  F1  UNL     1      48.363  48.630  41.338  1.00  0.00    -0.213 F 
HETATM   25  F2  UNL     1      46.158  48.852  41.025  1.00  0.00    -0.213 F 
ENDBRANCH  22  23
ENDBRANCH  20  22
ENDBRANCH  17  20
ENDBRANCH  15  17
ENDBRANCH  11  13
BRANCH   1  26
HETATM   26  C2  UNL     1      45.010  48.527  29.581  1.00  0.00     0.015 C 
HETATM   27  C1  UNL     1      45.546  48.047  28.489  1.00  0.00     0.013 C 
ENDBRANCH   1  26
TORSDOF 6
ENDMDL
MODEL 2
REMARK VINA RESULT: -7.134463616      1.117      2.404
REMARK  6 active torsions:
REMARK  status: ('A' for Active; 'I' for Inactive)
REMARK    1  A    between atoms: C2_2  and  C3_3 
REMARK    2  A    between atoms: C11_13  and  C13_15 
REMARK       I    between atoms: C13_15  and  N2_17 
REMARK    3  A    between atoms: N2_17  and  S1_19 
REMARK    4  A    between atoms: S1_19  and  N3_22 
REMARK    5  A    between atoms: N3_22  and  C15_24 
REMARK    6  A    between atoms: C15_24  and  C16_25 
ROOT
HETATM    1  C3  UNL     1      45.466  49.777  30.462  1.00  0.00     0.009 C 
HETATM    2  N1  UNL     1      45.481  51.016  30.810  1.00  0.00    -0.388 N 
ATOM      3  H1  UNL     1      45.629  51.787  30.159  1.00  0.00     0.159 HD
HETATM    4  C4  UNL     1      45.267  51.188  32.218  1.00  0.00     0.083 C 
HETATM    5  C5  UNL     1      43.802  51.638  32.374  1.00  0.00     0.032 C 
HETATM    6  C6  UNL     1      45.350  49.819  32.800  1.00  0.00     0.035 C 
HETATM    7  C7  UNL     1      45.243  48.917  31.619  1.00  0.00     0.043 C 
HETATM    8  C8  UNL     1      46.275  47.835  31.818  1.00  0.00     0.016 C 
HETATM    9  C9  UNL     1      46.784  47.994  33.234  1.00  0.00    -0.000 C 
HETATM   10  C10 UNL     1      45.977  47.127  34.119  1.00  0.00     0.011 C 
HETATM   11  C11 UNL     1      46.658  49.458  33.435  1.00  0.00     0.048 C 
HETATM   12  C12 UNL     1      47.822  50.080  32.617  1.00  0.00     0.026 C 
ENDROOT
BRANCH  11  13
HETATM   13  C13 UNL     1      46.829  49.962  34.788  1.00  0.00     0.241 C 
HETATM   14  O1  UNL     1      45.753  50.358  35.378  1.00  0.00    -0.272 OA
HETATM   15  N2  UNL     1      47.993  50.084  35.548  1.00  0.00    -0.237 N 
ATOM     16  H2  UNL     1      48.867  49.778  35.122  1.00  0.00     0.183 HD
BRANCH  15  17
HETATM   17  S1  UNL     1      48.069  50.715  37.156  1.00  0.00     0.323 S 
HETATM   18  O2  UNL     1      47.426  52.099  37.096  1.00  0.00    -0.182 OA
HETATM   19  O3  UNL     1      49.541  50.964  37.469  1.00  0.00    -0.182 OA
BRANCH  17  20
HETATM   20  N3  UNL     1      47.313  49.743  38.315  1.00  0.00    -0.293 N 
HETATM   21  C14 UNL     1      46.855  48.468  37.919  1.00  0.00     0.164 C 
BRANCH  20  22
HETATM   22  C15 UNL     1      47.664  49.946  39.668  1.00  0.00     0.207 C 
BRANCH  22  23
HETATM   23  C16 UNL     1      47.455  48.758  40.583  1.00  0.00     0.371 C 
HETATM   24  F1  UNL     1      48.439  48.632  41.531  1.00  0.00    -0.213 F 
HETATM   25  F2  UNL     1      46.236  48.894  41.231  1.00  0.00    -0.213 F 
ENDBRANCH  22  23
ENDBRANCH  20  22
ENDBRANCH  17  20
ENDBRANCH  15  17
ENDBRANCH  11  13
BRANCH   1  26
HETATM   26  C2  UNL     1      45.667  49.388  29.046  1.00  0.00     0.015 C 
HETATM   27  C1  UNL     1      44.856  48.575  28.420  1.00  0.00     0.013 C 
ENDBRANCH   1  26
TORSDOF 6
ENDMDL
MODEL 3
REMARK VINA RESULT: -7.030771160      4.045      7.130
REMARK  6 active torsions:
REMARK  status: ('A' for Active; 'I' for Inactive)
REMARK    1  A    between atoms: C2_2  and  C3_3 
REMARK    2  A    between atoms: C11_13  and  C13_15 
REMARK       I    between atoms: C13_15  and  N2_17 
REMARK    3  A    between atoms: N2_17  and  S1_19 
REMARK    4  A    between atoms: S1_19  and  N3_22 
REMARK    5  A    between atoms: N3_22  and  C15_24 
REMARK    6  A    between atoms: C15_24  and  C16_25 
ROOT
HETATM    1  C3  UNL     1      47.394  49.834  37.803  1.00  0.00     0.009 C 
HETATM    2  N1  UNL     1      47.559  51.109  37.829  1.00  0.00    -0.388 N 
ATOM      3  H1  UNL     1      47.526  51.669  38.681  1.00  0.00     0.159 HD
HETATM    4  C4  UNL     1      47.795  51.655  36.523  1.00  0.00     0.083 C 
HETATM    5  C5  UNL     1      49.310  51.922  36.441  1.00  0.00     0.032 C 
HETATM    6  C6  UNL     1      47.513  50.541  35.574  1.00  0.00     0.035 C 
HETATM    7  C7  UNL     1      47.489  49.327  36.437  1.00  0.00     0.043 C 
HETATM    8  C8  UNL     1      46.311  48.505  35.979  1.00  0.00     0.016 C 
HETATM    9  C9  UNL     1      45.829  49.141  34.693  1.00  0.00    -0.000 C 
HETATM   10  C10 UNL     1      46.501  48.467  33.561  1.00  0.00     0.011 C 
HETATM   11  C11 UNL     1      46.166  50.567  34.919  1.00  0.00     0.048 C 
HETATM   12  C12 UNL     1      45.106  51.078  35.932  1.00  0.00     0.026 C 
ENDROOT
BRANCH  11  13
HETATM   13  C13 UNL     1      46.069  51.463  33.778  1.00  0.00     0.241 C 
HETATM   14  O1  UNL     1      44.974  52.137  33.687  1.00  0.00    -0.272 OA
HETATM   15  N2  UNL     1      46.989  51.701  32.757  1.00  0.00    -0.237 N 
ATOM     16  H2  UNL     1      47.873  51.192  32.792  1.00  0.00     0.183 HD
BRANCH  15  17
HETATM   17  S1  UNL     1      46.751  52.791  31.437  1.00  0.00     0.323 S 
HETATM   18  O2  UNL     1      48.141  53.093  30.883  1.00  0.00    -0.182 OA
HETATM   19  O3  UNL     1      46.255  54.107  32.028  1.00  0.00    -0.182 OA
BRANCH  17  20
HETATM   20  N3  UNL     1      45.729  52.197  30.228  1.00  0.00    -0.293 N 
HETATM   21  C14 UNL     1      45.714  52.860  28.983  1.00  0.00     0.164 C 
BRANCH  20  22
HETATM   22  C15 UNL     1      45.398  50.824  30.268  1.00  0.00     0.207 C 
BRANCH  22  23
HETATM   23  C16 UNL     1      43.967  50.507  30.645  1.00  0.00     0.371 C 
HETATM   24  F1  UNL     1      43.313  49.767  29.692  1.00  0.00    -0.213 F 
HETATM   25  F2  UNL     1      43.956  49.796  31.835  1.00  0.00    -0.213 F 
ENDBRANCH  22  23
ENDBRANCH  20  22
ENDBRANCH  17  20
ENDBRANCH  15  17
ENDBRANCH  11  13
BRANCH   1  26
HETATM   26  C2  UNL     1      47.141  49.079  39.053  1.00  0.00     0.015 C 
HETATM   27  C1  UNL     1      47.365  49.586  40.237  1.00  0.00     0.013 C 
ENDBRANCH   1  26
TORSDOF 6
ENDMDL
MODEL 4
REMARK VINA RESULT: -6.923572041      5.071      6.799
REMARK  6 active torsions:
REMARK  status: ('A' for Active; 'I' for Inactive)
REMARK    1  A    between atoms: C2_2  and  C3_3 
REMARK    2  A    between atoms: C11_13  and  C13_15 
REMARK       I    between atoms: C13_15  and  N2_17 
REMARK    3  A    between atoms: N2_17  and  S1_19 
REMARK    4  A    between atoms: S1_19  and  N3_22 
REMARK    5  A    between atoms: N3_22  and  C15_24 
REMARK    6  A    between atoms: C15_24  and  C16_25 
ROOT
HETATM    1  C3  UNL     1      55.299  50.135  34.483  1.00  0.00     0.009 C 
HETATM    2  N1  UNL     1      55.319  50.678  35.650  1.00  0.00    -0.388 N 
ATOM      3  H1  UNL     1      56.049  50.510  36.343  1.00  0.00     0.159 HD
HETATM    4  C4  UNL     1      54.196  51.545  35.865  1.00  0.00     0.083 C 
HETATM    5  C5  UNL     1      54.728  52.981  35.693  1.00  0.00     0.032 C 
HETATM    6  C6  UNL     1      53.280  51.297  34.716  1.00  0.00     0.035 C 
HETATM    7  C7  UNL     1      54.124  50.564  33.732  1.00  0.00     0.043 C 
HETATM    8  C8  UNL     1      53.270  49.445  33.191  1.00  0.00     0.016 C 
HETATM    9  C9  UNL     1      51.866  49.710  33.690  1.00  0.00    -0.000 C 
HETATM   10  C10 UNL     1      51.150  50.501  32.666  1.00  0.00     0.011 C 
HETATM   11  C11 UNL     1      52.129  50.377  34.988  1.00  0.00     0.048 C 
HETATM   12  C12 UNL     1      52.586  49.240  35.941  1.00  0.00     0.026 C 
ENDROOT
BRANCH  11  13
HETATM   13  C13 UNL     1      51.000  51.005  35.654  1.00  0.00     0.241 C 
HETATM   14  O1  UNL     1      50.930  52.289  35.546  1.00  0.00    -0.272 OA
HETATM   15  N2  UNL     1      49.976  50.424  36.402  1.00  0.00    -0.237 N 
ATOM     16  H2  UNL     1      49.990  49.410  36.509  1.00  0.00     0.183 HD
BRANCH  15  17
HETATM   17  S1  UNL     1      48.686  51.288  37.162  1.00  0.00     0.323 S 
HETATM   18  O2  UNL     1      48.522  52.583  36.369  1.00  0.00    -0.182 OA
HETATM   19  O3  UNL     1      49.184  51.715  38.539  1.00  0.00    -0.182 OA
BRANCH  17  20
HETATM   20  N3  UNL     1      47.230  50.429  37.235  1.00  0.00    -0.293 N 
HETATM   21  C14 UNL     1      46.249  50.698  36.257  1.00  0.00     0.164 C 
BRANCH  20  22
HETATM   22  C15 UNL     1      47.254  49.153  37.838  1.00  0.00     0.207 C 
BRANCH  22  23
HETATM   23  C16 UNL     1      46.579  49.056  39.190  1.00  0.00     0.371 C 
HETATM   24  F1  UNL     1      46.453  47.764  39.635  1.00  0.00    -0.213 F 
HETATM   25  F2  UNL     1      47.320  49.769  40.120  1.00  0.00    -0.213 F 
ENDBRANCH  22  23
ENDBRANCH  20  22
ENDBRANCH  17  20
ENDBRANCH  15  17
ENDBRANCH  11  13
BRANCH   1  26
HETATM   26  C2  UNL     1      56.375  49.205  34.065  1.00  0.00     0.015 C 
HETATM   27  C1  UNL     1      57.213  48.672  34.916  1.00  0.00     0.013 C 
ENDBRANCH   1  26
TORSDOF 6
ENDMDL
MODEL 5
REMARK VINA RESULT: -6.848327422      1.680      2.764
REMARK  6 active torsions:
REMARK  status: ('A' for Active; 'I' for Inactive)
REMARK    1  A    between atoms: C2_2  and  C3_3 
REMARK    2  A    between atoms: C11_13  and  C13_15 
REMARK       I    between atoms: C13_15  and  N2_17 
REMARK    3  A    between atoms: N2_17  and  S1_19 
REMARK    4  A    between atoms: S1_19  and  N3_22 
REMARK    5  A    between atoms: N3_22  and  C15_24 
REMARK    6  A    between atoms: C15_24  and  C16_25 
ROOT
HETATM    1  C3  UNL     1      44.336  50.218  30.583  1.00  0.00     0.009 C 
HETATM    2  N1  UNL     1      43.996  51.026  31.524  1.00  0.00    -0.388 N 
ATOM      3  H1  UNL     1      43.543  51.927  31.365  1.00  0.00     0.159 HD
HETATM    4  C4  UNL     1      44.328  50.518  32.824  1.00  0.00     0.083 C 
HETATM    5  C5  UNL     1      43.011  49.993  33.425  1.00  0.00     0.032 C 
HETATM    6  C6  UNL     1      45.181  49.321  32.574  1.00  0.00     0.035 C 
HETATM    7  C7  UNL     1      44.970  49.023  31.129  1.00  0.00     0.043 C 
HETATM    8  C8  UNL     1      46.329  48.705  30.559  1.00  0.00     0.016 C 
HETATM    9  C9  UNL     1      47.263  48.581  31.744  1.00  0.00    -0.000 C 
HETATM   10  C10 UNL     1      47.309  47.161  32.152  1.00  0.00     0.011 C 
HETATM   11  C11 UNL     1      46.658  49.535  32.704  1.00  0.00     0.048 C 
HETATM   12  C12 UNL     1      47.030  50.942  32.165  1.00  0.00     0.026 C 
ENDROOT
BRANCH  11  13
HETATM   13  C13 UNL     1      47.152  49.506  34.071  1.00  0.00     0.241 C 
HETATM   14  O1  UNL     1      46.877  48.440  34.743  1.00  0.00    -0.272 OA
HETATM   15  N2  UNL     1      47.880  50.468  34.772  1.00  0.00    -0.237 N 
ATOM     16  H2  UNL     1      48.124  51.326  34.276  1.00  0.00     0.183 HD
BRANCH  15  17
HETATM   17  S1  UNL     1      48.402  50.320  36.413  1.00  0.00     0.323 S 
HETATM   18  O2  UNL     1      49.076  51.645  36.761  1.00  0.00    -0.182 OA
HETATM   19  O3  UNL     1      49.517  49.279  36.435  1.00  0.00    -0.182 OA
BRANCH  17  20
HETATM   20  N3  UNL     1      47.159  49.964  37.503  1.00  0.00    -0.293 N 
HETATM   21  C14 UNL     1      45.860  50.427  37.206  1.00  0.00     0.164 C 
BRANCH  20  22
HETATM   22  C15 UNL     1      47.300  48.806  38.299  1.00  0.00     0.207 C 
BRANCH  22  23
HETATM   23  C16 UNL     1      46.787  48.922  39.719  1.00  0.00     0.371 C 
HETATM   24  F1  UNL     1      47.019  47.795  40.466  1.00  0.00    -0.213 F 
HETATM   25  F2  UNL     1      47.409  49.995  40.340  1.00  0.00    -0.213 F 
ENDBRANCH  22  23
ENDBRANCH  20  22
ENDBRANCH  17  20
ENDBRANCH  15  17
ENDBRANCH  11  13
BRANCH   1  26
HETATM   26  C2  UNL     1      44.076  50.560  29.164  1.00  0.00     0.015 C 
HETATM   27  C1  UNL     1      43.153  49.963  28.455  1.00  0.00     0.013 C 
ENDBRANCH   1  26
TORSDOF 6
ENDMDL
