MODEL 1
REMARK VINA RESULT: -6.758197181      0.000      0.000
REMARK  5 active torsions:
REMARK  status: ('A' for Active; 'I' for Inactive)
REMARK       I    between atoms: C1_2  and  N1_3 
REMARK       I    between atoms: C1_2  and  N2_11 
REMARK    1  A    between atoms: N1_3  and  C2_5 
REMARK    2  A    between atoms: N2_11  and  C6_12 
REMARK    3  A    between atoms: N2_11  and  C12_20 
REMARK    4  A    between atoms: C6_12  and  C7_13 
REMARK    5  A    between atoms: C7_13  and  N3_14 
ROOT
HETATM    1  O1  UNL     1      50.066  51.354  36.864  1.00  0.00    -0.247 OA
HETATM    2  C1  UNL     1      49.704  50.486  36.003  1.00  0.00     0.319 C 
HETATM    3  N1  UNL     1      48.406  49.938  36.032  1.00  0.00    -0.335 N 
ATOM      4  H1  UNL     1      48.111  49.241  35.348  1.00  0.00     0.164 HD
HETATM    5  N2  UNL     1      50.636  50.090  35.024  1.00  0.00    -0.328 N 
ENDROOT
BRANCH   5   6
HETATM    6  C6  UNL     1      50.310  49.137  34.017  1.00  0.00     0.158 C 
BRANCH   6   7
HETATM    7  C7  UNL     1      49.586  49.742  32.851  1.00  0.00     0.292 C 
BRANCH   7   8
HETATM    8  N3  UNL     1      48.601  48.893  32.285  1.00  0.00     0.094 N 
HETATM    9  C8  UNL     1      48.874  47.482  32.403  1.00  0.00     0.298 C 
HETATM   10  C9  UNL     1      47.647  46.761  31.831  1.00  0.00     0.198 C 
HETATM   11  O2  UNL     1      46.554  46.950  32.652  1.00  0.00    -0.388 OA
HETATM   12  C10 UNL     1      46.656  48.100  33.431  1.00  0.00     0.198 C 
HETATM   13  C11 UNL     1      47.247  49.218  32.584  1.00  0.00     0.298 C 
ENDBRANCH   7   8
ENDBRANCH   6   7
ENDBRANCH   5   6
BRANCH   5  14
HETATM   14  C12 UNL     1      51.974  50.714  35.097  1.00  0.00     0.089 C 
HETATM   15  C13 UNL     1      52.047  51.863  34.113  1.00  0.00     0.025 C 
HETATM   16  C14 UNL     1      52.828  53.032  34.668  1.00  0.00     0.002 C 
HETATM   17  C15 UNL     1      54.318  52.821  34.612  1.00  0.00     0.000 C 
HETATM   18  C16 UNL     1      54.872  52.133  35.810  1.00  0.00     0.000 C 
HETATM   19  C17 UNL     1      55.233  50.678  35.482  1.00  0.00     0.000 C 
HETATM   20  C18 UNL     1      54.131  49.727  35.895  1.00  0.00     0.002 C 
HETATM   21  C19 UNL     1      53.027  49.666  34.864  1.00  0.00     0.025 C 
ENDBRANCH   5  14
BRANCH   3  22
HETATM   22  C2  UNL     1      47.498  50.406  37.084  1.00  0.00     0.125 C 
HETATM   23  C3  UNL     1      46.235  49.535  37.137  1.00  0.00     0.068 C 
HETATM   24  C4  UNL     1      46.514  49.282  38.598  1.00  0.00     0.208 C 
HETATM   25  F1  UNL     1      46.516  47.926  38.866  1.00  0.00    -0.246 F 
HETATM   26  C5  UNL     1      47.900  49.896  38.429  1.00  0.00     0.226 C 
HETATM   27  F2  UNL     1      48.148  50.923  39.312  1.00  0.00    -0.244 F 
ENDBRANCH   3  22
TORSDOF 5
ENDMDL
MODEL 2
REMARK VINA RESULT: -6.676121525      1.081      1.391
REMARK  5 active torsions:
REMARK  status: ('A' for Active; 'I' for Inactive)
REMARK       I    between atoms: C1_2  and  N1_3 
REMARK       I    between atoms: C1_2  and  N2_11 
REMARK    1  A    between atoms: N1_3  and  C2_5 
REMARK    2  A    between atoms: N2_11  and  C6_12 
REMARK    3  A    between atoms: N2_11  and  C12_20 
REMARK    4  A    between atoms: C6_12  and  C7_13 
REMARK    5  A    between atoms: C7_13  and  N3_14 
ROOT
HETATM    1  O1  UNL     1      50.411  51.128  36.643  1.00  0.00    -0.247 OA
HETATM    2  C1  UNL     1      50.076  50.261  35.770  1.00  0.00     0.319 C 
HETATM    3  N1  UNL     1      48.780  49.707  35.763  1.00  0.00    -0.335 N 
ATOM      4  H1  UNL     1      48.505  49.012  35.069  1.00  0.00     0.164 HD
HETATM    5  N2  UNL     1      51.035  49.872  34.815  1.00  0.00    -0.328 N 
ENDROOT
BRANCH   5   6
HETATM    6  C6  UNL     1      50.740  48.922  33.796  1.00  0.00     0.158 C 
BRANCH   6   7
HETATM    7  C7  UNL     1      50.057  49.529  32.607  1.00  0.00     0.292 C 
BRANCH   7   8
HETATM    8  N3  UNL     1      49.014  48.729  32.074  1.00  0.00     0.094 N 
HETATM    9  C8  UNL     1      49.137  47.317  32.338  1.00  0.00     0.298 C 
HETATM   10  C9  UNL     1      47.867  46.667  31.773  1.00  0.00     0.198 C 
HETATM   11  O2  UNL     1      46.766  47.042  32.515  1.00  0.00    -0.388 OA
HETATM   12  C10 UNL     1      46.952  48.247  33.186  1.00  0.00     0.198 C 
HETATM   13  C11 UNL     1      47.690  49.213  32.269  1.00  0.00     0.298 C 
ENDBRANCH   7   8
ENDBRANCH   6   7
ENDBRANCH   5   6
BRANCH   5  14
HETATM   14  C12 UNL     1      52.368  50.501  34.924  1.00  0.00     0.089 C 
HETATM   15  C13 UNL     1      52.448  51.678  33.974  1.00  0.00     0.025 C 
HETATM   16  C14 UNL     1      53.214  52.835  34.573  1.00  0.00     0.002 C 
HETATM   17  C15 UNL     1      54.705  52.634  34.533  1.00  0.00     0.000 C 
HETATM   18  C16 UNL     1      55.246  51.916  35.719  1.00  0.00     0.000 C 
HETATM   19  C17 UNL     1      55.621  50.473  35.357  1.00  0.00     0.000 C 
HETATM   20  C18 UNL     1      54.519  49.505  35.726  1.00  0.00     0.002 C 
HETATM   21  C19 UNL     1      53.430  49.466  34.678  1.00  0.00     0.025 C 
ENDBRANCH   5  14
BRANCH   3  22
HETATM   22  C2  UNL     1      47.842  50.169  36.792  1.00  0.00     0.125 C 
HETATM   23  C3  UNL     1      47.034  51.372  36.288  1.00  0.00     0.068 C 
HETATM   24  C4  UNL     1      45.770  50.612  36.609  1.00  0.00     0.208 C 
HETATM   25  F1  UNL     1      44.930  50.578  35.513  1.00  0.00    -0.246 F 
HETATM   26  C5  UNL     1      46.596  49.345  36.812  1.00  0.00     0.226 C 
HETATM   27  F2  UNL     1      46.392  48.758  38.041  1.00  0.00    -0.244 F 
ENDBRANCH   3  22
TORSDOF 5
ENDMDL
MODEL 3
REMARK VINA RESULT: -6.528750203      5.277      7.892
REMARK  5 active torsions:
REMARK  status: ('A' for Active; 'I' for Inactive)
REMARK       I    between atoms: C1_2  and  N1_3 
REMARK       I    between atoms: C1_2  and  N2_11 
REMARK    1  A    between atoms: N1_3  and  C2_5 
REMARK    2  A    between atoms: N2_11  and  C6_12 
REMARK    3  A    between atoms: N2_11  and  C12_20 
REMARK    4  A    between atoms: C6_12  and  C7_13 
REMARK    5  A    between atoms: C7_13  and  N3_14 
ROOT
HETATM    1  O1  UNL     1      54.575  44.418  32.001  1.00  0.00    -0.247 OA
HETATM    2  C1  UNL     1      53.752  45.353  32.275  1.00  0.00     0.319 C 
HETATM    3  N1  UNL     1      52.525  45.459  31.592  1.00  0.00    -0.335 N 
ATOM      4  H1  UNL     1      51.863  46.206  31.805  1.00  0.00     0.164 HD
HETATM    5  N2  UNL     1      54.106  46.276  33.279  1.00  0.00    -0.328 N 
ENDROOT
BRANCH   5   6
HETATM    6  C6  UNL     1      53.241  47.342  33.658  1.00  0.00     0.158 C 
BRANCH   6   7
HETATM    7  C7  UNL     1      53.555  48.630  32.956  1.00  0.00     0.292 C 
BRANCH   7   8
HETATM    8  N3  UNL     1      53.487  49.772  33.795  1.00  0.00     0.094 N 
HETATM    9  C8  UNL     1      52.186  50.034  34.359  1.00  0.00     0.298 C 
HETATM   10  C9  UNL     1      52.365  51.231  35.303  1.00  0.00     0.198 C 
HETATM   11  O2  UNL     1      53.126  50.869  36.396  1.00  0.00    -0.388 OA
HETATM   12  C10 UNL     1      53.951  49.777  36.142  1.00  0.00     0.198 C 
HETATM   13  C11 UNL     1      54.538  49.916  34.745  1.00  0.00     0.298 C 
ENDBRANCH   7   8
ENDBRANCH   6   7
ENDBRANCH   5   6
BRANCH   5  14
HETATM   14  C12 UNL     1      55.424  46.084  33.918  1.00  0.00     0.089 C 
HETATM   15  C13 UNL     1      55.295  46.302  35.412  1.00  0.00     0.025 C 
HETATM   16  C14 UNL     1      56.148  45.335  36.199  1.00  0.00     0.002 C 
HETATM   17  C15 UNL     1      57.604  45.717  36.216  1.00  0.00     0.000 C 
HETATM   18  C16 UNL     1      58.382  45.168  35.071  1.00  0.00     0.000 C 
HETATM   19  C17 UNL     1      58.698  46.270  34.052  1.00  0.00     0.000 C 
HETATM   20  C18 UNL     1      57.707  46.268  32.909  1.00  0.00     0.002 C 
HETATM   21  C19 UNL     1      56.431  46.994  33.270  1.00  0.00     0.025 C 
ENDBRANCH   5  14
BRANCH   3  22
HETATM   22  C2  UNL     1      52.235  44.455  30.562  1.00  0.00     0.125 C 
HETATM   23  C3  UNL     1      51.335  43.347  31.125  1.00  0.00     0.068 C 
HETATM   24  C4  UNL     1      50.362  43.617  30.004  1.00  0.00     0.208 C 
HETATM   25  F1  UNL     1      49.091  43.827  30.502  1.00  0.00    -0.246 F 
HETATM   26  C5  UNL     1      51.127  44.893  29.662  1.00  0.00     0.226 C 
HETATM   27  F2  UNL     1      51.528  44.946  28.346  1.00  0.00    -0.244 F 
ENDBRANCH   3  22
TORSDOF 5
ENDMDL
MODEL 4
REMARK VINA RESULT: -6.524013763      2.334      5.843
REMARK  5 active torsions:
REMARK  status: ('A' for Active; 'I' for Inactive)
REMARK       I    between atoms: C1_2  and  N1_3 
REMARK       I    between atoms: C1_2  and  N2_11 
REMARK    1  A    between atoms: N1_3  and  C2_5 
REMARK    2  A    between atoms: N2_11  and  C6_12 
REMARK    3  A    between atoms: N2_11  and  C12_20 
REMARK    4  A    between atoms: C6_12  and  C7_13 
REMARK    5  A    between atoms: C7_13  and  N3_14 
ROOT
HETATM    1  O1  UNL     1      45.796  50.068  36.935  1.00  0.00    -0.247 OA
HETATM    2  C1  UNL     1      47.061  49.905  36.967  1.00  0.00     0.319 C 
HETATM    3  N1  UNL     1      47.731  49.699  38.189  1.00  0.00    -0.335 N 
ATOM      4  H1  UNL     1      48.743  49.570  38.222  1.00  0.00     0.164 HD
HETATM    5  N2  UNL     1      47.767  49.939  35.749  1.00  0.00    -0.328 N 
ENDROOT
BRANCH   5   6
HETATM    6  C6  UNL     1      49.178  49.752  35.692  1.00  0.00     0.158 C 
BRANCH   6   7
HETATM    7  C7  UNL     1      49.947  50.968  36.115  1.00  0.00     0.292 C 
BRANCH   7   8
HETATM    8  N3  UNL     1      51.334  50.898  35.827  1.00  0.00     0.094 N 
HETATM    9  C8  UNL     1      51.828  49.575  35.539  1.00  0.00     0.298 C 
HETATM   10  C9  UNL     1      53.304  49.746  35.156  1.00  0.00     0.198 C 
HETATM   11  O2  UNL     1      53.412  50.403  33.947  1.00  0.00    -0.388 OA
HETATM   12  C10 UNL     1      52.298  51.185  33.657  1.00  0.00     0.198 C 
HETATM   13  C11 UNL     1      51.839  51.882  34.930  1.00  0.00     0.298 C 
ENDBRANCH   7   8
ENDBRANCH   6   7
ENDBRANCH   5   6
BRANCH   5  14
HETATM   14  C12 UNL     1      46.968  50.181  34.529  1.00  0.00     0.089 C 
HETATM   15  C13 UNL     1      46.555  48.853  33.928  1.00  0.00     0.025 C 
HETATM   16  C14 UNL     1      45.152  48.899  33.369  1.00  0.00     0.002 C 
HETATM   17  C15 UNL     1      45.076  49.588  32.032  1.00  0.00     0.000 C 
HETATM   18  C16 UNL     1      44.878  51.061  32.126  1.00  0.00     0.000 C 
HETATM   19  C17 UNL     1      46.177  51.806  31.790  1.00  0.00     0.000 C 
HETATM   20  C18 UNL     1      46.933  52.193  33.042  1.00  0.00     0.002 C 
HETATM   21  C19 UNL     1      47.754  51.043  33.581  1.00  0.00     0.025 C 
ENDBRANCH   5  14
BRANCH   3  22
HETATM   22  C2  UNL     1      46.920  49.677  39.410  1.00  0.00     0.125 C 
HETATM   23  C3  UNL     1      46.416  48.257  39.700  1.00  0.00     0.068 C 
HETATM   24  C4  UNL     1      47.041  48.354  41.071  1.00  0.00     0.208 C 
HETATM   25  F1  UNL     1      47.866  47.271  41.308  1.00  0.00    -0.246 F 
HETATM   26  C5  UNL     1      47.770  49.621  40.637  1.00  0.00     0.226 C 
HETATM   27  F2  UNL     1      47.535  50.692  41.470  1.00  0.00    -0.244 F 
ENDBRANCH   3  22
TORSDOF 5
ENDMDL
MODEL 5
REMARK VINA RESULT: -6.445470690      3.014      4.713
REMARK  5 active torsions:
REMARK  status: ('A' for Active; 'I' for Inactive)
REMARK       I    between atoms: C1_2  and  N1_3 
REMARK       I    between atoms: C1_2  and  N2_11 
REMARK    1  A    between atoms: N1_3  and  C2_5 
REMARK    2  A    between atoms: N2_11  and  C6_12 
REMARK    3  A    between atoms: N2_11  and  C12_20 
REMARK    4  A    between atoms: C6_12  and  C7_13 
REMARK    5  A    between atoms: C7_13  and  N3_14 
ROOT
HETATM    1  O1  UNL     1      51.787  52.381  34.840  1.00  0.00    -0.247 OA
HETATM    2  C1  UNL     1      51.995  51.282  35.454  1.00  0.00     0.319 C 
HETATM    3  N1  UNL     1      50.954  50.635  36.148  1.00  0.00    -0.335 N 
ATOM      4  H1  UNL     1      51.113  49.756  36.642  1.00  0.00     0.164 HD
HETATM    5  N2  UNL     1      53.292  50.735  35.418  1.00  0.00    -0.328 N 
ENDROOT
BRANCH   5   6
HETATM    6  C6  UNL     1      53.607  49.505  36.063  1.00  0.00     0.158 C 
BRANCH   6   7
HETATM    7  C7  UNL     1      53.375  48.308  35.189  1.00  0.00     0.292 C 
BRANCH   7   8
HETATM    8  N3  UNL     1      54.564  47.643  34.798  1.00  0.00     0.094 N 
HETATM    9  C8  UNL     1      55.061  46.679  35.748  1.00  0.00     0.298 C 
HETATM   10  C9  UNL     1      56.274  46.013  35.084  1.00  0.00     0.198 C 
HETATM   11  O2  UNL     1      55.869  45.238  34.016  1.00  0.00    -0.388 OA
HETATM   12  C10 UNL     1      54.648  45.645  33.486  1.00  0.00     0.198 C 
HETATM   13  C11 UNL     1      54.605  47.166  33.457  1.00  0.00     0.298 C 
ENDBRANCH   7   8
ENDBRANCH   6   7
ENDBRANCH   5   6
BRANCH   5  14
HETATM   14  C12 UNL     1      54.313  51.505  34.678  1.00  0.00     0.089 C 
HETATM   15  C13 UNL     1      54.378  51.009  33.248  1.00  0.00     0.025 C 
HETATM   16  C14 UNL     1      54.591  52.139  32.268  1.00  0.00     0.002 C 
HETATM   17  C15 UNL     1      56.019  52.614  32.223  1.00  0.00     0.000 C 
HETATM   18  C16 UNL     1      56.329  53.678  33.218  1.00  0.00     0.000 C 
HETATM   19  C17 UNL     1      57.159  53.112  34.377  1.00  0.00     0.000 C 
HETATM   20  C18 UNL     1      56.287  52.763  35.564  1.00  0.00     0.002 C 
HETATM   21  C19 UNL     1      55.629  51.412  35.399  1.00  0.00     0.025 C 
ENDBRANCH   5  14
BRANCH   3  22
HETATM   22  C2  UNL     1      49.632  51.272  36.133  1.00  0.00     0.125 C 
HETATM   23  C3  UNL     1      48.563  50.289  35.638  1.00  0.00     0.068 C 
HETATM   24  C4  UNL     1      47.790  50.545  36.909  1.00  0.00     0.208 C 
HETATM   25  F1  UNL     1      47.478  49.355  37.537  1.00  0.00    -0.246 F 
HETATM   26  C5  UNL     1      49.003  51.268  37.487  1.00  0.00     0.226 C 
HETATM   27  F2  UNL     1      48.716  52.543  37.920  1.00  0.00    -0.244 F 
ENDBRANCH   3  22
TORSDOF 5
ENDMDL
