MODEL 1
REMARK VINA RESULT: -8.091231534      0.000      0.000
REMARK  7 active torsions:
REMARK  status: ('A' for Active; 'I' for Inactive)
REMARK    1  A    between atoms: N1_2  and  C3_4 
REMARK    2  A    between atoms: C3_4  and  C4_5 
REMARK    3  A    between atoms: C4_5  and  O1_6 
REMARK    4  A    between atoms: C4_5  and  N2_8 
REMARK    5  A    between atoms: C7_11  and  C8_12 
REMARK       I    between atoms: C8_12  and  N3_14 
REMARK    6  A    between atoms: N3_14  and  C9_16 
REMARK    7  A    between atoms: C9_16  and  C10_17 
ROOT
HETATM    1  N2  UNL     1      44.218  51.582  32.249  1.00  0.00    -0.363 N 
HETATM    2  C5  UNL     1      43.465  50.566  32.915  1.00  0.00     0.125 C 
HETATM    3  C6  UNL     1      44.503  49.791  33.751  1.00  0.00     0.034 C 
HETATM    4  C7  UNL     1      44.902  50.698  34.863  1.00  0.00     0.081 C 
HETATM    5  C13 UNL     1      45.378  52.020  34.402  1.00  0.00     0.034 C 
HETATM    6  C14 UNL     1      45.137  52.433  33.016  1.00  0.00     0.125 C 
ENDROOT
BRANCH   1   7
HETATM    7  C4  UNL     1      44.138  51.811  30.868  1.00  0.00     0.153 C 
BRANCH   7   8
HETATM    8  C3  UNL     1      44.937  51.207  29.778  1.00  0.00     0.222 C 
HETATM    9  C15 UNL     1      43.983  50.918  28.649  1.00  0.00     0.050 C 
HETATM   10  C16 UNL     1      43.365  49.551  28.680  1.00  0.00     0.003 C 
HETATM   11  C17 UNL     1      44.554  48.589  28.540  1.00  0.00     0.000 C 
HETATM   12  C18 UNL     1      45.298  48.675  29.829  1.00  0.00     0.003 C 
HETATM   13  C19 UNL     1      45.619  50.011  30.347  1.00  0.00     0.050 C 
BRANCH   8  14
HETATM   14  N1  UNL     1      45.853  52.204  29.292  1.00  0.00     0.097 N 
HETATM   15  C1  UNL     1      45.754  52.416  27.868  1.00  0.00     0.310 C 
HETATM   16  C2  UNL     1      47.200  52.051  29.693  1.00  0.00     0.310 C 
ENDBRANCH   8  14
ENDBRANCH   7   8
BRANCH   7  17
HETATM   17  O1  UNL     1      43.229  52.672  30.514  1.00  0.00    -0.347 OA
ATOM     18  H1  UNL     1      42.604  52.927  31.182  1.00  0.00     0.219 HD
ENDBRANCH   7  17
ENDBRANCH   1   7
BRANCH   4  19
HETATM   19  C8  UNL     1      45.919  50.003  35.733  1.00  0.00     0.221 C 
HETATM   20  O2  UNL     1      46.510  48.987  35.295  1.00  0.00    -0.273 OA
HETATM   21  N3  UNL     1      46.193  50.503  37.026  1.00  0.00    -0.360 N 
ATOM     22  H3  UNL     1      45.706  51.330  37.371  1.00  0.00     0.162 HD
BRANCH  21  23
HETATM   23  C9  UNL     1      47.169  49.832  37.857  1.00  0.00     0.133 C 
BRANCH  23  24
HETATM   24  C10 UNL     1      46.497  48.976  38.917  1.00  0.00     0.081 A 
HETATM   25  C11 UNL     1      47.291  47.869  39.533  1.00  0.00     0.091 A 
HETATM   26  C12 UNL     1      47.009  49.119  40.354  1.00  0.00     0.249 A 
HETATM   27  F1  UNL     1      48.071  50.010  40.530  1.00  0.00    -0.206 F 
HETATM   28  F2  UNL     1      46.092  49.041  41.370  1.00  0.00    -0.206 F 
ENDBRANCH  23  24
ENDBRANCH  21  23
ENDBRANCH   4  19
TORSDOF 7
ENDMDL
MODEL 2
REMARK VINA RESULT: -7.576645741      0.764      2.142
REMARK  7 active torsions:
REMARK  status: ('A' for Active; 'I' for Inactive)
REMARK    1  A    between atoms: N1_2  and  C3_4 
REMARK    2  A    between atoms: C3_4  and  C4_5 
REMARK    3  A    between atoms: C4_5  and  O1_6 
REMARK    4  A    between atoms: C4_5  and  N2_8 
REMARK    5  A    between atoms: C7_11  and  C8_12 
REMARK       I    between atoms: C8_12  and  N3_14 
REMARK    6  A    between atoms: N3_14  and  C9_16 
REMARK    7  A    between atoms: C9_16  and  C10_17 
ROOT
HETATM    1  N2  UNL     1      44.195  51.472  32.183  1.00  0.00    -0.363 N 
HETATM    2  C5  UNL     1      43.483  50.421  32.841  1.00  0.00     0.125 C 
HETATM    3  C6  UNL     1      44.545  49.707  33.702  1.00  0.00     0.034 C 
HETATM    4  C7  UNL     1      44.873  50.639  34.815  1.00  0.00     0.081 C 
HETATM    5  C13 UNL     1      45.288  51.982  34.355  1.00  0.00     0.034 C 
HETATM    6  C14 UNL     1      45.052  52.375  32.963  1.00  0.00     0.125 C 
ENDROOT
BRANCH   1   7
HETATM    7  C4  UNL     1      44.130  51.689  30.799  1.00  0.00     0.153 C 
BRANCH   7   8
HETATM    8  C3  UNL     1      44.773  50.925  29.707  1.00  0.00     0.222 C 
HETATM    9  C15 UNL     1      46.124  50.496  30.214  1.00  0.00     0.050 C 
HETATM   10  C16 UNL     1      47.240  51.457  29.926  1.00  0.00     0.003 C 
HETATM   11  C17 UNL     1      47.315  51.510  28.393  1.00  0.00     0.000 C 
HETATM   12  C18 UNL     1      46.091  52.239  27.953  1.00  0.00     0.003 C 
HETATM   13  C19 UNL     1      44.802  51.814  28.512  1.00  0.00     0.050 C 
BRANCH   8  14
HETATM   14  N1  UNL     1      44.014  49.720  29.500  1.00  0.00     0.097 N 
HETATM   15  C1  UNL     1      44.838  48.587  29.156  1.00  0.00     0.310 C 
HETATM   16  C2  UNL     1      42.909  49.832  28.626  1.00  0.00     0.310 C 
ENDBRANCH   8  14
ENDBRANCH   7   8
BRANCH   7  17
HETATM   17  O1  UNL     1      43.396  52.703  30.445  1.00  0.00    -0.347 OA
ATOM     18  H1  UNL     1      42.580  52.502  30.000  1.00  0.00     0.219 HD
ENDBRANCH   7  17
ENDBRANCH   1   7
BRANCH   4  19
HETATM   19  C8  UNL     1      45.908  50.004  35.710  1.00  0.00     0.221 C 
HETATM   20  O2  UNL     1      46.540  49.001  35.299  1.00  0.00    -0.273 OA
HETATM   21  N3  UNL     1      46.153  50.545  36.992  1.00  0.00    -0.360 N 
ATOM     22  H3  UNL     1      45.632  51.361  37.313  1.00  0.00     0.162 HD
BRANCH  21  23
HETATM   23  C9  UNL     1      47.147  49.931  37.845  1.00  0.00     0.133 C 
BRANCH  23  24
HETATM   24  C10 UNL     1      46.502  49.025  38.880  1.00  0.00     0.081 A 
HETATM   25  C11 UNL     1      47.326  47.916  39.454  1.00  0.00     0.091 A 
HETATM   26  C12 UNL     1      47.021  49.131  40.318  1.00  0.00     0.249 A 
HETATM   27  F1  UNL     1      48.063  50.041  40.518  1.00  0.00    -0.206 F 
HETATM   28  F2  UNL     1      46.113  48.998  41.336  1.00  0.00    -0.206 F 
ENDBRANCH  23  24
ENDBRANCH  21  23
ENDBRANCH   4  19
TORSDOF 7
ENDMDL
MODEL 3
REMARK VINA RESULT: -7.562222853      0.932      1.550
REMARK  7 active torsions:
REMARK  status: ('A' for Active; 'I' for Inactive)
REMARK    1  A    between atoms: N1_2  and  C3_4 
REMARK    2  A    between atoms: C3_4  and  C4_5 
REMARK    3  A    between atoms: C4_5  and  O1_6 
REMARK    4  A    between atoms: C4_5  and  N2_8 
REMARK    5  A    between atoms: C7_11  and  C8_12 
REMARK       I    between atoms: C8_12  and  N3_14 
REMARK    6  A    between atoms: N3_14  and  C9_16 
REMARK    7  A    between atoms: C9_16  and  C10_17 
ROOT
HETATM    1  N2  UNL     1      44.194  51.199  31.961  1.00  0.00    -0.363 N 
HETATM    2  C5  UNL     1      43.441  50.290  32.767  1.00  0.00     0.125 C 
HETATM    3  C6  UNL     1      44.486  49.617  33.681  1.00  0.00     0.034 C 
HETATM    4  C7  UNL     1      44.914  50.656  34.657  1.00  0.00     0.081 C 
HETATM    5  C13 UNL     1      45.397  51.900  34.019  1.00  0.00     0.034 C 
HETATM    6  C14 UNL     1      45.136  52.131  32.595  1.00  0.00     0.125 C 
ENDROOT
BRANCH   1   7
HETATM    7  C4  UNL     1      44.092  51.246  30.563  1.00  0.00     0.153 C 
BRANCH   7   8
HETATM    8  C3  UNL     1      44.741  50.380  29.554  1.00  0.00     0.222 C 
HETATM    9  C15 UNL     1      45.223  51.285  28.451  1.00  0.00     0.050 C 
HETATM   10  C16 UNL     1      44.241  51.501  27.338  1.00  0.00     0.003 C 
HETATM   11  C17 UNL     1      44.031  50.105  26.733  1.00  0.00     0.000 C 
HETATM   12  C18 UNL     1      43.258  49.336  27.751  1.00  0.00     0.003 C 
HETATM   13  C19 UNL     1      43.735  49.363  29.139  1.00  0.00     0.050 C 
BRANCH   8  14
HETATM   14  N1  UNL     1      45.917  49.804  30.151  1.00  0.00     0.097 N 
HETATM   15  C1  UNL     1      47.140  50.236  29.520  1.00  0.00     0.310 C 
HETATM   16  C2  UNL     1      45.897  48.401  30.320  1.00  0.00     0.310 C 
ENDBRANCH   8  14
ENDBRANCH   7   8
BRANCH   7  17
HETATM   17  O1  UNL     1      43.312  52.183  30.109  1.00  0.00    -0.347 OA
ATOM     18  H1  UNL     1      42.478  51.904  29.749  1.00  0.00     0.219 HD
ENDBRANCH   7  17
ENDBRANCH   1   7
BRANCH   4  19
HETATM   19  C8  UNL     1      45.939  50.068  35.594  1.00  0.00     0.221 C 
HETATM   20  O2  UNL     1      46.609  49.073  35.225  1.00  0.00    -0.273 OA
HETATM   21  N3  UNL     1      46.131  50.641  36.871  1.00  0.00    -0.360 N 
ATOM     22  H3  UNL     1      45.580  51.450  37.159  1.00  0.00     0.162 HD
BRANCH  21  23
HETATM   23  C9  UNL     1      47.115  50.073  37.766  1.00  0.00     0.133 C 
BRANCH  23  24
HETATM   24  C10 UNL     1      46.482  49.074  38.720  1.00  0.00     0.081 A 
HETATM   25  C11 UNL     1      47.332  47.956  39.234  1.00  0.00     0.091 A 
HETATM   26  C12 UNL     1      46.967  49.096  40.173  1.00  0.00     0.249 A 
HETATM   27  F1  UNL     1      47.972  50.024  40.460  1.00  0.00    -0.206 F 
HETATM   28  F2  UNL     1      46.044  48.861  41.159  1.00  0.00    -0.206 F 
ENDBRANCH  23  24
ENDBRANCH  21  23
ENDBRANCH   4  19
TORSDOF 7
ENDMDL
MODEL 4
REMARK VINA RESULT: -7.545531236      2.055      3.006
REMARK  7 active torsions:
REMARK  status: ('A' for Active; 'I' for Inactive)
REMARK    1  A    between atoms: N1_2  and  C3_4 
REMARK    2  A    between atoms: C3_4  and  C4_5 
REMARK    3  A    between atoms: C4_5  and  O1_6 
REMARK    4  A    between atoms: C4_5  and  N2_8 
REMARK    5  A    between atoms: C7_11  and  C8_12 
REMARK       I    between atoms: C8_12  and  N3_14 
REMARK    6  A    between atoms: N3_14  and  C9_16 
REMARK    7  A    between atoms: C9_16  and  C10_17 
ROOT
HETATM    1  N2  UNL     1      47.270  51.131  32.212  1.00  0.00    -0.363 N 
HETATM    2  C5  UNL     1      46.985  52.202  33.116  1.00  0.00     0.125 C 
HETATM    3  C6  UNL     1      47.012  51.554  34.514  1.00  0.00     0.034 C 
HETATM    4  C7  UNL     1      48.440  51.243  34.801  1.00  0.00     0.081 C 
HETATM    5  C13 UNL     1      49.085  50.421  33.754  1.00  0.00     0.034 C 
HETATM    6  C14 UNL     1      48.426  50.258  32.454  1.00  0.00     0.125 C 
ENDROOT
BRANCH   1   7
HETATM    7  C4  UNL     1      46.482  50.851  31.086  1.00  0.00     0.153 C 
BRANCH   7   8
HETATM    8  C3  UNL     1      45.221  50.083  31.002  1.00  0.00     0.222 C 
HETATM    9  C15 UNL     1      44.110  51.087  30.841  1.00  0.00     0.050 C 
HETATM   10  C16 UNL     1      43.498  51.563  32.126  1.00  0.00     0.003 C 
HETATM   11  C17 UNL     1      42.893  50.299  32.754  1.00  0.00     0.000 C 
HETATM   12  C18 UNL     1      44.052  49.471  33.194  1.00  0.00     0.003 C 
HETATM   13  C19 UNL     1      45.137  49.245  32.231  1.00  0.00     0.050 C 
BRANCH   8  14
HETATM   14  N1  UNL     1      45.250  49.310  29.789  1.00  0.00     0.097 N 
HETATM   15  C1  UNL     1      43.958  49.202  29.157  1.00  0.00     0.310 C 
HETATM   16  C2  UNL     1      45.882  48.049  29.879  1.00  0.00     0.310 C 
ENDBRANCH   8  14
ENDBRANCH   7   8
BRANCH   7  17
HETATM   17  O1  UNL     1      46.937  51.347  29.972  1.00  0.00    -0.347 OA
ATOM     18  H1  UNL     1      47.707  50.928  29.605  1.00  0.00     0.219 HD
ENDBRANCH   7  17
ENDBRANCH   1   7
BRANCH   4  19
HETATM   19  C8  UNL     1      48.548  50.607  36.165  1.00  0.00     0.221 C 
HETATM   20  O2  UNL     1      49.363  49.669  36.341  1.00  0.00    -0.273 OA
HETATM   21  N3  UNL     1      47.735  51.074  37.222  1.00  0.00    -0.360 N 
ATOM     22  H3  UNL     1      47.077  51.837  37.065  1.00  0.00     0.162 HD
BRANCH  21  23
HETATM   23  C9  UNL     1      47.843  50.460  38.527  1.00  0.00     0.133 C 
BRANCH  23  24
HETATM   24  C10 UNL     1      46.740  49.440  38.751  1.00  0.00     0.081 A 
HETATM   25  C11 UNL     1      47.085  47.990  38.624  1.00  0.00     0.091 A 
HETATM   26  C12 UNL     1      46.839  48.571  40.008  1.00  0.00     0.249 A 
HETATM   27  F1  UNL     1      47.964  48.794  40.808  1.00  0.00    -0.206 F 
HETATM   28  F2  UNL     1      45.676  48.247  40.656  1.00  0.00    -0.206 F 
ENDBRANCH  23  24
ENDBRANCH  21  23
ENDBRANCH   4  19
TORSDOF 7
ENDMDL
MODEL 5
REMARK VINA RESULT: -7.383268532      1.261      1.702
REMARK  7 active torsions:
REMARK  status: ('A' for Active; 'I' for Inactive)
REMARK    1  A    between atoms: N1_2  and  C3_4 
REMARK    2  A    between atoms: C3_4  and  C4_5 
REMARK    3  A    between atoms: C4_5  and  O1_6 
REMARK    4  A    between atoms: C4_5  and  N2_8 
REMARK    5  A    between atoms: C7_11  and  C8_12 
REMARK       I    between atoms: C8_12  and  N3_14 
REMARK    6  A    between atoms: N3_14  and  C9_16 
REMARK    7  A    between atoms: C9_16  and  C10_17 
ROOT
HETATM    1  N2  UNL     1      45.620  50.958  32.201  1.00  0.00    -0.363 N 
HETATM    2  C5  UNL     1      46.841  51.385  32.808  1.00  0.00     0.125 C 
HETATM    3  C6  UNL     1      46.507  51.527  34.306  1.00  0.00     0.034 C 
HETATM    4  C7  UNL     1      46.339  50.142  34.827  1.00  0.00     0.081 C 
HETATM    5  C13 UNL     1      45.350  49.344  34.071  1.00  0.00     0.034 C 
HETATM    6  C14 UNL     1      44.880  49.822  32.767  1.00  0.00     0.125 C 
ENDROOT
BRANCH   1   7
HETATM    7  C4  UNL     1      45.067  51.583  31.074  1.00  0.00     0.153 C 
BRANCH   7   8
HETATM    8  C3  UNL     1      45.182  51.201  29.649  1.00  0.00     0.222 C 
HETATM    9  C15 UNL     1      43.780  51.109  29.109  1.00  0.00     0.050 C 
HETATM   10  C16 UNL     1      43.150  49.751  29.213  1.00  0.00     0.003 C 
HETATM   11  C17 UNL     1      44.041  48.848  28.346  1.00  0.00     0.000 C 
HETATM   12  C18 UNL     1      45.324  48.708  29.093  1.00  0.00     0.003 C 
HETATM   13  C19 UNL     1      45.959  49.930  29.599  1.00  0.00     0.050 C 
BRANCH   8  14
HETATM   14  N1  UNL     1      45.819  52.283  28.947  1.00  0.00     0.097 N 
HETATM   15  C1  UNL     1      45.399  52.389  27.571  1.00  0.00     0.310 C 
HETATM   16  C2  UNL     1      47.227  52.344  29.058  1.00  0.00     0.310 C 
ENDBRANCH   8  14
ENDBRANCH   7   8
BRANCH   7  17
HETATM   17  O1  UNL     1      44.355  52.640  31.336  1.00  0.00    -0.347 OA
ATOM     18  H1  UNL     1      44.832  53.416  31.607  1.00  0.00     0.219 HD
ENDBRANCH   7  17
ENDBRANCH   1   7
BRANCH   4  19
HETATM   19  C8  UNL     1      46.013  50.199  36.299  1.00  0.00     0.221 C 
HETATM   20  O2  UNL     1      45.291  51.129  36.732  1.00  0.00    -0.273 OA
HETATM   21  N3  UNL     1      46.522  49.207  37.168  1.00  0.00    -0.360 N 
ATOM     22  H3  UNL     1      47.108  48.456  36.803  1.00  0.00     0.162 HD
BRANCH  21  23
HETATM   23  C9  UNL     1      46.207  49.267  38.578  1.00  0.00     0.133 C 
BRANCH  23  24
HETATM   24  C10 UNL     1      47.358  48.750  39.424  1.00  0.00     0.081 A 
HETATM   25  C11 UNL     1      47.938  49.664  40.456  1.00  0.00     0.091 A 
HETATM   26  C12 UNL     1      47.073  48.497  40.908  1.00  0.00     0.249 A 
HETATM   27  F1  UNL     1      45.776  48.801  41.333  1.00  0.00    -0.206 F 
HETATM   28  F2  UNL     1      47.682  47.423  41.502  1.00  0.00    -0.206 F 
ENDBRANCH  23  24
ENDBRANCH  21  23
ENDBRANCH   4  19
TORSDOF 7
ENDMDL
