MODEL 1
REMARK VINA RESULT: -7.634097770      0.000      0.000
REMARK  5 active torsions:
REMARK  status: ('A' for Active; 'I' for Inactive)
REMARK    1  A    between atoms: C4_4  and  C5_5 
REMARK    2  A    between atoms: C5_5  and  S1_6 
REMARK    3  A    between atoms: S1_6  and  N1_9 
REMARK    4  A    between atoms: C14_20  and  C15_21 
REMARK    5  A    between atoms: C15_21  and  C16_22 
ROOT
HETATM    1  C1  UNL     1      42.905  50.262  32.734  1.00  0.00     0.010 C 
HETATM    2  C2  UNL     1      44.182  49.792  33.373  1.00  0.00    -0.017 C 
HETATM    3  C3  UNL     1      44.683  50.818  34.407  1.00  0.00     0.016 C 
HETATM    4  C4  UNL     1      46.128  50.373  34.565  1.00  0.00    -0.009 C 
HETATM    5  C11 UNL     1      46.943  51.660  34.480  1.00  0.00     0.017 C 
HETATM    6  C12 UNL     1      47.325  51.759  33.035  1.00  0.00     0.081 C 
HETATM    7  C13 UNL     1      47.644  50.318  32.698  1.00  0.00     0.255 C 
HETATM    8  F1  UNL     1      47.512  50.205  31.316  1.00  0.00    -0.205 F 
HETATM    9  F2  UNL     1      48.901  50.111  33.126  1.00  0.00    -0.205 F 
HETATM   10  C14 UNL     1      46.541  49.580  33.417  1.00  0.00     0.057 C 
HETATM   11  C17 UNL     1      45.342  49.800  32.420  1.00  0.00     0.025 C 
ENDROOT
BRANCH   4  12
HETATM   12  C5  UNL     1      46.270  49.772  35.937  1.00  0.00     0.168 C 
BRANCH  12  13
HETATM   13  S1  UNL     1      47.634  50.316  36.872  1.00  0.00     0.212 S 
HETATM   14  O1  UNL     1      48.933  49.813  36.245  1.00  0.00    -0.211 OA
HETATM   15  O2  UNL     1      47.813  51.752  37.090  1.00  0.00    -0.211 OA
BRANCH  13  16
HETATM   16  N1  UNL     1      47.615  49.571  38.455  1.00  0.00    -0.211 NA
HETATM   17  C6  UNL     1      48.152  50.410  39.473  1.00  0.00     0.107 C 
HETATM   18  C7  UNL     1      47.602  49.982  40.822  1.00  0.00     0.015 C 
HETATM   19  C8  UNL     1      47.464  48.477  40.916  1.00  0.00     0.002 C 
HETATM   20  C9  UNL     1      46.635  47.878  39.822  1.00  0.00     0.015 C 
HETATM   21  C10 UNL     1      46.384  48.926  38.757  1.00  0.00     0.107 C 
ENDBRANCH  13  16
ENDBRANCH  12  13
ENDBRANCH   4  12
BRANCH  10  22
HETATM   22  C15 UNL     1      46.669  48.125  33.452  1.00  0.00     0.060 C 
BRANCH  22  23
HETATM   23  C16 UNL     1      47.449  47.360  32.506  1.00  0.00     0.251 C 
HETATM   24  N2  UNL     1      46.943  46.806  31.272  1.00  0.00    -0.058 NA
HETATM   25  O3  UNL     1      48.700  47.085  32.666  1.00  0.00    -0.272 OA
ENDBRANCH  22  23
ENDBRANCH  10  22
TORSDOF 5
ENDMDL
MODEL 2
REMARK VINA RESULT: -7.558402174      2.415      3.475
REMARK  5 active torsions:
REMARK  status: ('A' for Active; 'I' for Inactive)
REMARK    1  A    between atoms: C4_4  and  C5_5 
REMARK    2  A    between atoms: C5_5  and  S1_6 
REMARK    3  A    between atoms: S1_6  and  N1_9 
REMARK    4  A    between atoms: C14_20  and  C15_21 
REMARK    5  A    between atoms: C15_21  and  C16_22 
ROOT
HETATM    1  C1  UNL     1      48.248  52.276  31.541  1.00  0.00     0.010 C 
HETATM    2  C2  UNL     1      47.166  51.898  32.516  1.00  0.00    -0.017 C 
HETATM    3  C3  UNL     1      47.754  51.114  33.704  1.00  0.00     0.016 C 
HETATM    4  C4  UNL     1      46.492  50.483  34.273  1.00  0.00    -0.009 C 
HETATM    5  C11 UNL     1      46.860  49.021  34.506  1.00  0.00     0.017 C 
HETATM    6  C12 UNL     1      46.420  48.326  33.254  1.00  0.00     0.081 C 
HETATM    7  C13 UNL     1      45.108  49.020  32.958  1.00  0.00     0.255 C 
HETATM    8  F1  UNL     1      44.871  48.837  31.598  1.00  0.00    -0.205 F 
HETATM    9  F2  UNL     1      44.192  48.422  33.739  1.00  0.00    -0.205 F 
HETATM   10  C14 UNL     1      45.442  50.460  33.268  1.00  0.00     0.057 C 
HETATM   11  C17 UNL     1      46.226  50.866  31.964  1.00  0.00     0.025 C 
ENDROOT
BRANCH   4  12
HETATM   12  C5  UNL     1      46.207  51.151  35.590  1.00  0.00     0.168 C 
BRANCH  12  13
HETATM   13  S1  UNL     1      47.531  51.215  36.718  1.00  0.00     0.212 S 
HETATM   14  O1  UNL     1      48.750  50.502  36.135  1.00  0.00    -0.211 OA
HETATM   15  O2  UNL     1      48.002  52.520  37.181  1.00  0.00    -0.211 OA
BRANCH  13  16
HETATM   16  N1  UNL     1      47.147  50.288  38.152  1.00  0.00    -0.211 NA
HETATM   17  C6  UNL     1      46.623  48.997  37.859  1.00  0.00     0.107 C 
HETATM   18  C7  UNL     1      46.853  48.077  39.045  1.00  0.00     0.015 C 
HETATM   19  C8  UNL     1      46.681  48.810  40.359  1.00  0.00     0.002 C 
HETATM   20  C9  UNL     1      47.545  50.026  40.490  1.00  0.00     0.015 C 
HETATM   21  C10 UNL     1      48.164  50.343  39.144  1.00  0.00     0.107 C 
ENDBRANCH  13  16
ENDBRANCH  12  13
ENDBRANCH   4  12
BRANCH  10  22
HETATM   22  C15 UNL     1      44.312  51.387  33.266  1.00  0.00     0.060 C 
BRANCH  22  23
HETATM   23  C16 UNL     1      43.222  51.330  32.319  1.00  0.00     0.251 C 
HETATM   24  N2  UNL     1      42.028  50.533  32.478  1.00  0.00    -0.058 NA
HETATM   25  O3  UNL     1      43.199  51.995  31.213  1.00  0.00    -0.272 OA
ENDBRANCH  22  23
ENDBRANCH  10  22
TORSDOF 5
ENDMDL
MODEL 3
REMARK VINA RESULT: -7.399784031      1.274      1.658
REMARK  5 active torsions:
REMARK  status: ('A' for Active; 'I' for Inactive)
REMARK    1  A    between atoms: C4_4  and  C5_5 
REMARK    2  A    between atoms: C5_5  and  S1_6 
REMARK    3  A    between atoms: S1_6  and  N1_9 
REMARK    4  A    between atoms: C14_20  and  C15_21 
REMARK    5  A    between atoms: C15_21  and  C16_22 
ROOT
HETATM    1  C1  UNL     1      43.311  51.640  31.982  1.00  0.00     0.010 C 
HETATM    2  C2  UNL     1      44.126  50.821  32.945  1.00  0.00    -0.017 C 
HETATM    3  C3  UNL     1      45.099  51.718  33.733  1.00  0.00     0.016 C 
HETATM    4  C4  UNL     1      46.071  50.676  34.264  1.00  0.00    -0.009 C 
HETATM    5  C11 UNL     1      47.454  51.255  33.980  1.00  0.00     0.017 C 
HETATM    6  C12 UNL     1      47.835  50.667  32.656  1.00  0.00     0.081 C 
HETATM    7  C13 UNL     1      47.323  49.248  32.787  1.00  0.00     0.255 C 
HETATM    8  F1  UNL     1      47.156  48.776  31.487  1.00  0.00    -0.205 F 
HETATM    9  F2  UNL     1      48.265  48.580  33.474  1.00  0.00    -0.205 F 
HETATM   10  C14 UNL     1      45.993  49.461  33.469  1.00  0.00     0.057 C 
HETATM   11  C17 UNL     1      45.109  49.923  32.250  1.00  0.00     0.025 C 
ENDROOT
BRANCH   4  12
HETATM   12  C5  UNL     1      45.859  50.573  35.749  1.00  0.00     0.168 C 
BRANCH  12  13
HETATM   13  S1  UNL     1      47.281  50.746  36.738  1.00  0.00     0.212 S 
HETATM   14  O1  UNL     1      48.432  49.933  36.147  1.00  0.00    -0.211 OA
HETATM   15  O2  UNL     1      47.811  52.087  36.986  1.00  0.00    -0.211 OA
BRANCH  13  16
HETATM   16  N1  UNL     1      47.016  50.018  38.308  1.00  0.00    -0.211 NA
HETATM   17  C6  UNL     1      46.481  48.701  38.230  1.00  0.00     0.107 C 
HETATM   18  C7  UNL     1      46.808  47.947  39.507  1.00  0.00     0.015 C 
HETATM   19  C8  UNL     1      46.732  48.848  40.721  1.00  0.00     0.002 C 
HETATM   20  C9  UNL     1      47.595  50.068  40.622  1.00  0.00     0.015 C 
HETATM   21  C10 UNL     1      48.106  50.202  39.202  1.00  0.00     0.107 C 
ENDBRANCH  13  16
ENDBRANCH  12  13
ENDBRANCH   4  12
BRANCH  10  22
HETATM   22  C15 UNL     1      45.311  48.250  33.920  1.00  0.00     0.060 C 
BRANCH  22  23
HETATM   23  C16 UNL     1      45.988  47.014  34.241  1.00  0.00     0.251 C 
HETATM   24  N2  UNL     1      46.568  46.112  33.273  1.00  0.00    -0.058 NA
HETATM   25  O3  UNL     1      46.148  46.577  35.445  1.00  0.00    -0.272 OA
ENDBRANCH  22  23
ENDBRANCH  10  22
TORSDOF 5
ENDMDL
MODEL 4
REMARK VINA RESULT: -7.179823042      2.393      3.382
REMARK  5 active torsions:
REMARK  status: ('A' for Active; 'I' for Inactive)
REMARK    1  A    between atoms: C4_4  and  C5_5 
REMARK    2  A    between atoms: C5_5  and  S1_6 
REMARK    3  A    between atoms: S1_6  and  N1_9 
REMARK    4  A    between atoms: C14_20  and  C15_21 
REMARK    5  A    between atoms: C15_21  and  C16_22 
ROOT
HETATM    1  C1  UNL     1      46.985  47.496  31.426  1.00  0.00     0.010 C 
HETATM    2  C2  UNL     1      47.109  48.762  32.227  1.00  0.00    -0.017 C 
HETATM    3  C3  UNL     1      46.571  48.558  33.655  1.00  0.00     0.016 C 
HETATM    4  C4  UNL     1      46.384  50.003  34.092  1.00  0.00    -0.009 C 
HETATM    5  C11 UNL     1      44.995  50.041  34.723  1.00  0.00     0.017 C 
HETATM    6  C12 UNL     1      44.093  50.457  33.602  1.00  0.00     0.081 C 
HETATM    7  C13 UNL     1      44.931  51.504  32.900  1.00  0.00     0.255 C 
HETATM    8  F1  UNL     1      44.440  51.585  31.600  1.00  0.00    -0.205 F 
HETATM    9  F2  UNL     1      44.761  52.639  33.600  1.00  0.00    -0.205 F 
HETATM   10  C14 UNL     1      46.303  50.875  32.931  1.00  0.00     0.057 C 
HETATM   11  C17 UNL     1      46.177  49.840  31.751  1.00  0.00     0.025 C 
ENDROOT
BRANCH   4  12
HETATM   12  C5  UNL     1      47.424  50.298  35.137  1.00  0.00     0.168 C 
BRANCH  12  13
HETATM   13  S1  UNL     1      46.883  51.207  36.519  1.00  0.00     0.212 S 
HETATM   14  O1  UNL     1      47.896  52.299  36.859  1.00  0.00    -0.211 OA
HETATM   15  O2  UNL     1      45.576  51.862  36.465  1.00  0.00    -0.211 OA
BRANCH  13  16
HETATM   16  N1  UNL     1      46.870  50.189  37.943  1.00  0.00    -0.211 NA
HETATM   17  C6  UNL     1      46.609  48.820  37.648  1.00  0.00     0.107 C 
HETATM   18  C7  UNL     1      47.162  47.950  38.763  1.00  0.00     0.015 C 
HETATM   19  C8  UNL     1      46.981  48.599  40.119  1.00  0.00     0.002 C 
HETATM   20  C9  UNL     1      47.570  49.973  40.214  1.00  0.00     0.015 C 
HETATM   21  C10 UNL     1      47.953  50.446  38.827  1.00  0.00     0.107 C 
ENDBRANCH  13  16
ENDBRANCH  12  13
ENDBRANCH   4  12
BRANCH  10  22
HETATM   22  C15 UNL     1      47.403  51.731  32.493  1.00  0.00     0.060 C 
BRANCH  22  23
HETATM   23  C16 UNL     1      47.326  52.630  31.364  1.00  0.00     0.251 C 
HETATM   24  N2  UNL     1      47.935  52.396  30.076  1.00  0.00    -0.058 NA
HETATM   25  O3  UNL     1      46.697  53.757  31.388  1.00  0.00    -0.272 OA
ENDBRANCH  22  23
ENDBRANCH  10  22
TORSDOF 5
ENDMDL
MODEL 5
REMARK VINA RESULT: -6.943678138      3.279      4.388
REMARK  5 active torsions:
REMARK  status: ('A' for Active; 'I' for Inactive)
REMARK    1  A    between atoms: C4_4  and  C5_5 
REMARK    2  A    between atoms: C5_5  and  S1_6 
REMARK    3  A    between atoms: S1_6  and  N1_9 
REMARK    4  A    between atoms: C14_20  and  C15_21 
REMARK    5  A    between atoms: C15_21  and  C16_22 
ROOT
HETATM    1  C1  UNL     1      45.666  47.543  28.867  1.00  0.00     0.010 C 
HETATM    2  C2  UNL     1      45.953  48.710  29.772  1.00  0.00    -0.017 C 
HETATM    3  C3  UNL     1      46.717  48.250  31.027  1.00  0.00     0.016 C 
HETATM    4  C4  UNL     1      46.494  49.444  31.943  1.00  0.00    -0.009 C 
HETATM    5  C11 UNL     1      46.078  48.836  33.280  1.00  0.00     0.017 C 
HETATM    6  C12 UNL     1      44.581  48.829  33.231  1.00  0.00     0.081 C 
HETATM    7  C13 UNL     1      44.284  50.159  32.570  1.00  0.00     0.255 C 
HETATM    8  F1  UNL     1      43.011  50.042  32.019  1.00  0.00    -0.205 F 
HETATM    9  F2  UNL     1      44.354  51.078  33.549  1.00  0.00    -0.205 F 
HETATM   10  C14 UNL     1      45.344  50.214  31.496  1.00  0.00     0.057 C 
HETATM   11  C17 UNL     1      44.712  49.263  30.412  1.00  0.00     0.025 C 
ENDROOT
BRANCH   4  12
HETATM   12  C5  UNL     1      47.813  50.150  32.095  1.00  0.00     0.168 C 
BRANCH  12  13
HETATM   13  S1  UNL     1      47.899  51.344  33.358  1.00  0.00     0.212 S 
HETATM   14  O1  UNL     1      49.348  51.777  33.573  1.00  0.00    -0.211 OA
HETATM   15  O2  UNL     1      47.120  52.575  33.220  1.00  0.00    -0.211 OA
BRANCH  13  16
HETATM   16  N1  UNL     1      47.440  50.635  34.891  1.00  0.00    -0.211 NA
HETATM   17  C6  UNL     1      48.548  50.117  35.620  1.00  0.00     0.107 C 
HETATM   18  C7  UNL     1      48.198  50.057  37.096  1.00  0.00     0.015 C 
HETATM   19  C8  UNL     1      46.752  49.662  37.310  1.00  0.00     0.002 C 
HETATM   20  C9  UNL     1      45.773  50.542  36.596  1.00  0.00     0.015 C 
HETATM   21  C10 UNL     1      46.522  51.434  35.626  1.00  0.00     0.107 C 
ENDBRANCH  13  16
ENDBRANCH  12  13
ENDBRANCH   4  12
BRANCH  10  22
HETATM   22  C15 UNL     1      45.458  51.484  30.783  1.00  0.00     0.060 C 
BRANCH  22  23
HETATM   23  C16 UNL     1      44.417  52.038  29.947  1.00  0.00     0.251 C 
HETATM   24  N2  UNL     1      44.454  52.091  28.505  1.00  0.00    -0.058 NA
HETATM   25  O3  UNL     1      43.327  52.553  30.408  1.00  0.00    -0.272 OA
ENDBRANCH  22  23
ENDBRANCH  10  22
TORSDOF 5
ENDMDL
