MODEL 1
REMARK VINA RESULT: -6.191121773      0.000      0.000
REMARK  2 active torsions:
REMARK  status: ('A' for Active; 'I' for Inactive)
REMARK    1  A    between atoms: N1_4  and  O1_6 
REMARK    2  A    between atoms: N2_9  and  O2_11 
ROOT
HETATM    1  C1  UNL     1       6.094   8.413  44.885  1.00  0.00     0.050 C 
HETATM    2  C2  UNL     1       7.522   8.435  44.318  1.00  0.00     0.272 C 
HETATM    3  C3  UNL     1       8.032   7.041  44.411  1.00  0.00     0.089 C 
HETATM    4  N1  UNL     1       8.662   6.641  45.475  1.00  0.00    -0.269 N 
ATOM      5  H1  UNL     1       8.997   5.677  45.502  1.00  0.00     0.194 HD
HETATM    6  C4  UNL     1       7.790   6.169  43.268  1.00  0.00     0.060 C 
HETATM    7  N2  UNL     1       7.848   4.902  43.468  1.00  0.00    -0.271 N 
ATOM      8  H2  UNL     1       8.057   4.553  44.403  1.00  0.00     0.194 HD
HETATM    9  C5  UNL     1       7.496   6.788  41.944  1.00  0.00     0.091 C 
HETATM   10  C6  UNL     1       8.193   8.155  42.025  1.00  0.00     0.279 C 
HETATM   11  N3  UNL     1       7.434   8.928  42.981  1.00  0.00     0.094 N 
HETATM   12  C7  UNL     1       7.818  10.316  42.844  1.00  0.00     0.310 C 
ENDROOT
BRANCH   4  13
HETATM   13  O1  UNL     1       8.899   7.425  46.546  1.00  0.00    -0.290 OA
ATOM     14  H1  UNL     1       8.946   7.101  47.438  1.00  0.00     0.244 HD
ENDBRANCH   4  13
BRANCH   7  15
HETATM   15  O2  UNL     1       7.633   4.009  42.450  1.00  0.00    -0.290 OA
ATOM     16  H2  UNL     1       6.875   4.079  41.882  1.00  0.00     0.244 HD
ENDBRANCH   7  15
TORSDOF 2
ENDMDL
MODEL 2
REMARK VINA RESULT: -5.626043623      1.039      3.391
REMARK  2 active torsions:
REMARK  status: ('A' for Active; 'I' for Inactive)
REMARK    1  A    between atoms: N1_4  and  O1_6 
REMARK    2  A    between atoms: N2_9  and  O2_11 
ROOT
HETATM    1  C1  UNL     1       9.408   6.730  41.379  1.00  0.00     0.050 C 
HETATM    2  C2  UNL     1       7.957   6.736  41.883  1.00  0.00     0.272 C 
HETATM    3  C3  UNL     1       7.988   6.181  43.262  1.00  0.00     0.089 C 
HETATM    4  N1  UNL     1       7.853   4.903  43.459  1.00  0.00    -0.269 N 
ATOM      5  H1  UNL     1       7.880   4.559  44.420  1.00  0.00     0.194 HD
HETATM    6  C4  UNL     1       8.177   7.127  44.355  1.00  0.00     0.060 C 
HETATM    7  N2  UNL     1       8.603   6.663  45.473  1.00  0.00    -0.271 N 
ATOM      8  H2  UNL     1       8.793   5.665  45.560  1.00  0.00     0.194 HD
HETATM    9  C5  UNL     1       7.864   8.566  44.117  1.00  0.00     0.091 C 
HETATM   10  C6  UNL     1       6.803   8.524  43.007  1.00  0.00     0.279 C 
HETATM   11  N3  UNL     1       7.497   8.087  41.817  1.00  0.00     0.094 N 
HETATM   12  C7  UNL     1       6.650   8.359  40.676  1.00  0.00     0.310 C 
ENDROOT
BRANCH   4  13
HETATM   13  O1  UNL     1       7.678   4.005  42.469  1.00  0.00    -0.290 OA
ATOM     14  H1  UNL     1       6.899   3.962  41.926  1.00  0.00     0.244 HD
ENDBRANCH   4  13
BRANCH   7  15
HETATM   15  O2  UNL     1       8.809   7.482  46.553  1.00  0.00    -0.290 OA
ATOM     16  H2  UNL     1       8.086   7.916  46.990  1.00  0.00     0.244 HD
ENDBRANCH   7  15
TORSDOF 2
ENDMDL
MODEL 3
REMARK VINA RESULT: -5.549787113      1.313      3.392
REMARK  2 active torsions:
REMARK  status: ('A' for Active; 'I' for Inactive)
REMARK    1  A    between atoms: N1_4  and  O1_6 
REMARK    2  A    between atoms: N2_9  and  O2_11 
ROOT
HETATM    1  C1  UNL     1       8.604   7.386  41.760  1.00  0.00     0.050 C 
HETATM    2  C2  UNL     1       7.217   7.581  42.392  1.00  0.00     0.272 C 
HETATM    3  C3  UNL     1       7.308   7.047  43.777  1.00  0.00     0.089 C 
HETATM    4  N1  UNL     1       7.036   5.799  44.020  1.00  0.00    -0.269 N 
ATOM      5  H1  UNL     1       7.109   5.470  44.983  1.00  0.00     0.194 HD
HETATM    6  C4  UNL     1       7.710   7.980  44.822  1.00  0.00     0.060 C 
HETATM    7  N2  UNL     1       8.178   7.484  45.910  1.00  0.00    -0.271 N 
ATOM      8  H2  UNL     1       8.251   6.471  46.006  1.00  0.00     0.194 HD
HETATM    9  C5  UNL     1       7.556   9.443  44.576  1.00  0.00     0.091 C 
HETATM   10  C6  UNL     1       6.400   9.515  43.566  1.00  0.00     0.279 C 
HETATM   11  N3  UNL     1       6.922   8.977  42.331  1.00  0.00     0.094 N 
HETATM   12  C7  UNL     1       6.013   9.334  41.264  1.00  0.00     0.310 C 
ENDROOT
BRANCH   4  13
HETATM   13  O1  UNL     1       6.661   4.915  43.073  1.00  0.00    -0.290 OA
ATOM     14  H1  UNL     1       5.880   5.009  42.541  1.00  0.00     0.244 HD
ENDBRANCH   4  13
BRANCH   7  15
HETATM   15  O2  UNL     1       8.582   8.287  46.945  1.00  0.00    -0.290 OA
ATOM     16  H2  UNL     1       8.733   9.217  46.820  1.00  0.00     0.244 HD
ENDBRANCH   7  15
TORSDOF 2
ENDMDL
MODEL 4
REMARK VINA RESULT: -5.505017805      2.350      3.846
REMARK  2 active torsions:
REMARK  status: ('A' for Active; 'I' for Inactive)
REMARK    1  A    between atoms: N1_4  and  O1_6 
REMARK    2  A    between atoms: N2_9  and  O2_11 
ROOT
HETATM    1  C1  UNL     1       8.205  11.052  43.818  1.00  0.00     0.050 C 
HETATM    2  C2  UNL     1       6.941  10.323  44.299  1.00  0.00     0.272 C 
HETATM    3  C3  UNL     1       7.225   8.868  44.182  1.00  0.00     0.089 C 
HETATM    4  N1  UNL     1       6.947   8.230  43.084  1.00  0.00    -0.269 N 
ATOM      5  H1  UNL     1       7.156   7.232  43.041  1.00  0.00     0.194 HD
HETATM    6  C4  UNL     1       7.819   8.213  45.341  1.00  0.00     0.060 C 
HETATM    7  N2  UNL     1       8.431   7.101  45.143  1.00  0.00    -0.271 N 
ATOM      8  H2  UNL     1       8.480   6.719  44.198  1.00  0.00     0.194 HD
HETATM    9  C5  UNL     1       7.684   8.860  46.677  1.00  0.00     0.091 C 
HETATM   10  C6  UNL     1       6.389   9.677  46.550  1.00  0.00     0.279 C 
HETATM   11  N3  UNL     1       6.693  10.755  45.637  1.00  0.00     0.094 N 
HETATM   12  C7  UNL     1       5.645  11.746  45.745  1.00  0.00     0.310 C 
ENDROOT
BRANCH   4  13
HETATM   13  O1  UNL     1       6.398   8.811  41.998  1.00  0.00    -0.290 OA
ATOM     14  H1  UNL     1       6.745   8.721  41.118  1.00  0.00     0.244 HD
ENDBRANCH   4  13
BRANCH   7  15
HETATM   15  O2  UNL     1       9.020   6.417  46.175  1.00  0.00    -0.290 OA
ATOM     16  H2  UNL     1       8.518   5.832  46.730  1.00  0.00     0.244 HD
ENDBRANCH   7  15
TORSDOF 2
ENDMDL
MODEL 5
REMARK VINA RESULT: -5.487143450      2.356      4.171
REMARK  2 active torsions:
REMARK  status: ('A' for Active; 'I' for Inactive)
REMARK    1  A    between atoms: N1_4  and  O1_6 
REMARK    2  A    between atoms: N2_9  and  O2_11 
ROOT
HETATM    1  C1  UNL     1      10.933   5.868  40.540  1.00  0.00     0.050 C 
HETATM    2  C2  UNL     1       9.459   6.302  40.539  1.00  0.00     0.272 C 
HETATM    3  C3  UNL     1       8.722   5.286  41.338  1.00  0.00     0.089 C 
HETATM    4  N1  UNL     1       8.219   4.235  40.761  1.00  0.00    -0.269 N 
ATOM      5  H1  UNL     1       7.720   3.561  41.342  1.00  0.00     0.194 HD
HETATM    6  C4  UNL     1       8.601   5.529  42.770  1.00  0.00     0.060 C 
HETATM    7  N2  UNL     1       8.343   4.520  43.522  1.00  0.00    -0.271 N 
ATOM      8  H2  UNL     1       8.234   3.598  43.100  1.00  0.00     0.194 HD
HETATM    9  C5  UNL     1       8.776   6.920  43.278  1.00  0.00     0.091 C 
HETATM   10  C6  UNL     1       8.369   7.793  42.081  1.00  0.00     0.279 C 
HETATM   11  N3  UNL     1       9.409   7.616  41.094  1.00  0.00     0.094 N 
HETATM   12  C7  UNL     1       9.272   8.662  40.103  1.00  0.00     0.310 C 
ENDROOT
BRANCH   4  13
HETATM   13  O1  UNL     1       8.316   3.985  39.440  1.00  0.00    -0.290 OA
ATOM     14  H1  UNL     1       7.660   4.243  38.803  1.00  0.00     0.244 HD
ENDBRANCH   4  13
BRANCH   7  15
HETATM   15  O2  UNL     1       8.213   4.657  44.879  1.00  0.00    -0.290 OA
ATOM     16  H2  UNL     1       8.346   3.922  45.466  1.00  0.00     0.244 HD
ENDBRANCH   7  15
TORSDOF 2
ENDMDL
