MODEL 1
REMARK VINA RESULT: -5.410742227      0.000      0.000
REMARK  3 active torsions:
REMARK  status: ('A' for Active; 'I' for Inactive)
REMARK    1  A    between atoms: S1_2  and  N1_3 
REMARK    2  A    between atoms: N1_3  and  O2_5 
REMARK    3  A    between atoms: N2_11  and  O3_13 
ROOT
HETATM    1  O1  UNL     1       5.735   7.711  44.888  1.00  0.00    -0.242 OA
HETATM    2  S1  UNL     1       7.201   7.885  44.786  1.00  0.00     0.088 S 
HETATM    3  C1  UNL     1       7.672   9.085  43.558  1.00  0.00     0.126 C 
HETATM    4  C2  UNL     1       8.117   8.245  42.395  1.00  0.00     0.020 C 
HETATM    5  C3  UNL     1       8.714   6.991  42.866  1.00  0.00     0.071 C 
HETATM    6  C4  UNL     1       7.995   6.498  44.052  1.00  0.00     0.107 C 
HETATM    7  N2  UNL     1       7.951   5.306  44.472  1.00  0.00    -0.264 N 
ATOM      8  H2  UNL     1       7.414   5.091  45.312  1.00  0.00     0.194 HD
ENDROOT
BRANCH   2   9
HETATM    9  N1  UNL     1       7.844   8.182  46.174  1.00  0.00    -0.222 N 
ATOM     10  H1  UNL     1       7.457   8.910  46.776  1.00  0.00     0.204 HD
BRANCH   9  11
HETATM   11  O2  UNL     1       8.949   7.445  46.583  1.00  0.00    -0.282 OA
ATOM     12  H2  UNL     1       9.618   7.865  47.111  1.00  0.00     0.245 HD
ENDBRANCH   9  11
ENDBRANCH   2   9
BRANCH   7  13
HETATM   13  O3  UNL     1       8.612   4.294  43.819  1.00  0.00    -0.289 OA
ATOM     14  H3  UNL     1       9.132   3.656  44.294  1.00  0.00     0.244 HD
ENDBRANCH   7  13
TORSDOF 3
ENDMDL
MODEL 2
REMARK VINA RESULT: -5.354310426      1.667      3.303
REMARK  3 active torsions:
REMARK  status: ('A' for Active; 'I' for Inactive)
REMARK    1  A    between atoms: S1_2  and  N1_3 
REMARK    2  A    between atoms: N1_3  and  O2_5 
REMARK    3  A    between atoms: N2_11  and  O3_13 
ROOT
HETATM    1  O1  UNL     1       9.684   6.700  44.178  1.00  0.00    -0.242 OA
HETATM    2  S1  UNL     1       8.206   6.767  44.196  1.00  0.00     0.088 S 
HETATM    3  C1  UNL     1       7.523   7.414  42.685  1.00  0.00     0.126 C 
HETATM    4  C2  UNL     1       7.168   8.831  43.035  1.00  0.00     0.020 C 
HETATM    5  C3  UNL     1       6.779   8.929  44.446  1.00  0.00     0.071 C 
HETATM    6  C4  UNL     1       7.602   8.025  45.266  1.00  0.00     0.107 C 
HETATM    7  N2  UNL     1       7.835   8.126  46.505  1.00  0.00    -0.264 N 
ATOM      8  H2  UNL     1       8.425   7.429  46.960  1.00  0.00     0.194 HD
ENDROOT
BRANCH   2   9
HETATM    9  N1  UNL     1       7.572   5.398  44.588  1.00  0.00    -0.222 N 
ATOM     10  H1  UNL     1       6.621   5.168  44.298  1.00  0.00     0.204 HD
BRANCH   9  11
HETATM   11  O2  UNL     1       8.316   4.493  45.337  1.00  0.00    -0.282 OA
ATOM     12  H2  UNL     1       8.002   4.229  46.194  1.00  0.00     0.245 HD
ENDBRANCH   9  11
ENDBRANCH   2   9
BRANCH   7  13
HETATM   13  O3  UNL     1       7.309   9.153  47.250  1.00  0.00    -0.289 OA
ATOM     14  H3  UNL     1       6.842   9.872  46.841  1.00  0.00     0.244 HD
ENDBRANCH   7  13
TORSDOF 3
ENDMDL
MODEL 3
REMARK VINA RESULT: -5.303066973      3.339      4.346
REMARK  3 active torsions:
REMARK  status: ('A' for Active; 'I' for Inactive)
REMARK    1  A    between atoms: S1_2  and  N1_3 
REMARK    2  A    between atoms: N1_3  and  O2_5 
REMARK    3  A    between atoms: N2_11  and  O3_13 
ROOT
HETATM    1  O1  UNL     1      10.907   6.235  43.576  1.00  0.00    -0.242 OA
HETATM    2  S1  UNL     1      10.530   5.908  42.183  1.00  0.00     0.088 S 
HETATM    3  C1  UNL     1      10.545   7.330  41.111  1.00  0.00     0.126 C 
HETATM    4  C2  UNL     1       9.092   7.684  40.972  1.00  0.00     0.020 C 
HETATM    5  C3  UNL     1       8.261   6.477  41.043  1.00  0.00     0.071 C 
HETATM    6  C4  UNL     1       8.821   5.528  42.018  1.00  0.00     0.107 C 
HETATM    7  N2  UNL     1       8.200   4.611  42.626  1.00  0.00    -0.264 N 
ATOM      8  H2  UNL     1       8.705   4.015  43.282  1.00  0.00     0.194 HD
ENDROOT
BRANCH   2   9
HETATM    9  N1  UNL     1      11.384   4.735  41.615  1.00  0.00    -0.222 N 
ATOM     10  H1  UNL     1      12.298   4.521  42.016  1.00  0.00     0.204 HD
BRANCH   9  11
HETATM   11  O2  UNL     1      10.889   3.985  40.555  1.00  0.00    -0.282 OA
ATOM     12  H2  UNL     1       9.967   3.756  40.537  1.00  0.00     0.245 HD
ENDBRANCH   9  11
ENDBRANCH   2   9
BRANCH   7  13
HETATM   13  O3  UNL     1       6.857   4.399  42.422  1.00  0.00    -0.289 OA
ATOM     14  H3  UNL     1       6.299   4.065  43.114  1.00  0.00     0.244 HD
ENDBRANCH   7  13
TORSDOF 3
ENDMDL
MODEL 4
REMARK VINA RESULT: -5.197034692      1.904      3.719
REMARK  3 active torsions:
REMARK  status: ('A' for Active; 'I' for Inactive)
REMARK    1  A    between atoms: S1_2  and  N1_3 
REMARK    2  A    between atoms: N1_3  and  O2_5 
REMARK    3  A    between atoms: N2_11  and  O3_13 
ROOT
HETATM    1  O1  UNL     1      10.753   5.561  43.026  1.00  0.00    -0.242 OA
HETATM    2  S1  UNL     1       9.282   5.717  42.991  1.00  0.00     0.088 S 
HETATM    3  C1  UNL     1       8.717   6.635  41.574  1.00  0.00     0.126 C 
HETATM    4  C2  UNL     1       8.423   7.999  42.131  1.00  0.00     0.020 C 
HETATM    5  C3  UNL     1       7.966   7.898  43.521  1.00  0.00     0.071 C 
HETATM    6  C4  UNL     1       8.692   6.827  44.221  1.00  0.00     0.107 C 
HETATM    7  N2  UNL     1       8.864   6.717  45.468  1.00  0.00    -0.264 N 
ATOM      8  H2  UNL     1       9.390   5.921  45.832  1.00  0.00     0.194 HD
ENDROOT
BRANCH   2   9
HETATM    9  N1  UNL     1       8.553   4.346  43.131  1.00  0.00    -0.222 N 
ATOM     10  H1  UNL     1       8.776   3.720  43.906  1.00  0.00     0.204 HD
BRANCH   9  11
HETATM   11  O2  UNL     1       7.597   3.985  42.188  1.00  0.00    -0.282 OA
ATOM     12  H2  UNL     1       6.992   4.641  41.865  1.00  0.00     0.245 HD
ENDBRANCH   9  11
ENDBRANCH   2   9
BRANCH   7  13
HETATM   13  O3  UNL     1       8.357   7.645  46.345  1.00  0.00    -0.289 OA
ATOM     14  H3  UNL     1       7.778   8.338  46.051  1.00  0.00     0.244 HD
ENDBRANCH   7  13
TORSDOF 3
ENDMDL
MODEL 5
REMARK VINA RESULT: -5.165803484      1.883      3.501
REMARK  3 active torsions:
REMARK  status: ('A' for Active; 'I' for Inactive)
REMARK    1  A    between atoms: S1_2  and  N1_3 
REMARK    2  A    between atoms: N1_3  and  O2_5 
REMARK    3  A    between atoms: N2_11  and  O3_13 
ROOT
HETATM    1  O1  UNL     1      10.876   6.327  43.619  1.00  0.00    -0.242 OA
HETATM    2  S1  UNL     1       9.580   6.270  42.907  1.00  0.00     0.088 S 
HETATM    3  C1  UNL     1       9.572   7.229  41.407  1.00  0.00     0.126 C 
HETATM    4  C2  UNL     1       8.825   8.475  41.788  1.00  0.00     0.020 C 
HETATM    5  C3  UNL     1       7.811   8.176  42.804  1.00  0.00     0.071 C 
HETATM    6  C4  UNL     1       8.313   7.159  43.742  1.00  0.00     0.107 C 
HETATM    7  N2  UNL     1       7.914   6.955  44.924  1.00  0.00    -0.264 N 
ATOM      8  H2  UNL     1       8.346   6.213  45.476  1.00  0.00     0.194 HD
ENDROOT
BRANCH   2   9
HETATM    9  N1  UNL     1       9.117   4.801  42.667  1.00  0.00    -0.222 N 
ATOM     10  H1  UNL     1       9.135   4.402  41.728  1.00  0.00     0.204 HD
BRANCH   9  11
HETATM   11  O2  UNL     1       8.681   4.040  43.746  1.00  0.00    -0.282 OA
ATOM     12  H2  UNL     1       8.442   4.476  44.556  1.00  0.00     0.245 HD
ENDBRANCH   9  11
ENDBRANCH   2   9
BRANCH   7  13
HETATM   13  O3  UNL     1       6.912   7.712  45.482  1.00  0.00    -0.289 OA
ATOM     14  H3  UNL     1       6.583   7.532  46.354  1.00  0.00     0.244 HD
ENDBRANCH   7  13
TORSDOF 3
ENDMDL
