MODEL 1
REMARK VINA RESULT: -8.737549613      0.000      0.000
REMARK  14 active torsions:
REMARK  status: ('A' for Active; 'I' for Inactive)
REMARK    1  A    between atoms: O1_2  and  C2_3 
REMARK       I    between atoms: C2_3  and  N1_5 
REMARK    2  A    between atoms: N1_5  and  C3_7 
REMARK    3  A    between atoms: C3_7  and  C4_8 
REMARK    4  A    between atoms: C3_7  and  C24_39 
REMARK       I    between atoms: C4_8  and  N2_10 
REMARK    5  A    between atoms: N2_10  and  C5_12 
REMARK    6  A    between atoms: C5_12  and  C6_13 
REMARK    7  A    between atoms: C5_12  and  C21_36 
REMARK    8  A    between atoms: C6_13  and  O5_15 
REMARK    9  A    between atoms: O5_15  and  C7_16 
REMARK   10  A    between atoms: C7_16  and  C8_17 
REMARK       I    between atoms: N3_21  and  C12_22 
REMARK   11  A    between atoms: C12_22  and  C13_24 
REMARK   12  A    between atoms: C13_24  and  N4_25 
REMARK   13  A    between atoms: C13_24  and  C16_31 
REMARK       I    between atoms: N4_25  and  C14_27 
REMARK   14  A    between atoms: C14_27  and  O8_29 
ROOT
HETATM    1  O5  UNL     1      -6.218  15.621  27.196  1.00  0.00    -0.289 OA
ENDROOT
BRANCH   1   2
HETATM    2  C6  UNL     1      -5.612  16.639  26.566  1.00  0.00     0.286 C 
HETATM    3  O4  UNL     1      -5.735  17.772  27.153  1.00  0.00    -0.263 OA
BRANCH   2   4
HETATM    4  C5  UNL     1      -4.895  16.416  25.307  1.00  0.00     0.188 C 
BRANCH   4   5
HETATM    5  N2  UNL     1      -5.735  16.358  24.146  1.00  0.00    -0.345 N 
HETATM    6  C4  UNL     1      -6.843  15.704  23.716  1.00  0.00     0.241 C 
HETATM    7  O3  UNL     1      -7.550  14.872  24.326  1.00  0.00    -0.271 OA
ATOM      8  H2  UNL     1      -5.399  17.002  23.430  1.00  0.00     0.163 HD
BRANCH   6   9
HETATM    9  C3  UNL     1      -7.285  16.066  22.295  1.00  0.00     0.182 C 
BRANCH   9  10
HETATM   10  N1  UNL     1      -6.069  16.450  21.570  1.00  0.00    -0.323 N 
HETATM   11  C2  UNL     1      -5.938  17.800  21.088  1.00  0.00     0.360 C 
HETATM   12  O2  UNL     1      -6.654  18.739  21.246  1.00  0.00    -0.239 OA
ATOM     13  H1  UNL     1      -5.326  15.769  21.410  1.00  0.00     0.165 HD
BRANCH  11  14
HETATM   14  O1  UNL     1      -4.753  17.988  20.297  1.00  0.00    -0.309 OA
HETATM   15  C1  UNL     1      -3.860  16.899  20.342  1.00  0.00     0.215 C 
ENDBRANCH  11  14
ENDBRANCH   9  10
BRANCH   9  16
HETATM   16  C24 UNL     1      -8.171  15.007  21.768  1.00  0.00     0.009 C 
HETATM   17  C25 UNL     1      -9.123  15.639  20.718  1.00  0.00     0.012 C 
HETATM   18  C26 UNL     1      -7.418  13.972  20.963  1.00  0.00     0.012 C 
ENDBRANCH   9  16
ENDBRANCH   6   9
ENDBRANCH   4   5
BRANCH   4  19
HETATM   19  C21 UNL     1      -3.882  17.468  24.967  1.00  0.00     0.010 C 
HETATM   20  C22 UNL     1      -4.523  18.765  24.438  1.00  0.00     0.012 C 
HETATM   21  C23 UNL     1      -2.788  17.123  24.042  1.00  0.00     0.012 C 
ENDBRANCH   4  19
ENDBRANCH   2   4
ENDBRANCH   1   2
BRANCH   1  22
HETATM   22  C7  UNL     1      -6.982  15.222  28.184  1.00  0.00     0.150 C 
BRANCH  22  23
HETATM   23  C8  UNL     1      -8.474  15.240  28.135  1.00  0.00    -0.040 C 
HETATM   24  C9  UNL     1      -9.006  16.624  27.913  1.00  0.00     0.039 C 
HETATM   25  C10 UNL     1      -9.694  16.923  26.647  1.00  0.00     0.024 C 
HETATM   26  C11 UNL     1     -10.363  15.733  25.975  1.00  0.00     0.126 C 
HETATM   27  N3  UNL     1     -10.475  14.732  27.017  1.00  0.00    -0.346 N 
HETATM   28  C12 UNL     1     -11.747  14.498  27.585  1.00  0.00     0.243 C 
HETATM   29  C20 UNL     1      -9.207  14.162  27.413  1.00  0.00     0.162 C 
HETATM   30  O6  UNL     1     -12.706  15.203  27.089  1.00  0.00    -0.271 OA
BRANCH  28  31
HETATM   31  C13 UNL     1     -12.071  13.570  28.686  1.00  0.00     0.186 C 
BRANCH  31  32
HETATM   32  N4  UNL     1     -12.333  14.231  29.930  1.00  0.00    -0.323 N 
HETATM   33  C14 UNL     1     -11.492  14.442  31.026  1.00  0.00     0.360 C 
HETATM   34  O7  UNL     1     -10.258  14.117  31.015  1.00  0.00    -0.239 OA
ATOM     35  H4  UNL     1     -13.278  14.604  30.031  1.00  0.00     0.165 HD
BRANCH  33  36
HETATM   36  O8  UNL     1     -11.953  15.013  32.193  1.00  0.00    -0.309 OA
HETATM   37  C15 UNL     1     -11.401  14.745  33.469  1.00  0.00     0.215 C 
ENDBRANCH  33  36
ENDBRANCH  31  32
BRANCH  31  38
HETATM   38  C16 UNL     1     -13.209  12.654  28.320  1.00  0.00    -0.022 C 
HETATM   39  C17 UNL     1     -14.553  13.252  28.750  1.00  0.00     0.017 C 
HETATM   40  C18 UNL     1     -13.332  12.172  26.938  1.00  0.00     0.017 C 
HETATM   41  C19 UNL     1     -13.164  11.383  29.218  1.00  0.00     0.017 C 
ENDBRANCH  31  38
ENDBRANCH  28  31
ENDBRANCH  22  23
ENDBRANCH   1  22
TORSDOF 14
ENDMDL
MODEL 2
REMARK VINA RESULT: -8.721282809      1.839      9.864
REMARK  14 active torsions:
REMARK  status: ('A' for Active; 'I' for Inactive)
REMARK    1  A    between atoms: O1_2  and  C2_3 
REMARK       I    between atoms: C2_3  and  N1_5 
REMARK    2  A    between atoms: N1_5  and  C3_7 
REMARK    3  A    between atoms: C3_7  and  C4_8 
REMARK    4  A    between atoms: C3_7  and  C24_39 
REMARK       I    between atoms: C4_8  and  N2_10 
REMARK    5  A    between atoms: N2_10  and  C5_12 
REMARK    6  A    between atoms: C5_12  and  C6_13 
REMARK    7  A    between atoms: C5_12  and  C21_36 
REMARK    8  A    between atoms: C6_13  and  O5_15 
REMARK    9  A    between atoms: O5_15  and  C7_16 
REMARK   10  A    between atoms: C7_16  and  C8_17 
REMARK       I    between atoms: N3_21  and  C12_22 
REMARK   11  A    between atoms: C12_22  and  C13_24 
REMARK   12  A    between atoms: C13_24  and  N4_25 
REMARK   13  A    between atoms: C13_24  and  C16_31 
REMARK       I    between atoms: N4_25  and  C14_27 
REMARK   14  A    between atoms: C14_27  and  O8_29 
ROOT
HETATM    1  O5  UNL     1     -10.479  13.105  26.237  1.00  0.00    -0.289 OA
ENDROOT
BRANCH   1   2
HETATM    2  C6  UNL     1     -11.667  13.080  26.860  1.00  0.00     0.286 C 
HETATM    3  O4  UNL     1     -12.595  13.726  26.254  1.00  0.00    -0.263 OA
BRANCH   2   4
HETATM    4  C5  UNL     1     -11.828  12.368  28.132  1.00  0.00     0.188 C 
BRANCH   4   5
HETATM    5  N2  UNL     1     -11.366  13.092  29.280  1.00  0.00    -0.345 N 
HETATM    6  C4  UNL     1     -10.256  13.751  29.697  1.00  0.00     0.241 C 
HETATM    7  O3  UNL     1      -9.188  13.959  29.080  1.00  0.00    -0.271 OA
ATOM      8  H2  UNL     1     -12.090  13.120  30.000  1.00  0.00     0.163 HD
BRANCH   6   9
HETATM    9  C3  UNL     1     -10.353  14.333  31.111  1.00  0.00     0.182 C 
BRANCH   9  10
HETATM   10  N1  UNL     1     -11.279  13.469  31.850  1.00  0.00    -0.323 N 
HETATM   11  C2  UNL     1     -12.519  14.020  32.331  1.00  0.00     0.360 C 
HETATM   12  O2  UNL     1     -12.989  15.101  32.161  1.00  0.00    -0.239 OA
ATOM     13  H1  UNL     1     -11.047  12.490  32.021  1.00  0.00     0.165 HD
BRANCH  11  14
HETATM   14  O1  UNL     1     -13.258  13.088  33.136  1.00  0.00    -0.309 OA
HETATM   15  C1  UNL     1     -12.746  11.775  33.102  1.00  0.00     0.215 C 
ENDBRANCH  11  14
ENDBRANCH   9  10
BRANCH   9  16
HETATM   16  C24 UNL     1      -8.996  14.599  31.630  1.00  0.00     0.009 C 
HETATM   17  C25 UNL     1      -9.074  15.785  32.629  1.00  0.00     0.012 C 
HETATM   18  C26 UNL     1      -8.474  13.468  32.487  1.00  0.00     0.012 C 
ENDBRANCH   9  16
ENDBRANCH   6   9
ENDBRANCH   4   5
BRANCH   4  19
HETATM   19  C21 UNL     1     -13.243  12.011  28.476  1.00  0.00     0.010 C 
HETATM   20  C22 UNL     1     -14.051  13.212  29.004  1.00  0.00     0.012 C 
HETATM   21  C23 UNL     1     -13.483  10.892  29.404  1.00  0.00     0.012 C 
ENDBRANCH   4  19
ENDBRANCH   2   4
ENDBRANCH   1   2
BRANCH   1  22
HETATM   22  C7  UNL     1      -9.755  13.556  25.242  1.00  0.00     0.150 C 
BRANCH  22  23
HETATM   23  C8  UNL     1      -9.031  14.862  25.271  1.00  0.00    -0.040 C 
HETATM   24  C9  UNL     1      -9.970  16.013  25.475  1.00  0.00     0.039 C 
HETATM   25  C10 UNL     1      -9.889  16.777  26.729  1.00  0.00     0.024 C 
HETATM   26  C11 UNL     1      -8.524  16.780  27.402  1.00  0.00     0.126 C 
HETATM   27  N3  UNL     1      -7.599  16.365  26.367  1.00  0.00    -0.346 N 
HETATM   28  C12 UNL     1      -6.765  17.344  25.784  1.00  0.00     0.243 C 
HETATM   29  C20 UNL     1      -7.732  14.975  25.992  1.00  0.00     0.162 C 
HETATM   30  O6  UNL     1      -6.902  18.535  26.262  1.00  0.00    -0.271 OA
BRANCH  28  31
HETATM   31  C13 UNL     1      -5.798  17.149  24.687  1.00  0.00     0.186 C 
BRANCH  31  32
HETATM   32  N4  UNL     1      -6.222  17.723  23.444  1.00  0.00    -0.323 N 
HETATM   33  C14 UNL     1      -6.875  17.127  22.361  1.00  0.00     0.360 C 
HETATM   34  O7  UNL     1      -7.280  15.917  22.385  1.00  0.00    -0.239 OA
ATOM     35  H4  UNL     1      -6.018  18.716  23.333  1.00  0.00     0.165 HD
BRANCH  33  36
HETATM   36  O8  UNL     1      -7.115  17.817  21.192  1.00  0.00    -0.309 OA
HETATM   37  C15 UNL     1      -6.700  17.367  19.915  1.00  0.00     0.215 C 
ENDBRANCH  33  36
ENDBRANCH  31  32
BRANCH  31  38
HETATM   38  C16 UNL     1      -4.428  17.649  25.062  1.00  0.00    -0.022 C 
HETATM   39  C17 UNL     1      -4.220  19.090  24.582  1.00  0.00     0.017 C 
HETATM   40  C18 UNL     1      -3.981  17.552  26.457  1.00  0.00     0.017 C 
HETATM   41  C19 UNL     1      -3.352  16.910  24.212  1.00  0.00     0.017 C 
ENDBRANCH  31  38
ENDBRANCH  28  31
ENDBRANCH  22  23
ENDBRANCH   1  22
TORSDOF 14
ENDMDL
MODEL 3
REMARK VINA RESULT: -8.475871977      1.919      9.814
REMARK  14 active torsions:
REMARK  status: ('A' for Active; 'I' for Inactive)
REMARK    1  A    between atoms: O1_2  and  C2_3 
REMARK       I    between atoms: C2_3  and  N1_5 
REMARK    2  A    between atoms: N1_5  and  C3_7 
REMARK    3  A    between atoms: C3_7  and  C4_8 
REMARK    4  A    between atoms: C3_7  and  C24_39 
REMARK       I    between atoms: C4_8  and  N2_10 
REMARK    5  A    between atoms: N2_10  and  C5_12 
REMARK    6  A    between atoms: C5_12  and  C6_13 
REMARK    7  A    between atoms: C5_12  and  C21_36 
REMARK    8  A    between atoms: C6_13  and  O5_15 
REMARK    9  A    between atoms: O5_15  and  C7_16 
REMARK   10  A    between atoms: C7_16  and  C8_17 
REMARK       I    between atoms: N3_21  and  C12_22 
REMARK   11  A    between atoms: C12_22  and  C13_24 
REMARK   12  A    between atoms: C13_24  and  N4_25 
REMARK   13  A    between atoms: C13_24  and  C16_31 
REMARK       I    between atoms: N4_25  and  C14_27 
REMARK   14  A    between atoms: C14_27  and  O8_29 
ROOT
HETATM    1  O5  UNL     1     -10.209  13.025  26.742  1.00  0.00    -0.289 OA
ENDROOT
BRANCH   1   2
HETATM    2  C6  UNL     1     -11.412  12.431  26.721  1.00  0.00     0.286 C 
HETATM    3  O4  UNL     1     -11.618  11.691  25.694  1.00  0.00    -0.263 OA
BRANCH   2   4
HETATM    4  C5  UNL     1     -12.375  12.658  27.803  1.00  0.00     0.188 C 
BRANCH   4   5
HETATM    5  N2  UNL     1     -11.819  13.270  28.974  1.00  0.00    -0.345 N 
HETATM    6  C4  UNL     1     -11.969  13.225  30.322  1.00  0.00     0.241 C 
HETATM    7  O3  UNL     1     -12.729  12.503  31.004  1.00  0.00    -0.271 OA
ATOM      8  H2  UNL     1     -11.093  13.940  28.718  1.00  0.00     0.163 HD
BRANCH   6   9
HETATM    9  C3  UNL     1     -11.056  14.181  31.097  1.00  0.00     0.182 C 
BRANCH   9  10
HETATM   10  N1  UNL     1     -10.777  13.534  32.383  1.00  0.00    -0.323 N 
HETATM   11  C2  UNL     1     -10.847  14.317  33.590  1.00  0.00     0.360 C 
HETATM   12  O2  UNL     1     -11.183  15.448  33.746  1.00  0.00    -0.239 OA
ATOM     13  H1  UNL     1     -10.537  12.543  32.422  1.00  0.00     0.165 HD
BRANCH  11  14
HETATM   14  O1  UNL     1     -10.431  13.575  34.749  1.00  0.00    -0.309 OA
HETATM   15  C1  UNL     1     -11.088  12.338  34.899  1.00  0.00     0.215 C 
ENDBRANCH  11  14
ENDBRANCH   9  10
BRANCH   9  16
HETATM   16  C24 UNL     1      -9.951  14.625  30.224  1.00  0.00     0.009 C 
HETATM   17  C25 UNL     1      -9.489  16.032  30.689  1.00  0.00     0.012 C 
HETATM   18  C26 UNL     1      -8.705  13.785  30.396  1.00  0.00     0.012 C 
ENDBRANCH   9  16
ENDBRANCH   6   9
ENDBRANCH   4   5
BRANCH   4  19
HETATM   19  C21 UNL     1     -13.525  13.549  27.442  1.00  0.00     0.010 C 
HETATM   20  C22 UNL     1     -13.082  14.977  27.071  1.00  0.00     0.012 C 
HETATM   21  C23 UNL     1     -14.642  13.681  28.395  1.00  0.00     0.012 C 
ENDBRANCH   4  19
ENDBRANCH   2   4
ENDBRANCH   1   2
BRANCH   1  22
HETATM   22  C7  UNL     1      -9.079  13.270  26.124  1.00  0.00     0.150 C 
BRANCH  22  23
HETATM   23  C8  UNL     1      -8.561  14.646  25.863  1.00  0.00    -0.040 C 
HETATM   24  C9  UNL     1      -9.653  15.672  25.922  1.00  0.00     0.039 C 
HETATM   25  C10 UNL     1      -9.632  16.665  27.007  1.00  0.00     0.024 C 
HETATM   26  C11 UNL     1      -8.254  16.986  27.567  1.00  0.00     0.126 C 
HETATM   27  N3  UNL     1      -7.324  16.516  26.560  1.00  0.00    -0.346 N 
HETATM   28  C12 UNL     1      -6.675  17.473  25.751  1.00  0.00     0.243 C 
HETATM   29  C20 UNL     1      -7.263  15.075  26.456  1.00  0.00     0.162 C 
HETATM   30  O6  UNL     1      -6.969  18.702  26.013  1.00  0.00    -0.271 OA
BRANCH  28  31
HETATM   31  C13 UNL     1      -5.740  17.211  24.640  1.00  0.00     0.186 C 
BRANCH  31  32
HETATM   32  N4  UNL     1      -6.179  17.746  23.386  1.00  0.00    -0.323 N 
HETATM   33  C14 UNL     1      -6.941  17.152  22.376  1.00  0.00     0.360 C 
HETATM   34  O7  UNL     1      -7.451  15.988  22.498  1.00  0.00    -0.239 OA
ATOM     35  H4  UNL     1      -5.892  18.708  23.202  1.00  0.00     0.165 HD
BRANCH  33  36
HETATM   36  O8  UNL     1      -7.182  17.791  21.179  1.00  0.00    -0.309 OA
HETATM   37  C15 UNL     1      -6.671  17.347  19.936  1.00  0.00     0.215 C 
ENDBRANCH  33  36
ENDBRANCH  31  32
BRANCH  31  38
HETATM   38  C16 UNL     1      -4.349  17.688  24.964  1.00  0.00    -0.022 C 
HETATM   39  C17 UNL     1      -4.122  19.110  24.439  1.00  0.00     0.017 C 
HETATM   40  C18 UNL     1      -3.866  17.617  26.349  1.00  0.00     0.017 C 
HETATM   41  C19 UNL     1      -3.315  16.901  24.106  1.00  0.00     0.017 C 
ENDBRANCH  31  38
ENDBRANCH  28  31
ENDBRANCH  22  23
ENDBRANCH   1  22
TORSDOF 14
ENDMDL
MODEL 4
REMARK VINA RESULT: -8.470517188      1.928      3.140
REMARK  14 active torsions:
REMARK  status: ('A' for Active; 'I' for Inactive)
REMARK    1  A    between atoms: O1_2  and  C2_3 
REMARK       I    between atoms: C2_3  and  N1_5 
REMARK    2  A    between atoms: N1_5  and  C3_7 
REMARK    3  A    between atoms: C3_7  and  C4_8 
REMARK    4  A    between atoms: C3_7  and  C24_39 
REMARK       I    between atoms: C4_8  and  N2_10 
REMARK    5  A    between atoms: N2_10  and  C5_12 
REMARK    6  A    between atoms: C5_12  and  C6_13 
REMARK    7  A    between atoms: C5_12  and  C21_36 
REMARK    8  A    between atoms: C6_13  and  O5_15 
REMARK    9  A    between atoms: O5_15  and  C7_16 
REMARK   10  A    between atoms: C7_16  and  C8_17 
REMARK       I    between atoms: N3_21  and  C12_22 
REMARK   11  A    between atoms: C12_22  and  C13_24 
REMARK   12  A    between atoms: C13_24  and  N4_25 
REMARK   13  A    between atoms: C13_24  and  C16_31 
REMARK       I    between atoms: N4_25  and  C14_27 
REMARK   14  A    between atoms: C14_27  and  O8_29 
ROOT
HETATM    1  O5  UNL     1      -9.203  13.635  25.798  1.00  0.00    -0.289 OA
ENDROOT
BRANCH   1   2
HETATM    2  C6  UNL     1      -7.999  13.910  26.322  1.00  0.00     0.286 C 
HETATM    3  O4  UNL     1      -7.518  12.978  27.059  1.00  0.00    -0.263 OA
BRANCH   2   4
HETATM    4  C5  UNL     1      -7.342  15.193  26.051  1.00  0.00     0.188 C 
BRANCH   4   5
HETATM    5  N2  UNL     1      -7.510  15.675  24.711  1.00  0.00    -0.345 N 
HETATM    6  C4  UNL     1      -8.461  16.272  23.949  1.00  0.00     0.241 C 
HETATM    7  O3  UNL     1      -9.610  16.644  24.275  1.00  0.00    -0.271 OA
ATOM      8  H2  UNL     1      -6.660  15.524  24.167  1.00  0.00     0.163 HD
BRANCH   6   9
HETATM    9  C3  UNL     1      -8.042  16.539  22.500  1.00  0.00     0.182 C 
BRANCH   9  10
HETATM   10  N1  UNL     1      -6.589  16.737  22.520  1.00  0.00    -0.323 N 
HETATM   11  C2  UNL     1      -6.027  17.873  21.837  1.00  0.00     0.360 C 
HETATM   12  O2  UNL     1      -6.572  18.777  21.286  1.00  0.00    -0.239 OA
ATOM     13  H1  UNL     1      -5.984  16.077  23.012  1.00  0.00     0.165 HD
BRANCH  11  14
HETATM   14  O1  UNL     1      -4.590  17.862  21.845  1.00  0.00    -0.309 OA
HETATM   15  C1  UNL     1      -4.029  17.732  23.132  1.00  0.00     0.215 C 
ENDBRANCH  11  14
ENDBRANCH   9  10
BRANCH   9  16
HETATM   16  C24 UNL     1      -8.650  15.524  21.615  1.00  0.00     0.009 C 
HETATM   17  C25 UNL     1      -9.005  16.199  20.263  1.00  0.00     0.012 C 
HETATM   18  C26 UNL     1      -7.668  14.449  21.209  1.00  0.00     0.012 C 
ENDBRANCH   9  16
ENDBRANCH   6   9
ENDBRANCH   4   5
BRANCH   4  19
HETATM   19  C21 UNL     1      -7.813  16.331  26.904  1.00  0.00     0.010 C 
HETATM   20  C22 UNL     1      -6.711  17.376  27.169  1.00  0.00     0.012 C 
HETATM   21  C23 UNL     1      -8.437  16.029  28.205  1.00  0.00     0.012 C 
ENDBRANCH   4  19
ENDBRANCH   2   4
ENDBRANCH   1   2
BRANCH   1  22
HETATM   22  C7  UNL     1     -10.381  13.081  25.949  1.00  0.00     0.150 C 
BRANCH  22  23
HETATM   23  C8  UNL     1     -11.276  13.344  27.114  1.00  0.00    -0.040 C 
HETATM   24  C9  UNL     1     -11.765  14.762  27.131  1.00  0.00     0.039 C 
HETATM   25  C10 UNL     1     -13.197  15.018  26.912  1.00  0.00     0.024 C 
HETATM   26  C11 UNL     1     -14.129  13.887  27.319  1.00  0.00     0.126 C 
HETATM   27  N3  UNL     1     -13.337  13.051  28.199  1.00  0.00    -0.346 N 
HETATM   28  C12 UNL     1     -13.599  13.103  29.586  1.00  0.00     0.243 C 
HETATM   29  C20 UNL     1     -12.286  12.327  27.521  1.00  0.00     0.162 C 
HETATM   30  O6  UNL     1     -14.557  13.896  29.932  1.00  0.00    -0.271 OA
BRANCH  28  31
HETATM   31  C13 UNL     1     -12.881  12.382  30.654  1.00  0.00     0.186 C 
BRANCH  31  32
HETATM   32  N4  UNL     1     -12.715  13.153  31.850  1.00  0.00    -0.323 N 
HETATM   33  C14 UNL     1     -11.928  14.284  32.083  1.00  0.00     0.360 C 
HETATM   34  O7  UNL     1     -11.271  14.865  31.156  1.00  0.00    -0.239 OA
ATOM     35  H4  UNL     1     -13.252  12.826  32.654  1.00  0.00     0.165 HD
BRANCH  33  36
HETATM   36  O8  UNL     1     -11.810  14.837  33.340  1.00  0.00    -0.309 OA
HETATM   37  C15 UNL     1     -10.570  15.148  33.948  1.00  0.00     0.215 C 
ENDBRANCH  33  36
ENDBRANCH  31  32
BRANCH  31  38
HETATM   38  C16 UNL     1     -13.531  11.059  30.961  1.00  0.00    -0.022 C 
HETATM   39  C17 UNL     1     -13.252  10.633  32.406  1.00  0.00     0.017 C 
HETATM   40  C18 UNL     1     -14.964  10.878  30.688  1.00  0.00     0.017 C 
HETATM   41  C19 UNL     1     -12.799   9.925  30.184  1.00  0.00     0.017 C 
ENDBRANCH  31  38
ENDBRANCH  28  31
ENDBRANCH  22  23
ENDBRANCH   1  22
TORSDOF 14
ENDMDL
MODEL 5
REMARK VINA RESULT: -8.373170812      2.065      9.900
REMARK  14 active torsions:
REMARK  status: ('A' for Active; 'I' for Inactive)
REMARK    1  A    between atoms: O1_2  and  C2_3 
REMARK       I    between atoms: C2_3  and  N1_5 
REMARK    2  A    between atoms: N1_5  and  C3_7 
REMARK    3  A    between atoms: C3_7  and  C4_8 
REMARK    4  A    between atoms: C3_7  and  C24_39 
REMARK       I    between atoms: C4_8  and  N2_10 
REMARK    5  A    between atoms: N2_10  and  C5_12 
REMARK    6  A    between atoms: C5_12  and  C6_13 
REMARK    7  A    between atoms: C5_12  and  C21_36 
REMARK    8  A    between atoms: C6_13  and  O5_15 
REMARK    9  A    between atoms: O5_15  and  C7_16 
REMARK   10  A    between atoms: C7_16  and  C8_17 
REMARK       I    between atoms: N3_21  and  C12_22 
REMARK   11  A    between atoms: C12_22  and  C13_24 
REMARK   12  A    between atoms: C13_24  and  N4_25 
REMARK   13  A    between atoms: C13_24  and  C16_31 
REMARK       I    between atoms: N4_25  and  C14_27 
REMARK   14  A    between atoms: C14_27  and  O8_29 
ROOT
HETATM    1  O5  UNL     1      -7.225  14.837  27.505  1.00  0.00    -0.289 OA
ENDROOT
BRANCH   1   2
HETATM    2  C6  UNL     1      -8.067  13.873  27.103  1.00  0.00     0.286 C 
HETATM    3  O4  UNL     1      -7.507  12.919  26.454  1.00  0.00    -0.263 OA
BRANCH   2   4
HETATM    4  C5  UNL     1      -9.500  13.962  27.398  1.00  0.00     0.188 C 
BRANCH   4   5
HETATM    5  N2  UNL     1      -9.807  14.319  28.753  1.00  0.00    -0.345 N 
HETATM    6  C4  UNL     1      -9.774  15.412  29.556  1.00  0.00     0.241 C 
HETATM    7  O3  UNL     1      -9.445  16.585  29.274  1.00  0.00    -0.271 OA
ATOM      8  H2  UNL     1     -10.154  13.509  29.266  1.00  0.00     0.163 HD
BRANCH   6   9
HETATM    9  C3  UNL     1     -10.229  15.158  30.997  1.00  0.00     0.182 C 
BRANCH   9  10
HETATM   10  N1  UNL     1     -11.091  13.973  30.955  1.00  0.00    -0.323 N 
HETATM   11  C2  UNL     1     -12.358  14.003  31.639  1.00  0.00     0.360 C 
HETATM   12  O2  UNL     1     -12.895  14.901  32.207  1.00  0.00    -0.239 OA
ATOM     13  H1  UNL     1     -10.798  13.137  30.447  1.00  0.00     0.165 HD
BRANCH  11  14
HETATM   14  O1  UNL     1     -13.030  12.734  31.607  1.00  0.00    -0.309 OA
HETATM   15  C1  UNL     1     -13.273  12.251  30.306  1.00  0.00     0.215 C 
ENDBRANCH  11  14
ENDBRANCH   9  10
BRANCH   9  16
HETATM   16  C24 UNL     1      -9.060  15.204  31.900  1.00  0.00     0.009 C 
HETATM   17  C25 UNL     1      -9.481  15.908  33.217  1.00  0.00     0.012 C 
HETATM   18  C26 UNL     1      -8.638  13.830  32.370  1.00  0.00     0.012 C 
ENDBRANCH   9  16
ENDBRANCH   6   9
ENDBRANCH   4   5
BRANCH   4  19
HETATM   19  C21 UNL     1     -10.247  14.973  26.582  1.00  0.00     0.010 C 
HETATM   20  C22 UNL     1     -11.756  14.676  26.495  1.00  0.00     0.012 C 
HETATM   21  C23 UNL     1      -9.787  15.253  25.210  1.00  0.00     0.012 C 
ENDBRANCH   4  19
ENDBRANCH   2   4
ENDBRANCH   1   2
BRANCH   1  22
HETATM   22  C7  UNL     1      -6.095  15.475  27.319  1.00  0.00     0.150 C 
BRANCH  22  23
HETATM   23  C8  UNL     1      -5.842  16.390  26.167  1.00  0.00    -0.040 C 
HETATM   24  C9  UNL     1      -6.820  17.525  26.133  1.00  0.00     0.039 C 
HETATM   25  C10 UNL     1      -6.328  18.890  26.375  1.00  0.00     0.024 C 
HETATM   26  C11 UNL     1      -4.871  19.130  26.010  1.00  0.00     0.126 C 
HETATM   27  N3  UNL     1      -4.523  18.032  25.130  1.00  0.00    -0.346 N 
HETATM   28  C12 UNL     1      -4.399  18.296  23.748  1.00  0.00     0.243 C 
HETATM   29  C20 UNL     1      -4.444  16.754  25.801  1.00  0.00     0.162 C 
HETATM   30  O6  UNL     1      -4.594  19.524  23.407  1.00  0.00    -0.271 OA
BRANCH  28  31
HETATM   31  C13 UNL     1      -4.108  17.320  22.680  1.00  0.00     0.186 C 
BRANCH  31  32
HETATM   32  N4  UNL     1      -4.846  17.556  21.475  1.00  0.00    -0.323 N 
HETATM   33  C14 UNL     1      -6.226  17.534  21.252  1.00  0.00     0.360 C 
HETATM   34  O7  UNL     1      -7.070  17.369  22.196  1.00  0.00    -0.239 OA
ATOM     35  H4  UNL     1      -4.279  17.774  20.655  1.00  0.00     0.165 HD
BRANCH  33  36
HETATM   36  O8  UNL     1      -6.758  17.685  19.990  1.00  0.00    -0.309 OA
HETATM   37  C15 UNL     1      -7.725  16.812  19.436  1.00  0.00     0.215 C 
ENDBRANCH  33  36
ENDBRANCH  31  32
BRANCH  31  38
HETATM   38  C16 UNL     1      -2.632  17.241  22.392  1.00  0.00    -0.022 C 
HETATM   39  C17 UNL     1      -2.379  16.892  20.922  1.00  0.00     0.017 C 
HETATM   40  C18 UNL     1      -1.763  18.366  22.762  1.00  0.00     0.017 C 
HETATM   41  C19 UNL     1      -2.031  15.985  23.089  1.00  0.00     0.017 C 
ENDBRANCH  31  38
ENDBRANCH  28  31
ENDBRANCH  22  23
ENDBRANCH   1  22
TORSDOF 14
ENDMDL
