MODEL 1
REMARK VINA RESULT: -8.652404830      0.000      0.000
REMARK  11 active torsions:
REMARK  status: ('A' for Active; 'I' for Inactive)
REMARK    1  A    between atoms: C2_2  and  C3_3 
REMARK    2  A    between atoms: C3_3  and  C4_4 
REMARK    3  A    between atoms: C4_4  and  N1_5 
REMARK    4  A    between atoms: C7_8  and  N2_9 
REMARK       I    between atoms: N2_9  and  C8_11 
REMARK       I    between atoms: C8_11  and  N3_13 
REMARK    5  A    between atoms: N3_13  and  C9_15 
REMARK    6  A    between atoms: C9_15  and  C10_16 
REMARK    7  A    between atoms: C10_16  and  N4_17 
REMARK    8  A    between atoms: N4_17  and  C11_19 
REMARK    9  A    between atoms: C19_30  and  N7_31 
REMARK   10  A    between atoms: C25_38  and  O2_39 
REMARK   11  A    between atoms: O2_39  and  C26_40 
ROOT
HETATM    1  C11 UNL     1      -5.595  16.767  19.590  1.00  0.00     0.106 A 
HETATM    2  N5  UNL     1      -4.589  16.152  18.951  1.00  0.00    -0.351 N 
ATOM      3  H5  UNL     1      -4.785  15.677  18.069  1.00  0.00     0.166 HD
HETATM    4  C12 UNL     1      -3.313  16.138  19.437  1.00  0.00     0.112 A 
HETATM    5  C13 UNL     1      -2.966  16.754  20.619  1.00  0.00     0.060 A 
HETATM    6  C14 UNL     1      -1.622  16.733  21.122  1.00  0.00     0.101 C 
HETATM    7  N6  UNL     1      -0.524  16.702  21.518  1.00  0.00    -0.191 NA
HETATM    8  C15 UNL     1      -3.988  17.391  21.291  1.00  0.00     0.034 A 
HETATM    9  C16 UNL     1      -5.270  17.400  20.794  1.00  0.00    -0.017 A 
HETATM   10  C17 UNL     1      -6.379  18.086  21.512  1.00  0.00     0.052 C 
ENDROOT
BRANCH   1  11
HETATM   11  N4  UNL     1      -6.805  16.787  19.145  1.00  0.00    -0.374 N 
ATOM     12  H4  UNL     1      -7.222  17.701  18.968  1.00  0.00     0.161 HD
BRANCH  11  13
HETATM   13  C10 UNL     1      -7.617  15.628  18.876  1.00  0.00     0.141 C 
BRANCH  13  14
HETATM   14  C9  UNL     1      -8.764  15.572  19.851  1.00  0.00     0.144 C 
BRANCH  14  15
HETATM   15  N3  UNL     1      -8.538  14.779  21.011  1.00  0.00    -0.341 N 
HETATM   16  C8  UNL     1      -8.818  15.191  22.352  1.00  0.00     0.320 C 
HETATM   17  N2  UNL     1      -8.549  14.325  23.409  1.00  0.00    -0.308 N 
HETATM   18  O1  UNL     1      -9.301  16.335  22.496  1.00  0.00    -0.247 OA
ATOM     19  H2  UNL     1      -8.156  13.423  23.137  1.00  0.00     0.170 HD
ATOM     20  H3  UNL     1      -8.146  13.847  20.877  1.00  0.00     0.164 HD
BRANCH  17  21
HETATM   21  C7  UNL     1      -8.736  14.499  24.789  1.00  0.00     0.047 A 
HETATM   22  C6  UNL     1      -7.708  15.075  25.553  1.00  0.00     0.005 A 
HETATM   23  C5  UNL     1      -6.401  15.572  25.114  1.00  0.00     0.168 A 
HETATM   24  C28 UNL     1      -7.877  15.251  26.906  1.00  0.00     0.077 A 
HETATM   25  N1  UNL     1      -5.745  16.015  26.364  1.00  0.00    -0.344 N 
HETATM   26  C29 UNL     1      -6.638  15.853  27.444  1.00  0.00     0.257 A 
HETATM   27  O3  UNL     1      -6.491  16.142  28.669  1.00  0.00    -0.267 OA
HETATM   28  C25 UNL     1      -9.058  14.875  27.571  1.00  0.00     0.111 A 
HETATM   29  C19 UNL     1     -10.056  14.317  26.825  1.00  0.00     0.067 A 
HETATM   30  C18 UNL     1      -9.862  14.145  25.450  1.00  0.00     0.062 A 
BRANCH  25  31
HETATM   31  C4  UNL     1      -4.375  16.516  26.428  1.00  0.00     0.126 C 
BRANCH  31  32
HETATM   32  C3  UNL     1      -4.026  17.464  25.350  1.00  0.00     0.020 C 
BRANCH  32  33
HETATM   33  C2  UNL     1      -4.696  18.782  25.307  1.00  0.00    -0.003 C 
HETATM   34  C1  UNL     1      -4.333  19.673  24.163  1.00  0.00     0.005 C 
ENDBRANCH  32  33
ENDBRANCH  31  32
ENDBRANCH  25  31
BRANCH  28  35
HETATM   35  O2  UNL     1      -9.145  15.087  28.935  1.00  0.00    -0.348 OA
BRANCH  35  36
HETATM   36  C26 UNL     1      -8.788  14.167  29.921  1.00  0.00     0.171 C 
HETATM   37  C27 UNL     1      -8.864  14.868  31.277  1.00  0.00     0.034 C 
ENDBRANCH  35  36
ENDBRANCH  28  35
BRANCH  29  38
HETATM   38  N7  UNL     1     -11.273  13.930  27.470  1.00  0.00    -0.375 N 
HETATM   39  C20 UNL     1     -11.366  12.637  28.091  1.00  0.00     0.153 C 
HETATM   40  C21 UNL     1     -12.673  11.962  27.883  1.00  0.00     0.291 C 
HETATM   41  N8  UNL     1     -13.808  12.838  27.978  1.00  0.00     0.087 N 
HETATM   42  C22 UNL     1     -14.313  13.008  29.306  1.00  0.00     0.310 C 
HETATM   43  C23 UNL     1     -13.659  14.047  27.226  1.00  0.00     0.291 C 
HETATM   44  C24 UNL     1     -12.410  14.820  27.531  1.00  0.00     0.153 C 
ENDBRANCH  29  38
ENDBRANCH  17  21
ENDBRANCH  14  15
ENDBRANCH  13  14
ENDBRANCH  11  13
ENDBRANCH   1  11
TORSDOF 11
ENDMDL
MODEL 2
REMARK VINA RESULT: -8.642085934      3.140     11.058
REMARK  11 active torsions:
REMARK  status: ('A' for Active; 'I' for Inactive)
REMARK    1  A    between atoms: C2_2  and  C3_3 
REMARK    2  A    between atoms: C3_3  and  C4_4 
REMARK    3  A    between atoms: C4_4  and  N1_5 
REMARK    4  A    between atoms: C7_8  and  N2_9 
REMARK       I    between atoms: N2_9  and  C8_11 
REMARK       I    between atoms: C8_11  and  N3_13 
REMARK    5  A    between atoms: N3_13  and  C9_15 
REMARK    6  A    between atoms: C9_15  and  C10_16 
REMARK    7  A    between atoms: C10_16  and  N4_17 
REMARK    8  A    between atoms: N4_17  and  C11_19 
REMARK    9  A    between atoms: C19_30  and  N7_31 
REMARK   10  A    between atoms: C25_38  and  O2_39 
REMARK   11  A    between atoms: O2_39  and  C26_40 
ROOT
HETATM    1  C11 UNL     1     -11.955  12.891  33.635  1.00  0.00     0.106 A 
HETATM    2  N5  UNL     1     -11.862  11.652  34.140  1.00  0.00    -0.351 N 
ATOM      3  H5  UNL     1     -11.340  11.512  35.006  1.00  0.00     0.166 HD
HETATM    4  C12 UNL     1     -12.441  10.571  33.538  1.00  0.00     0.112 A 
HETATM    5  C13 UNL     1     -13.162  10.675  32.368  1.00  0.00     0.060 A 
HETATM    6  C14 UNL     1     -13.766   9.533  31.743  1.00  0.00     0.101 C 
HETATM    7  N6  UNL     1     -14.247   8.592  31.246  1.00  0.00    -0.191 NA
HETATM    8  C15 UNL     1     -13.267  11.941  31.835  1.00  0.00     0.034 A 
HETATM    9  C16 UNL     1     -12.681  13.024  32.447  1.00  0.00    -0.017 A 
HETATM   10  C17 UNL     1     -12.790  14.396  31.878  1.00  0.00     0.052 C 
ENDROOT
BRANCH   1  11
HETATM   11  N4  UNL     1     -11.413  13.920  34.191  1.00  0.00    -0.374 N 
ATOM     12  H4  UNL     1     -12.009  14.731  34.355  1.00  0.00     0.161 HD
BRANCH  11  13
HETATM   13  C10 UNL     1     -10.035  14.022  34.599  1.00  0.00     0.141 C 
BRANCH  13  14
HETATM   14  C9  UNL     1      -9.313  15.007  33.717  1.00  0.00     0.144 C 
BRANCH  14  15
HETATM   15  N3  UNL     1      -8.747  14.460  32.531  1.00  0.00    -0.341 N 
HETATM   16  C8  UNL     1      -8.971  14.961  31.210  1.00  0.00     0.320 C 
HETATM   17  N2  UNL     1      -8.362  14.336  30.124  1.00  0.00    -0.308 N 
HETATM   18  O1  UNL     1      -9.719  15.958  31.110  1.00  0.00    -0.247 OA
ATOM     19  H2  UNL     1      -7.778  13.534  30.361  1.00  0.00     0.170 HD
ATOM     20  H3  UNL     1      -8.137  13.649  32.630  1.00  0.00     0.164 HD
BRANCH  17  21
HETATM   21  C7  UNL     1      -8.428  14.640  28.755  1.00  0.00     0.047 A 
HETATM   22  C6  UNL     1      -9.470  14.104  27.982  1.00  0.00     0.005 A 
HETATM   23  C5  UNL     1     -10.580  13.244  28.402  1.00  0.00     0.168 A 
HETATM   24  C28 UNL     1      -9.546  14.391  26.641  1.00  0.00     0.077 A 
HETATM   25  N1  UNL     1     -11.320  12.971  27.150  1.00  0.00    -0.344 N 
HETATM   26  C29 UNL     1     -10.721  13.683  26.089  1.00  0.00     0.257 A 
HETATM   27  O3  UNL     1     -11.059  13.759  24.870  1.00  0.00    -0.267 OA
HETATM   28  C25 UNL     1      -8.609  15.218  25.996  1.00  0.00     0.111 A 
HETATM   29  C19 UNL     1      -7.596  15.738  26.749  1.00  0.00     0.067 A 
HETATM   30  C18 UNL     1      -7.537  15.431  28.113  1.00  0.00     0.062 A 
BRANCH  25  31
HETATM   31  C4  UNL     1     -12.472  12.079  27.066  1.00  0.00     0.126 C 
BRANCH  31  32
HETATM   32  C3  UNL     1     -13.470  12.277  28.138  1.00  0.00     0.020 C 
BRANCH  32  33
HETATM   33  C2  UNL     1     -14.215  13.553  28.200  1.00  0.00    -0.003 C 
HETATM   34  C1  UNL     1     -15.317  13.628  29.207  1.00  0.00     0.005 C 
ENDBRANCH  32  33
ENDBRANCH  31  32
ENDBRANCH  25  31
BRANCH  28  35
HETATM   35  O2  UNL     1      -8.758  15.456  24.641  1.00  0.00    -0.348 OA
BRANCH  35  36
HETATM   36  C26 UNL     1      -8.147  14.729  23.620  1.00  0.00     0.171 C 
HETATM   37  C27 UNL     1      -8.781  15.147  22.292  1.00  0.00     0.034 C 
ENDBRANCH  35  36
ENDBRANCH  28  35
BRANCH  29  38
HETATM   38  N7  UNL     1      -6.629  16.589  26.124  1.00  0.00    -0.375 N 
HETATM   39  C20 UNL     1      -5.394  16.027  25.651  1.00  0.00     0.153 C 
HETATM   40  C21 UNL     1      -4.208  16.886  25.904  1.00  0.00     0.291 C 
HETATM   41  N8  UNL     1      -4.439  18.287  25.685  1.00  0.00     0.087 N 
HETATM   42  C22 UNL     1      -4.235  18.716  24.336  1.00  0.00     0.310 C 
HETATM   43  C23 UNL     1      -5.639  18.769  26.300  1.00  0.00     0.291 C 
HETATM   44  C24 UNL     1      -6.875  18.000  25.938  1.00  0.00     0.153 C 
ENDBRANCH  29  38
ENDBRANCH  17  21
ENDBRANCH  14  15
ENDBRANCH  13  14
ENDBRANCH  11  13
ENDBRANCH   1  11
TORSDOF 11
ENDMDL
MODEL 3
REMARK VINA RESULT: -8.597101100      3.270     11.158
REMARK  11 active torsions:
REMARK  status: ('A' for Active; 'I' for Inactive)
REMARK    1  A    between atoms: C2_2  and  C3_3 
REMARK    2  A    between atoms: C3_3  and  C4_4 
REMARK    3  A    between atoms: C4_4  and  N1_5 
REMARK    4  A    between atoms: C7_8  and  N2_9 
REMARK       I    between atoms: N2_9  and  C8_11 
REMARK       I    between atoms: C8_11  and  N3_13 
REMARK    5  A    between atoms: N3_13  and  C9_15 
REMARK    6  A    between atoms: C9_15  and  C10_16 
REMARK    7  A    between atoms: C10_16  and  N4_17 
REMARK    8  A    between atoms: N4_17  and  C11_19 
REMARK    9  A    between atoms: C19_30  and  N7_31 
REMARK   10  A    between atoms: C25_38  and  O2_39 
REMARK   11  A    between atoms: O2_39  and  C26_40 
ROOT
HETATM    1  C11 UNL     1     -11.812  13.062  33.862  1.00  0.00     0.106 A 
HETATM    2  N5  UNL     1     -12.313  13.424  32.671  1.00  0.00    -0.351 N 
ATOM      3  H5  UNL     1     -12.148  14.373  32.336  1.00  0.00     0.166 HD
HETATM    4  C12 UNL     1     -13.036  12.567  31.891  1.00  0.00     0.112 A 
HETATM    5  C13 UNL     1     -13.304  11.269  32.270  1.00  0.00     0.060 A 
HETATM    6  C14 UNL     1     -14.065  10.377  31.442  1.00  0.00     0.101 C 
HETATM    7  N6  UNL     1     -14.690   9.666  30.759  1.00  0.00    -0.191 NA
HETATM    8  C15 UNL     1     -12.797  10.881  33.491  1.00  0.00     0.034 A 
HETATM    9  C16 UNL     1     -12.071  11.750  34.271  1.00  0.00    -0.017 A 
HETATM   10  C17 UNL     1     -11.519  11.339  35.591  1.00  0.00     0.052 C 
ENDROOT
BRANCH   1  11
HETATM   11  N4  UNL     1     -11.130  13.860  34.610  1.00  0.00    -0.374 N 
ATOM     12  H4  UNL     1     -10.921  13.547  35.558  1.00  0.00     0.161 HD
BRANCH  11  13
HETATM   13  C10 UNL     1     -10.638  15.157  34.221  1.00  0.00     0.141 C 
BRANCH  13  14
HETATM   14  C9  UNL     1      -9.160  15.077  33.938  1.00  0.00     0.144 C 
BRANCH  14  15
HETATM   15  N3  UNL     1      -8.808  14.410  32.731  1.00  0.00    -0.341 N 
HETATM   16  C8  UNL     1      -8.935  14.968  31.421  1.00  0.00     0.320 C 
HETATM   17  N2  UNL     1      -8.559  14.214  30.311  1.00  0.00    -0.308 N 
HETATM   18  O1  UNL     1      -9.388  16.131  31.349  1.00  0.00    -0.247 OA
ATOM     19  H2  UNL     1      -8.207  13.281  30.525  1.00  0.00     0.170 HD
ATOM     20  H3  UNL     1      -8.437  13.463  32.806  1.00  0.00     0.164 HD
BRANCH  17  21
HETATM   21  C7  UNL     1      -8.590  14.539  28.946  1.00  0.00     0.047 A 
HETATM   22  C6  UNL     1      -9.628  14.037  28.144  1.00  0.00     0.005 A 
HETATM   23  C5  UNL     1     -10.764  13.195  28.528  1.00  0.00     0.168 A 
HETATM   24  C28 UNL     1      -9.670  14.346  26.806  1.00  0.00     0.077 A 
HETATM   25  N1  UNL     1     -11.484  12.957  27.258  1.00  0.00    -0.344 N 
HETATM   26  C29 UNL     1     -10.848  13.671  26.220  1.00  0.00     0.257 A 
HETATM   27  O3  UNL     1     -11.159  13.773  24.995  1.00  0.00    -0.267 OA
HETATM   28  C25 UNL     1      -8.702  15.162  26.193  1.00  0.00     0.111 A 
HETATM   29  C19 UNL     1      -7.695  15.649  26.974  1.00  0.00     0.067 A 
HETATM   30  C18 UNL     1      -7.670  15.320  28.335  1.00  0.00     0.062 A 
BRANCH  25  31
HETATM   31  C4  UNL     1     -12.653  12.092  27.137  1.00  0.00     0.126 C 
BRANCH  31  32
HETATM   32  C3  UNL     1     -13.641  12.253  28.223  1.00  0.00     0.020 C 
BRANCH  32  33
HETATM   33  C2  UNL     1     -14.340  13.548  28.372  1.00  0.00    -0.003 C 
HETATM   34  C1  UNL     1     -15.495  13.573  29.320  1.00  0.00     0.005 C 
ENDBRANCH  32  33
ENDBRANCH  31  32
ENDBRANCH  25  31
BRANCH  28  35
HETATM   35  O2  UNL     1      -8.819  15.423  24.840  1.00  0.00    -0.348 OA
BRANCH  35  36
HETATM   36  C26 UNL     1      -8.136  14.753  23.824  1.00  0.00     0.171 C 
HETATM   37  C27 UNL     1      -8.780  15.128  22.489  1.00  0.00     0.034 C 
ENDBRANCH  35  36
ENDBRANCH  28  35
BRANCH  29  38
HETATM   38  N7  UNL     1      -6.697  16.488  26.382  1.00  0.00    -0.375 N 
HETATM   39  C20 UNL     1      -5.361  15.987  26.213  1.00  0.00     0.153 C 
HETATM   40  C21 UNL     1      -4.302  16.986  26.509  1.00  0.00     0.291 C 
HETATM   41  N8  UNL     1      -4.592  18.309  26.029  1.00  0.00     0.087 N 
HETATM   42  C22 UNL     1      -4.186  18.549  24.678  1.00  0.00     0.310 C 
HETATM   43  C23 UNL     1      -5.912  18.757  26.355  1.00  0.00     0.291 C 
HETATM   44  C24 UNL     1      -7.008  17.824  25.930  1.00  0.00     0.153 C 
ENDBRANCH  29  38
ENDBRANCH  17  21
ENDBRANCH  14  15
ENDBRANCH  13  14
ENDBRANCH  11  13
ENDBRANCH   1  11
TORSDOF 11
ENDMDL
MODEL 4
REMARK VINA RESULT: -8.568119925      0.716      1.195
REMARK  11 active torsions:
REMARK  status: ('A' for Active; 'I' for Inactive)
REMARK    1  A    between atoms: C2_2  and  C3_3 
REMARK    2  A    between atoms: C3_3  and  C4_4 
REMARK    3  A    between atoms: C4_4  and  N1_5 
REMARK    4  A    between atoms: C7_8  and  N2_9 
REMARK       I    between atoms: N2_9  and  C8_11 
REMARK       I    between atoms: C8_11  and  N3_13 
REMARK    5  A    between atoms: N3_13  and  C9_15 
REMARK    6  A    between atoms: C9_15  and  C10_16 
REMARK    7  A    between atoms: C10_16  and  N4_17 
REMARK    8  A    between atoms: N4_17  and  C11_19 
REMARK    9  A    between atoms: C19_30  and  N7_31 
REMARK   10  A    between atoms: C25_38  and  O2_39 
REMARK   11  A    between atoms: O2_39  and  C26_40 
ROOT
HETATM    1  C11 UNL     1      -5.420  16.622  19.603  1.00  0.00     0.106 A 
HETATM    2  N5  UNL     1      -5.446  17.214  20.806  1.00  0.00    -0.351 N 
ATOM      3  H5  UNL     1      -6.342  17.528  21.181  1.00  0.00     0.166 HD
HETATM    4  C12 UNL     1      -4.317  17.411  21.550  1.00  0.00     0.112 A 
HETATM    5  C13 UNL     1      -3.069  17.017  21.117  1.00  0.00     0.060 A 
HETATM    6  C14 UNL     1      -1.889  17.229  21.905  1.00  0.00     0.101 C 
HETATM    7  N6  UNL     1      -0.938  17.414  22.558  1.00  0.00    -0.191 NA
HETATM    8  C15 UNL     1      -3.024  16.408  19.881  1.00  0.00     0.034 A 
HETATM    9  C16 UNL     1      -4.165  16.214  19.140  1.00  0.00    -0.017 A 
HETATM   10  C17 UNL     1      -4.126  15.555  17.805  1.00  0.00     0.052 C 
ENDROOT
BRANCH   1  11
HETATM   11  N4  UNL     1      -6.477  16.432  18.889  1.00  0.00    -0.374 N 
ATOM     12  H4  UNL     1      -6.351  15.989  17.979  1.00  0.00     0.161 HD
BRANCH  11  13
HETATM   13  C10 UNL     1      -7.819  16.790  19.270  1.00  0.00     0.141 C 
BRANCH  13  14
HETATM   14  C9  UNL     1      -8.630  15.543  19.513  1.00  0.00     0.144 C 
BRANCH  14  15
HETATM   15  N3  UNL     1      -8.289  14.817  20.689  1.00  0.00    -0.341 N 
HETATM   16  C8  UNL     1      -8.644  15.202  22.020  1.00  0.00     0.320 C 
HETATM   17  N2  UNL     1      -8.248  14.409  23.094  1.00  0.00    -0.308 N 
HETATM   18  O1  UNL     1      -9.305  16.256  22.140  1.00  0.00    -0.247 OA
ATOM     19  H2  UNL     1      -7.713  13.578  22.842  1.00  0.00     0.170 HD
ATOM     20  H3  UNL     1      -7.752  13.958  20.574  1.00  0.00     0.164 HD
BRANCH  17  21
HETATM   21  C7  UNL     1      -8.472  14.576  24.470  1.00  0.00     0.047 A 
HETATM   22  C6  UNL     1      -7.470  15.157  25.263  1.00  0.00     0.005 A 
HETATM   23  C5  UNL     1      -6.157  15.668  24.861  1.00  0.00     0.168 A 
HETATM   24  C28 UNL     1      -7.676  15.326  26.612  1.00  0.00     0.077 A 
HETATM   25  N1  UNL     1      -5.538  16.113  26.129  1.00  0.00    -0.344 N 
HETATM   26  C29 UNL     1      -6.458  15.937  27.185  1.00  0.00     0.257 A 
HETATM   27  O3  UNL     1      -6.346  16.222  28.415  1.00  0.00    -0.267 OA
HETATM   28  C25 UNL     1      -8.871  14.937  27.244  1.00  0.00     0.111 A 
HETATM   29  C19 UNL     1      -9.844  14.372  26.471  1.00  0.00     0.067 A 
HETATM   30  C18 UNL     1      -9.613  14.209  25.099  1.00  0.00     0.062 A 
BRANCH  25  31
HETATM   31  C4  UNL     1      -4.175  16.625  26.231  1.00  0.00     0.126 C 
BRANCH  31  32
HETATM   32  C3  UNL     1      -3.826  17.626  25.201  1.00  0.00     0.020 C 
BRANCH  32  33
HETATM   33  C2  UNL     1      -4.640  18.855  25.088  1.00  0.00    -0.003 C 
HETATM   34  C1  UNL     1      -4.064  19.958  24.261  1.00  0.00     0.005 C 
ENDBRANCH  32  33
ENDBRANCH  31  32
ENDBRANCH  25  31
BRANCH  28  35
HETATM   35  O2  UNL     1      -8.995  15.142  28.606  1.00  0.00    -0.348 OA
BRANCH  35  36
HETATM   36  C26 UNL     1      -8.697  14.205  29.596  1.00  0.00     0.171 C 
HETATM   37  C27 UNL     1      -8.921  14.863  30.958  1.00  0.00     0.034 C 
ENDBRANCH  35  36
ENDBRANCH  28  35
BRANCH  29  38
HETATM   38  N7  UNL     1     -11.074  13.972  27.082  1.00  0.00    -0.375 N 
HETATM   39  C20 UNL     1     -11.314  12.579  27.343  1.00  0.00     0.153 C 
HETATM   40  C21 UNL     1     -12.708  12.146  27.065  1.00  0.00     0.291 C 
HETATM   41  N8  UNL     1     -13.709  13.091  27.476  1.00  0.00     0.087 N 
HETATM   42  C22 UNL     1     -14.130  12.951  28.836  1.00  0.00     0.310 C 
HETATM   43  C23 UNL     1     -13.430  14.433  27.062  1.00  0.00     0.291 C 
HETATM   44  C24 UNL     1     -12.077  14.939  27.463  1.00  0.00     0.153 C 
ENDBRANCH  29  38
ENDBRANCH  17  21
ENDBRANCH  14  15
ENDBRANCH  13  14
ENDBRANCH  11  13
ENDBRANCH   1  11
TORSDOF 11
ENDMDL
MODEL 5
REMARK VINA RESULT: -8.435824691      1.019      1.047
REMARK  11 active torsions:
REMARK  status: ('A' for Active; 'I' for Inactive)
REMARK    1  A    between atoms: C2_2  and  C3_3 
REMARK    2  A    between atoms: C3_3  and  C4_4 
REMARK    3  A    between atoms: C4_4  and  N1_5 
REMARK    4  A    between atoms: C7_8  and  N2_9 
REMARK       I    between atoms: N2_9  and  C8_11 
REMARK       I    between atoms: C8_11  and  N3_13 
REMARK    5  A    between atoms: N3_13  and  C9_15 
REMARK    6  A    between atoms: C9_15  and  C10_16 
REMARK    7  A    between atoms: C10_16  and  N4_17 
REMARK    8  A    between atoms: N4_17  and  C11_19 
REMARK    9  A    between atoms: C19_30  and  N7_31 
REMARK   10  A    between atoms: C25_38  and  O2_39 
REMARK   11  A    between atoms: O2_39  and  C26_40 
ROOT
HETATM    1  C11 UNL     1      -5.367  16.757  19.929  1.00  0.00     0.106 A 
HETATM    2  N5  UNL     1      -4.384  15.974  19.461  1.00  0.00    -0.351 N 
ATOM      3  H5  UNL     1      -4.579  15.358  18.672  1.00  0.00     0.166 HD
HETATM    4  C12 UNL     1      -3.130  15.972  20.003  1.00  0.00     0.112 A 
HETATM    5  C13 UNL     1      -2.785  16.773  21.070  1.00  0.00     0.060 A 
HETATM    6  C14 UNL     1      -1.465  16.763  21.633  1.00  0.00     0.101 C 
HETATM    7  N6  UNL     1      -0.387  16.739  22.082  1.00  0.00    -0.191 NA
HETATM    8  C15 UNL     1      -3.784  17.584  21.564  1.00  0.00     0.034 A 
HETATM    9  C16 UNL     1      -5.044  17.580  21.012  1.00  0.00    -0.017 A 
HETATM   10  C17 UNL     1      -6.129  18.453  21.538  1.00  0.00     0.052 C 
ENDROOT
BRANCH   1  11
HETATM   11  N4  UNL     1      -6.555  16.768  19.429  1.00  0.00    -0.374 N 
ATOM     12  H4  UNL     1      -7.071  17.647  19.471  1.00  0.00     0.161 HD
BRANCH  11  13
HETATM   13  C10 UNL     1      -7.216  15.644  18.815  1.00  0.00     0.141 C 
BRANCH  13  14
HETATM   14  C9  UNL     1      -8.705  15.751  19.026  1.00  0.00     0.144 C 
BRANCH  14  15
HETATM   15  N3  UNL     1      -9.104  16.215  20.312  1.00  0.00    -0.341 N 
HETATM   16  C8  UNL     1      -8.840  15.538  21.543  1.00  0.00     0.320 C 
HETATM   17  N2  UNL     1      -9.287  16.091  22.742  1.00  0.00    -0.308 N 
HETATM   18  O1  UNL     1      -8.207  14.463  21.467  1.00  0.00    -0.247 OA
ATOM     19  H2  UNL     1      -9.789  16.974  22.648  1.00  0.00     0.170 HD
ATOM     20  H3  UNL     1      -9.617  17.095  20.357  1.00  0.00     0.164 HD
BRANCH  17  21
HETATM   21  C7  UNL     1      -9.152  15.622  24.058  1.00  0.00     0.047 A 
HETATM   22  C6  UNL     1      -7.922  15.774  24.718  1.00  0.00     0.005 A 
HETATM   23  C5  UNL     1      -6.688  16.399  24.234  1.00  0.00     0.168 A 
HETATM   24  C28 UNL     1      -7.775  15.319  26.006  1.00  0.00     0.077 A 
HETATM   25  N1  UNL     1      -5.730  16.218  25.348  1.00  0.00    -0.344 N 
HETATM   26  C29 UNL     1      -6.386  15.595  26.431  1.00  0.00     0.257 A 
HETATM   27  O3  UNL     1      -5.947  15.294  27.581  1.00  0.00    -0.267 OA
HETATM   28  C25 UNL     1      -8.824  14.698  26.708  1.00  0.00     0.111 A 
HETATM   29  C19 UNL     1     -10.019  14.553  26.064  1.00  0.00     0.067 A 
HETATM   30  C18 UNL     1     -10.146  15.022  24.752  1.00  0.00     0.062 A 
BRANCH  25  31
HETATM   31  C4  UNL     1      -4.328  16.617  25.285  1.00  0.00     0.126 C 
BRANCH  31  32
HETATM   32  C3  UNL     1      -3.999  17.806  26.098  1.00  0.00     0.020 C 
BRANCH  32  33
HETATM   33  C2  UNL     1      -4.679  19.086  25.805  1.00  0.00    -0.003 C 
HETATM   34  C1  UNL     1      -4.484  19.641  24.431  1.00  0.00     0.005 C 
ENDBRANCH  32  33
ENDBRANCH  31  32
ENDBRANCH  25  31
BRANCH  28  35
HETATM   35  O2  UNL     1      -8.592  14.269  28.002  1.00  0.00    -0.348 OA
BRANCH  35  36
HETATM   36  C26 UNL     1      -8.706  15.056  29.148  1.00  0.00     0.171 C 
HETATM   37  C27 UNL     1      -8.935  14.128  30.342  1.00  0.00     0.034 C 
ENDBRANCH  35  36
ENDBRANCH  28  35
BRANCH  29  38
HETATM   38  N7  UNL     1     -11.110  13.931  26.752  1.00  0.00    -0.375 N 
HETATM   39  C20 UNL     1     -11.380  12.536  26.536  1.00  0.00     0.153 C 
HETATM   40  C21 UNL     1     -12.827  12.211  26.448  1.00  0.00     0.291 C 
HETATM   41  N8  UNL     1     -13.647  12.918  27.392  1.00  0.00     0.087 N 
HETATM   42  C22 UNL     1     -13.767  12.278  28.666  1.00  0.00     0.310 C 
HETATM   43  C23 UNL     1     -13.376  14.323  27.442  1.00  0.00     0.291 C 
HETATM   44  C24 UNL     1     -11.936  14.670  27.679  1.00  0.00     0.153 C 
ENDBRANCH  29  38
ENDBRANCH  17  21
ENDBRANCH  14  15
ENDBRANCH  13  14
ENDBRANCH  11  13
ENDBRANCH   1  11
TORSDOF 11
ENDMDL
