MODEL 1
REMARK VINA RESULT: -5.673819685      0.000      0.000
REMARK  1 active torsions:
REMARK  status: ('A' for Active; 'I' for Inactive)
REMARK       I    between atoms: C1_2  and  N1_3 
REMARK       I    between atoms: C1_2  and  N2_10 
REMARK    1  A    between atoms: N2_10  and  O2_12 
ROOT
HETATM    1  O1  UNL     1       3.039  11.824  46.697  1.00  0.00    -0.245 OA
HETATM    2  C1  UNL     1       3.880  12.745  46.764  1.00  0.00     0.343 C 
HETATM    3  N1  UNL     1       3.855  13.786  45.837  1.00  0.00    -0.315 N 
ATOM      4  H1  UNL     1       3.624  14.715  46.187  1.00  0.00     0.170 HD
HETATM    5  C2  UNL     1       4.096  13.676  44.581  1.00  0.00    -0.009 C 
HETATM    6  C3  UNL     1       4.456  12.515  43.742  1.00  0.00     0.052 C 
HETATM    7  C4  UNL     1       4.130  12.917  42.314  1.00  0.00     0.006 C 
HETATM    8  C5  UNL     1       4.531  14.383  42.327  1.00  0.00     0.006 C 
HETATM    9  C6  UNL     1       4.046  14.844  43.664  1.00  0.00     0.052 C 
HETATM   10  N2  UNL     1       4.869  12.746  47.777  1.00  0.00    -0.219 N 
ATOM     11  H2  UNL     1       5.547  13.508  47.812  1.00  0.00     0.199 HD
ENDROOT
BRANCH  10  12
HETATM   12  O2  UNL     1       4.936  11.744  48.713  1.00  0.00    -0.286 OA
ATOM     13  H2  UNL     1       4.595  11.863  49.592  1.00  0.00     0.244 HD
ENDBRANCH  10  12
TORSDOF 1
ENDMDL
MODEL 2
REMARK VINA RESULT: -5.603514962      4.954      5.468
REMARK  1 active torsions:
REMARK  status: ('A' for Active; 'I' for Inactive)
REMARK       I    between atoms: C1_2  and  N1_3 
REMARK       I    between atoms: C1_2  and  N2_10 
REMARK    1  A    between atoms: N2_10  and  O2_12 
ROOT
HETATM    1  O1  UNL     1       8.702   8.053  43.604  1.00  0.00    -0.245 OA
HETATM    2  C1  UNL     1       7.873   8.041  44.539  1.00  0.00     0.343 C 
HETATM    3  N1  UNL     1       6.637   8.669  44.387  1.00  0.00    -0.315 N 
ATOM      4  H1  UNL     1       5.810   8.073  44.378  1.00  0.00     0.170 HD
HETATM    5  C2  UNL     1       6.450   9.933  44.256  1.00  0.00    -0.009 C 
HETATM    6  C3  UNL     1       7.390  11.071  44.223  1.00  0.00     0.052 C 
HETATM    7  C4  UNL     1       6.635  12.215  43.568  1.00  0.00     0.006 C 
HETATM    8  C5  UNL     1       5.240  12.004  44.134  1.00  0.00     0.006 C 
HETATM    9  C6  UNL     1       5.093  10.516  44.099  1.00  0.00     0.052 C 
HETATM   10  N2  UNL     1       8.173   7.394  45.761  1.00  0.00    -0.219 N 
ATOM     11  H2  UNL     1       7.481   7.398  46.511  1.00  0.00     0.199 HD
ENDROOT
BRANCH  10  12
HETATM   12  O2  UNL     1       9.376   6.762  45.959  1.00  0.00    -0.286 OA
ATOM     13  H2  UNL     1       9.698   6.574  46.833  1.00  0.00     0.244 HD
ENDBRANCH  10  12
TORSDOF 1
ENDMDL
MODEL 3
REMARK VINA RESULT: -5.520114124      3.913      4.253
REMARK  1 active torsions:
REMARK  status: ('A' for Active; 'I' for Inactive)
REMARK       I    between atoms: C1_2  and  N1_3 
REMARK       I    between atoms: C1_2  and  N2_10 
REMARK    1  A    between atoms: N2_10  and  O2_12 
ROOT
HETATM    1  O1  UNL     1       6.542   7.902  45.164  1.00  0.00    -0.245 OA
HETATM    2  C1  UNL     1       6.968   8.846  45.862  1.00  0.00     0.343 C 
HETATM    3  N1  UNL     1       6.232  10.025  45.967  1.00  0.00    -0.315 N 
ATOM      4  H1  UNL     1       5.842  10.250  46.882  1.00  0.00     0.170 HD
HETATM    5  C2  UNL     1       6.003  10.853  45.013  1.00  0.00    -0.009 C 
HETATM    6  C3  UNL     1       6.400  10.854  43.591  1.00  0.00     0.052 C 
HETATM    7  C4  UNL     1       5.441  11.803  42.893  1.00  0.00     0.006 C 
HETATM    8  C5  UNL     1       5.277  12.881  43.951  1.00  0.00     0.006 C 
HETATM    9  C6  UNL     1       5.205  12.090  45.218  1.00  0.00     0.052 C 
HETATM   10  N2  UNL     1       8.198   8.734  46.553  1.00  0.00    -0.219 N 
ATOM     11  H2  UNL     1       8.527   9.519  47.117  1.00  0.00     0.199 HD
ENDROOT
BRANCH  10  12
HETATM   12  O2  UNL     1       8.959   7.594  46.481  1.00  0.00    -0.286 OA
ATOM     13  H2  UNL     1       8.569   6.732  46.566  1.00  0.00     0.244 HD
ENDBRANCH  10  12
TORSDOF 1
ENDMDL
MODEL 4
REMARK VINA RESULT: -5.414598845      3.336      4.174
REMARK  1 active torsions:
REMARK  status: ('A' for Active; 'I' for Inactive)
REMARK       I    between atoms: C1_2  and  N1_3 
REMARK       I    between atoms: C1_2  and  N2_10 
REMARK    1  A    between atoms: N2_10  and  O2_12 
ROOT
HETATM    1  O1  UNL     1       3.893  17.185  46.002  1.00  0.00    -0.245 OA
HETATM    2  C1  UNL     1       3.162  16.476  46.725  1.00  0.00     0.343 C 
HETATM    3  N1  UNL     1       3.562  15.186  47.073  1.00  0.00    -0.315 N 
ATOM      4  H1  UNL     1       3.767  15.012  48.057  1.00  0.00     0.170 HD
HETATM    5  C2  UNL     1       3.695  14.199  46.263  1.00  0.00    -0.009 C 
HETATM    6  C3  UNL     1       3.491  14.084  44.805  1.00  0.00     0.052 C 
HETATM    7  C4  UNL     1       4.262  12.849  44.373  1.00  0.00     0.006 C 
HETATM    8  C5  UNL     1       4.020  11.927  45.556  1.00  0.00     0.006 C 
HETATM    9  C6  UNL     1       4.128  12.854  46.724  1.00  0.00     0.052 C 
HETATM   10  N2  UNL     1       1.922  16.967  47.200  1.00  0.00    -0.219 N 
ATOM     11  H2  UNL     1       1.341  16.369  47.788  1.00  0.00     0.199 HD
ENDROOT
BRANCH  10  12
HETATM   12  O2  UNL     1       1.484  18.229  46.885  1.00  0.00    -0.286 OA
ATOM     13  H2  UNL     1       0.964  18.739  47.495  1.00  0.00     0.244 HD
ENDBRANCH  10  12
TORSDOF 1
ENDMDL
MODEL 5
REMARK VINA RESULT: -5.338861660      6.026      6.705
REMARK  1 active torsions:
REMARK  status: ('A' for Active; 'I' for Inactive)
REMARK       I    between atoms: C1_2  and  N1_3 
REMARK       I    between atoms: C1_2  and  N2_10 
REMARK    1  A    between atoms: N2_10  and  O2_12 
ROOT
HETATM    1  O1  UNL     1       9.342   7.108  45.610  1.00  0.00    -0.245 OA
HETATM    2  C1  UNL     1       8.455   6.910  44.753  1.00  0.00     0.343 C 
HETATM    3  N1  UNL     1       7.923   7.980  44.035  1.00  0.00    -0.315 N 
ATOM      4  H1  UNL     1       8.112   8.009  43.034  1.00  0.00     0.170 HD
HETATM    5  C2  UNL     1       7.217   8.934  44.526  1.00  0.00    -0.009 C 
HETATM    6  C3  UNL     1       6.755   9.214  45.900  1.00  0.00     0.052 C 
HETATM    7  C4  UNL     1       6.400  10.690  45.926  1.00  0.00     0.006 C 
HETATM    8  C5  UNL     1       5.793  10.868  44.544  1.00  0.00     0.006 C 
HETATM    9  C6  UNL     1       6.690  10.038  43.683  1.00  0.00     0.052 C 
HETATM   10  N2  UNL     1       7.977   5.602  44.499  1.00  0.00    -0.219 N 
ATOM     11  H2  UNL     1       7.251   5.464  43.795  1.00  0.00     0.199 HD
ENDROOT
BRANCH  10  12
HETATM   12  O2  UNL     1       8.468   4.515  45.178  1.00  0.00    -0.286 OA
ATOM     13  H2  UNL     1       9.157   4.606  45.826  1.00  0.00     0.244 HD
ENDBRANCH  10  12
TORSDOF 1
ENDMDL
