MODEL 1
REMARK VINA RESULT: -6.192769132      0.000      0.000
REMARK  1 active torsions:
REMARK  status: ('A' for Active; 'I' for Inactive)
REMARK       I    between atoms: C1_4  and  N3_6 
REMARK    1  A    between atoms: N3_6  and  C2_8 
ROOT
HETATM    1  N1  UNL     1       4.060  16.919  47.812  1.00  0.00    -0.374 N 
ATOM      2  H11 UNL     1       4.875  16.306  47.828  1.00  0.00     0.158 HD
ATOM      3  H12 UNL     1       4.053  17.778  48.363  1.00  0.00     0.158 HD
HETATM    4  C1  UNL     1       3.061  16.568  47.079  1.00  0.00     0.185 C 
HETATM    5  N2  UNL     1       1.928  17.420  47.056  1.00  0.00    -0.064 NA
HETATM    6  N3  UNL     1       3.071  15.390  46.323  1.00  0.00    -0.341 N 
ATOM      7  H3  UNL     1       2.742  14.528  46.756  1.00  0.00     0.167 HD
ENDROOT
BRANCH   6   8
HETATM    8  C2  UNL     1       3.522  15.348  44.971  1.00  0.00     0.093 C 
HETATM    9  C3  UNL     1       4.077  14.292  44.442  1.00  0.00    -0.065 C 
HETATM   10  C4  UNL     1       4.517  14.339  43.024  1.00  0.00     0.035 C 
HETATM   11  C8  UNL     1       4.239  13.092  45.294  1.00  0.00     0.035 C 
HETATM   12  C5  UNL     1       4.207  12.991  42.411  1.00  0.00     0.004 C 
HETATM   13  C6  UNL     1       5.046  11.972  43.195  1.00  0.00     0.001 C 
HETATM   14  C7  UNL     1       4.386  11.823  44.538  1.00  0.00     0.004 C 
ENDBRANCH   6   8
TORSDOF 1
ENDMDL
MODEL 2
REMARK VINA RESULT: -6.052054887      2.879      3.555
REMARK  1 active torsions:
REMARK  status: ('A' for Active; 'I' for Inactive)
REMARK       I    between atoms: C1_4  and  N3_6 
REMARK    1  A    between atoms: N3_6  and  C2_8 
ROOT
HETATM    1  N1  UNL     1       6.045  11.246  46.493  1.00  0.00    -0.374 N 
ATOM      2  H11 UNL     1       6.097  10.917  45.529  1.00  0.00     0.158 HD
ATOM      3  H12 UNL     1       6.822  11.080  47.133  1.00  0.00     0.158 HD
HETATM    4  C1  UNL     1       4.978  11.867  46.858  1.00  0.00     0.185 C 
HETATM    5  N2  UNL     1       4.907  12.325  48.198  1.00  0.00    -0.064 NA
HETATM    6  N3  UNL     1       3.912  12.095  45.980  1.00  0.00    -0.341 N 
ATOM      7  H3  UNL     1       3.181  11.389  45.904  1.00  0.00     0.167 HD
ENDROOT
BRANCH   6   8
HETATM    8  C2  UNL     1       3.809  13.275  45.186  1.00  0.00     0.093 C 
HETATM    9  C3  UNL     1       4.133  13.310  43.923  1.00  0.00    -0.065 C 
HETATM   10  C4  UNL     1       3.992  14.586  43.174  1.00  0.00     0.035 C 
HETATM   11  C8  UNL     1       4.629  12.062  43.299  1.00  0.00     0.035 C 
HETATM   12  C5  UNL     1       3.490  14.241  41.789  1.00  0.00     0.004 C 
HETATM   13  C6  UNL     1       4.582  13.369  41.153  1.00  0.00     0.001 C 
HETATM   14  C7  UNL     1       4.492  12.024  41.821  1.00  0.00     0.004 C 
ENDBRANCH   6   8
TORSDOF 1
ENDMDL
MODEL 3
REMARK VINA RESULT: -5.959245922      4.687      5.980
REMARK  1 active torsions:
REMARK  status: ('A' for Active; 'I' for Inactive)
REMARK       I    between atoms: C1_4  and  N3_6 
REMARK    1  A    between atoms: N3_6  and  C2_8 
ROOT
HETATM    1  N1  UNL     1       6.745   9.302  47.122  1.00  0.00    -0.374 N 
ATOM      2  H11 UNL     1       6.092  10.082  47.192  1.00  0.00     0.158 HD
ATOM      3  H12 UNL     1       6.782   8.596  47.857  1.00  0.00     0.158 HD
HETATM    4  C1  UNL     1       7.505   9.250  46.084  1.00  0.00     0.185 C 
HETATM    5  N2  UNL     1       8.414   8.165  45.986  1.00  0.00    -0.064 NA
HETATM    6  N3  UNL     1       7.455  10.218  45.074  1.00  0.00    -0.341 N 
ATOM      7  H3  UNL     1       8.043  11.047  45.161  1.00  0.00     0.167 HD
ENDROOT
BRANCH   6   8
HETATM    8  C2  UNL     1       6.613  10.093  43.930  1.00  0.00     0.093 C 
HETATM    9  C3  UNL     1       5.753  11.009  43.580  1.00  0.00    -0.065 C 
HETATM   10  C4  UNL     1       4.917  10.793  42.371  1.00  0.00     0.035 C 
HETATM   11  C8  UNL     1       5.657  12.227  44.416  1.00  0.00     0.035 C 
HETATM   12  C5  UNL     1       4.793  12.126  41.665  1.00  0.00     0.004 C 
HETATM   13  C6  UNL     1       4.072  13.056  42.651  1.00  0.00     0.001 C 
HETATM   14  C7  UNL     1       5.074  13.401  43.718  1.00  0.00     0.004 C 
ENDBRANCH   6   8
TORSDOF 1
ENDMDL
MODEL 4
REMARK VINA RESULT: -5.930995694      1.009      1.841
REMARK  1 active torsions:
REMARK  status: ('A' for Active; 'I' for Inactive)
REMARK       I    between atoms: C1_4  and  N3_6 
REMARK    1  A    between atoms: N3_6  and  C2_8 
ROOT
HETATM    1  N1  UNL     1       3.366  16.512  47.943  1.00  0.00    -0.374 N 
ATOM      2  H11 UNL     1       2.974  15.815  48.576  1.00  0.00     0.158 HD
ATOM      3  H12 UNL     1       3.783  17.366  48.314  1.00  0.00     0.158 HD
HETATM    4  C1  UNL     1       3.313  16.270  46.680  1.00  0.00     0.185 C 
HETATM    5  N2  UNL     1       3.858  17.239  45.799  1.00  0.00    -0.064 NA
HETATM    6  N3  UNL     1       2.742  15.098  46.169  1.00  0.00    -0.341 N 
ATOM      7  H3  UNL     1       1.743  15.090  45.964  1.00  0.00     0.167 HD
ENDROOT
BRANCH   6   8
HETATM    8  C2  UNL     1       3.501  13.916  45.925  1.00  0.00     0.093 C 
HETATM    9  C3  UNL     1       3.816  13.512  44.725  1.00  0.00    -0.065 C 
HETATM   10  C4  UNL     1       4.612  12.267  44.567  1.00  0.00     0.035 C 
HETATM   11  C8  UNL     1       3.359  14.325  43.576  1.00  0.00     0.035 C 
HETATM   12  C5  UNL     1       5.586  12.497  43.432  1.00  0.00     0.004 C 
HETATM   13  C6  UNL     1       4.726  12.741  42.185  1.00  0.00     0.001 C 
HETATM   14  C7  UNL     1       4.146  14.121  42.333  1.00  0.00     0.004 C 
ENDBRANCH   6   8
TORSDOF 1
ENDMDL
MODEL 5
REMARK VINA RESULT: -5.845606254      4.176      5.776
REMARK  1 active torsions:
REMARK  status: ('A' for Active; 'I' for Inactive)
REMARK       I    between atoms: C1_4  and  N3_6 
REMARK    1  A    between atoms: N3_6  and  C2_8 
ROOT
HETATM    1  N1  UNL     1       6.228   7.895  45.215  1.00  0.00    -0.374 N 
ATOM      2  H11 UNL     1       5.210   7.893  45.163  1.00  0.00     0.158 HD
ATOM      3  H12 UNL     1       6.745   7.016  45.195  1.00  0.00     0.158 HD
HETATM    4  C1  UNL     1       6.821   9.034  45.306  1.00  0.00     0.185 C 
HETATM    5  N2  UNL     1       8.237   9.038  45.379  1.00  0.00    -0.064 NA
HETATM    6  N3  UNL     1       6.112  10.242  45.334  1.00  0.00    -0.341 N 
ATOM      7  H3  UNL     1       5.802  10.607  46.234  1.00  0.00     0.167 HD
ENDROOT
BRANCH   6   8
HETATM    8  C2  UNL     1       5.807  10.981  44.153  1.00  0.00     0.093 C 
HETATM    9  C3  UNL     1       4.951  11.966  44.136  1.00  0.00    -0.065 C 
HETATM   10  C4  UNL     1       4.696  12.680  42.858  1.00  0.00     0.035 C 
HETATM   11  C8  UNL     1       4.275  12.321  45.404  1.00  0.00     0.035 C 
HETATM   12  C5  UNL     1       4.539  14.149  43.188  1.00  0.00     0.004 C 
HETATM   13  C6  UNL     1       3.311  14.243  44.105  1.00  0.00     0.001 C 
HETATM   14  C7  UNL     1       3.739  13.706  45.443  1.00  0.00     0.004 C 
ENDBRANCH   6   8
TORSDOF 1
ENDMDL
