MODEL 1
REMARK VINA RESULT: -5.296008856      0.000      0.000
REMARK  1 active torsions:
REMARK  status: ('A' for Active; 'I' for Inactive)
REMARK       I    between atoms: C2_2  and  N1_4 
REMARK       I    between atoms: N1_4  and  C3_6 
REMARK       I    between atoms: C3_6  and  N3_10 
REMARK    1  A    between atoms: N3_10  and  C4_12 
ROOT
HETATM    1  C1  UNL     1       8.836   6.367  43.676  1.00  0.00     0.118 C 
HETATM    2  C2  UNL     1       7.898   7.442  44.140  1.00  0.00     0.231 C 
HETATM    3  O1  UNL     1       7.121   7.919  43.279  1.00  0.00    -0.273 OA
HETATM    4  N1  UNL     1       7.881   7.902  45.471  1.00  0.00    -0.161 N 
ATOM      5  H1  UNL     1       8.533   7.485  46.137  1.00  0.00     0.187 HD
HETATM    6  C3  UNL     1       7.014   8.905  45.926  1.00  0.00     0.674 C 
HETATM    7  N2  UNL     1       7.040   9.287  47.150  1.00  0.00    -0.235 N 
ATOM      8  H21 UNL     1       6.409  10.016  47.481  1.00  0.00     0.174 HD
ATOM      9  H22 UNL     1       7.704   8.846  47.787  1.00  0.00     0.174 HD
HETATM   10  N3  UNL     1       6.098   9.512  45.048  1.00  0.00    -0.218 N 
ATOM     11  H3  UNL     1       5.380   8.923  44.627  1.00  0.00     0.178 HD
ENDROOT
BRANCH  10  12
HETATM   12  C4  UNL     1       6.107  10.911  44.703  1.00  0.00     0.036 C 
HETATM   13  C5  UNL     1       7.493  11.287  44.231  1.00  0.00     0.038 C 
HETATM   14  C6  UNL     1       5.173  11.027  43.486  1.00  0.00     0.038 C 
HETATM   15  C7  UNL     1       5.640  11.829  45.789  1.00  0.00     0.038 C 
ENDBRANCH  10  12
TORSDOF 1
ENDMDL
MODEL 2
REMARK VINA RESULT: -5.009542927      2.890      4.852
REMARK  1 active torsions:
REMARK  status: ('A' for Active; 'I' for Inactive)
REMARK       I    between atoms: C2_2  and  N1_4 
REMARK       I    between atoms: N1_4  and  C3_6 
REMARK       I    between atoms: C3_6  and  N3_10 
REMARK    1  A    between atoms: N3_10  and  C4_12 
ROOT
HETATM    1  C1  UNL     1       3.389  14.315  43.744  1.00  0.00     0.118 C 
HETATM    2  C2  UNL     1       4.414  13.402  44.348  1.00  0.00     0.231 C 
HETATM    3  O1  UNL     1       5.425  13.151  43.649  1.00  0.00    -0.273 OA
HETATM    4  N1  UNL     1       4.262  12.847  45.634  1.00  0.00    -0.161 N 
ATOM      5  H1  UNL     1       3.423  13.078  46.166  1.00  0.00     0.187 HD
HETATM    6  C3  UNL     1       5.207  11.992  46.218  1.00  0.00     0.674 C 
HETATM    7  N2  UNL     1       5.019  11.514  47.393  1.00  0.00    -0.235 N 
ATOM      8  H21 UNL     1       5.706  10.892  47.818  1.00  0.00     0.174 HD
ATOM      9  H22 UNL     1       4.168  11.769  47.895  1.00  0.00     0.174 HD
HETATM   10  N3  UNL     1       6.379  11.641  45.526  1.00  0.00    -0.218 N 
ATOM     11  H3  UNL     1       7.033  12.386  45.288  1.00  0.00     0.178 HD
ENDROOT
BRANCH  10  12
HETATM   12  C4  UNL     1       6.719  10.297  45.129  1.00  0.00     0.036 C 
HETATM   13  C5  UNL     1       5.578   9.726  44.318  1.00  0.00     0.038 C 
HETATM   14  C6  UNL     1       7.914  10.454  44.173  1.00  0.00     0.038 C 
HETATM   15  C7  UNL     1       7.089   9.384  46.256  1.00  0.00     0.038 C 
ENDBRANCH  10  12
TORSDOF 1
ENDMDL
MODEL 3
REMARK VINA RESULT: -4.763213122      2.686      5.438
REMARK  1 active torsions:
REMARK  status: ('A' for Active; 'I' for Inactive)
REMARK       I    between atoms: C2_2  and  N1_4 
REMARK       I    between atoms: N1_4  and  C3_6 
REMARK       I    between atoms: C3_6  and  N3_10 
REMARK    1  A    between atoms: N3_10  and  C4_12 
ROOT
HETATM    1  C1  UNL     1       6.620   8.491  45.117  1.00  0.00     0.118 C 
HETATM    2  C2  UNL     1       7.719   7.824  44.345  1.00  0.00     0.231 C 
HETATM    3  O1  UNL     1       8.624   8.569  43.900  1.00  0.00    -0.273 OA
HETATM    4  N1  UNL     1       7.745   6.434  44.123  1.00  0.00    -0.161 N 
ATOM      5  H1  UNL     1       6.986   5.867  44.504  1.00  0.00     0.187 HD
HETATM    6  C3  UNL     1       8.762   5.790  43.405  1.00  0.00     0.674 C 
HETATM    7  N2  UNL     1       8.738   4.519  43.232  1.00  0.00    -0.235 N 
ATOM      8  H21 UNL     1       9.477   4.050  42.710  1.00  0.00     0.174 HD
ATOM      9  H22 UNL     1       7.963   3.985  43.629  1.00  0.00     0.174 HD
HETATM   10  N3  UNL     1       9.829   6.525  42.859  1.00  0.00    -0.218 N 
ATOM     11  H3  UNL     1      10.443   7.023  43.504  1.00  0.00     0.178 HD
ENDROOT
BRANCH  10  12
HETATM   12  C4  UNL     1      10.113   6.623  41.449  1.00  0.00     0.036 C 
HETATM   13  C5  UNL     1       8.822   6.890  40.710  1.00  0.00     0.038 C 
HETATM   14  C6  UNL     1      10.981   7.885  41.305  1.00  0.00     0.038 C 
HETATM   15  C7  UNL     1      10.832   5.445  40.870  1.00  0.00     0.038 C 
ENDBRANCH  10  12
TORSDOF 1
ENDMDL
MODEL 4
REMARK VINA RESULT: -4.750591472      2.090      4.636
REMARK  1 active torsions:
REMARK  status: ('A' for Active; 'I' for Inactive)
REMARK       I    between atoms: C2_2  and  N1_4 
REMARK       I    between atoms: N1_4  and  C3_6 
REMARK       I    between atoms: C3_6  and  N3_10 
REMARK    1  A    between atoms: N3_10  and  C4_12 
ROOT
HETATM    1  C1  UNL     1       6.710   9.826  46.001  1.00  0.00     0.118 C 
HETATM    2  C2  UNL     1       7.488   8.936  45.079  1.00  0.00     0.231 C 
HETATM    3  O1  UNL     1       8.231   9.504  44.242  1.00  0.00    -0.273 OA
HETATM    4  N1  UNL     1       7.399   7.531  45.136  1.00  0.00    -0.161 N 
ATOM      5  H1  UNL     1       6.780   7.113  45.832  1.00  0.00     0.187 HD
HETATM    6  C3  UNL     1       8.116   6.680  44.285  1.00  0.00     0.674 C 
HETATM    7  N2  UNL     1       7.998   5.407  44.381  1.00  0.00    -0.235 N 
ATOM      8  H21 UNL     1       8.520   4.787  43.761  1.00  0.00     0.174 HD
ATOM      9  H22 UNL     1       7.371   5.025  45.090  1.00  0.00     0.174 HD
HETATM   10  N3  UNL     1       8.980   7.207  43.308  1.00  0.00    -0.218 N 
ATOM     11  H3  UNL     1       9.781   7.752  43.626  1.00  0.00     0.178 HD
ENDROOT
BRANCH  10  12
HETATM   12  C4  UNL     1       8.809   7.027  41.888  1.00  0.00     0.036 C 
HETATM   13  C5  UNL     1       7.348   7.214  41.547  1.00  0.00     0.038 C 
HETATM   14  C6  UNL     1       9.572   8.198  41.244  1.00  0.00     0.038 C 
HETATM   15  C7  UNL     1       9.326   5.729  41.352  1.00  0.00     0.038 C 
ENDBRANCH  10  12
TORSDOF 1
ENDMDL
MODEL 5
REMARK VINA RESULT: -4.746881374      2.092      4.147
REMARK  1 active torsions:
REMARK  status: ('A' for Active; 'I' for Inactive)
REMARK       I    between atoms: C2_2  and  N1_4 
REMARK       I    between atoms: N1_4  and  C3_6 
REMARK       I    between atoms: C3_6  and  N3_10 
REMARK    1  A    between atoms: N3_10  and  C4_12 
ROOT
HETATM    1  C1  UNL     1       3.957  12.478  47.209  1.00  0.00     0.118 C 
HETATM    2  C2  UNL     1       5.081  11.758  46.526  1.00  0.00     0.231 C 
HETATM    3  O1  UNL     1       5.539  12.290  45.486  1.00  0.00    -0.273 OA
HETATM    4  N1  UNL     1       5.606  10.546  47.016  1.00  0.00    -0.161 N 
ATOM      5  H1  UNL     1       5.201  10.150  47.865  1.00  0.00     0.187 HD
HETATM    6  C3  UNL     1       6.656   9.857  46.394  1.00  0.00     0.674 C 
HETATM    7  N2  UNL     1       7.096   8.756  46.883  1.00  0.00    -0.235 N 
ATOM      8  H21 UNL     1       7.860   8.254  46.431  1.00  0.00     0.174 HD
ATOM      9  H22 UNL     1       6.667   8.392  47.734  1.00  0.00     0.174 HD
HETATM   10  N3  UNL     1       7.247  10.359  45.221  1.00  0.00    -0.218 N 
ATOM     11  H3  UNL     1       7.719  11.261  45.275  1.00  0.00     0.178 HD
ENDROOT
BRANCH  10  12
HETATM   12  C4  UNL     1       7.229   9.685  43.947  1.00  0.00     0.036 C 
HETATM   13  C5  UNL     1       5.801   9.615  43.454  1.00  0.00     0.038 C 
HETATM   14  C6  UNL     1       7.988  10.620  42.991  1.00  0.00     0.038 C 
HETATM   15  C7  UNL     1       7.867   8.331  43.945  1.00  0.00     0.038 C 
ENDBRANCH  10  12
TORSDOF 1
ENDMDL
