MODEL 1
REMARK VINA RESULT: -6.007744034      0.000      0.000
REMARK  1 active torsions:
REMARK  status: ('A' for Active; 'I' for Inactive)
REMARK    1  A    between atoms: N2_4  and  N3_6 
ROOT
HETATM    1  N3  UNL     1       5.854  10.977  46.305  1.00  0.00    -0.262 N 
HETATM    2  C1  UNL     1       6.697   9.860  46.100  1.00  0.00     0.098 C 
HETATM    3  N4  UNL     1       7.201   9.129  47.001  1.00  0.00    -0.387 N 
ATOM      4  H41 UNL     1       7.809   8.323  46.854  1.00  0.00     0.157 HD
ATOM      5  H42 UNL     1       7.041   9.281  47.997  1.00  0.00     0.157 HD
HETATM    6  C2  UNL     1       6.934   9.634  44.619  1.00  0.00     0.054 C 
HETATM    7  C3  UNL     1       5.534   9.624  44.034  1.00  0.00     0.014 C 
HETATM    8  C4  UNL     1       5.042  11.048  43.991  1.00  0.00     0.028 C 
HETATM    9  C5  UNL     1       5.670  11.807  45.142  1.00  0.00     0.111 C 
HETATM   10  C6  UNL     1       7.109  12.097  44.682  1.00  0.00     0.028 C 
HETATM   11  C7  UNL     1       7.705  10.841  44.132  1.00  0.00     0.014 C 
ENDROOT
BRANCH   1  12
HETATM   12  N2  UNL     1       5.247  11.275  47.495  1.00  0.00    -0.245 N 
HETATM   13  N1  UNL     1       4.915  12.462  47.771  1.00  0.00    -0.331 N 
ATOM     14  H12 UNL     1       5.108  13.194  47.089  1.00  0.00     0.178 HD
ATOM     15  H11 UNL     1       4.463  12.683  48.659  1.00  0.00     0.178 HD
ATOM     16  H2  UNL     1       5.061  10.530  48.167  1.00  0.00     0.208 HD
ENDBRANCH   1  12
TORSDOF 1
ENDMDL
MODEL 2
REMARK VINA RESULT: -5.865293430      0.824      2.900
REMARK  1 active torsions:
REMARK  status: ('A' for Active; 'I' for Inactive)
REMARK    1  A    between atoms: N2_4  and  N3_6 
ROOT
HETATM    1  N3  UNL     1       6.462  10.237  45.815  1.00  0.00    -0.262 N 
HETATM    2  C1  UNL     1       5.833  11.498  45.930  1.00  0.00     0.098 C 
HETATM    3  N4  UNL     1       5.299  11.975  46.974  1.00  0.00    -0.387 N 
ATOM      4  H41 UNL     1       4.845  12.885  47.057  1.00  0.00     0.157 HD
ATOM      5  H42 UNL     1       5.270  11.477  47.863  1.00  0.00     0.157 HD
HETATM    6  C2  UNL     1       5.875  12.240  44.607  1.00  0.00     0.054 C 
HETATM    7  C3  UNL     1       7.338  12.175  44.213  1.00  0.00     0.014 C 
HETATM    8  C4  UNL     1       7.622  10.778  43.722  1.00  0.00     0.028 C 
HETATM    9  C5  UNL     1       6.712   9.817  44.461  1.00  0.00     0.111 C 
HETATM   10  C6  UNL     1       5.341   9.974  43.782  1.00  0.00     0.028 C 
HETATM   11  C7  UNL     1       5.030  11.430  43.649  1.00  0.00     0.014 C 
ENDROOT
BRANCH   1  12
HETATM   12  N2  UNL     1       6.818   9.455  46.881  1.00  0.00    -0.245 N 
HETATM   13  N1  UNL     1       7.764   8.624  46.784  1.00  0.00    -0.331 N 
ATOM     14  H12 UNL     1       8.257   8.547  45.895  1.00  0.00     0.178 HD
ATOM     15  H11 UNL     1       8.028   8.041  47.578  1.00  0.00     0.178 HD
ATOM     16  H2  UNL     1       6.313   9.544  47.763  1.00  0.00     0.208 HD
ENDBRANCH   1  12
TORSDOF 1
ENDMDL
MODEL 3
REMARK VINA RESULT: -5.596806479      1.400      3.144
REMARK  1 active torsions:
REMARK  status: ('A' for Active; 'I' for Inactive)
REMARK    1  A    between atoms: N2_4  and  N3_6 
ROOT
HETATM    1  N3  UNL     1       6.566   9.279  44.876  1.00  0.00    -0.262 N 
HETATM    2  C1  UNL     1       6.410  10.332  45.807  1.00  0.00     0.098 C 
HETATM    3  N4  UNL     1       6.270  10.208  47.059  1.00  0.00    -0.387 N 
ATOM      4  H41 UNL     1       6.158  10.968  47.731  1.00  0.00     0.157 HD
ATOM      5  H42 UNL     1       6.256   9.305  47.533  1.00  0.00     0.157 HD
HETATM    6  C2  UNL     1       6.431  11.675  45.103  1.00  0.00     0.054 C 
HETATM    7  C3  UNL     1       7.690  11.612  44.259  1.00  0.00     0.014 C 
HETATM    8  C4  UNL     1       7.409  10.720  43.078  1.00  0.00     0.028 C 
HETATM    9  C5  UNL     1       6.400   9.670  43.500  1.00  0.00     0.111 C 
HETATM   10  C6  UNL     1       5.048  10.403  43.500  1.00  0.00     0.028 C 
HETATM   11  C7  UNL     1       5.201  11.703  44.223  1.00  0.00     0.014 C 
ENDROOT
BRANCH   1  12
HETATM   12  N2  UNL     1       6.851   7.985  45.219  1.00  0.00    -0.245 N 
HETATM   13  N1  UNL     1       8.046   7.607  45.376  1.00  0.00    -0.331 N 
ATOM     14  H12 UNL     1       8.794   8.286  45.241  1.00  0.00     0.178 HD
ATOM     15  H11 UNL     1       8.258   6.642  45.631  1.00  0.00     0.178 HD
ATOM     16  H2  UNL     1       6.090   7.318  45.350  1.00  0.00     0.208 HD
ENDBRANCH   1  12
TORSDOF 1
ENDMDL
MODEL 4
REMARK VINA RESULT: -5.402541946      1.346      1.977
REMARK  1 active torsions:
REMARK  status: ('A' for Active; 'I' for Inactive)
REMARK    1  A    between atoms: N2_4  and  N3_6 
ROOT
HETATM    1  N3  UNL     1       6.397  10.361  45.464  1.00  0.00    -0.262 N 
HETATM    2  C1  UNL     1       6.222   9.408  44.433  1.00  0.00     0.098 C 
HETATM    3  N4  UNL     1       6.205   8.151  44.573  1.00  0.00    -0.387 N 
ATOM      4  H41 UNL     1       6.078   7.463  43.830  1.00  0.00     0.157 HD
ATOM      5  H42 UNL     1       6.318   7.687  45.475  1.00  0.00     0.157 HD
HETATM    6  C2  UNL     1       6.052  10.096  43.092  1.00  0.00     0.054 C 
HETATM    7  C3  UNL     1       4.959  11.114  43.354  1.00  0.00     0.014 C 
HETATM    8  C4  UNL     1       5.564  12.249  44.138  1.00  0.00     0.028 C 
HETATM    9  C5  UNL     1       6.680  11.695  45.001  1.00  0.00     0.111 C 
HETATM   10  C6  UNL     1       7.859  11.493  44.035  1.00  0.00     0.028 C 
HETATM   11  C7  UNL     1       7.367  10.789  42.810  1.00  0.00     0.014 C 
ENDROOT
BRANCH   1  12
HETATM   12  N2  UNL     1       6.311  10.073  46.800  1.00  0.00    -0.245 N 
HETATM   13  N1  UNL     1       7.144   9.298  47.347  1.00  0.00    -0.331 N 
ATOM     14  H12 UNL     1       7.882   8.891  46.774  1.00  0.00     0.178 HD
ATOM     15  H11 UNL     1       7.080   9.084  48.343  1.00  0.00     0.178 HD
ATOM     16  H2  UNL     1       5.566  10.490  47.359  1.00  0.00     0.208 HD
ENDBRANCH   1  12
TORSDOF 1
ENDMDL
MODEL 5
REMARK VINA RESULT: -5.099549624      1.736      2.224
REMARK  1 active torsions:
REMARK  status: ('A' for Active; 'I' for Inactive)
REMARK    1  A    between atoms: N2_4  and  N3_6 
ROOT
HETATM    1  N3  UNL     1       6.610   9.752  45.135  1.00  0.00    -0.262 N 
HETATM    2  C1  UNL     1       7.092   9.449  43.840  1.00  0.00     0.098 C 
HETATM    3  N4  UNL     1       7.835   8.473  43.529  1.00  0.00    -0.387 N 
ATOM      4  H41 UNL     1       8.183   8.254  42.595  1.00  0.00     0.157 HD
ATOM      5  H42 UNL     1       8.170   7.788  44.206  1.00  0.00     0.157 HD
HETATM    6  C2  UNL     1       6.594  10.468  42.833  1.00  0.00     0.054 C 
HETATM    7  C3  UNL     1       5.098  10.504  43.077  1.00  0.00     0.014 C 
HETATM    8  C4  UNL     1       4.857  11.277  44.348  1.00  0.00     0.028 C 
HETATM    9  C5  UNL     1       6.044  11.069  45.268  1.00  0.00     0.111 C 
HETATM   10  C6  UNL     1       7.142  11.986  44.702  1.00  0.00     0.028 C 
HETATM   11  C7  UNL     1       7.229  11.784  43.223  1.00  0.00     0.014 C 
ENDROOT
BRANCH   1  12
HETATM   12  N2  UNL     1       6.662   8.889  46.196  1.00  0.00    -0.245 N 
HETATM   13  N1  UNL     1       6.996   9.297  47.344  1.00  0.00    -0.331 N 
ATOM     14  H12 UNL     1       7.226  10.284  47.464  1.00  0.00     0.178 HD
ATOM     15  H11 UNL     1       7.034   8.654  48.135  1.00  0.00     0.178 HD
ATOM     16  H2  UNL     1       6.429   7.905  46.059  1.00  0.00     0.208 HD
ENDBRANCH   1  12
TORSDOF 1
ENDMDL
