MODEL 1
REMARK VINA RESULT: -5.496144490      0.000      0.000
REMARK  1 active torsions:
REMARK  status: ('A' for Active; 'I' for Inactive)
REMARK    1  A    between atoms: C10_11  and  O1_12 
ROOT
HETATM    1  N1  UNL     1       4.819  12.201  47.769  1.00  0.00    -0.196 NA
HETATM    2  C1  UNL     1       5.304  11.737  46.828  1.00  0.00     0.072 C 
HETATM    3  C2  UNL     1       5.904  11.156  45.657  1.00  0.00     0.079 C 
HETATM    4  C3  UNL     1       6.915  12.135  45.029  1.00  0.00     0.032 C 
HETATM    5  C4  UNL     1       6.726  11.684  43.573  1.00  0.00    -0.008 C 
HETATM    6  C5  UNL     1       5.202  11.933  43.547  1.00  0.00     0.011 C 
HETATM    7  C6  UNL     1       4.908  10.826  44.579  1.00  0.00     0.011 C 
HETATM    8  C7  UNL     1       5.421   9.669  43.711  1.00  0.00     0.011 C 
HETATM    9  C8  UNL     1       6.860  10.192  43.530  1.00  0.00    -0.008 C 
HETATM   10  C9  UNL     1       7.577   9.638  44.773  1.00  0.00     0.038 C 
HETATM   11  C10 UNL     1       6.785   9.947  46.009  1.00  0.00     0.141 C 
ENDROOT
BRANCH  11  12
HETATM   12  O1  UNL     1       6.090   8.910  46.546  1.00  0.00    -0.394 OA
ATOM     13  H1  UNL     1       6.632   8.309  47.044  1.00  0.00     0.210 HD
ENDBRANCH  11  12
TORSDOF 1
ENDMDL
MODEL 2
REMARK VINA RESULT: -5.488197022      2.001      3.066
REMARK  1 active torsions:
REMARK  status: ('A' for Active; 'I' for Inactive)
REMARK    1  A    between atoms: C10_11  and  O1_12 
ROOT
HETATM    1  N1  UNL     1       8.476   8.428  46.604  1.00  0.00    -0.196 NA
HETATM    2  C1  UNL     1       7.875   9.026  45.818  1.00  0.00     0.072 C 
HETATM    3  C2  UNL     1       7.130   9.773  44.842  1.00  0.00     0.079 C 
HETATM    4  C3  UNL     1       6.513   8.825  43.794  1.00  0.00     0.032 C 
HETATM    5  C4  UNL     1       6.558   9.805  42.612  1.00  0.00    -0.008 C 
HETATM    6  C5  UNL     1       8.077  10.066  42.705  1.00  0.00     0.011 C 
HETATM    7  C6  UNL     1       7.969  10.760  44.078  1.00  0.00     0.011 C 
HETATM    8  C7  UNL     1       7.109  11.932  43.588  1.00  0.00     0.011 C 
HETATM    9  C8  UNL     1       5.931  11.093  43.055  1.00  0.00    -0.008 C 
HETATM   10  C9  UNL     1       5.054  10.911  44.306  1.00  0.00     0.038 C 
HETATM   11  C10 UNL     1       5.889  10.439  45.459  1.00  0.00     0.141 C 
ENDROOT
BRANCH  11  12
HETATM   12  O1  UNL     1       6.189  11.373  46.399  1.00  0.00    -0.394 OA
ATOM     13  H1  UNL     1       6.644  11.018  47.154  1.00  0.00     0.210 HD
ENDBRANCH  11  12
TORSDOF 1
ENDMDL
MODEL 3
REMARK VINA RESULT: -5.416037446      1.797      2.130
REMARK  1 active torsions:
REMARK  status: ('A' for Active; 'I' for Inactive)
REMARK    1  A    between atoms: C10_11  and  O1_12 
ROOT
HETATM    1  N1  UNL     1       6.979   9.248  47.043  1.00  0.00    -0.196 NA
HETATM    2  C1  UNL     1       6.823   9.751  46.014  1.00  0.00     0.072 C 
HETATM    3  C2  UNL     1       6.628  10.374  44.733  1.00  0.00     0.079 C 
HETATM    4  C3  UNL     1       7.017  11.864  44.794  1.00  0.00     0.032 C 
HETATM    5  C4  UNL     1       6.013  12.359  43.741  1.00  0.00    -0.008 C 
HETATM    6  C5  UNL     1       4.768  11.794  44.459  1.00  0.00     0.011 C 
HETATM    7  C6  UNL     1       5.201  10.328  44.259  1.00  0.00     0.011 C 
HETATM    8  C7  UNL     1       5.142  10.360  42.726  1.00  0.00     0.011 C 
HETATM    9  C8  UNL     1       6.161  11.498  42.522  1.00  0.00    -0.008 C 
HETATM   10  C9  UNL     1       7.504  10.747  42.501  1.00  0.00     0.038 C 
HETATM   11  C10 UNL     1       7.596   9.820  43.676  1.00  0.00     0.141 C 
ENDROOT
BRANCH  11  12
HETATM   12  O1  UNL     1       7.409   8.500  43.409  1.00  0.00    -0.394 OA
ATOM     13  H1  UNL     1       7.385   7.957  44.188  1.00  0.00     0.210 HD
ENDBRANCH  11  12
TORSDOF 1
ENDMDL
MODEL 4
REMARK VINA RESULT: -5.373341871      5.339      6.467
REMARK  1 active torsions:
REMARK  status: ('A' for Active; 'I' for Inactive)
REMARK    1  A    between atoms: C10_11  and  O1_12 
ROOT
HETATM    1  N1  UNL     1      11.517   8.343  40.667  1.00  0.00    -0.196 NA
HETATM    2  C1  UNL     1      10.632   7.776  41.148  1.00  0.00     0.072 C 
HETATM    3  C2  UNL     1       9.533   7.072  41.751  1.00  0.00     0.079 C 
HETATM    4  C3  UNL     1       8.674   6.387  40.669  1.00  0.00     0.032 C 
HETATM    5  C4  UNL     1       7.332   6.485  41.411  1.00  0.00    -0.008 C 
HETATM    6  C5  UNL     1       7.382   8.019  41.586  1.00  0.00     0.011 C 
HETATM    7  C6  UNL     1       8.604   7.966  42.525  1.00  0.00     0.011 C 
HETATM    8  C7  UNL     1       7.905   7.179  43.641  1.00  0.00     0.011 C 
HETATM    9  C8  UNL     1       7.530   5.946  42.796  1.00  0.00    -0.008 C 
HETATM   10  C9  UNL     1       8.789   5.069  42.903  1.00  0.00     0.038 C 
HETATM   11  C10 UNL     1      10.013   5.881  42.596  1.00  0.00     0.141 C 
ENDROOT
BRANCH  11  12
HETATM   12  O1  UNL     1      10.768   6.248  43.666  1.00  0.00    -0.394 OA
ATOM     13  H1  UNL     1      11.293   5.539  44.018  1.00  0.00     0.210 HD
ENDBRANCH  11  12
TORSDOF 1
ENDMDL
MODEL 5
REMARK VINA RESULT: -5.353943054      2.383      3.368
REMARK  1 active torsions:
REMARK  status: ('A' for Active; 'I' for Inactive)
REMARK    1  A    between atoms: C10_11  and  O1_12 
ROOT
HETATM    1  N1  UNL     1       7.224   8.126  41.993  1.00  0.00    -0.196 NA
HETATM    2  C1  UNL     1       6.932   8.918  42.783  1.00  0.00     0.072 C 
HETATM    3  C2  UNL     1       6.572   9.904  43.767  1.00  0.00     0.079 C 
HETATM    4  C3  UNL     1       5.044  10.102  43.796  1.00  0.00     0.032 C 
HETATM    5  C4  UNL     1       5.060  11.584  44.201  1.00  0.00    -0.008 C 
HETATM    6  C5  UNL     1       5.936  12.043  43.015  1.00  0.00     0.011 C 
HETATM    7  C6  UNL     1       7.171  11.257  43.500  1.00  0.00     0.011 C 
HETATM    8  C7  UNL     1       7.342  12.037  44.810  1.00  0.00     0.011 C 
HETATM    9  C8  UNL     1       5.952  11.726  45.398  1.00  0.00    -0.008 C 
HETATM   10  C9  UNL     1       6.181  10.384  46.113  1.00  0.00     0.038 C 
HETATM   11  C10 UNL     1       6.873   9.420  45.194  1.00  0.00     0.141 C 
ENDROOT
BRANCH  11  12
HETATM   12  O1  UNL     1       8.196   9.218  45.430  1.00  0.00    -0.394 OA
ATOM     13  H1  UNL     1       8.588   9.886  45.979  1.00  0.00     0.210 HD
ENDBRANCH  11  12
TORSDOF 1
ENDMDL
