MODEL 1
REMARK VINA RESULT: -4.984968719      0.000      0.000
REMARK  1 active torsions:
REMARK  status: ('A' for Active; 'I' for Inactive)
REMARK    1  A    between atoms: O1_1  and  C1_3 
ROOT
HETATM    1  C1  UNL     1       6.908   8.975  44.322  1.00  0.00     0.127 C 
HETATM    2  C2  UNL     1       6.990   9.777  45.590  1.00  0.00     0.064 C 
HETATM    3  C3  UNL     1       6.227  11.060  45.359  1.00  0.00     0.128 C 
HETATM    4  O2  UNL     1       5.046  10.671  44.693  1.00  0.00    -0.380 OA
HETATM    5  C4  UNL     1       5.418  10.743  43.329  1.00  0.00     0.129 C 
HETATM    6  C5  UNL     1       5.930  12.192  43.334  1.00  0.00     0.039 C 
HETATM    7  C6  UNL     1       6.936  12.038  44.487  1.00  0.00     0.017 C 
HETATM    8  C7  UNL     1       8.191  11.489  43.848  1.00  0.00     0.008 C 
HETATM    9  C8  UNL     1       7.844  10.539  42.713  1.00  0.00     0.010 C 
HETATM   10  C9  UNL     1       6.560   9.810  43.119  1.00  0.00     0.043 C 
ENDROOT
BRANCH   1  11
HETATM   11  O1  UNL     1       8.174   8.415  44.113  1.00  0.00    -0.395 OA
ATOM     12  H1  UNL     1       8.060   7.692  43.507  1.00  0.00     0.210 HD
ENDBRANCH   1  11
TORSDOF 1
ENDMDL
MODEL 2
REMARK VINA RESULT: -4.943651928      0.932      2.944
REMARK  1 active torsions:
REMARK  status: ('A' for Active; 'I' for Inactive)
REMARK    1  A    between atoms: O1_1  and  C1_3 
ROOT
HETATM    1  C1  UNL     1       6.424  11.657  45.427  1.00  0.00     0.127 C 
HETATM    2  C2  UNL     1       6.270  10.178  45.637  1.00  0.00     0.064 C 
HETATM    3  C3  UNL     1       7.032   9.485  44.532  1.00  0.00     0.128 C 
HETATM    4  O2  UNL     1       8.249  10.190  44.427  1.00  0.00    -0.380 OA
HETATM    5  C4  UNL     1       7.947  11.195  43.477  1.00  0.00     0.129 C 
HETATM    6  C5  UNL     1       7.422  10.272  42.365  1.00  0.00     0.039 C 
HETATM    7  C6  UNL     1       6.359   9.543  43.205  1.00  0.00     0.017 C 
HETATM    8  C7  UNL     1       5.143  10.442  43.174  1.00  0.00     0.008 C 
HETATM    9  C8  UNL     1       5.558  11.905  43.168  1.00  0.00     0.010 C 
HETATM   10  C9  UNL     1       6.825  12.012  44.020  1.00  0.00     0.043 C 
ENDROOT
BRANCH   1  11
HETATM   11  O1  UNL     1       5.176  12.237  45.684  1.00  0.00    -0.395 OA
ATOM     12  H1  UNL     1       4.587  11.937  45.000  1.00  0.00     0.210 HD
ENDBRANCH   1  11
TORSDOF 1
ENDMDL
MODEL 3
REMARK VINA RESULT: -4.934825316      1.248      2.771
REMARK  1 active torsions:
REMARK  status: ('A' for Active; 'I' for Inactive)
REMARK    1  A    between atoms: O1_1  and  C1_3 
ROOT
HETATM    1  C1  UNL     1       7.090   9.547  45.996  1.00  0.00     0.127 C 
HETATM    2  C2  UNL     1       6.486   8.449  45.169  1.00  0.00     0.064 C 
HETATM    3  C3  UNL     1       6.746   8.784  43.719  1.00  0.00     0.128 C 
HETATM    4  O2  UNL     1       8.087   9.218  43.677  1.00  0.00    -0.380 OA
HETATM    5  C4  UNL     1       7.971  10.612  43.894  1.00  0.00     0.129 C 
HETATM    6  C5  UNL     1       6.966  10.910  42.769  1.00  0.00     0.039 C 
HETATM    7  C6  UNL     1       5.896   9.888  43.191  1.00  0.00     0.017 C 
HETATM    8  C7  UNL     1       5.074  10.587  44.250  1.00  0.00     0.008 C 
HETATM    9  C8  UNL     1       5.952  11.498  45.095  1.00  0.00     0.010 C 
HETATM   10  C9  UNL     1       7.316  10.815  45.216  1.00  0.00     0.043 C 
ENDROOT
BRANCH   1  11
HETATM   11  O1  UNL     1       6.184   9.825  47.027  1.00  0.00    -0.395 OA
ATOM     12  H1  UNL     1       6.653  10.336  47.676  1.00  0.00     0.210 HD
ENDBRANCH   1  11
TORSDOF 1
ENDMDL
MODEL 4
REMARK VINA RESULT: -4.912313564      1.783      3.277
REMARK  1 active torsions:
REMARK  status: ('A' for Active; 'I' for Inactive)
REMARK    1  A    between atoms: O1_1  and  C1_3 
ROOT
HETATM    1  C1  UNL     1       4.985  12.936  44.112  1.00  0.00     0.127 C 
HETATM    2  C2  UNL     1       4.431  12.084  45.218  1.00  0.00     0.064 C 
HETATM    3  C3  UNL     1       5.538  11.160  45.671  1.00  0.00     0.128 C 
HETATM    4  O2  UNL     1       6.689  11.972  45.740  1.00  0.00    -0.380 OA
HETATM    5  C4  UNL     1       7.233  11.853  44.439  1.00  0.00     0.129 C 
HETATM    6  C5  UNL     1       7.301  10.318  44.386  1.00  0.00     0.039 C 
HETATM    7  C6  UNL     1       5.824  10.048  44.721  1.00  0.00     0.017 C 
HETATM    8  C7  UNL     1       5.090  10.164  43.405  1.00  0.00     0.008 C 
HETATM    9  C8  UNL     1       5.719  11.238  42.532  1.00  0.00     0.010 C 
HETATM   10  C9  UNL     1       6.212  12.342  43.471  1.00  0.00     0.043 C 
ENDROOT
BRANCH   1  11
HETATM   11  O1  UNL     1       3.987  13.033  43.135  1.00  0.00    -0.395 OA
ATOM     12  H1  UNL     1       3.781  13.956  43.042  1.00  0.00     0.210 HD
ENDBRANCH   1  11
TORSDOF 1
ENDMDL
MODEL 5
REMARK VINA RESULT: -4.869811329      1.284      2.076
REMARK  1 active torsions:
REMARK  status: ('A' for Active; 'I' for Inactive)
REMARK    1  A    between atoms: O1_1  and  C1_3 
ROOT
HETATM    1  C1  UNL     1       7.374  10.015  43.887  1.00  0.00     0.127 C 
HETATM    2  C2  UNL     1       7.881  11.429  43.921  1.00  0.00     0.064 C 
HETATM    3  C3  UNL     1       6.906  12.235  44.746  1.00  0.00     0.128 C 
HETATM    4  O2  UNL     1       6.613  11.427  45.864  1.00  0.00    -0.380 OA
HETATM    5  C4  UNL     1       5.496  10.678  45.425  1.00  0.00     0.129 C 
HETATM    6  C5  UNL     1       4.611  11.862  45.001  1.00  0.00     0.039 C 
HETATM    7  C6  UNL     1       5.621  12.527  44.050  1.00  0.00     0.017 C 
HETATM    8  C7  UNL     1       5.462  11.804  42.732  1.00  0.00     0.008 C 
HETATM    9  C8  UNL     1       5.148  10.334  42.961  1.00  0.00     0.010 C 
HETATM   10  C9  UNL     1       5.910   9.907  44.219  1.00  0.00     0.043 C 
ENDROOT
BRANCH   1  11
HETATM   11  O1  UNL     1       7.561   9.548  42.580  1.00  0.00    -0.395 OA
ATOM     12  H1  UNL     1       8.439   9.187  42.539  1.00  0.00     0.210 HD
ENDBRANCH   1  11
TORSDOF 1
ENDMDL
