MODEL 1
REMARK VINA RESULT: -5.104566743      0.000      0.000
REMARK  1 active torsions:
REMARK  status: ('A' for Active; 'I' for Inactive)
REMARK    1  A    between atoms: O1_1  and  C1_3 
ROOT
HETATM    1  C1  UNL     1       6.320   9.594  45.865  1.00  0.00     0.151 C 
HETATM    2  C2  UNL     1       5.806  10.892  45.320  1.00  0.00     0.020 C 
HETATM    3  C3  UNL     1       5.069  10.564  44.017  1.00  0.00     0.012 C 
HETATM    4  C4  UNL     1       6.005   9.930  43.032  1.00  0.00    -0.009 C 
HETATM    5  C5  UNL     1       7.203  10.826  42.747  1.00  0.00     0.036 C 
HETATM    6  C6  UNL     1       7.875  11.140  44.054  1.00  0.00     0.122 C 
HETATM    7  C7  UNL     1       6.906  11.859  44.951  1.00  0.00     0.039 C 
HETATM    8  O2  UNL     1       8.358   9.985  44.631  1.00  0.00    -0.378 OA
HETATM    9  C8  UNL     1       7.361   9.066  44.903  1.00  0.00     0.151 C 
HETATM   10  C9  UNL     1       6.613   8.659  43.634  1.00  0.00     0.039 C 
ENDROOT
BRANCH   1  11
HETATM   11  O1  UNL     1       6.792   9.710  47.158  1.00  0.00    -0.393 OA
ATOM     12  H1  UNL     1       7.711   9.950  47.192  1.00  0.00     0.210 HD
ENDBRANCH   1  11
TORSDOF 1
ENDMDL
MODEL 2
REMARK VINA RESULT: -4.983291535      5.056      6.156
REMARK  1 active torsions:
REMARK  status: ('A' for Active; 'I' for Inactive)
REMARK    1  A    between atoms: O1_1  and  C1_3 
ROOT
HETATM    1  C1  UNL     1      10.360   5.679  42.498  1.00  0.00     0.151 C 
HETATM    2  C2  UNL     1       9.044   6.345  42.233  1.00  0.00     0.020 C 
HETATM    3  C3  UNL     1       8.337   5.515  41.157  1.00  0.00     0.012 C 
HETATM    4  C4  UNL     1       9.155   5.481  39.901  1.00  0.00    -0.009 C 
HETATM    5  C5  UNL     1       9.436   6.885  39.382  1.00  0.00     0.036 C 
HETATM    6  C6  UNL     1      10.104   7.665  40.479  1.00  0.00     0.122 C 
HETATM    7  C7  UNL     1       9.186   7.738  41.667  1.00  0.00     0.039 C 
HETATM    8  O2  UNL     1      11.319   7.097  40.796  1.00  0.00    -0.378 OA
HETATM    9  C8  UNL     1      11.200   5.795  41.246  1.00  0.00     0.151 C 
HETATM   10  C9  UNL     1      10.541   4.898  40.197  1.00  0.00     0.039 C 
ENDROOT
BRANCH   1  11
HETATM   11  O1  UNL     1      10.993   6.180  43.619  1.00  0.00    -0.393 OA
ATOM     12  H1  UNL     1      11.319   5.496  44.192  1.00  0.00     0.210 HD
ENDBRANCH   1  11
TORSDOF 1
ENDMDL
MODEL 3
REMARK VINA RESULT: -4.937122559      1.417      2.734
REMARK  1 active torsions:
REMARK  status: ('A' for Active; 'I' for Inactive)
REMARK    1  A    between atoms: O1_1  and  C1_3 
ROOT
HETATM    1  C1  UNL     1       7.707   9.609  44.662  1.00  0.00     0.151 C 
HETATM    2  C2  UNL     1       7.962  10.442  43.443  1.00  0.00     0.020 C 
HETATM    3  C3  UNL     1       7.837  11.907  43.873  1.00  0.00     0.012 C 
HETATM    4  C4  UNL     1       6.460  12.181  44.400  1.00  0.00    -0.009 C 
HETATM    5  C5  UNL     1       5.392  11.843  43.369  1.00  0.00     0.036 C 
HETATM    6  C6  UNL     1       5.573  10.408  42.960  1.00  0.00     0.122 C 
HETATM    7  C7  UNL     1       6.937  10.232  42.354  1.00  0.00     0.039 C 
HETATM    8  O2  UNL     1       5.374   9.575  44.040  1.00  0.00    -0.378 OA
HETATM    9  C8  UNL     1       6.265   9.815  45.071  1.00  0.00     0.151 C 
HETATM   10  C9  UNL     1       6.159  11.252  45.581  1.00  0.00     0.039 C 
ENDROOT
BRANCH   1  11
HETATM   11  O1  UNL     1       8.029   8.279  44.474  1.00  0.00    -0.393 OA
ATOM     12  H1  UNL     1       8.664   7.963  45.106  1.00  0.00     0.210 HD
ENDBRANCH   1  11
TORSDOF 1
ENDMDL
MODEL 4
REMARK VINA RESULT: -4.928970910      3.566      4.778
REMARK  1 active torsions:
REMARK  status: ('A' for Active; 'I' for Inactive)
REMARK    1  A    between atoms: O1_1  and  C1_3 
ROOT
HETATM    1  C1  UNL     1       9.839   6.083  42.704  1.00  0.00     0.151 C 
HETATM    2  C2  UNL     1       8.495   6.034  43.365  1.00  0.00     0.020 C 
HETATM    3  C3  UNL     1       7.493   5.582  42.297  1.00  0.00     0.012 C 
HETATM    4  C4  UNL     1       7.468   6.556  41.157  1.00  0.00    -0.009 C 
HETATM    5  C5  UNL     1       7.129   7.962  41.634  1.00  0.00     0.036 C 
HETATM    6  C6  UNL     1       8.120   8.349  42.696  1.00  0.00     0.122 C 
HETATM    7  C7  UNL     1       8.019   7.385  43.845  1.00  0.00     0.039 C 
HETATM    8  O2  UNL     1       9.392   8.394  42.167  1.00  0.00    -0.378 OA
HETATM    9  C8  UNL     1       9.803   7.175  41.658  1.00  0.00     0.151 C 
HETATM   10  C9  UNL     1       8.870   6.685  40.551  1.00  0.00     0.039 C 
ENDROOT
BRANCH   1  11
HETATM   11  O1  UNL     1      10.871   6.238  43.610  1.00  0.00    -0.393 OA
ATOM     12  H1  UNL     1      10.606   6.048  44.503  1.00  0.00     0.210 HD
ENDBRANCH   1  11
TORSDOF 1
ENDMDL
MODEL 5
REMARK VINA RESULT: -4.919736134      3.825      4.945
REMARK  1 active torsions:
REMARK  status: ('A' for Active; 'I' for Inactive)
REMARK    1  A    between atoms: O1_1  and  C1_3 
ROOT
HETATM    1  C1  UNL     1       8.375   5.143  43.223  1.00  0.00     0.151 C 
HETATM    2  C2  UNL     1       7.215   5.942  42.712  1.00  0.00     0.020 C 
HETATM    3  C3  UNL     1       7.183   5.752  41.192  1.00  0.00     0.012 C 
HETATM    4  C4  UNL     1       8.457   6.249  40.576  1.00  0.00    -0.009 C 
HETATM    5  C5  UNL     1       8.708   7.711  40.918  1.00  0.00     0.036 C 
HETATM    6  C6  UNL     1       8.703   7.850  42.415  1.00  0.00     0.122 C 
HETATM    7  C7  UNL     1       7.364   7.426  42.949  1.00  0.00     0.039 C 
HETATM    8  O2  UNL     1       9.736   7.121  42.964  1.00  0.00    -0.378 OA
HETATM    9  C8  UNL     1       9.643   5.769  42.686  1.00  0.00     0.151 C 
HETATM   10  C9  UNL     1       9.653   5.505  41.181  1.00  0.00     0.039 C 
ENDROOT
BRANCH   1  11
HETATM   11  O1  UNL     1       8.374   5.026  44.600  1.00  0.00    -0.393 OA
ATOM     12  H1  UNL     1       8.573   4.144  44.893  1.00  0.00     0.210 HD
ENDBRANCH   1  11
TORSDOF 1
ENDMDL
