MODEL 1
REMARK VINA RESULT: -5.270704836      0.000      0.000
REMARK  0 active torsions:
REMARK  status: ('A' for Active; 'I' for Inactive)
ROOT
HETATM    1  N1  UNL     1       4.607  12.325  47.234  1.00  0.00    -0.389 N 
ATOM      2  H11 UNL     1       4.375  12.979  47.982  1.00  0.00     0.157 HD
ATOM      3  H12 UNL     1       5.202  11.499  47.172  1.00  0.00     0.157 HD
HETATM    4  C1  UNL     1       4.027  12.593  46.112  1.00  0.00     0.070 C 
HETATM    5  C2  UNL     1       4.369  11.631  45.012  1.00  0.00     0.075 C 
HETATM    6  C3  UNL     1       4.936  12.479  43.867  1.00  0.00     0.007 C 
HETATM    7  C4  UNL     1       3.832  13.016  43.005  1.00  0.00     0.000 C 
HETATM    8  C5  UNL     1       3.740  14.508  42.993  1.00  0.00     0.002 C 
HETATM    9  C6  UNL     1       3.581  15.148  44.326  1.00  0.00     0.020 C 
HETATM   10  C7  UNL     1       2.532  14.531  45.196  1.00  0.00     0.121 C 
HETATM   11  N2  UNL     1       3.210  13.728  46.197  1.00  0.00    -0.380 N 
ATOM     12  H2  UNL     1       3.063  14.055  47.152  1.00  0.00     0.160 HD
ENDROOT
TORSDOF 0
ENDMDL
MODEL 2
REMARK VINA RESULT: -5.240099147      1.065      2.475
REMARK  0 active torsions:
REMARK  status: ('A' for Active; 'I' for Inactive)
ROOT
HETATM    1  N1  UNL     1       2.975  12.368  47.115  1.00  0.00    -0.389 N 
ATOM      2  H11 UNL     1       3.281  11.407  47.268  1.00  0.00     0.157 HD
ATOM      3  H12 UNL     1       2.292  12.976  47.568  1.00  0.00     0.157 HD
HETATM    4  C1  UNL     1       3.577  12.955  46.136  1.00  0.00     0.070 C 
HETATM    5  C2  UNL     1       3.126  14.369  45.912  1.00  0.00     0.075 C 
HETATM    6  C3  UNL     1       2.652  14.440  44.457  1.00  0.00     0.007 C 
HETATM    7  C4  UNL     1       3.806  14.700  43.533  1.00  0.00     0.000 C 
HETATM    8  C5  UNL     1       4.061  13.599  42.554  1.00  0.00     0.002 C 
HETATM    9  C6  UNL     1       4.295  12.257  43.150  1.00  0.00     0.020 C 
HETATM   10  C7  UNL     1       5.273  12.236  44.283  1.00  0.00     0.121 C 
HETATM   11  N2  UNL     1       4.514  12.120  45.514  1.00  0.00    -0.380 N 
ATOM     12  H2  UNL     1       4.700  11.260  46.030  1.00  0.00     0.160 HD
ENDROOT
TORSDOF 0
ENDMDL
MODEL 3
REMARK VINA RESULT: -5.161626954      1.792      2.733
REMARK  0 active torsions:
REMARK  status: ('A' for Active; 'I' for Inactive)
ROOT
HETATM    1  N1  UNL     1       5.518  10.316  46.699  1.00  0.00    -0.389 N 
ATOM      2  H11 UNL     1       6.196   9.719  46.225  1.00  0.00     0.157 HD
ATOM      3  H12 UNL     1       4.988  10.239  47.567  1.00  0.00     0.157 HD
HETATM    4  C1  UNL     1       5.266  11.415  46.071  1.00  0.00     0.070 C 
HETATM    5  C2  UNL     1       4.269  12.294  46.768  1.00  0.00     0.075 C 
HETATM    6  C3  UNL     1       3.138  12.535  45.763  1.00  0.00     0.007 C 
HETATM    7  C4  UNL     1       3.466  13.687  44.859  1.00  0.00     0.000 C 
HETATM    8  C5  UNL     1       3.584  13.313  43.416  1.00  0.00     0.002 C 
HETATM    9  C6  UNL     1       4.575  12.247  43.113  1.00  0.00     0.020 C 
HETATM   10  C7  UNL     1       5.914  12.435  43.753  1.00  0.00     0.121 C 
HETATM   11  N2  UNL     1       5.994  11.521  44.878  1.00  0.00    -0.380 N 
ATOM     12  H2  UNL     1       6.725  10.816  44.781  1.00  0.00     0.160 HD
ENDROOT
TORSDOF 0
ENDMDL
MODEL 4
REMARK VINA RESULT: -5.102989770      1.301      2.696
REMARK  0 active torsions:
REMARK  status: ('A' for Active; 'I' for Inactive)
ROOT
HETATM    1  N1  UNL     1       3.068  12.290  47.236  1.00  0.00    -0.389 N 
ATOM      2  H11 UNL     1       3.421  11.487  47.758  1.00  0.00     0.157 HD
ATOM      3  H12 UNL     1       2.229  12.865  47.299  1.00  0.00     0.157 HD
HETATM    4  C1  UNL     1       3.849  12.672  46.282  1.00  0.00     0.070 C 
HETATM    5  C2  UNL     1       3.330  13.853  45.514  1.00  0.00     0.075 C 
HETATM    6  C3  UNL     1       3.266  13.413  44.047  1.00  0.00     0.007 C 
HETATM    7  C4  UNL     1       4.593  13.605  43.375  1.00  0.00     0.000 C 
HETATM    8  C5  UNL     1       5.220  12.337  42.892  1.00  0.00     0.002 C 
HETATM    9  C6  UNL     1       5.423  11.291  43.929  1.00  0.00     0.020 C 
HETATM   10  C7  UNL     1       6.052  11.777  45.196  1.00  0.00     0.121 C 
HETATM   11  N2  UNL     1       5.003  11.882  46.194  1.00  0.00    -0.380 N 
ATOM     12  H2  UNL     1       5.131  11.256  46.989  1.00  0.00     0.160 HD
ENDROOT
TORSDOF 0
ENDMDL
MODEL 5
REMARK VINA RESULT: -4.928146877      1.222      1.647
REMARK  0 active torsions:
REMARK  status: ('A' for Active; 'I' for Inactive)
ROOT
HETATM    1  N1  UNL     1       6.164  11.434  45.539  1.00  0.00    -0.389 N 
ATOM      2  H11 UNL     1       6.162  11.408  46.559  1.00  0.00     0.157 HD
ATOM      3  H12 UNL     1       6.848  11.186  44.824  1.00  0.00     0.157 HD
HETATM    4  C1  UNL     1       5.065  11.878  45.028  1.00  0.00     0.070 C 
HETATM    5  C2  UNL     1       5.069  11.916  43.528  1.00  0.00     0.075 C 
HETATM    6  C3  UNL     1       4.761  13.366  43.138  1.00  0.00     0.007 C 
HETATM    7  C4  UNL     1       3.280  13.604  43.104  1.00  0.00     0.000 C 
HETATM    8  C5  UNL     1       2.803  14.615  44.096  1.00  0.00     0.002 C 
HETATM    9  C6  UNL     1       3.149  14.330  45.513  1.00  0.00     0.020 C 
HETATM   10  C7  UNL     1       2.862  12.931  45.960  1.00  0.00     0.121 C 
HETATM   11  N2  UNL     1       4.126  12.219  46.010  1.00  0.00    -0.380 N 
ATOM     12  H2  UNL     1       4.381  11.904  46.947  1.00  0.00     0.160 HD
ENDROOT
TORSDOF 0
ENDMDL
