MODEL 1
REMARK VINA RESULT: -5.266266799      0.000      0.000
REMARK  0 active torsions:
REMARK  status: ('A' for Active; 'I' for Inactive)
ROOT
HETATM    1  N1  UNL     1       4.969  11.004  47.145  1.00  0.00    -0.404 N 
ATOM      2  H11 UNL     1       4.401  10.994  47.992  1.00  0.00     0.155 HD
ATOM      3  H12 UNL     1       5.838  10.532  46.891  1.00  0.00     0.155 HD
HETATM    4  C1  UNL     1       4.503  11.758  46.206  1.00  0.00    -0.003 C 
HETATM    5  C2  UNL     1       5.330  11.771  44.973  1.00  0.00     0.053 C 
HETATM    6  C3  UNL     1       4.461  12.132  43.786  1.00  0.00     0.006 C 
HETATM    7  C4  UNL     1       4.431  13.635  43.672  1.00  0.00     0.005 C 
HETATM    8  C5  UNL     1       3.065  14.219  43.830  1.00  0.00     0.044 C 
HETATM    9  C6  UNL     1       2.566  14.334  45.218  1.00  0.00     0.056 C 
HETATM   10  N2  UNL     1       3.367  13.819  46.241  1.00  0.00    -0.397 N 
ATOM     11  H2  UNL     1       4.035  14.414  46.732  1.00  0.00     0.159 HD
HETATM   12  C7  UNL     1       3.228  12.451  46.578  1.00  0.00     0.170 C 
ENDROOT
TORSDOF 0
ENDMDL
MODEL 2
REMARK VINA RESULT: -5.093396762      1.409      2.640
REMARK  0 active torsions:
REMARK  status: ('A' for Active; 'I' for Inactive)
ROOT
HETATM    1  N1  UNL     1       3.277  12.400  47.235  1.00  0.00    -0.404 N 
ATOM      2  H11 UNL     1       3.838  11.662  47.659  1.00  0.00     0.155 HD
ATOM      3  H12 UNL     1       2.505  12.968  47.585  1.00  0.00     0.155 HD
HETATM    4  C1  UNL     1       3.601  12.674  46.015  1.00  0.00    -0.003 C 
HETATM    5  C2  UNL     1       2.783  13.748  45.397  1.00  0.00     0.053 C 
HETATM    6  C3  UNL     1       3.573  14.408  44.287  1.00  0.00     0.006 C 
HETATM    7  C4  UNL     1       3.338  13.626  43.019  1.00  0.00     0.005 C 
HETATM    8  C5  UNL     1       4.579  13.019  42.453  1.00  0.00     0.044 C 
HETATM    9  C6  UNL     1       5.052  11.779  43.106  1.00  0.00     0.056 C 
HETATM   10  N2  UNL     1       4.355  11.333  44.233  1.00  0.00    -0.397 N 
ATOM     11  H2  UNL     1       3.594  10.660  44.145  1.00  0.00     0.159 HD
HETATM   12  C7  UNL     1       4.734  11.839  45.500  1.00  0.00     0.170 C 
ENDROOT
TORSDOF 0
ENDMDL
MODEL 3
REMARK VINA RESULT: -5.020458867      1.078      1.231
REMARK  0 active torsions:
REMARK  status: ('A' for Active; 'I' for Inactive)
ROOT
HETATM    1  N1  UNL     1       4.432  12.353  47.261  1.00  0.00    -0.404 N 
ATOM      2  H11 UNL     1       3.758  12.803  47.880  1.00  0.00     0.155 HD
ATOM      3  H12 UNL     1       5.249  11.768  47.440  1.00  0.00     0.155 HD
HETATM    4  C1  UNL     1       4.215  12.560  46.005  1.00  0.00    -0.003 C 
HETATM    5  C2  UNL     1       5.197  11.904  45.105  1.00  0.00     0.053 C 
HETATM    6  C3  UNL     1       4.562  11.671  43.750  1.00  0.00     0.006 C 
HETATM    7  C4  UNL     1       4.767  12.913  42.920  1.00  0.00     0.005 C 
HETATM    8  C5  UNL     1       3.493  13.576  42.511  1.00  0.00     0.044 C 
HETATM    9  C6  UNL     1       2.830  14.401  43.544  1.00  0.00     0.056 C 
HETATM   10  N2  UNL     1       3.399  14.423  44.821  1.00  0.00    -0.397 N 
ATOM     11  H2  UNL     1       4.072  15.143  45.081  1.00  0.00     0.159 HD
HETATM   12  C7  UNL     1       3.016  13.420  45.743  1.00  0.00     0.170 C 
ENDROOT
TORSDOF 0
ENDMDL
MODEL 4
REMARK VINA RESULT: -5.014885442      1.126      3.168
REMARK  0 active torsions:
REMARK  status: ('A' for Active; 'I' for Inactive)
ROOT
HETATM    1  N1  UNL     1       1.904  15.230  44.593  1.00  0.00    -0.404 N 
ATOM      2  H11 UNL     1       1.604  15.555  45.512  1.00  0.00     0.155 HD
ATOM      3  H12 UNL     1       1.623  15.486  43.645  1.00  0.00     0.155 HD
HETATM    4  C1  UNL     1       2.818  14.319  44.627  1.00  0.00    -0.003 C 
HETATM    5  C2  UNL     1       3.255  13.847  43.289  1.00  0.00     0.053 C 
HETATM    6  C3  UNL     1       4.663  13.297  43.382  1.00  0.00     0.006 C 
HETATM    7  C4  UNL     1       4.570  11.842  43.764  1.00  0.00     0.005 C 
HETATM    8  C5  UNL     1       5.218  11.524  45.071  1.00  0.00     0.044 C 
HETATM    9  C6  UNL     1       4.441  11.870  46.281  1.00  0.00     0.056 C 
HETATM   10  N2  UNL     1       3.222  12.530  46.104  1.00  0.00    -0.397 N 
ATOM     11  H2  UNL     1       2.349  12.007  46.037  1.00  0.00     0.159 HD
HETATM   12  C7  UNL     1       3.231  13.943  46.018  1.00  0.00     0.170 C 
ENDROOT
TORSDOF 0
ENDMDL
MODEL 5
REMARK VINA RESULT: -4.864754817      1.742      2.803
REMARK  0 active torsions:
REMARK  status: ('A' for Active; 'I' for Inactive)
ROOT
HETATM    1  N1  UNL     1       7.307  11.691  43.587  1.00  0.00    -0.404 N 
ATOM      2  H11 UNL     1       7.870  10.989  44.068  1.00  0.00     0.155 HD
ATOM      3  H12 UNL     1       7.474  12.256  42.754  1.00  0.00     0.155 HD
HETATM    4  C1  UNL     1       6.159  11.911  44.135  1.00  0.00    -0.003 C 
HETATM    5  C2  UNL     1       5.339  12.932  43.435  1.00  0.00     0.053 C 
HETATM    6  C3  UNL     1       3.874  12.691  43.728  1.00  0.00     0.006 C 
HETATM    7  C4  UNL     1       3.528  13.419  45.003  1.00  0.00     0.005 C 
HETATM    8  C5  UNL     1       3.072  12.518  46.102  1.00  0.00     0.044 C 
HETATM    9  C6  UNL     1       4.135  11.792  46.829  1.00  0.00     0.056 C 
HETATM   10  N2  UNL     1       5.450  11.945  46.379  1.00  0.00    -0.397 N 
ATOM     11  H2  UNL     1       6.059  12.661  46.776  1.00  0.00     0.159 HD
HETATM   12  C7  UNL     1       5.915  11.081  45.359  1.00  0.00     0.170 C 
ENDROOT
TORSDOF 0
ENDMDL
