MODEL 1
REMARK VINA RESULT: -4.719073290      0.000      0.000
REMARK  1 active torsions:
REMARK  status: ('A' for Active; 'I' for Inactive)
REMARK    1  A    between atoms: O1_1  and  C1_3 
ROOT
HETATM    1  C1  UNL     1       3.580  13.071  46.168  1.00  0.00     0.256 C 
HETATM    2  C2  UNL     1       4.142  12.001  45.233  1.00  0.00     0.060 C 
HETATM    3  C3  UNL     1       4.790  12.729  44.084  1.00  0.00     0.005 C 
HETATM    4  C4  UNL     1       3.714  13.055  43.090  1.00  0.00     0.002 C 
HETATM    5  C5  UNL     1       3.074  14.387  43.295  1.00  0.00     0.026 C 
HETATM    6  C6  UNL     1       2.945  14.784  44.743  1.00  0.00     0.171 C 
HETATM    7  O2  UNL     1       2.552  13.746  45.559  1.00  0.00    -0.361 OA
ENDROOT
BRANCH   1   8
HETATM    8  O1  UNL     1       3.037  12.352  47.254  1.00  0.00    -0.371 OA
ATOM      9  H1  UNL     1       3.258  11.444  47.078  1.00  0.00     0.212 HD
ENDBRANCH   1   8
TORSDOF 1
ENDMDL
MODEL 2
REMARK VINA RESULT: -4.709993381      0.961      2.669
REMARK  1 active torsions:
REMARK  status: ('A' for Active; 'I' for Inactive)
REMARK    1  A    between atoms: O1_1  and  C1_3 
ROOT
HETATM    1  C1  UNL     1       2.722  14.540  44.742  1.00  0.00     0.256 C 
HETATM    2  C2  UNL     1       3.720  14.403  43.593  1.00  0.00     0.060 C 
HETATM    3  C3  UNL     1       3.906  12.926  43.357  1.00  0.00     0.005 C 
HETATM    4  C4  UNL     1       4.938  12.439  44.332  1.00  0.00     0.002 C 
HETATM    5  C5  UNL     1       4.375  11.946  45.622  1.00  0.00     0.026 C 
HETATM    6  C6  UNL     1       3.160  12.706  46.088  1.00  0.00     0.171 C 
HETATM    7  O2  UNL     1       3.268  14.067  45.909  1.00  0.00    -0.361 OA
ENDROOT
BRANCH   1   8
HETATM    8  O1  UNL     1       2.532  15.931  44.889  1.00  0.00    -0.371 OA
ATOM      9  H1  UNL     1       3.167  16.194  45.545  1.00  0.00     0.212 HD
ENDBRANCH   1   8
TORSDOF 1
ENDMDL
MODEL 3
REMARK VINA RESULT: -4.703573555      2.008      2.797
REMARK  1 active torsions:
REMARK  status: ('A' for Active; 'I' for Inactive)
REMARK    1  A    between atoms: O1_1  and  C1_3 
ROOT
HETATM    1  C1  UNL     1       3.071  14.830  43.644  1.00  0.00     0.256 C 
HETATM    2  C2  UNL     1       3.510  13.535  44.328  1.00  0.00     0.060 C 
HETATM    3  C3  UNL     1       4.729  13.048  43.589  1.00  0.00     0.005 C 
HETATM    4  C4  UNL     1       4.255  12.274  42.394  1.00  0.00     0.002 C 
HETATM    5  C5  UNL     1       4.094  13.094  41.158  1.00  0.00     0.026 C 
HETATM    6  C6  UNL     1       3.616  14.499  41.417  1.00  0.00     0.171 C 
HETATM    7  O2  UNL     1       2.626  14.570  42.373  1.00  0.00    -0.361 OA
ENDROOT
BRANCH   1   8
HETATM    8  O1  UNL     1       1.968  15.281  44.402  1.00  0.00    -0.371 OA
ATOM      9  H1  UNL     1       1.212  15.118  43.850  1.00  0.00     0.212 HD
ENDBRANCH   1   8
TORSDOF 1
ENDMDL
MODEL 4
REMARK VINA RESULT: -4.589933731      1.835      2.822
REMARK  1 active torsions:
REMARK  status: ('A' for Active; 'I' for Inactive)
REMARK    1  A    between atoms: O1_1  and  C1_3 
ROOT
HETATM    1  C1  UNL     1       4.581  11.710  46.317  1.00  0.00     0.256 C 
HETATM    2  C2  UNL     1       3.767  12.790  45.605  1.00  0.00     0.060 C 
HETATM    3  C3  UNL     1       3.841  12.485  44.131  1.00  0.00     0.005 C 
HETATM    4  C4  UNL     1       5.116  13.080  43.609  1.00  0.00     0.002 C 
HETATM    5  C5  UNL     1       6.283  12.151  43.644  1.00  0.00     0.026 C 
HETATM    6  C6  UNL     1       6.285  11.218  44.826  1.00  0.00     0.171 C 
HETATM    7  O2  UNL     1       5.911  11.830  46.003  1.00  0.00    -0.361 OA
ENDROOT
BRANCH   1   8
HETATM    8  O1  UNL     1       4.436  11.998  47.691  1.00  0.00    -0.371 OA
ATOM      9  H1  UNL     1       3.829  12.728  47.724  1.00  0.00     0.212 HD
ENDBRANCH   1   8
TORSDOF 1
ENDMDL
MODEL 5
REMARK VINA RESULT: -4.482057202      1.228      2.214
REMARK  1 active torsions:
REMARK  status: ('A' for Active; 'I' for Inactive)
REMARK    1  A    between atoms: O1_1  and  C1_3 
ROOT
HETATM    1  C1  UNL     1       3.248  12.382  46.023  1.00  0.00     0.256 C 
HETATM    2  C2  UNL     1       3.121  13.850  45.619  1.00  0.00     0.060 C 
HETATM    3  C3  UNL     1       3.038  13.878  44.115  1.00  0.00     0.005 C 
HETATM    4  C4  UNL     1       4.442  13.836  43.583  1.00  0.00     0.002 C 
HETATM    5  C5  UNL     1       4.954  12.461  43.318  1.00  0.00     0.026 C 
HETATM    6  C6  UNL     1       4.460  11.427  44.295  1.00  0.00     0.171 C 
HETATM    7  O2  UNL     1       4.449  11.871  45.599  1.00  0.00    -0.361 OA
ENDROOT
BRANCH   1   8
HETATM    8  O1  UNL     1       3.262  12.397  47.435  1.00  0.00    -0.371 OA
ATOM      9  H1  UNL     1       2.386  12.671  47.683  1.00  0.00     0.212 HD
ENDBRANCH   1   8
TORSDOF 1
ENDMDL
