MODEL 1
REMARK VINA RESULT: -4.550105856      0.000      0.000
REMARK  0 active torsions:
REMARK  status: ('A' for Active; 'I' for Inactive)
ROOT
HETATM    1  N1  UNL     1       6.938   9.058  46.932  1.00  0.00    -0.380 N 
ATOM      2  H11 UNL     1       7.620   8.360  46.633  1.00  0.00     0.158 HD
ATOM      3  H12 UNL     1       6.652   9.248  47.893  1.00  0.00     0.158 HD
HETATM    4  C1  UNL     1       6.412   9.746  45.976  1.00  0.00     0.133 C 
HETATM    5  N2  UNL     1       5.461  10.720  46.393  1.00  0.00    -0.371 N 
ATOM      6  H2  UNL     1       4.984  10.550  47.278  1.00  0.00     0.161 HD
HETATM    7  C2  UNL     1       5.106  11.928  45.681  1.00  0.00     0.121 C 
HETATM    8  C3  UNL     1       5.480  11.899  44.241  1.00  0.00     0.020 C 
HETATM    9  C4  UNL     1       6.949  12.157  43.995  1.00  0.00     0.012 C 
HETATM   10  C5  UNL     1       7.677  10.886  43.578  1.00  0.00     0.082 C 
HETATM   11  S1  UNL     1       6.911   9.415  44.298  1.00  0.00    -0.095 SA
ENDROOT
TORSDOF 0
ENDMDL
MODEL 2
REMARK VINA RESULT: -4.298214686      2.752      3.458
REMARK  0 active torsions:
REMARK  status: ('A' for Active; 'I' for Inactive)
ROOT
HETATM    1  N1  UNL     1       4.729  12.211  47.253  1.00  0.00    -0.380 N 
ATOM      2  H11 UNL     1       5.342  11.400  47.159  1.00  0.00     0.158 HD
ATOM      3  H12 UNL     1       4.572  12.753  48.102  1.00  0.00     0.158 HD
HETATM    4  C1  UNL     1       4.111  12.551  46.171  1.00  0.00     0.133 C 
HETATM    5  N2  UNL     1       3.256  13.682  46.302  1.00  0.00    -0.371 N 
ATOM      6  H2  UNL     1       2.888  13.878  47.233  1.00  0.00     0.161 HD
HETATM    7  C2  UNL     1       2.859  14.579  45.240  1.00  0.00     0.121 C 
HETATM    8  C3  UNL     1       3.047  14.009  43.879  1.00  0.00     0.020 C 
HETATM    9  C4  UNL     1       4.482  14.045  43.404  1.00  0.00     0.012 C 
HETATM   10  C5  UNL     1       5.106  12.656  43.405  1.00  0.00     0.082 C 
HETATM   11  S1  UNL     1       4.384  11.604  44.687  1.00  0.00    -0.095 SA
ENDROOT
TORSDOF 0
ENDMDL
MODEL 3
REMARK VINA RESULT: -4.298174828      2.389      3.476
REMARK  0 active torsions:
REMARK  status: ('A' for Active; 'I' for Inactive)
ROOT
HETATM    1  N1  UNL     1       6.867  12.009  44.469  1.00  0.00    -0.380 N 
ATOM      2  H11 UNL     1       7.014  12.287  43.498  1.00  0.00     0.158 HD
ATOM      3  H12 UNL     1       7.594  11.787  45.148  1.00  0.00     0.158 HD
HETATM    4  C1  UNL     1       5.630  11.946  44.833  1.00  0.00     0.133 C 
HETATM    5  N2  UNL     1       5.425  11.558  46.188  1.00  0.00    -0.371 N 
ATOM      6  H2  UNL     1       6.159  11.001  46.624  1.00  0.00     0.161 HD
HETATM    7  C2  UNL     1       4.276  11.879  47.004  1.00  0.00     0.121 C 
HETATM    8  C3  UNL     1       3.082  12.288  46.213  1.00  0.00     0.020 C 
HETATM    9  C4  UNL     1       3.153  13.712  45.711  1.00  0.00     0.012 C 
HETATM   10  C5  UNL     1       3.402  13.762  44.209  1.00  0.00     0.082 C 
HETATM   11  S1  UNL     1       4.360  12.334  43.646  1.00  0.00    -0.095 SA
ENDROOT
TORSDOF 0
ENDMDL
MODEL 4
REMARK VINA RESULT: -4.194441440      2.685      3.595
REMARK  0 active torsions:
REMARK  status: ('A' for Active; 'I' for Inactive)
ROOT
HETATM    1  N1  UNL     1       2.977  12.243  47.093  1.00  0.00    -0.380 N 
ATOM      2  H11 UNL     1       2.106  12.771  47.032  1.00  0.00     0.158 HD
ATOM      3  H12 UNL     1       3.192  11.512  47.771  1.00  0.00     0.158 HD
HETATM    4  C1  UNL     1       3.864  12.557  46.210  1.00  0.00     0.133 C 
HETATM    5  N2  UNL     1       5.079  11.820  46.294  1.00  0.00    -0.371 N 
ATOM      6  H2  UNL     1       5.320  11.431  47.206  1.00  0.00     0.161 HD
HETATM    7  C2  UNL     1       6.004  11.570  45.211  1.00  0.00     0.121 C 
HETATM    8  C3  UNL     1       5.840  12.504  44.064  1.00  0.00     0.020 C 
HETATM    9  C4  UNL     1       4.668  12.162  43.173  1.00  0.00     0.012 C 
HETATM   10  C5  UNL     1       3.525  13.152  43.349  1.00  0.00     0.082 C 
HETATM   11  S1  UNL     1       3.488  13.833  45.025  1.00  0.00    -0.095 SA
ENDROOT
TORSDOF 0
ENDMDL
MODEL 5
REMARK VINA RESULT: -4.159822809      2.072      2.423
REMARK  0 active torsions:
REMARK  status: ('A' for Active; 'I' for Inactive)
ROOT
HETATM    1  N1  UNL     1       4.579  12.020  47.662  1.00  0.00    -0.380 N 
ATOM      2  H11 UNL     1       5.258  11.415  48.125  1.00  0.00     0.158 HD
ATOM      3  H12 UNL     1       3.975  12.705  48.117  1.00  0.00     0.158 HD
HETATM    4  C1  UNL     1       4.508  11.876  46.382  1.00  0.00     0.133 C 
HETATM    5  N2  UNL     1       3.561  12.721  45.736  1.00  0.00    -0.371 N 
ATOM      6  H2  UNL     1       2.777  13.049  46.299  1.00  0.00     0.161 HD
HETATM    7  C2  UNL     1       3.605  13.157  44.359  1.00  0.00     0.121 C 
HETATM    8  C3  UNL     1       4.482  12.317  43.498  1.00  0.00     0.020 C 
HETATM    9  C4  UNL     1       5.954  12.618  43.664  1.00  0.00     0.012 C 
HETATM   10  C5  UNL     1       6.669  11.506  44.420  1.00  0.00     0.082 C 
HETATM   11  S1  UNL     1       5.563  10.679  45.589  1.00  0.00    -0.095 SA
ENDROOT
TORSDOF 0
ENDMDL
