MODEL 1
REMARK VINA RESULT: -5.614189701      0.000      0.000
REMARK  1 active torsions:
REMARK  status: ('A' for Active; 'I' for Inactive)
REMARK    1  A    between atoms: N1_1  and  C1_5 
ROOT
HETATM    1  C1  UNL     1       4.643  12.224  46.603  1.00  0.00     0.278 C 
HETATM    2  C2  UNL     1       3.254  12.501  46.009  1.00  0.00     0.054 C 
HETATM    3  C3  UNL     1       3.242  13.677  45.082  1.00  0.00     0.004 C 
HETATM    4  C4  UNL     1       3.369  13.561  43.625  1.00  0.00     0.011 C 
HETATM    5  C5  UNL     1       4.809  13.277  43.079  1.00  0.00     0.081 C 
HETATM    6  C6  UNL     1       5.397  12.438  44.039  1.00  0.00    -0.164 C 
HETATM    7  C7  UNL     1       6.282  11.684  44.826  1.00  0.00     0.196 C 
HETATM    8  N2  UNL     1       5.508  11.290  46.044  1.00  0.00    -0.387 N 
ATOM      9  H2  UNL     1       5.611  10.361  46.453  1.00  0.00     0.156 HD
ENDROOT
BRANCH   1  10
HETATM   10  N1  UNL     1       4.422  11.720  47.988  1.00  0.00    -0.059 N 
ATOM     11  H13 UNL     1       3.507  11.288  48.118  1.00  0.00     0.276 HD
ATOM     12  H12 UNL     1       4.984  10.899  48.213  1.00  0.00     0.276 HD
ATOM     13  H11 UNL     1       4.589  12.507  48.615  1.00  0.00     0.276 HD
ENDBRANCH   1  10
TORSDOF 1
ENDMDL
MODEL 2
REMARK VINA RESULT: -5.467987171      1.482      2.654
REMARK  1 active torsions:
REMARK  status: ('A' for Active; 'I' for Inactive)
REMARK    1  A    between atoms: N1_1  and  C1_5 
ROOT
HETATM    1  C1  UNL     1       3.400  12.732  46.053  1.00  0.00     0.278 C 
HETATM    2  C2  UNL     1       4.586  12.197  45.237  1.00  0.00     0.054 C 
HETATM    3  C3  UNL     1       4.216  11.853  43.828  1.00  0.00     0.004 C 
HETATM    4  C4  UNL     1       4.403  12.767  42.695  1.00  0.00     0.011 C 
HETATM    5  C5  UNL     1       3.367  13.935  42.572  1.00  0.00     0.081 C 
HETATM    6  C6  UNL     1       3.076  14.295  43.899  1.00  0.00    -0.164 C 
HETATM    7  C7  UNL     1       2.514  14.827  45.070  1.00  0.00     0.196 C 
HETATM    8  N2  UNL     1       3.165  14.095  46.201  1.00  0.00    -0.387 N 
ATOM      9  H2  UNL     1       3.430  14.582  47.057  1.00  0.00     0.156 HD
ENDROOT
BRANCH   1  10
HETATM   10  N1  UNL     1       3.590  12.250  47.449  1.00  0.00    -0.059 N 
ATOM     11  H13 UNL     1       3.201  12.881  48.150  1.00  0.00     0.276 HD
ATOM     12  H12 UNL     1       3.017  11.437  47.677  1.00  0.00     0.276 HD
ATOM     13  H11 UNL     1       4.590  12.084  47.568  1.00  0.00     0.276 HD
ENDBRANCH   1  10
TORSDOF 1
ENDMDL
MODEL 3
REMARK VINA RESULT: -5.426786414      0.942      2.478
REMARK  1 active torsions:
REMARK  status: ('A' for Active; 'I' for Inactive)
REMARK    1  A    between atoms: N1_1  and  C1_5 
ROOT
HETATM    1  C1  UNL     1       5.261  10.916  46.012  1.00  0.00     0.278 C 
HETATM    2  C2  UNL     1       6.142  11.697  45.026  1.00  0.00     0.054 C 
HETATM    3  C3  UNL     1       5.424  12.051  43.760  1.00  0.00     0.004 C 
HETATM    4  C4  UNL     1       4.769  13.344  43.535  1.00  0.00     0.011 C 
HETATM    5  C5  UNL     1       3.393  13.554  44.250  1.00  0.00     0.081 C 
HETATM    6  C6  UNL     1       3.523  12.885  45.479  1.00  0.00    -0.164 C 
HETATM    7  C7  UNL     1       3.300  12.257  46.714  1.00  0.00     0.196 C 
HETATM    8  N2  UNL     1       4.575  11.547  47.044  1.00  0.00    -0.387 N 
ATOM      9  H2  UNL     1       4.931  11.527  47.999  1.00  0.00     0.156 HD
ENDROOT
BRANCH   1  10
HETATM   10  N1  UNL     1       6.158   9.956  46.716  1.00  0.00    -0.059 N 
ATOM     11  H13 UNL     1       6.645   9.322  46.083  1.00  0.00     0.276 HD
ATOM     12  H12 UNL     1       6.985  10.397  47.118  1.00  0.00     0.276 HD
ATOM     13  H11 UNL     1       5.584   9.473  47.407  1.00  0.00     0.276 HD
ENDBRANCH   1  10
TORSDOF 1
ENDMDL
MODEL 4
REMARK VINA RESULT: -5.221964706      1.093      1.389
REMARK  1 active torsions:
REMARK  status: ('A' for Active; 'I' for Inactive)
REMARK    1  A    between atoms: N1_1  and  C1_5 
ROOT
HETATM    1  C1  UNL     1       4.568  12.001  45.961  1.00  0.00     0.278 C 
HETATM    2  C2  UNL     1       3.251  12.690  46.348  1.00  0.00     0.054 C 
HETATM    3  C3  UNL     1       3.171  14.105  45.864  1.00  0.00     0.004 C 
HETATM    4  C4  UNL     1       2.510  14.497  44.613  1.00  0.00     0.011 C 
HETATM    5  C5  UNL     1       3.299  14.200  43.294  1.00  0.00     0.081 C 
HETATM    6  C6  UNL     1       3.970  12.990  43.542  1.00  0.00    -0.164 C 
HETATM    7  C7  UNL     1       4.820  11.875  43.500  1.00  0.00     0.196 C 
HETATM    8  N2  UNL     1       4.674  11.202  44.828  1.00  0.00    -0.387 N 
ATOM      9  H2  UNL     1       4.653  10.185  44.901  1.00  0.00     0.156 HD
ENDROOT
BRANCH   1  10
HETATM   10  N1  UNL     1       4.911  11.079  47.080  1.00  0.00    -0.059 N 
ATOM     11  H13 UNL     1       5.634  10.401  46.836  1.00  0.00     0.276 HD
ATOM     12  H12 UNL     1       5.417  11.537  47.838  1.00  0.00     0.276 HD
ATOM     13  H11 UNL     1       4.038  10.647  47.382  1.00  0.00     0.276 HD
ENDBRANCH   1  10
TORSDOF 1
ENDMDL
MODEL 5
REMARK VINA RESULT: -5.140713638      2.340      3.098
REMARK  1 active torsions:
REMARK  status: ('A' for Active; 'I' for Inactive)
REMARK    1  A    between atoms: N1_1  and  C1_5 
ROOT
HETATM    1  C1  UNL     1       3.184  14.587  44.668  1.00  0.00     0.278 C 
HETATM    2  C2  UNL     1       2.804  14.436  43.188  1.00  0.00     0.054 C 
HETATM    3  C3  UNL     1       3.952  13.997  42.334  1.00  0.00     0.004 C 
HETATM    4  C4  UNL     1       4.202  12.598  41.969  1.00  0.00     0.011 C 
HETATM    5  C5  UNL     1       4.823  11.694  43.086  1.00  0.00     0.081 C 
HETATM    6  C6  UNL     1       4.248  12.157  44.281  1.00  0.00    -0.164 C 
HETATM    7  C7  UNL     1       3.932  12.427  45.622  1.00  0.00     0.196 C 
HETATM    8  N2  UNL     1       2.967  13.569  45.590  1.00  0.00    -0.387 N 
ATOM      9  H2  UNL     1       2.171  13.601  46.227  1.00  0.00     0.156 HD
ENDROOT
BRANCH   1  10
HETATM   10  N1  UNL     1       2.385  15.726  45.200  1.00  0.00    -0.059 N 
ATOM     11  H13 UNL     1       1.932  16.276  44.470  1.00  0.00     0.276 HD
ATOM     12  H12 UNL     1       1.536  15.432  45.683  1.00  0.00     0.276 HD
ATOM     13  H11 UNL     1       3.013  16.275  45.787  1.00  0.00     0.276 HD
ENDBRANCH   1  10
TORSDOF 1
ENDMDL
