MODEL 1
REMARK VINA RESULT: -5.331294147      0.000      0.000
REMARK  0 active torsions:
REMARK  status: ('A' for Active; 'I' for Inactive)
REMARK       I    between atoms: C1_4  and  N3_6 
ROOT
HETATM    1  N1  UNL     1       6.577   9.231  46.905  1.00  0.00    -0.374 N 
ATOM      2  H11 UNL     1       5.880   9.954  47.088  1.00  0.00     0.158 HD
ATOM      3  H12 UNL     1       6.908   8.612  47.645  1.00  0.00     0.158 HD
HETATM    4  C1  UNL     1       7.099   9.030  45.748  1.00  0.00     0.183 C 
HETATM    5  N2  UNL     1       8.058   8.036  45.496  1.00  0.00    -0.064 NA
HETATM    6  N3  UNL     1       6.626   9.914  44.694  1.00  0.00    -0.356 N 
HETATM    7  C2  UNL     1       5.260   9.654  44.456  1.00  0.00     0.125 C 
HETATM    8  C3  UNL     1       4.613  10.259  43.286  1.00  0.00     0.020 C 
HETATM    9  C4  UNL     1       5.058  11.611  42.887  1.00  0.00     0.002 C 
HETATM   10  C5  UNL     1       5.812  12.363  43.955  1.00  0.00     0.002 C 
HETATM   11  C6  UNL     1       7.277  12.074  43.690  1.00  0.00     0.020 C 
HETATM   12  C7  UNL     1       7.679  10.750  44.240  1.00  0.00     0.125 C 
ENDROOT
TORSDOF 0
ENDMDL
MODEL 2
REMARK VINA RESULT: -5.138288806      6.243      7.191
REMARK  0 active torsions:
REMARK  status: ('A' for Active; 'I' for Inactive)
REMARK       I    between atoms: C1_4  and  N3_6 
ROOT
HETATM    1  N1  UNL     1      11.338   4.444  42.341  1.00  0.00    -0.374 N 
ATOM      2  H11 UNL     1      11.260   3.718  41.628  1.00  0.00     0.158 HD
ATOM      3  H12 UNL     1      12.064   4.412  43.057  1.00  0.00     0.158 HD
HETATM    4  C1  UNL     1      10.547   5.456  42.410  1.00  0.00     0.183 C 
HETATM    5  N2  UNL     1      10.655   6.454  43.390  1.00  0.00    -0.064 NA
HETATM    6  N3  UNL     1       9.512   5.502  41.389  1.00  0.00    -0.356 N 
HETATM    7  C2  UNL     1      10.120   5.681  40.128  1.00  0.00     0.125 C 
HETATM    8  C3  UNL     1       9.275   5.983  38.967  1.00  0.00     0.020 C 
HETATM    9  C4  UNL     1       7.936   5.357  38.919  1.00  0.00     0.002 C 
HETATM   10  C5  UNL     1       7.764   4.177  39.842  1.00  0.00     0.002 C 
HETATM   11  C6  UNL     1       7.176   4.749  41.118  1.00  0.00     0.020 C 
HETATM   12  C7  UNL     1       8.229   5.355  41.977  1.00  0.00     0.125 C 
ENDROOT
TORSDOF 0
ENDMDL
MODEL 3
REMARK VINA RESULT: -4.955738873      1.425      1.865
REMARK  0 active torsions:
REMARK  status: ('A' for Active; 'I' for Inactive)
REMARK       I    between atoms: C1_4  and  N3_6 
ROOT
HETATM    1  N1  UNL     1       7.684   8.011  45.972  1.00  0.00    -0.374 N 
ATOM      2  H11 UNL     1       8.214   8.797  46.350  1.00  0.00     0.158 HD
ATOM      3  H12 UNL     1       7.754   7.078  46.377  1.00  0.00     0.158 HD
HETATM    4  C1  UNL     1       6.889   8.113  44.966  1.00  0.00     0.183 C 
HETATM    5  N2  UNL     1       6.161   7.033  44.445  1.00  0.00    -0.064 NA
HETATM    6  N3  UNL     1       6.790   9.445  44.389  1.00  0.00    -0.356 N 
HETATM    7  C2  UNL     1       6.194  10.310  45.331  1.00  0.00     0.125 C 
HETATM    8  C3  UNL     1       5.781  11.652  44.905  1.00  0.00     0.020 C 
HETATM    9  C4  UNL     1       6.618  12.331  43.893  1.00  0.00     0.002 C 
HETATM   10  C5  UNL     1       8.000  11.749  43.730  1.00  0.00     0.002 C 
HETATM   11  C6  UNL     1       7.882  10.747  42.597  1.00  0.00     0.020 C 
HETATM   12  C7  UNL     1       7.317   9.454  43.071  1.00  0.00     0.125 C 
ENDROOT
TORSDOF 0
ENDMDL
MODEL 4
REMARK VINA RESULT: -4.955386939      3.132      4.324
REMARK  0 active torsions:
REMARK  status: ('A' for Active; 'I' for Inactive)
REMARK       I    between atoms: C1_4  and  N3_6 
ROOT
HETATM    1  N1  UNL     1       2.729  12.072  46.709  1.00  0.00    -0.374 N 
ATOM      2  H11 UNL     1       2.845  11.120  46.359  1.00  0.00     0.158 HD
ATOM      3  H12 UNL     1       2.113  12.280  47.494  1.00  0.00     0.158 HD
HETATM    4  C1  UNL     1       3.337  13.088  46.207  1.00  0.00     0.183 C 
HETATM    5  N2  UNL     1       3.178  14.397  46.687  1.00  0.00    -0.064 NA
HETATM    6  N3  UNL     1       4.216  12.791  45.087  1.00  0.00    -0.356 N 
HETATM    7  C2  UNL     1       5.289  11.996  45.543  1.00  0.00     0.125 C 
HETATM    8  C3  UNL     1       6.427  11.753  44.649  1.00  0.00     0.020 C 
HETATM    9  C4  UNL     1       6.141  11.625  43.204  1.00  0.00     0.002 C 
HETATM   10  C5  UNL     1       4.696  11.348  42.874  1.00  0.00     0.002 C 
HETATM   11  C6  UNL     1       4.074  12.708  42.623  1.00  0.00     0.020 C 
HETATM   12  C7  UNL     1       3.724  13.390  43.898  1.00  0.00     0.125 C 
ENDROOT
TORSDOF 0
ENDMDL
MODEL 5
REMARK VINA RESULT: -4.946452958      5.317      6.500
REMARK  0 active torsions:
REMARK  status: ('A' for Active; 'I' for Inactive)
REMARK       I    between atoms: C1_4  and  N3_6 
ROOT
HETATM    1  N1  UNL     1       1.507  16.606  46.297  1.00  0.00    -0.374 N 
ATOM      2  H11 UNL     1       0.880  16.031  45.733  1.00  0.00     0.158 HD
ATOM      3  H12 UNL     1       1.150  17.332  46.918  1.00  0.00     0.158 HD
HETATM    4  C1  UNL     1       2.787  16.479  46.283  1.00  0.00     0.183 C 
HETATM    5  N2  UNL     1       3.649  17.270  47.058  1.00  0.00    -0.064 NA
HETATM    6  N3  UNL     1       3.296  15.444  45.397  1.00  0.00    -0.356 N 
HETATM    7  C2  UNL     1       2.873  14.184  45.873  1.00  0.00     0.125 C 
HETATM    8  C3  UNL     1       3.445  12.970  45.279  1.00  0.00     0.020 C 
HETATM    9  C4  UNL     1       3.763  13.004  43.836  1.00  0.00     0.002 C 
HETATM   10  C5  UNL     1       3.090  14.117  43.073  1.00  0.00     0.002 C 
HETATM   11  C6  UNL     1       4.087  15.260  43.065  1.00  0.00     0.020 C 
HETATM   12  C7  UNL     1       4.051  16.021  44.344  1.00  0.00     0.125 C 
ENDROOT
TORSDOF 0
ENDMDL
