MODEL 1
REMARK VINA RESULT: -4.347092223      0.000      0.000
REMARK  0 active torsions:
REMARK  status: ('A' for Active; 'I' for Inactive)
ROOT
HETATM    1  C1  UNL     1       2.767  12.137  46.654  1.00  0.00     0.029 C 
HETATM    2  C2  UNL     1       3.990  12.717  46.008  1.00  0.00     0.093 C 
HETATM    3  C3  UNL     1       4.216  12.212  44.603  1.00  0.00     0.049 C 
HETATM    4  C4  UNL     1       5.424  11.302  44.725  1.00  0.00     0.041 C 
HETATM    5  C5  UNL     1       6.708  11.999  44.382  1.00  0.00     0.035 C 
HETATM    6  C6  UNL     1       5.291  10.051  43.910  1.00  0.00     0.035 C 
HETATM    7  N1  UNL     1       5.354  10.949  46.147  1.00  0.00    -0.139 NA
HETATM    8  N2  UNL     1       5.151  12.200  46.725  1.00  0.00    -0.143 NA
ENDROOT
TORSDOF 0
ENDMDL
MODEL 2
REMARK VINA RESULT: -4.222492650      6.882      8.762
REMARK  0 active torsions:
REMARK  status: ('A' for Active; 'I' for Inactive)
ROOT
HETATM    1  C1  UNL     1      11.760   5.465  40.560  1.00  0.00     0.029 C 
HETATM    2  C2  UNL     1      10.637   5.041  41.459  1.00  0.00     0.093 C 
HETATM    3  C3  UNL     1       9.354   5.796  41.204  1.00  0.00     0.049 C 
HETATM    4  C4  UNL     1       9.208   6.699  42.414  1.00  0.00     0.041 C 
HETATM    5  C5  UNL     1       8.322   6.108  43.472  1.00  0.00     0.035 C 
HETATM    6  C6  UNL     1       8.724   8.072  42.055  1.00  0.00     0.035 C 
HETATM    7  N1  UNL     1      10.603   6.789  42.855  1.00  0.00    -0.139 NA
HETATM    8  N2  UNL     1      10.985   5.450  42.816  1.00  0.00    -0.143 NA
ENDROOT
TORSDOF 0
ENDMDL
MODEL 3
REMARK VINA RESULT: -4.205701299      3.761      4.816
REMARK  0 active torsions:
REMARK  status: ('A' for Active; 'I' for Inactive)
ROOT
HETATM    1  C1  UNL     1       3.957  12.628  41.456  1.00  0.00     0.029 C 
HETATM    2  C2  UNL     1       4.509  13.859  42.111  1.00  0.00     0.093 C 
HETATM    3  C3  UNL     1       4.473  13.794  43.620  1.00  0.00     0.049 C 
HETATM    4  C4  UNL     1       3.388  14.780  44.008  1.00  0.00     0.041 C 
HETATM    5  C5  UNL     1       3.937  16.134  44.357  1.00  0.00     0.035 C 
HETATM    6  C6  UNL     1       2.524  14.278  45.125  1.00  0.00     0.035 C 
HETATM    7  N1  UNL     1       2.596  14.811  42.775  1.00  0.00    -0.139 NA
HETATM    8  N2  UNL     1       3.596  14.959  41.816  1.00  0.00    -0.143 NA
ENDROOT
TORSDOF 0
ENDMDL
MODEL 4
REMARK VINA RESULT: -4.175266622      0.780      3.239
REMARK  0 active torsions:
REMARK  status: ('A' for Active; 'I' for Inactive)
ROOT
HETATM    1  C1  UNL     1       6.547  11.797  44.782  1.00  0.00     0.029 C 
HETATM    2  C2  UNL     1       5.195  11.292  45.187  1.00  0.00     0.093 C 
HETATM    3  C3  UNL     1       4.069  12.207  44.767  1.00  0.00     0.049 C 
HETATM    4  C4  UNL     1       3.586  12.821  46.067  1.00  0.00     0.041 C 
HETATM    5  C5  UNL     1       2.406  12.094  46.645  1.00  0.00     0.035 C 
HETATM    6  C6  UNL     1       3.268  14.280  45.935  1.00  0.00     0.035 C 
HETATM    7  N1  UNL     1       4.784  12.671  46.899  1.00  0.00    -0.139 NA
HETATM    8  N2  UNL     1       5.125  11.345  46.643  1.00  0.00    -0.143 NA
ENDROOT
TORSDOF 0
ENDMDL
MODEL 5
REMARK VINA RESULT: -4.157891556      7.229      8.197
REMARK  0 active torsions:
REMARK  status: ('A' for Active; 'I' for Inactive)
ROOT
HETATM    1  C1  UNL     1       8.139   5.657  43.761  1.00  0.00     0.029 C 
HETATM    2  C2  UNL     1       8.894   6.719  43.019  1.00  0.00     0.093 C 
HETATM    3  C3  UNL     1       8.924   6.494  41.526  1.00  0.00     0.049 C 
HETATM    4  C4  UNL     1      10.359   6.093  41.240  1.00  0.00     0.041 C 
HETATM    5  C5  UNL     1      11.204   7.254  40.800  1.00  0.00     0.035 C 
HETATM    6  C6  UNL     1      10.461   4.982  40.239  1.00  0.00     0.035 C 
HETATM    7  N1  UNL     1      10.765   5.586  42.554  1.00  0.00    -0.139 NA
HETATM    8  N2  UNL     1      10.300   6.598  43.390  1.00  0.00    -0.143 NA
ENDROOT
TORSDOF 0
ENDMDL
