MODEL 1
REMARK VINA RESULT: -3.318633114      0.000      0.000
REMARK  1 active torsions:
REMARK  status: ('A' for Active; 'I' for Inactive)
REMARK    1  A    between atoms: O1_1  and  C1_3 
ROOT
HETATM    1  C1  UNL     1       4.166  13.990  43.690  1.00  0.00     0.191 C 
HETATM    2  C2  UNL     1       4.491  12.579  43.694  1.00  0.00     0.054 C 
HETATM    3  C3  UNL     1       4.811  11.969  44.987  1.00  0.00     0.089 C 
HETATM    4  S1  UNL     1       3.789  12.686  46.288  1.00  0.00    -0.095 SA
HETATM    5  S2  UNL     1       3.203  14.431  45.160  1.00  0.00    -0.066 SA
ENDROOT
BRANCH   1   6
HETATM    6  O1  UNL     1       3.311  14.270  42.598  1.00  0.00    -0.384 OA
ATOM      7  H1  UNL     1       3.258  13.506  42.036  1.00  0.00     0.211 HD
ENDBRANCH   1   6
TORSDOF 1
ENDMDL
MODEL 2
REMARK VINA RESULT: -3.288223748      1.831      2.226
REMARK  1 active torsions:
REMARK  status: ('A' for Active; 'I' for Inactive)
REMARK    1  A    between atoms: O1_1  and  C1_3 
ROOT
HETATM    1  C1  UNL     1       4.033  14.110  43.916  1.00  0.00     0.191 C 
HETATM    2  C2  UNL     1       3.872  13.641  42.557  1.00  0.00     0.054 C 
HETATM    3  C3  UNL     1       4.696  12.503  42.139  1.00  0.00     0.089 C 
HETATM    4  S1  UNL     1       4.894  11.339  43.502  1.00  0.00    -0.095 SA
HETATM    5  S2  UNL     1       4.295  12.721  45.049  1.00  0.00    -0.066 SA
ENDROOT
BRANCH   1   6
HETATM    6  O1  UNL     1       2.827  14.710  44.350  1.00  0.00    -0.384 OA
ATOM      7  H1  UNL     1       2.373  15.080  43.602  1.00  0.00     0.211 HD
ENDBRANCH   1   6
TORSDOF 1
ENDMDL
MODEL 3
REMARK VINA RESULT: -3.278654728      2.059      2.122
REMARK  1 active torsions:
REMARK  status: ('A' for Active; 'I' for Inactive)
REMARK    1  A    between atoms: O1_1  and  C1_3 
ROOT
HETATM    1  C1  UNL     1       3.409  14.261  44.559  1.00  0.00     0.191 C 
HETATM    2  C2  UNL     1       3.623  13.693  45.873  1.00  0.00     0.054 C 
HETATM    3  C3  UNL     1       3.866  12.250  45.946  1.00  0.00     0.089 C 
HETATM    4  S1  UNL     1       4.844  11.707  44.532  1.00  0.00    -0.095 SA
HETATM    5  S2  UNL     1       4.473  13.461  43.331  1.00  0.00    -0.066 SA
ENDROOT
BRANCH   1   6
HETATM    6  O1  UNL     1       3.814  15.617  44.564  1.00  0.00    -0.384 OA
ATOM      7  H1  UNL     1       3.695  15.984  43.696  1.00  0.00     0.211 HD
ENDBRANCH   1   6
TORSDOF 1
ENDMDL
MODEL 4
REMARK VINA RESULT: -3.268920120      7.726      8.004
REMARK  1 active torsions:
REMARK  status: ('A' for Active; 'I' for Inactive)
REMARK    1  A    between atoms: O1_1  and  C1_3 
ROOT
HETATM    1  C1  UNL     1       8.327   6.482  44.611  1.00  0.00     0.191 C 
HETATM    2  C2  UNL     1       9.082   6.512  43.376  1.00  0.00     0.054 C 
HETATM    3  C3  UNL     1       8.458   7.172  42.226  1.00  0.00     0.089 C 
HETATM    4  S1  UNL     1       7.511   8.608  42.767  1.00  0.00    -0.095 SA
HETATM    5  S2  UNL     1       7.413   8.028  44.844  1.00  0.00    -0.066 SA
ENDROOT
BRANCH   1   6
HETATM    6  O1  UNL     1       9.222   6.419  45.705  1.00  0.00    -0.384 OA
ATOM      7  H1  UNL     1       9.098   5.598  46.166  1.00  0.00     0.211 HD
ENDBRANCH   1   6
TORSDOF 1
ENDMDL
MODEL 5
REMARK VINA RESULT: -3.208217092     10.032     10.490
REMARK  1 active torsions:
REMARK  status: ('A' for Active; 'I' for Inactive)
REMARK    1  A    between atoms: O1_1  and  C1_3 
ROOT
HETATM    1  C1  UNL     1      10.153   5.695  42.303  1.00  0.00     0.191 C 
HETATM    2  C2  UNL     1      11.027   5.098  41.316  1.00  0.00     0.054 C 
HETATM    3  C3  UNL     1      10.551   5.070  39.931  1.00  0.00     0.089 C 
HETATM    4  S1  UNL     1       9.622   6.569  39.557  1.00  0.00    -0.095 SA
HETATM    5  S2  UNL     1       9.293   7.133  41.615  1.00  0.00    -0.066 SA
ENDROOT
BRANCH   1   6
HETATM    6  O1  UNL     1      10.932   6.212  43.366  1.00  0.00    -0.384 OA
ATOM      7  H1  UNL     1      10.432   6.168  44.173  1.00  0.00     0.211 HD
ENDBRANCH   1   6
TORSDOF 1
ENDMDL
