MODEL 1
REMARK VINA RESULT: -4.102728776      0.000      0.000
REMARK  2 active torsions:
REMARK  status: ('A' for Active; 'I' for Inactive)
REMARK    1  A    between atoms: C3_3  and  O1_4 
REMARK    2  A    between atoms: C3_3  and  C4_6 
ROOT
HETATM    1  C1  UNL     1       8.343   5.141  42.955  1.00  0.00     0.015 C 
HETATM    2  C2  UNL     1       8.488   5.971  43.822  1.00  0.00    -0.084 C 
HETATM    3  C3  UNL     1       8.637   6.972  44.876  1.00  0.00     0.219 C 
ENDROOT
BRANCH   3   4
HETATM    4  O1  UNL     1       8.934   6.429  46.101  1.00  0.00    -0.381 OA
ATOM      5  H1  UNL     1       9.682   6.838  46.522  1.00  0.00     0.211 HD
ENDBRANCH   3   4
BRANCH   3   6
HETATM    6  C4  UNL     1       7.374   7.801  44.885  1.00  0.00     0.149 C 
HETATM    7  S1  UNL     1       7.332   8.937  46.304  1.00  0.00    -0.149 SA
HETATM    8  C5  UNL     1       6.477  10.366  45.601  1.00  0.00     0.085 C 
HETATM    9  C6  UNL     1       7.004  10.586  44.232  1.00  0.00     0.085 C 
HETATM   10  S2  UNL     1       7.380   8.980  43.506  1.00  0.00    -0.149 SA
ENDBRANCH   3   6
TORSDOF 2
ENDMDL
MODEL 2
REMARK VINA RESULT: -4.032286182      2.418      2.945
REMARK  2 active torsions:
REMARK  status: ('A' for Active; 'I' for Inactive)
REMARK    1  A    between atoms: C3_3  and  O1_4 
REMARK    2  A    between atoms: C3_3  and  C4_6 
ROOT
HETATM    1  C1  UNL     1      10.962   4.970  40.516  1.00  0.00     0.015 C 
HETATM    2  C2  UNL     1      10.687   5.741  41.407  1.00  0.00    -0.084 C 
HETATM    3  C3  UNL     1      10.333   6.657  42.488  1.00  0.00     0.219 C 
ENDROOT
BRANCH   3   4
HETATM    4  O1  UNL     1      10.892   6.314  43.694  1.00  0.00    -0.381 OA
ATOM      5  H1  UNL     1      11.673   6.814  43.902  1.00  0.00     0.211 HD
ENDBRANCH   3   4
BRANCH   3   6
HETATM    6  C4  UNL     1       8.825   6.733  42.532  1.00  0.00     0.149 C 
HETATM    7  S1  UNL     1       8.192   6.456  44.215  1.00  0.00    -0.149 SA
HETATM    8  C5  UNL     1       6.750   7.546  44.245  1.00  0.00     0.085 C 
HETATM    9  C6  UNL     1       7.123   8.816  43.575  1.00  0.00     0.085 C 
HETATM   10  S2  UNL     1       8.266   8.433  42.235  1.00  0.00    -0.149 SA
ENDBRANCH   3   6
TORSDOF 2
ENDMDL
MODEL 3
REMARK VINA RESULT: -4.009246693      2.149      4.218
REMARK  2 active torsions:
REMARK  status: ('A' for Active; 'I' for Inactive)
REMARK    1  A    between atoms: C3_3  and  O1_4 
REMARK    2  A    between atoms: C3_3  and  C4_6 
ROOT
HETATM    1  C1  UNL     1       7.074   9.232  45.951  1.00  0.00     0.015 C 
HETATM    2  C2  UNL     1       7.561   8.191  45.573  1.00  0.00    -0.084 C 
HETATM    3  C3  UNL     1       8.162   6.948  45.098  1.00  0.00     0.219 C 
ENDROOT
BRANCH   3   4
HETATM    4  O1  UNL     1       9.343   6.642  45.726  1.00  0.00    -0.381 OA
ATOM      5  H1  UNL     1       9.521   5.709  45.758  1.00  0.00     0.211 HD
ENDBRANCH   3   4
BRANCH   3   6
HETATM    6  C4  UNL     1       8.300   7.065  43.598  1.00  0.00     0.149 C 
HETATM    7  S1  UNL     1       9.838   6.293  43.007  1.00  0.00    -0.149 SA
HETATM    8  C5  UNL     1       9.323   5.638  41.403  1.00  0.00     0.085 C 
HETATM    9  C6  UNL     1       7.972   5.048  41.562  1.00  0.00     0.085 C 
HETATM   10  S2  UNL     1       7.061   6.035  42.764  1.00  0.00    -0.149 SA
ENDBRANCH   3   6
TORSDOF 2
ENDMDL
MODEL 4
REMARK VINA RESULT: -3.982385167      3.922      6.317
REMARK  2 active torsions:
REMARK  status: ('A' for Active; 'I' for Inactive)
REMARK    1  A    between atoms: C3_3  and  O1_4 
REMARK    2  A    between atoms: C3_3  and  C4_6 
ROOT
HETATM    1  C1  UNL     1       2.950  14.402  45.676  1.00  0.00     0.015 C 
HETATM    2  C2  UNL     1       3.543  13.424  46.071  1.00  0.00    -0.084 C 
HETATM    3  C3  UNL     1       4.281  12.255  46.539  1.00  0.00     0.219 C 
ENDROOT
BRANCH   3   4
HETATM    4  O1  UNL     1       4.722  12.374  47.834  1.00  0.00    -0.381 OA
ATOM      5  H1  UNL     1       5.608  12.709  47.900  1.00  0.00     0.211 HD
ENDBRANCH   3   4
BRANCH   3   6
HETATM    6  C4  UNL     1       5.399  12.010  45.553  1.00  0.00     0.149 C 
HETATM    7  S1  UNL     1       6.219  10.414  45.856  1.00  0.00    -0.149 SA
HETATM    8  C5  UNL     1       6.643   9.898  44.176  1.00  0.00     0.085 C 
HETATM    9  C6  UNL     1       5.493  10.214  43.296  1.00  0.00     0.085 C 
HETATM   10  S2  UNL     1       4.728  11.736  43.889  1.00  0.00    -0.149 SA
ENDBRANCH   3   6
TORSDOF 2
ENDMDL
MODEL 5
REMARK VINA RESULT: -3.971039608      4.800      5.708
REMARK  2 active torsions:
REMARK  status: ('A' for Active; 'I' for Inactive)
REMARK    1  A    between atoms: C3_3  and  O1_4 
REMARK    2  A    between atoms: C3_3  and  C4_6 
ROOT
HETATM    1  C1  UNL     1       7.452  11.517  43.757  1.00  0.00     0.015 C 
HETATM    2  C2  UNL     1       6.728  11.698  44.709  1.00  0.00    -0.084 C 
HETATM    3  C3  UNL     1       5.834  11.907  45.844  1.00  0.00     0.219 C 
ENDROOT
BRANCH   3   4
HETATM    4  O1  UNL     1       5.767  10.826  46.688  1.00  0.00    -0.381 OA
ATOM      5  H1  UNL     1       5.632  10.003  46.234  1.00  0.00     0.211 HD
ENDBRANCH   3   4
BRANCH   3   6
HETATM    6  C4  UNL     1       4.489  12.308  45.284  1.00  0.00     0.149 C 
HETATM    7  S1  UNL     1       3.526  13.273  46.488  1.00  0.00    -0.149 SA
HETATM    8  C5  UNL     1       2.638  14.419  45.408  1.00  0.00     0.085 C 
HETATM    9  C6  UNL     1       3.580  14.886  44.363  1.00  0.00     0.085 C 
HETATM   10  S2  UNL     1       4.693  13.527  43.956  1.00  0.00    -0.149 SA
ENDBRANCH   3   6
TORSDOF 2
ENDMDL
