MODEL 1
REMARK VINA RESULT: -4.984874723      0.000      0.000
REMARK  3 active torsions:
REMARK  status: ('A' for Active; 'I' for Inactive)
REMARK    1  A    between atoms: C2_2  and  N2_5 
REMARK    2  A    between atoms: C4_7  and  C5_8 
REMARK    3  A    between atoms: C6_9  and  C7_10 
ROOT
HETATM    1  C1  UNL     1       7.006   8.231  43.565  1.00  0.00     0.048 C 
HETATM    2  C2  UNL     1       6.512   8.649  44.921  1.00  0.00     0.185 C 
HETATM    3  C3  UNL     1       7.589   8.527  45.896  1.00  0.00     0.084 C 
HETATM    4  N1  UNL     1       8.434   8.437  46.664  1.00  0.00    -0.195 NA
ENDROOT
BRANCH   2   5
HETATM    5  N2  UNL     1       5.968   9.962  44.869  1.00  0.00    -0.376 N 
HETATM    6  C4  UNL     1       5.185  10.417  43.964  1.00  0.00     0.150 C 
ATOM      7  H2  UNL     1       6.225  10.600  45.621  1.00  0.00     0.160 HD
BRANCH   6   8
HETATM    8  C5  UNL     1       4.723  11.774  44.057  1.00  0.00    -0.054 C 
HETATM    9  C6  UNL     1       4.320  12.916  44.125  1.00  0.00    -0.034 C 
BRANCH   9  10
HETATM   10  C7  UNL     1       3.824  14.262  44.199  1.00  0.00     0.166 C 
HETATM   11  N3  UNL     1       4.238  15.183  43.200  1.00  0.00    -0.080 NA
HETATM   12  S1  UNL     1       2.810  14.766  45.376  1.00  0.00    -0.054 SA
ENDBRANCH   9  10
ENDBRANCH   6   8
ENDBRANCH   2   5
TORSDOF 3
ENDMDL
MODEL 2
REMARK VINA RESULT: -4.810694718      3.808      6.351
REMARK  3 active torsions:
REMARK  status: ('A' for Active; 'I' for Inactive)
REMARK    1  A    between atoms: C2_2  and  N2_5 
REMARK    2  A    between atoms: C4_7  and  C5_8 
REMARK    3  A    between atoms: C6_9  and  C7_10 
ROOT
HETATM    1  C1  UNL     1       4.402  12.396  44.480  1.00  0.00     0.048 C 
HETATM    2  C2  UNL     1       5.359  12.207  45.623  1.00  0.00     0.185 C 
HETATM    3  C3  UNL     1       4.635  12.259  46.886  1.00  0.00     0.084 C 
HETATM    4  N1  UNL     1       4.067  12.295  47.881  1.00  0.00    -0.195 NA
ENDROOT
BRANCH   2   5
HETATM    5  N2  UNL     1       6.091  10.997  45.462  1.00  0.00    -0.376 N 
HETATM    6  C4  UNL     1       5.831  10.064  44.625  1.00  0.00     0.150 C 
ATOM      7  H2  UNL     1       6.898  10.861  46.070  1.00  0.00     0.160 HD
BRANCH   6   8
HETATM    8  C5  UNL     1       6.672   8.901  44.590  1.00  0.00    -0.054 C 
HETATM    9  C6  UNL     1       7.388   7.922  44.576  1.00  0.00    -0.034 C 
BRANCH   9  10
HETATM   10  C7  UNL     1       8.238   6.764  44.581  1.00  0.00     0.166 C 
HETATM   11  N3  UNL     1       9.139   6.601  45.666  1.00  0.00    -0.080 NA
HETATM   12  S1  UNL     1       8.204   5.639  43.397  1.00  0.00    -0.054 SA
ENDBRANCH   9  10
ENDBRANCH   6   8
ENDBRANCH   2   5
TORSDOF 3
ENDMDL
MODEL 3
REMARK VINA RESULT: -4.807272845      2.944      6.347
REMARK  3 active torsions:
REMARK  status: ('A' for Active; 'I' for Inactive)
REMARK    1  A    between atoms: C2_2  and  N2_5 
REMARK    2  A    between atoms: C4_7  and  C5_8 
REMARK    3  A    between atoms: C6_9  and  C7_10 
ROOT
HETATM    1  C1  UNL     1       3.256  14.039  46.077  1.00  0.00     0.048 C 
HETATM    2  C2  UNL     1       3.524  13.469  44.713  1.00  0.00     0.185 C 
HETATM    3  C3  UNL     1       4.064  14.505  43.843  1.00  0.00     0.084 C 
HETATM    4  N1  UNL     1       4.493  15.317  43.158  1.00  0.00    -0.195 NA
ENDROOT
BRANCH   2   5
HETATM    5  N2  UNL     1       4.378  12.335  44.808  1.00  0.00    -0.376 N 
HETATM    6  C4  UNL     1       5.307  12.161  45.671  1.00  0.00     0.150 C 
ATOM      7  H2  UNL     1       4.236  11.591  44.125  1.00  0.00     0.160 HD
BRANCH   6   8
HETATM    8  C5  UNL     1       6.084  10.954  45.630  1.00  0.00    -0.054 C 
HETATM    9  C6  UNL     1       6.727   9.926  45.601  1.00  0.00    -0.034 C 
BRANCH   9  10
HETATM   10  C7  UNL     1       7.470   8.697  45.569  1.00  0.00     0.166 C 
HETATM   11  N3  UNL     1       8.370   8.432  46.635  1.00  0.00    -0.080 NA
HETATM   12  S1  UNL     1       7.318   7.605  44.364  1.00  0.00    -0.054 SA
ENDBRANCH   9  10
ENDBRANCH   6   8
ENDBRANCH   2   5
TORSDOF 3
ENDMDL
MODEL 4
REMARK VINA RESULT: -4.782994283      3.078      6.208
REMARK  3 active torsions:
REMARK  status: ('A' for Active; 'I' for Inactive)
REMARK    1  A    between atoms: C2_2  and  N2_5 
REMARK    2  A    between atoms: C4_7  and  C5_8 
REMARK    3  A    between atoms: C6_9  and  C7_10 
ROOT
HETATM    1  C1  UNL     1       3.811  13.600  42.264  1.00  0.00     0.048 C 
HETATM    2  C2  UNL     1       4.514  13.737  43.584  1.00  0.00     0.185 C 
HETATM    3  C3  UNL     1       3.564  14.151  44.608  1.00  0.00     0.084 C 
HETATM    4  N1  UNL     1       2.818  14.472  45.416  1.00  0.00    -0.195 NA
ENDROOT
BRANCH   2   5
HETATM    5  N2  UNL     1       5.185  12.527  43.917  1.00  0.00    -0.376 N 
HETATM    6  C4  UNL     1       5.652  12.216  45.068  1.00  0.00     0.150 C 
ATOM      7  H2  UNL     1       5.305  11.844  43.170  1.00  0.00     0.160 HD
BRANCH   6   8
HETATM    8  C5  UNL     1       6.306  10.949  45.239  1.00  0.00    -0.054 C 
HETATM    9  C6  UNL     1       6.865   9.881  45.368  1.00  0.00    -0.034 C 
BRANCH   9  10
HETATM   10  C7  UNL     1       7.542   8.621  45.505  1.00  0.00     0.166 C 
HETATM   11  N3  UNL     1       8.364   8.425  46.646  1.00  0.00    -0.080 NA
HETATM   12  S1  UNL     1       7.401   7.419  44.408  1.00  0.00    -0.054 SA
ENDBRANCH   9  10
ENDBRANCH   6   8
ENDBRANCH   2   5
TORSDOF 3
ENDMDL
MODEL 5
REMARK VINA RESULT: -4.713374426      5.610      7.231
REMARK  3 active torsions:
REMARK  status: ('A' for Active; 'I' for Inactive)
REMARK    1  A    between atoms: C2_2  and  N2_5 
REMARK    2  A    between atoms: C4_7  and  C5_8 
REMARK    3  A    between atoms: C6_9  and  C7_10 
ROOT
HETATM    1  C1  UNL     1       4.233  16.738  47.887  1.00  0.00     0.048 C 
HETATM    2  C2  UNL     1       2.901  16.498  47.235  1.00  0.00     0.185 C 
HETATM    3  C3  UNL     1       2.101  17.715  47.284  1.00  0.00     0.084 C 
HETATM    4  N1  UNL     1       1.472  18.672  47.317  1.00  0.00    -0.195 NA
ENDROOT
BRANCH   2   5
HETATM    5  N2  UNL     1       3.078  16.013  45.909  1.00  0.00    -0.376 N 
HETATM    6  C4  UNL     1       3.053  14.786  45.546  1.00  0.00     0.150 C 
ATOM      7  H2  UNL     1       3.239  16.708  45.181  1.00  0.00     0.160 HD
BRANCH   6   8
HETATM    8  C5  UNL     1       3.251  14.462  44.161  1.00  0.00    -0.054 C 
HETATM    9  C6  UNL     1       3.402  14.186  42.990  1.00  0.00    -0.034 C 
BRANCH   9  10
HETATM   10  C7  UNL     1       3.559  13.864  41.599  1.00  0.00     0.166 C 
HETATM   11  N3  UNL     1       3.026  14.765  40.640  1.00  0.00    -0.080 NA
HETATM   12  S1  UNL     1       4.324  12.515  41.086  1.00  0.00    -0.054 SA
ENDBRANCH   9  10
ENDBRANCH   6   8
ENDBRANCH   2   5
TORSDOF 3
ENDMDL
