MODEL 1
REMARK VINA RESULT: -4.456274411      0.000      0.000
REMARK  0 active torsions:
REMARK  status: ('A' for Active; 'I' for Inactive)
ROOT
HETATM    1  C1  UNL     1       9.159   7.881  39.635  1.00  0.00     0.030 C 
HETATM    2  C2  UNL     1       8.995   6.518  40.312  1.00  0.00     0.034 C 
HETATM    3  S1  UNL     1      10.356   5.404  39.939  1.00  0.00    -0.156 SA
HETATM    4  C3  UNL     1       9.093   5.257  38.638  1.00  0.00     0.082 C 
HETATM    5  C4  UNL     1       8.003   5.702  39.621  1.00  0.00     0.025 C 
HETATM    6  C5  UNL     1       7.545   4.565  40.459  1.00  0.00     0.082 C 
HETATM    7  S2  UNL     1       7.500   5.346  42.121  1.00  0.00    -0.147 SA
HETATM    8  C6  UNL     1       8.701   6.683  41.745  1.00  0.00     0.172 C 
HETATM    9  C7  UNL     1       9.933   6.438  42.527  1.00  0.00     0.076 C 
HETATM   10  N1  UNL     1      10.892   6.228  43.143  1.00  0.00    -0.196 NA
ENDROOT
TORSDOF 0
ENDMDL
MODEL 2
REMARK VINA RESULT: -4.379648779      1.692      2.434
REMARK  0 active torsions:
REMARK  status: ('A' for Active; 'I' for Inactive)
ROOT
HETATM    1  C1  UNL     1      11.365   4.722  40.165  1.00  0.00     0.030 C 
HETATM    2  C2  UNL     1      10.234   5.730  40.384  1.00  0.00     0.034 C 
HETATM    3  S1  UNL     1       8.691   4.933  40.846  1.00  0.00    -0.156 SA
HETATM    4  C3  UNL     1       8.811   4.992  39.031  1.00  0.00     0.082 C 
HETATM    5  C4  UNL     1       9.718   6.226  39.114  1.00  0.00     0.025 C 
HETATM    6  C5  UNL     1       8.916   7.464  39.291  1.00  0.00     0.082 C 
HETATM    7  S2  UNL     1       9.873   8.319  40.605  1.00  0.00    -0.147 SA
HETATM    8  C6  UNL     1      10.670   6.811  41.283  1.00  0.00     0.172 C 
HETATM    9  C7  UNL     1      10.129   6.565  42.639  1.00  0.00     0.076 C 
HETATM   10  N1  UNL     1       9.689   6.385  43.696  1.00  0.00    -0.196 NA
ENDROOT
TORSDOF 0
ENDMDL
MODEL 3
REMARK VINA RESULT: -4.346068708      1.433      2.549
REMARK  0 active torsions:
REMARK  status: ('A' for Active; 'I' for Inactive)
ROOT
HETATM    1  C1  UNL     1       7.083   5.565  41.883  1.00  0.00     0.030 C 
HETATM    2  C2  UNL     1       8.327   6.103  41.171  1.00  0.00     0.034 C 
HETATM    3  S1  UNL     1       8.619   7.840  41.532  1.00  0.00    -0.156 SA
HETATM    4  C3  UNL     1       7.484   7.709  40.116  1.00  0.00     0.082 C 
HETATM    5  C4  UNL     1       8.064   6.335  39.756  1.00  0.00     0.025 C 
HETATM    6  C5  UNL     1       9.322   6.476  38.979  1.00  0.00     0.082 C 
HETATM    7  S2  UNL     1      10.389   5.230  39.805  1.00  0.00    -0.147 SA
HETATM    8  C6  UNL     1       9.480   5.217  41.400  1.00  0.00     0.172 C 
HETATM    9  C7  UNL     1      10.351   5.809  42.440  1.00  0.00     0.076 C 
HETATM   10  N1  UNL     1      11.045   6.280  43.240  1.00  0.00    -0.196 NA
ENDROOT
TORSDOF 0
ENDMDL
MODEL 4
REMARK VINA RESULT: -4.311655515      1.872      3.394
REMARK  0 active torsions:
REMARK  status: ('A' for Active; 'I' for Inactive)
ROOT
HETATM    1  C1  UNL     1       7.269   6.056  41.132  1.00  0.00     0.030 C 
HETATM    2  C2  UNL     1       8.271   7.177  41.418  1.00  0.00     0.034 C 
HETATM    3  S1  UNL     1       8.058   7.878  43.060  1.00  0.00    -0.156 SA
HETATM    4  C3  UNL     1       6.954   8.739  41.897  1.00  0.00     0.082 C 
HETATM    5  C4  UNL     1       7.894   8.408  40.731  1.00  0.00     0.025 C 
HETATM    6  C5  UNL     1       9.023   9.370  40.669  1.00  0.00     0.082 C 
HETATM    7  S2  UNL     1      10.441   8.235  40.392  1.00  0.00    -0.147 SA
HETATM    8  C6  UNL     1       9.640   6.743  41.100  1.00  0.00     0.172 C 
HETATM    9  C7  UNL     1      10.342   6.385  42.353  1.00  0.00     0.076 C 
HETATM   10  N1  UNL     1      10.900   6.124  43.334  1.00  0.00    -0.196 NA
ENDROOT
TORSDOF 0
ENDMDL
MODEL 5
REMARK VINA RESULT: -4.302912263      1.018      1.049
REMARK  0 active torsions:
REMARK  status: ('A' for Active; 'I' for Inactive)
ROOT
HETATM    1  C1  UNL     1       8.945   8.940  40.635  1.00  0.00     0.030 C 
HETATM    2  C2  UNL     1       8.764   7.431  40.823  1.00  0.00     0.034 C 
HETATM    3  S1  UNL     1       9.999   6.481  39.929  1.00  0.00    -0.156 SA
HETATM    4  C3  UNL     1       8.597   6.824  38.821  1.00  0.00     0.082 C 
HETATM    5  C4  UNL     1       7.651   6.931  40.025  1.00  0.00     0.025 C 
HETATM    6  C5  UNL     1       7.211   5.586  40.476  1.00  0.00     0.082 C 
HETATM    7  S2  UNL     1       7.396   5.746  42.296  1.00  0.00    -0.147 SA
HETATM    8  C6  UNL     1       8.636   7.099  42.251  1.00  0.00     0.172 C 
HETATM    9  C7  UNL     1       9.926   6.568  42.745  1.00  0.00     0.076 C 
HETATM   10  N1  UNL     1      10.929   6.132  43.129  1.00  0.00    -0.196 NA
ENDROOT
TORSDOF 0
ENDMDL
