MODEL 1
REMARK VINA RESULT: -5.484113775      0.000      0.000
REMARK  1 active torsions:
REMARK  status: ('A' for Active; 'I' for Inactive)
REMARK    1  A    between atoms: C2_2  and  C3_3 
ROOT
HETATM    1  C3  UNL     1       4.507  12.156  44.779  1.00  0.00     0.189 C 
HETATM    2  O1  UNL     1       5.244  12.087  45.933  1.00  0.00    -0.230 OA
HETATM    3  O2  UNL     1       6.463  11.680  45.779  1.00  0.00    -0.201 OA
HETATM    4  C4  UNL     1       6.619  10.505  45.104  1.00  0.00     0.194 C 
HETATM    5  C5  UNL     1       6.778   9.368  46.114  1.00  0.00     0.082 C 
HETATM    6  C6  UNL     1       7.891  10.626  44.254  1.00  0.00     0.071 C 
HETATM    7  C7  UNL     1       7.404  10.983  42.854  1.00  0.00     0.008 C 
HETATM    8  C8  UNL     1       6.296  12.002  43.028  1.00  0.00     0.035 C 
HETATM    9  C9  UNL     1       5.113  11.343  43.680  1.00  0.00     0.157 C 
HETATM   10  O3  UNL     1       5.557  10.149  44.294  1.00  0.00    -0.345 OA
ENDROOT
BRANCH   1  11
HETATM   11  C2  UNL     1       4.202  13.575  44.356  1.00  0.00     0.033 C 
HETATM   12  C1  UNL     1       3.418  14.286  45.439  1.00  0.00     0.007 C 
ENDBRANCH   1  11
TORSDOF 1
ENDMDL
MODEL 2
REMARK VINA RESULT: -5.384164377      2.064      2.819
REMARK  1 active torsions:
REMARK  status: ('A' for Active; 'I' for Inactive)
REMARK    1  A    between atoms: C2_2  and  C3_3 
ROOT
HETATM    1  C3  UNL     1       3.935  13.376  42.980  1.00  0.00     0.189 C 
HETATM    2  O1  UNL     1       3.654  14.044  44.144  1.00  0.00    -0.230 OA
HETATM    3  O2  UNL     1       4.439  13.768  45.136  1.00  0.00    -0.201 OA
HETATM    4  C4  UNL     1       4.586  12.444  45.429  1.00  0.00     0.194 C 
HETATM    5  C5  UNL     1       3.645  12.082  46.579  1.00  0.00     0.082 C 
HETATM    6  C6  UNL     1       6.042  12.225  45.861  1.00  0.00     0.071 C 
HETATM    7  C7  UNL     1       6.751  11.689  44.622  1.00  0.00     0.008 C 
HETATM    8  C8  UNL     1       6.236  12.494  43.447  1.00  0.00     0.035 C 
HETATM    9  C9  UNL     1       4.786  12.170  43.220  1.00  0.00     0.157 C 
HETATM   10  O3  UNL     1       4.277  11.576  44.398  1.00  0.00    -0.345 OA
ENDROOT
BRANCH   1  11
HETATM   11  C2  UNL     1       4.488  14.277  41.900  1.00  0.00     0.033 C 
HETATM   12  C1  UNL     1       3.523  14.349  40.734  1.00  0.00     0.007 C 
ENDBRANCH   1  11
TORSDOF 1
ENDMDL
MODEL 3
REMARK VINA RESULT: -5.326567682      5.313      6.578
REMARK  1 active torsions:
REMARK  status: ('A' for Active; 'I' for Inactive)
REMARK    1  A    between atoms: C2_2  and  C3_3 
ROOT
HETATM    1  C3  UNL     1       8.649   6.639  43.366  1.00  0.00     0.189 C 
HETATM    2  O1  UNL     1       9.943   6.259  43.613  1.00  0.00    -0.230 OA
HETATM    3  O2  UNL     1      10.817   6.719  42.777  1.00  0.00    -0.201 OA
HETATM    4  C4  UNL     1      10.554   6.497  41.457  1.00  0.00     0.194 C 
HETATM    5  C5  UNL     1      11.333   5.266  40.995  1.00  0.00     0.082 C 
HETATM    6  C6  UNL     1      11.025   7.732  40.678  1.00  0.00     0.071 C 
HETATM    7  C7  UNL     1       9.768   8.564  40.448  1.00  0.00     0.008 C 
HETATM    8  C8  UNL     1       8.978   8.520  41.740  1.00  0.00     0.035 C 
HETATM    9  C9  UNL     1       8.468   7.123  41.963  1.00  0.00     0.157 C 
HETATM   10  O3  UNL     1       9.228   6.243  41.158  1.00  0.00    -0.345 OA
ENDROOT
BRANCH   1  11
HETATM   11  C2  UNL     1       8.110   7.608  44.393  1.00  0.00     0.033 C 
HETATM   12  C1  UNL     1       6.596   7.559  44.413  1.00  0.00     0.007 C 
ENDBRANCH   1  11
TORSDOF 1
ENDMDL
MODEL 4
REMARK VINA RESULT: -5.288550317      1.786      3.515
REMARK  1 active torsions:
REMARK  status: ('A' for Active; 'I' for Inactive)
REMARK    1  A    between atoms: C2_2  and  C3_3 
ROOT
HETATM    1  C3  UNL     1       5.269  12.484  42.198  1.00  0.00     0.189 C 
HETATM    2  O1  UNL     1       5.122  11.189  42.622  1.00  0.00    -0.230 OA
HETATM    3  O2  UNL     1       4.616  11.055  43.806  1.00  0.00    -0.201 OA
HETATM    4  C4  UNL     1       5.229  11.761  44.799  1.00  0.00     0.194 C 
HETATM    5  C5  UNL     1       6.202  10.839  45.535  1.00  0.00     0.082 C 
HETATM    6  C6  UNL     1       4.138  12.242  45.765  1.00  0.00     0.071 C 
HETATM    7  C7  UNL     1       3.858  13.687  45.366  1.00  0.00     0.008 C 
HETATM    8  C8  UNL     1       3.846  13.722  43.851  1.00  0.00     0.035 C 
HETATM    9  C9  UNL     1       5.233  13.452  43.337  1.00  0.00     0.157 C 
HETATM   10  O3  UNL     1       5.977  12.843  44.375  1.00  0.00    -0.345 OA
ENDROOT
BRANCH   1  11
HETATM   11  C2  UNL     1       4.317  12.855  41.085  1.00  0.00     0.033 C 
HETATM   12  C1  UNL     1       4.400  11.838  39.965  1.00  0.00     0.007 C 
ENDBRANCH   1  11
TORSDOF 1
ENDMDL
MODEL 5
REMARK VINA RESULT: -5.284844640      5.921      7.606
REMARK  1 active torsions:
REMARK  status: ('A' for Active; 'I' for Inactive)
REMARK    1  A    between atoms: C2_2  and  C3_3 
ROOT
HETATM    1  C3  UNL     1      10.777   6.796  41.686  1.00  0.00     0.189 C 
HETATM    2  O1  UNL     1      10.862   5.909  42.728  1.00  0.00    -0.230 OA
HETATM    3  O2  UNL     1       9.725   5.488  43.182  1.00  0.00    -0.201 OA
HETATM    4  C4  UNL     1       8.822   6.453  43.517  1.00  0.00     0.194 C 
HETATM    5  C5  UNL     1       8.893   6.697  45.025  1.00  0.00     0.082 C 
HETATM    6  C6  UNL     1       7.429   5.934  43.139  1.00  0.00     0.071 C 
HETATM    7  C7  UNL     1       7.115   6.575  41.792  1.00  0.00     0.008 C 
HETATM    8  C8  UNL     1       8.389   6.510  40.975  1.00  0.00     0.035 C 
HETATM    9  C9  UNL     1       9.420   7.415  41.590  1.00  0.00     0.157 C 
HETATM   10  O3  UNL     1       9.031   7.684  42.923  1.00  0.00    -0.345 OA
ENDROOT
BRANCH   1  11
HETATM   11  C2  UNL     1      11.248   6.213  40.373  1.00  0.00     0.033 C 
HETATM   12  C1  UNL     1      11.795   4.817  40.587  1.00  0.00     0.007 C 
ENDBRANCH   1  11
TORSDOF 1
ENDMDL
