MODEL 1
REMARK VINA RESULT: -4.317883159      0.000      0.000
REMARK  1 active torsions:
REMARK  status: ('A' for Active; 'I' for Inactive)
REMARK    1  A    between atoms: C2_2  and  C4_4 
ROOT
HETATM    1  C4  UNL     1       4.184  13.001  43.336  1.00  0.00     0.180 C 
HETATM    2  S1  UNL     1       3.936  13.423  45.090  1.00  0.00    -0.068 SA
HETATM    3  S2  UNL     1       5.119  12.060  46.228  1.00  0.00    -0.094 SA
HETATM    4  C5  UNL     1       6.514  11.503  45.193  1.00  0.00     0.105 C 
HETATM    5  C6  UNL     1       6.438  12.207  43.824  1.00  0.00     0.129 C 
HETATM    6  N1  UNL     1       5.190  12.038  43.203  1.00  0.00    -0.399 N 
HETATM    7  C7  UNL     1       5.137  11.183  42.072  1.00  0.00     0.144 C 
ENDROOT
BRANCH   1   8
HETATM    8  C2  UNL     1       4.320  14.249  42.564  1.00  0.00    -0.060 C 
HETATM    9  C1  UNL     1       4.883  15.328  43.055  1.00  0.00     0.017 C 
HETATM   10  C3  UNL     1       3.803  14.306  41.169  1.00  0.00     0.045 C 
ENDBRANCH   1   8
TORSDOF 1
ENDMDL
MODEL 2
REMARK VINA RESULT: -4.269772209      0.088      1.076
REMARK  1 active torsions:
REMARK  status: ('A' for Active; 'I' for Inactive)
REMARK    1  A    between atoms: C2_2  and  C4_4 
ROOT
HETATM    1  C4  UNL     1       4.156  12.964  43.314  1.00  0.00     0.180 C 
HETATM    2  S1  UNL     1       3.897  13.381  45.068  1.00  0.00    -0.068 SA
HETATM    3  S2  UNL     1       5.106  12.042  46.207  1.00  0.00    -0.094 SA
HETATM    4  C5  UNL     1       6.513  11.512  45.174  1.00  0.00     0.105 C 
HETATM    5  C6  UNL     1       6.424  12.215  43.804  1.00  0.00     0.129 C 
HETATM    6  N1  UNL     1       5.180  12.021  43.183  1.00  0.00    -0.399 N 
HETATM    7  C7  UNL     1       5.145  11.165  42.051  1.00  0.00     0.144 C 
ENDROOT
BRANCH   1   8
HETATM    8  C2  UNL     1       4.268  14.215  42.542  1.00  0.00    -0.060 C 
HETATM    9  C1  UNL     1       3.909  14.305  41.282  1.00  0.00     0.017 C 
HETATM   10  C3  UNL     1       4.808  15.435  43.203  1.00  0.00     0.045 C 
ENDBRANCH   1   8
TORSDOF 1
ENDMDL
MODEL 3
REMARK VINA RESULT: -4.251342525      2.903      4.120
REMARK  1 active torsions:
REMARK  status: ('A' for Active; 'I' for Inactive)
REMARK    1  A    between atoms: C2_2  and  C4_4 
ROOT
HETATM    1  C4  UNL     1       6.700  11.161  45.141  1.00  0.00     0.180 C 
HETATM    2  S1  UNL     1       7.391  11.814  43.588  1.00  0.00    -0.068 SA
HETATM    3  S2  UNL     1       8.156  10.145  42.501  1.00  0.00    -0.094 SA
HETATM    4  C5  UNL     1       7.235   8.653  43.008  1.00  0.00     0.105 C 
HETATM    5  C6  UNL     1       6.162   9.052  44.041  1.00  0.00     0.129 C 
HETATM    6  N1  UNL     1       6.700   9.762  45.125  1.00  0.00    -0.399 N 
HETATM    7  C7  UNL     1       6.766   9.090  46.374  1.00  0.00     0.144 C 
ENDROOT
BRANCH   1   8
HETATM    8  C2  UNL     1       5.424  11.846  45.416  1.00  0.00    -0.060 C 
HETATM    9  C1  UNL     1       4.946  11.995  46.630  1.00  0.00     0.017 C 
HETATM   10  C3  UNL     1       4.633  12.398  44.283  1.00  0.00     0.045 C 
ENDBRANCH   1   8
TORSDOF 1
ENDMDL
MODEL 4
REMARK VINA RESULT: -4.175822665      2.228      3.128
REMARK  1 active torsions:
REMARK  status: ('A' for Active; 'I' for Inactive)
REMARK    1  A    between atoms: C2_2  and  C4_4 
ROOT
HETATM    1  C4  UNL     1       5.059  13.273  43.613  1.00  0.00     0.180 C 
HETATM    2  S1  UNL     1       4.205  13.402  42.010  1.00  0.00    -0.068 SA
HETATM    3  S2  UNL     1       4.825  11.728  40.841  1.00  0.00    -0.094 SA
HETATM    4  C5  UNL     1       5.305  10.379  41.972  1.00  0.00     0.105 C 
HETATM    5  C6  UNL     1       5.087  10.841  43.427  1.00  0.00     0.129 C 
HETATM    6  N1  UNL     1       5.737  12.053  43.707  1.00  0.00    -0.399 N 
HETATM    7  C7  UNL     1       6.878  11.998  44.550  1.00  0.00     0.144 C 
ENDROOT
BRANCH   1   8
HETATM    8  C2  UNL     1       4.108  13.616  44.685  1.00  0.00    -0.060 C 
HETATM    9  C1  UNL     1       4.010  12.923  45.795  1.00  0.00     0.017 C 
HETATM   10  C3  UNL     1       3.214  14.796  44.518  1.00  0.00     0.045 C 
ENDBRANCH   1   8
TORSDOF 1
ENDMDL
MODEL 5
REMARK VINA RESULT: -4.110005203      3.895      5.041
REMARK  1 active torsions:
REMARK  status: ('A' for Active; 'I' for Inactive)
REMARK    1  A    between atoms: C2_2  and  C4_4 
ROOT
HETATM    1  C4  UNL     1       7.687   9.987  44.118  1.00  0.00     0.180 C 
HETATM    2  S1  UNL     1       8.152   9.545  42.414  1.00  0.00    -0.068 SA
HETATM    3  S2  UNL     1       8.343   7.421  42.355  1.00  0.00    -0.094 SA
HETATM    4  C5  UNL     1       7.281   6.709  43.655  1.00  0.00     0.105 C 
HETATM    5  C6  UNL     1       6.541   7.850  44.381  1.00  0.00     0.129 C 
HETATM    6  N1  UNL     1       7.417   8.835  44.864  1.00  0.00    -0.399 N 
HETATM    7  C7  UNL     1       7.611   8.900  46.269  1.00  0.00     0.144 C 
ENDROOT
BRANCH   1   8
HETATM    8  C2  UNL     1       6.650  11.033  44.070  1.00  0.00    -0.060 C 
HETATM    9  C1  UNL     1       6.568  11.992  44.963  1.00  0.00     0.017 C 
HETATM   10  C3  UNL     1       5.647  11.018  42.969  1.00  0.00     0.045 C 
ENDBRANCH   1   8
TORSDOF 1
ENDMDL
