MODEL 1
REMARK VINA RESULT: -5.424943098      0.000      0.000
REMARK  1 active torsions:
REMARK  status: ('A' for Active; 'I' for Inactive)
REMARK    1  A    between atoms: C5_7  and  C6_8 
ROOT
HETATM    1  N1  UNL     1       8.657   9.350  42.583  1.00  0.00    -0.194 NA
HETATM    2  C1  UNL     1       7.857   9.847  43.264  1.00  0.00     0.096 C 
HETATM    3  C2  UNL     1       6.837  10.462  44.136  1.00  0.00     0.186 C 
HETATM    4  C3  UNL     1       6.825   9.971  45.500  1.00  0.00     0.096 C 
HETATM    5  N2  UNL     1       6.813   9.592  46.585  1.00  0.00    -0.194 NA
HETATM    6  C4  UNL     1       6.979  11.955  44.110  1.00  0.00     0.067 C 
HETATM    7  C5  UNL     1       5.511  12.214  43.947  1.00  0.00     0.057 C 
HETATM    8  S1  UNL     1       5.187  10.547  43.352  1.00  0.00    -0.124 SA
ENDROOT
BRANCH   7   9
HETATM    9  C6  UNL     1       5.212  13.326  42.989  1.00  0.00    -0.001 A 
HETATM   10  C7  UNL     1       3.858  13.683  42.564  1.00  0.00     0.006 A 
HETATM   11  C8  UNL     1       4.509  14.574  43.552  1.00  0.00     0.006 A 
ENDBRANCH   7   9
TORSDOF 1
ENDMDL
MODEL 2
REMARK VINA RESULT: -5.248795258      1.111      2.554
REMARK  1 active torsions:
REMARK  status: ('A' for Active; 'I' for Inactive)
REMARK    1  A    between atoms: C5_7  and  C6_8 
ROOT
HETATM    1  N1  UNL     1       7.013   9.212  46.686  1.00  0.00    -0.194 NA
HETATM    2  C1  UNL     1       7.026   9.611  45.595  1.00  0.00     0.096 C 
HETATM    3  C2  UNL     1       7.062  10.116  44.209  1.00  0.00     0.186 C 
HETATM    4  C3  UNL     1       7.900   9.354  43.304  1.00  0.00     0.096 C 
HETATM    5  N2  UNL     1       8.557   8.752  42.578  1.00  0.00    -0.194 NA
HETATM    6  C4  UNL     1       5.665  10.227  43.672  1.00  0.00     0.067 C 
HETATM    7  C5  UNL     1       5.869  11.591  43.082  1.00  0.00     0.057 C 
HETATM    8  S1  UNL     1       7.304  11.927  44.116  1.00  0.00    -0.124 SA
ENDROOT
BRANCH   7   9
HETATM    9  C6  UNL     1       4.692  12.497  43.271  1.00  0.00    -0.001 A 
HETATM   10  C7  UNL     1       4.770  13.954  43.161  1.00  0.00     0.006 A 
HETATM   11  C8  UNL     1       4.154  13.227  42.028  1.00  0.00     0.006 A 
ENDBRANCH   7   9
TORSDOF 1
ENDMDL
MODEL 3
REMARK VINA RESULT: -4.990252758      1.332      2.532
REMARK  1 active torsions:
REMARK  status: ('A' for Active; 'I' for Inactive)
REMARK    1  A    between atoms: C5_7  and  C6_8 
ROOT
HETATM    1  N1  UNL     1       6.357   8.273  45.046  1.00  0.00    -0.194 NA
HETATM    2  C1  UNL     1       6.568   9.183  44.355  1.00  0.00     0.096 C 
HETATM    3  C2  UNL     1       6.855  10.336  43.480  1.00  0.00     0.186 C 
HETATM    4  C3  UNL     1       7.949  10.138  42.549  1.00  0.00     0.096 C 
HETATM    5  N2  UNL     1       8.810   9.987  41.804  1.00  0.00    -0.194 NA
HETATM    6  C4  UNL     1       5.608  10.746  42.754  1.00  0.00     0.067 C 
HETATM    7  C5  UNL     1       5.791  12.211  43.015  1.00  0.00     0.057 C 
HETATM    8  S1  UNL     1       6.917  11.922  44.389  1.00  0.00    -0.124 SA
ENDROOT
BRANCH   7   9
HETATM    9  C6  UNL     1       4.511  12.915  43.348  1.00  0.00    -0.001 A 
HETATM   10  C7  UNL     1       4.406  14.366  43.509  1.00  0.00     0.006 A 
HETATM   11  C8  UNL     1       3.879  13.790  42.251  1.00  0.00     0.006 A 
ENDBRANCH   7   9
TORSDOF 1
ENDMDL
MODEL 4
REMARK VINA RESULT: -4.990137934      1.632      2.255
REMARK  1 active torsions:
REMARK  status: ('A' for Active; 'I' for Inactive)
REMARK    1  A    between atoms: C5_7  and  C6_8 
ROOT
HETATM    1  N1  UNL     1       6.366   8.445  44.019  1.00  0.00    -0.194 NA
HETATM    2  C1  UNL     1       6.568   9.585  43.913  1.00  0.00     0.096 C 
HETATM    3  C2  UNL     1       6.840  11.029  43.787  1.00  0.00     0.186 C 
HETATM    4  C3  UNL     1       8.218  11.367  43.490  1.00  0.00     0.096 C 
HETATM    5  N2  UNL     1       9.307  11.643  43.248  1.00  0.00    -0.194 NA
HETATM    6  C4  UNL     1       5.914  11.634  42.773  1.00  0.00     0.067 C 
HETATM    7  C5  UNL     1       5.564  12.822  43.620  1.00  0.00     0.057 C 
HETATM    8  S1  UNL     1       6.097  12.014  45.137  1.00  0.00    -0.124 SA
ENDROOT
BRANCH   7   9
HETATM    9  C6  UNL     1       4.115  13.194  43.543  1.00  0.00    -0.001 A 
HETATM   10  C7  UNL     1       3.595  14.498  43.954  1.00  0.00     0.006 A 
HETATM   11  C8  UNL     1       3.710  14.248  42.499  1.00  0.00     0.006 A 
ENDBRANCH   7   9
TORSDOF 1
ENDMDL
MODEL 5
REMARK VINA RESULT: -4.909375915      3.917      5.193
REMARK  1 active torsions:
REMARK  status: ('A' for Active; 'I' for Inactive)
REMARK    1  A    between atoms: C5_7  and  C6_8 
ROOT
HETATM    1  N1  UNL     1      11.169   5.868  42.778  1.00  0.00    -0.194 NA
HETATM    2  C1  UNL     1      10.047   6.167  42.826  1.00  0.00     0.096 C 
HETATM    3  C2  UNL     1       8.621   6.542  42.870  1.00  0.00     0.186 C 
HETATM    4  C3  UNL     1       7.723   5.604  42.226  1.00  0.00     0.096 C 
HETATM    5  N2  UNL     1       7.005   4.861  41.723  1.00  0.00    -0.194 NA
HETATM    6  C4  UNL     1       8.203   6.787  44.290  1.00  0.00     0.067 C 
HETATM    7  C5  UNL     1       7.466   8.057  43.983  1.00  0.00     0.057 C 
HETATM    8  S1  UNL     1       8.330   8.292  42.421  1.00  0.00    -0.124 SA
ENDROOT
BRANCH   7   9
HETATM    9  C6  UNL     1       7.670   9.122  45.016  1.00  0.00    -0.001 A 
HETATM   10  C7  UNL     1       6.715  10.203  45.260  1.00  0.00     0.006 A 
HETATM   11  C8  UNL     1       6.747   9.099  46.247  1.00  0.00     0.006 A 
ENDBRANCH   7   9
TORSDOF 1
ENDMDL
