MODEL 1
REMARK VINA RESULT: -5.571875411      0.000      0.000
REMARK  2 active torsions:
REMARK  status: ('A' for Active; 'I' for Inactive)
REMARK    1  A    between atoms: O1_2  and  C2_3 
REMARK    2  A    between atoms: C2_3  and  C3_5 
ROOT
HETATM    1  C3  UNL     1       4.431  13.152  44.441  1.00  0.00     0.046 C 
HETATM    2  C4  UNL     1       5.320  12.827  43.536  1.00  0.00     0.026 C 
HETATM    3  C5  UNL     1       5.945  11.520  43.836  1.00  0.00     0.138 C 
HETATM    4  C6  UNL     1       7.441  11.713  43.807  1.00  0.00     0.050 C 
HETATM    5  C7  UNL     1       5.588  10.475  42.800  1.00  0.00     0.050 C 
HETATM    6  N1  UNL     1       5.438  11.148  45.120  1.00  0.00    -0.056 N 
ATOM      7  H11 UNL     1       6.162  11.100  45.839  1.00  0.00     0.279 HD
ATOM      8  H12 UNL     1       5.143  10.172  45.169  1.00  0.00     0.279 HD
HETATM    9  C8  UNL     1       4.384  12.075  45.439  1.00  0.00     0.221 C 
HETATM   10  C9  UNL     1       4.589  12.544  46.852  1.00  0.00     0.045 C 
ENDROOT
BRANCH   1  11
HETATM   11  C2  UNL     1       3.641  14.359  44.448  1.00  0.00     0.290 C 
HETATM   12  O2  UNL     1       3.523  15.061  43.396  1.00  0.00    -0.260 OA
BRANCH  11  13
HETATM   13  O1  UNL     1       2.970  14.836  45.566  1.00  0.00    -0.323 OA
HETATM   14  C1  UNL     1       3.373  16.019  46.238  1.00  0.00     0.213 C 
ENDBRANCH  11  13
ENDBRANCH   1  11
TORSDOF 2
ENDMDL
MODEL 2
REMARK VINA RESULT: -5.528473466      2.205      3.069
REMARK  2 active torsions:
REMARK  status: ('A' for Active; 'I' for Inactive)
REMARK    1  A    between atoms: O1_2  and  C2_3 
REMARK    2  A    between atoms: C2_3  and  C3_5 
ROOT
HETATM    1  C3  UNL     1       4.448  13.587  42.568  1.00  0.00     0.046 C 
HETATM    2  C4  UNL     1       5.404  12.691  42.584  1.00  0.00     0.026 C 
HETATM    3  C5  UNL     1       5.476  12.000  43.889  1.00  0.00     0.138 C 
HETATM    4  C6  UNL     1       6.903  12.085  44.371  1.00  0.00     0.050 C 
HETATM    5  C7  UNL     1       5.109  10.535  43.770  1.00  0.00     0.050 C 
HETATM    6  N1  UNL     1       4.543  12.685  44.729  1.00  0.00    -0.056 N 
ATOM      7  H11 UNL     1       4.985  13.161  45.516  1.00  0.00     0.279 HD
ATOM      8  H12 UNL     1       3.954  12.054  45.274  1.00  0.00     0.279 HD
HETATM    9  C8  UNL     1       3.790  13.572  43.881  1.00  0.00     0.221 C 
HETATM   10  C9  UNL     1       3.733  14.916  44.550  1.00  0.00     0.045 C 
ENDROOT
BRANCH   1  11
HETATM   11  C2  UNL     1       4.110  14.436  41.452  1.00  0.00     0.290 C 
HETATM   12  O2  UNL     1       4.668  15.567  41.306  1.00  0.00    -0.260 OA
BRANCH  11  13
HETATM   13  O1  UNL     1       3.179  14.097  40.478  1.00  0.00    -0.323 OA
HETATM   14  C1  UNL     1       2.513  15.078  39.700  1.00  0.00     0.213 C 
ENDBRANCH  11  13
ENDBRANCH   1  11
TORSDOF 2
ENDMDL
MODEL 3
REMARK VINA RESULT: -5.468799722      1.467      2.474
REMARK  2 active torsions:
REMARK  status: ('A' for Active; 'I' for Inactive)
REMARK    1  A    between atoms: O1_2  and  C2_3 
REMARK    2  A    between atoms: C2_3  and  C3_5 
ROOT
HETATM    1  C3  UNL     1       4.217  13.994  44.340  1.00  0.00     0.046 C 
HETATM    2  C4  UNL     1       4.646  12.885  44.890  1.00  0.00     0.026 C 
HETATM    3  C5  UNL     1       5.491  12.109  43.955  1.00  0.00     0.138 C 
HETATM    4  C6  UNL     1       4.942  10.705  43.904  1.00  0.00     0.050 C 
HETATM    5  C7  UNL     1       6.927  12.033  44.428  1.00  0.00     0.050 C 
HETATM    6  N1  UNL     1       5.408  12.806  42.709  1.00  0.00    -0.056 N 
ATOM      7  H11 UNL     1       4.958  12.260  41.973  1.00  0.00     0.279 HD
ATOM      8  H12 UNL     1       6.313  12.918  42.251  1.00  0.00     0.279 HD
HETATM    9  C8  UNL     1       4.746  14.057  42.972  1.00  0.00     0.221 C 
HETATM   10  C9  UNL     1       3.692  14.255  41.920  1.00  0.00     0.045 C 
ENDROOT
BRANCH   1  11
HETATM   11  C2  UNL     1       3.373  14.976  44.978  1.00  0.00     0.290 C 
HETATM   12  O2  UNL     1       2.125  14.776  45.098  1.00  0.00    -0.260 OA
BRANCH  11  13
HETATM   13  O1  UNL     1       3.841  16.177  45.494  1.00  0.00    -0.323 OA
HETATM   14  C1  UNL     1       3.471  16.636  46.785  1.00  0.00     0.213 C 
ENDBRANCH  11  13
ENDBRANCH   1  11
TORSDOF 2
ENDMDL
MODEL 4
REMARK VINA RESULT: -5.413372033      1.359      2.024
REMARK  2 active torsions:
REMARK  status: ('A' for Active; 'I' for Inactive)
REMARK    1  A    between atoms: O1_2  and  C2_3 
REMARK    2  A    between atoms: C2_3  and  C3_5 
ROOT
HETATM    1  C3  UNL     1       4.762  13.201  43.626  1.00  0.00     0.046 C 
HETATM    2  C4  UNL     1       5.827  12.677  43.069  1.00  0.00     0.026 C 
HETATM    3  C5  UNL     1       6.201  11.399  43.714  1.00  0.00     0.138 C 
HETATM    4  C6  UNL     1       7.659  11.489  44.091  1.00  0.00     0.050 C 
HETATM    5  C7  UNL     1       6.033  10.225  42.772  1.00  0.00     0.050 C 
HETATM    6  N1  UNL     1       5.323  11.273  44.835  1.00  0.00    -0.056 N 
ATOM      7  H11 UNL     1       5.811  11.297  45.732  1.00  0.00     0.279 HD
ATOM      8  H12 UNL     1       4.924  10.339  44.930  1.00  0.00     0.279 HD
HETATM    9  C8  UNL     1       4.327  12.305  44.705  1.00  0.00     0.221 C 
HETATM   10  C9  UNL     1       4.185  12.984  46.038  1.00  0.00     0.045 C 
ENDROOT
BRANCH   1  11
HETATM   11  C2  UNL     1       4.136  14.441  43.238  1.00  0.00     0.290 C 
HETATM   12  O2  UNL     1       4.453  15.531  43.805  1.00  0.00    -0.260 OA
BRANCH  11  13
HETATM   13  O1  UNL     1       3.169  14.540  42.246  1.00  0.00    -0.323 OA
HETATM   14  C1  UNL     1       3.484  14.388  40.871  1.00  0.00     0.213 C 
ENDBRANCH  11  13
ENDBRANCH   1  11
TORSDOF 2
ENDMDL
MODEL 5
REMARK VINA RESULT: -5.354891813      1.509      2.482
REMARK  2 active torsions:
REMARK  status: ('A' for Active; 'I' for Inactive)
REMARK    1  A    between atoms: O1_2  and  C2_3 
REMARK    2  A    between atoms: C2_3  and  C3_5 
ROOT
HETATM    1  C3  UNL     1       4.770  13.646  43.532  1.00  0.00     0.046 C 
HETATM    2  C4  UNL     1       5.172  12.603  44.215  1.00  0.00     0.026 C 
HETATM    3  C5  UNL     1       5.724  11.555  43.329  1.00  0.00     0.138 C 
HETATM    4  C6  UNL     1       5.023  10.262  43.662  1.00  0.00     0.050 C 
HETATM    5  C7  UNL     1       7.208  11.354  43.553  1.00  0.00     0.050 C 
HETATM    6  N1  UNL     1       5.475  12.019  41.999  1.00  0.00    -0.056 N 
ATOM      7  H11 UNL     1       4.830  11.423  41.480  1.00  0.00     0.279 HD
ATOM      8  H12 UNL     1       6.278  11.912  41.379  1.00  0.00     0.279 HD
HETATM    9  C8  UNL     1       5.022  13.382  42.110  1.00  0.00     0.221 C 
HETATM   10  C9  UNL     1       3.809  13.540  41.237  1.00  0.00     0.045 C 
ENDROOT
BRANCH   1  11
HETATM   11  C2  UNL     1       4.183  14.840  44.090  1.00  0.00     0.290 C 
HETATM   12  O2  UNL     1       4.565  15.989  43.707  1.00  0.00    -0.260 OA
BRANCH  11  13
HETATM   13  O1  UNL     1       3.187  14.831  45.058  1.00  0.00    -0.323 OA
HETATM   14  C1  UNL     1       3.213  15.707  46.173  1.00  0.00     0.213 C 
ENDBRANCH  11  13
ENDBRANCH   1  11
TORSDOF 2
ENDMDL
