MODEL 1
REMARK VINA RESULT: -5.191719777      0.000      0.000
REMARK  2 active torsions:
REMARK  status: ('A' for Active; 'I' for Inactive)
REMARK    1  A    between atoms: O1_2  and  C2_3 
REMARK    2  A    between atoms: C2_3  and  C3_5 
ROOT
HETATM    1  C3  UNL     1       5.358  11.611  44.163  1.00  0.00     0.121 C 
HETATM    2  C4  UNL     1       4.984  10.370  43.374  1.00  0.00     0.050 C 
HETATM    3  C5  UNL     1       4.231  11.855  45.134  1.00  0.00     0.042 C 
HETATM    4  C6  UNL     1       4.072  13.057  45.911  1.00  0.00     0.004 C 
HETATM    5  C7  UNL     1       3.332  14.276  45.371  1.00  0.00     0.013 C 
HETATM    6  C8  UNL     1       3.995  14.804  44.054  1.00  0.00     0.104 C 
HETATM    7  C9  UNL     1       4.756  13.747  43.546  1.00  0.00    -0.074 C 
HETATM    8  N1  UNL     1       5.469  12.687  43.123  1.00  0.00    -0.341 N 
ATOM      9  H1  UNL     1       5.992  12.625  42.250  1.00  0.00     0.170 HD
ENDROOT
BRANCH   1  10
HETATM   10  C2  UNL     1       6.653  11.382  44.798  1.00  0.00     0.287 C 
HETATM   11  O2  UNL     1       7.729  11.817  44.313  1.00  0.00    -0.262 OA
BRANCH  10  12
HETATM   12  O1  UNL     1       6.736  10.663  45.977  1.00  0.00    -0.325 OA
HETATM   13  C1  UNL     1       7.113   9.298  46.031  1.00  0.00     0.213 C 
ENDBRANCH  10  12
ENDBRANCH   1  10
TORSDOF 2
ENDMDL
MODEL 2
REMARK VINA RESULT: -5.157242385      1.916      2.585
REMARK  2 active torsions:
REMARK  status: ('A' for Active; 'I' for Inactive)
REMARK    1  A    between atoms: O1_2  and  C2_3 
REMARK    2  A    between atoms: C2_3  and  C3_5 
ROOT
HETATM    1  C3  UNL     1       6.561  11.285  44.141  1.00  0.00     0.121 C 
HETATM    2  C4  UNL     1       8.039  11.556  43.928  1.00  0.00     0.050 C 
HETATM    3  C5  UNL     1       5.827  12.497  43.627  1.00  0.00     0.042 C 
HETATM    4  C6  UNL     1       4.427  12.755  43.847  1.00  0.00     0.004 C 
HETATM    5  C7  UNL     1       3.926  13.480  45.091  1.00  0.00     0.013 C 
HETATM    6  C8  UNL     1       4.345  12.723  46.397  1.00  0.00     0.104 C 
HETATM    7  C9  UNL     1       5.412  11.892  46.043  1.00  0.00    -0.074 C 
HETATM    8  N1  UNL     1       6.430  11.116  45.626  1.00  0.00    -0.341 N 
ATOM      9  H1  UNL     1       7.010  10.520  46.215  1.00  0.00     0.170 HD
ENDROOT
BRANCH   1  10
HETATM   10  C2  UNL     1       6.216  10.043  43.456  1.00  0.00     0.287 C 
HETATM   11  O2  UNL     1       6.052   9.982  42.210  1.00  0.00    -0.262 OA
BRANCH  10  12
HETATM   12  O1  UNL     1       6.054   8.870  44.172  1.00  0.00    -0.325 OA
HETATM   13  C1  UNL     1       6.993   7.809  44.149  1.00  0.00     0.213 C 
ENDBRANCH  10  12
ENDBRANCH   1  10
TORSDOF 2
ENDMDL
MODEL 3
REMARK VINA RESULT: -5.141490019      0.757      1.414
REMARK  2 active torsions:
REMARK  status: ('A' for Active; 'I' for Inactive)
REMARK    1  A    between atoms: O1_2  and  C2_3 
REMARK    2  A    between atoms: C2_3  and  C3_5 
ROOT
HETATM    1  C3  UNL     1       5.283  11.712  44.239  1.00  0.00     0.121 C 
HETATM    2  C4  UNL     1       4.909  10.457  43.473  1.00  0.00     0.050 C 
HETATM    3  C5  UNL     1       4.176  11.950  45.234  1.00  0.00     0.042 C 
HETATM    4  C6  UNL     1       4.016  13.158  46.001  1.00  0.00     0.004 C 
HETATM    5  C7  UNL     1       3.245  14.360  45.465  1.00  0.00     0.013 C 
HETATM    6  C8  UNL     1       3.868  14.883  44.126  1.00  0.00     0.104 C 
HETATM    7  C9  UNL     1       4.634  13.831  43.613  1.00  0.00    -0.074 C 
HETATM    8  N1  UNL     1       5.353  12.777  43.185  1.00  0.00    -0.341 N 
ATOM      9  H1  UNL     1       5.856  12.714  42.301  1.00  0.00     0.170 HD
ENDROOT
BRANCH   1  10
HETATM   10  C2  UNL     1       6.595  11.510  44.845  1.00  0.00     0.287 C 
HETATM   11  O2  UNL     1       6.757  10.841  45.899  1.00  0.00    -0.262 OA
BRANCH  10  12
HETATM   12  O1  UNL     1       7.726  12.060  44.266  1.00  0.00    -0.325 OA
HETATM   13  C1  UNL     1       8.545  11.362  43.345  1.00  0.00     0.213 C 
ENDBRANCH  10  12
ENDBRANCH   1  10
TORSDOF 2
ENDMDL
MODEL 4
REMARK VINA RESULT: -5.037038636      1.934      4.035
REMARK  2 active torsions:
REMARK  status: ('A' for Active; 'I' for Inactive)
REMARK    1  A    between atoms: O1_2  and  C2_3 
REMARK    2  A    between atoms: C2_3  and  C3_5 
ROOT
HETATM    1  C3  UNL     1       5.788  11.497  44.342  1.00  0.00     0.121 C 
HETATM    2  C4  UNL     1       4.740  12.565  44.092  1.00  0.00     0.050 C 
HETATM    3  C5  UNL     1       7.054  11.978  43.681  1.00  0.00     0.042 C 
HETATM    4  C6  UNL     1       8.226  11.166  43.478  1.00  0.00     0.004 C 
HETATM    5  C7  UNL     1       8.396  10.285  42.245  1.00  0.00     0.013 C 
HETATM    6  C8  UNL     1       7.233   9.244  42.127  1.00  0.00     0.104 C 
HETATM    7  C9  UNL     1       6.185   9.735  42.912  1.00  0.00    -0.074 C 
HETATM    8  N1  UNL     1       5.225  10.270  43.688  1.00  0.00    -0.341 N 
ATOM      9  H1  UNL     1       4.280   9.905  43.811  1.00  0.00     0.170 HD
ENDROOT
BRANCH   1  10
HETATM   10  C2  UNL     1       5.908  11.296  45.783  1.00  0.00     0.287 C 
HETATM   11  O2  UNL     1       6.402  10.251  46.281  1.00  0.00    -0.262 OA
BRANCH  10  12
HETATM   12  O1  UNL     1       5.471  12.270  46.664  1.00  0.00    -0.325 OA
HETATM   13  C1  UNL     1       4.405  12.072  47.576  1.00  0.00     0.213 C 
ENDBRANCH  10  12
ENDBRANCH   1  10
TORSDOF 2
ENDMDL
MODEL 5
REMARK VINA RESULT: -5.033569833      1.758      2.555
REMARK  2 active torsions:
REMARK  status: ('A' for Active; 'I' for Inactive)
REMARK    1  A    between atoms: O1_2  and  C2_3 
REMARK    2  A    between atoms: C2_3  and  C3_5 
ROOT
HETATM    1  C3  UNL     1       6.869  11.204  43.732  1.00  0.00     0.121 C 
HETATM    2  C4  UNL     1       8.364  11.431  43.611  1.00  0.00     0.050 C 
HETATM    3  C5  UNL     1       6.268  11.601  42.408  1.00  0.00     0.042 C 
HETATM    4  C6  UNL     1       4.857  11.760  42.169  1.00  0.00     0.004 C 
HETATM    5  C7  UNL     1       4.137  13.078  42.432  1.00  0.00     0.013 C 
HETATM    6  C8  UNL     1       4.282  13.515  43.929  1.00  0.00     0.104 C 
HETATM    7  C9  UNL     1       5.384  12.818  44.435  1.00  0.00    -0.074 C 
HETATM    8  N1  UNL     1       6.450  12.110  44.852  1.00  0.00    -0.341 N 
ATOM      9  H1  UNL     1       6.894  12.177  45.767  1.00  0.00     0.170 HD
ENDROOT
BRANCH   1  10
HETATM   10  C2  UNL     1       6.641   9.808  44.095  1.00  0.00     0.287 C 
HETATM   11  O2  UNL     1       6.560   8.892  43.238  1.00  0.00    -0.262 OA
BRANCH  10  12
HETATM   12  O1  UNL     1       6.505   9.444  45.424  1.00  0.00    -0.325 OA
HETATM   13  C1  UNL     1       7.545   8.844  46.176  1.00  0.00     0.213 C 
ENDBRANCH  10  12
ENDBRANCH   1  10
TORSDOF 2
ENDMDL
