MODEL 1
REMARK VINA RESULT: -5.541007101      0.000      0.000
REMARK  2 active torsions:
REMARK  status: ('A' for Active; 'I' for Inactive)
REMARK    1  A    between atoms: N1_1  and  C1_5 
REMARK    2  A    between atoms: C6_10  and  N2_11 
ROOT
HETATM    1  C1  UNL     1       7.018  10.298  45.599  1.00  0.00     0.218 C 
HETATM    2  C2  UNL     1       6.196  11.586  45.453  1.00  0.00     0.040 C 
HETATM    3  C3  UNL     1       6.471  12.065  44.038  1.00  0.00    -0.012 C 
HETATM    4  C4  UNL     1       5.529  11.269  43.135  1.00  0.00     0.007 C 
HETATM    5  C5  UNL     1       5.532   9.823  43.642  1.00  0.00     0.040 C 
HETATM    6  C6  UNL     1       6.879   9.561  44.287  1.00  0.00     0.124 C 
HETATM    7  C7  UNL     1       7.909  10.196  43.339  1.00  0.00     0.040 C 
HETATM    8  C8  UNL     1       7.888  11.680  43.649  1.00  0.00     0.007 C 
ENDROOT
BRANCH   1   9
HETATM    9  N1  UNL     1       6.513   9.579  46.721  1.00  0.00    -0.072 N 
ATOM     10  H13 UNL     1       6.574  10.109  47.590  1.00  0.00     0.274 HD
ATOM     11  H12 UNL     1       5.499   9.472  46.698  1.00  0.00     0.274 HD
ATOM     12  H11 UNL     1       7.002   8.685  46.769  1.00  0.00     0.274 HD
ENDBRANCH   1   9
BRANCH   6  13
HETATM   13  N2  UNL     1       7.194   8.179  44.379  1.00  0.00    -0.143 N 
HETATM   14  O1  UNL     1       6.304   7.348  44.617  1.00  0.00    -0.536 OA
HETATM   15  O2  UNL     1       8.468   7.715  44.210  1.00  0.00    -0.536 OA
ENDBRANCH   6  13
TORSDOF 2
ENDMDL
MODEL 2
REMARK VINA RESULT: -5.481279413      2.695      3.448
REMARK  2 active torsions:
REMARK  status: ('A' for Active; 'I' for Inactive)
REMARK    1  A    between atoms: N1_1  and  C1_5 
REMARK    2  A    between atoms: C6_10  and  N2_11 
ROOT
HETATM    1  C1  UNL     1       6.222   9.880  45.703  1.00  0.00     0.218 C 
HETATM    2  C2  UNL     1       7.443   9.553  44.832  1.00  0.00     0.040 C 
HETATM    3  C3  UNL     1       7.123  10.152  43.473  1.00  0.00    -0.012 C 
HETATM    4  C4  UNL     1       7.490  11.633  43.569  1.00  0.00     0.007 C 
HETATM    5  C5  UNL     1       7.010  12.129  44.938  1.00  0.00     0.040 C 
HETATM    6  C6  UNL     1       5.814  11.290  45.341  1.00  0.00     0.124 C 
HETATM    7  C7  UNL     1       4.963  11.166  44.069  1.00  0.00     0.040 C 
HETATM    8  C8  UNL     1       5.624  10.082  43.239  1.00  0.00     0.007 C 
ENDROOT
BRANCH   1   9
HETATM    9  N1  UNL     1       6.601   9.721  47.068  1.00  0.00    -0.072 N 
ATOM     10  H13 UNL     1       6.001   9.066  47.569  1.00  0.00     0.274 HD
ATOM     11  H12 UNL     1       7.478   9.213  47.178  1.00  0.00     0.274 HD
ATOM     12  H11 UNL     1       6.623  10.645  47.499  1.00  0.00     0.274 HD
ENDBRANCH   1   9
BRANCH   6  13
HETATM   13  N2  UNL     1       5.003  11.914  46.327  1.00  0.00    -0.143 N 
HETATM   14  O1  UNL     1       3.783  12.043  46.143  1.00  0.00    -0.536 OA
HETATM   15  O2  UNL     1       5.524  12.388  47.499  1.00  0.00    -0.536 OA
ENDBRANCH   6  13
TORSDOF 2
ENDMDL
MODEL 3
REMARK VINA RESULT: -5.434122923      1.279      1.413
REMARK  2 active torsions:
REMARK  status: ('A' for Active; 'I' for Inactive)
REMARK    1  A    between atoms: N1_1  and  C1_5 
REMARK    2  A    between atoms: C6_10  and  N2_11 
ROOT
HETATM    1  C1  UNL     1       6.297  11.450  45.543  1.00  0.00     0.218 C 
HETATM    2  C2  UNL     1       5.580  12.382  44.558  1.00  0.00     0.040 C 
HETATM    3  C3  UNL     1       6.265  12.140  43.223  1.00  0.00    -0.012 C 
HETATM    4  C4  UNL     1       5.610  10.889  42.637  1.00  0.00     0.007 C 
HETATM    5  C5  UNL     1       5.437   9.889  43.785  1.00  0.00     0.040 C 
HETATM    6  C6  UNL     1       6.532  10.154  44.799  1.00  0.00     0.124 C 
HETATM    7  C7  UNL     1       7.805  10.374  43.968  1.00  0.00     0.040 C 
HETATM    8  C8  UNL     1       7.725  11.803  43.468  1.00  0.00     0.007 C 
ENDROOT
BRANCH   1   9
HETATM    9  N1  UNL     1       5.473  11.311  46.698  1.00  0.00    -0.072 N 
ATOM     10  H13 UNL     1       5.951  11.578  47.558  1.00  0.00     0.274 HD
ATOM     11  H12 UNL     1       4.727  12.004  46.736  1.00  0.00     0.274 HD
ATOM     12  H11 UNL     1       5.123  10.353  46.722  1.00  0.00     0.274 HD
ENDBRANCH   1   9
BRANCH   6  13
HETATM   13  N2  UNL     1       6.778   9.048  45.656  1.00  0.00    -0.143 N 
HETATM   14  O1  UNL     1       6.447   7.903  45.311  1.00  0.00    -0.536 OA
HETATM   15  O2  UNL     1       7.382   9.196  46.873  1.00  0.00    -0.536 OA
ENDBRANCH   6  13
TORSDOF 2
ENDMDL
MODEL 4
REMARK VINA RESULT: -5.224457636      0.825      1.210
REMARK  2 active torsions:
REMARK  status: ('A' for Active; 'I' for Inactive)
REMARK    1  A    between atoms: N1_1  and  C1_5 
REMARK    2  A    between atoms: C6_10  and  N2_11 
ROOT
HETATM    1  C1  UNL     1       7.306   9.625  45.438  1.00  0.00     0.218 C 
HETATM    2  C2  UNL     1       6.284  10.720  45.771  1.00  0.00     0.040 C 
HETATM    3  C3  UNL     1       6.344  11.681  44.596  1.00  0.00    -0.012 C 
HETATM    4  C4  UNL     1       5.455  11.072  43.511  1.00  0.00     0.007 C 
HETATM    5  C5  UNL     1       5.732   9.565  43.492  1.00  0.00     0.040 C 
HETATM    6  C6  UNL     1       7.158   9.350  43.958  1.00  0.00     0.124 C 
HETATM    7  C7  UNL     1       7.981  10.436  43.247  1.00  0.00     0.040 C 
HETATM    8  C8  UNL     1       7.760  11.705  44.046  1.00  0.00     0.007 C 
ENDROOT
BRANCH   1   9
HETATM    9  N1  UNL     1       7.029   8.497  46.264  1.00  0.00    -0.072 N 
ATOM     10  H13 UNL     1       7.538   8.521  47.147  1.00  0.00     0.274 HD
ATOM     11  H12 UNL     1       6.085   8.513  46.651  1.00  0.00     0.274 HD
ATOM     12  H11 UNL     1       7.218   7.654  45.722  1.00  0.00     0.274 HD
ENDBRANCH   1   9
BRANCH   6  13
HETATM   13  N2  UNL     1       7.691   8.095  43.560  1.00  0.00    -0.143 N 
HETATM   14  O1  UNL     1       8.834   8.023  43.084  1.00  0.00    -0.536 OA
HETATM   15  O2  UNL     1       6.980   6.934  43.685  1.00  0.00    -0.536 OA
ENDBRANCH   6  13
TORSDOF 2
ENDMDL
MODEL 5
REMARK VINA RESULT: -5.152736209      3.323      3.972
REMARK  2 active torsions:
REMARK  status: ('A' for Active; 'I' for Inactive)
REMARK    1  A    between atoms: N1_1  and  C1_5 
REMARK    2  A    between atoms: C6_10  and  N2_11 
ROOT
HETATM    1  C1  UNL     1       4.961  13.313  44.313  1.00  0.00     0.218 C 
HETATM    2  C2  UNL     1       5.087  12.845  42.857  1.00  0.00     0.040 C 
HETATM    3  C3  UNL     1       6.162  11.772  42.885  1.00  0.00    -0.012 C 
HETATM    4  C4  UNL     1       5.460  10.485  43.319  1.00  0.00     0.007 C 
HETATM    5  C5  UNL     1       4.492  10.858  44.447  1.00  0.00     0.040 C 
HETATM    6  C6  UNL     1       5.059  12.067  45.164  1.00  0.00     0.124 C 
HETATM    7  C7  UNL     1       6.562  11.780  45.311  1.00  0.00     0.040 C 
HETATM    8  C8  UNL     1       7.175  12.111  43.965  1.00  0.00     0.007 C 
ENDROOT
BRANCH   1   9
HETATM    9  N1  UNL     1       3.722  14.006  44.447  1.00  0.00    -0.072 N 
ATOM     10  H13 UNL     1       2.943  13.508  44.018  1.00  0.00     0.274 HD
ATOM     11  H12 UNL     1       3.372  14.008  45.405  1.00  0.00     0.274 HD
ATOM     12  H11 UNL     1       3.845  14.947  44.070  1.00  0.00     0.274 HD
ENDBRANCH   1   9
BRANCH   6  13
HETATM   13  N2  UNL     1       4.536  12.235  46.475  1.00  0.00    -0.143 N 
HETATM   14  O1  UNL     1       3.323  12.089  46.688  1.00  0.00    -0.536 OA
HETATM   15  O2  UNL     1       5.335  12.558  47.536  1.00  0.00    -0.536 OA
ENDBRANCH   6  13
TORSDOF 2
ENDMDL
