MODEL 1
REMARK VINA RESULT: -4.903235399      0.000      0.000
REMARK  1 active torsions:
REMARK  status: ('A' for Active; 'I' for Inactive)
REMARK    1  A    between atoms: C2_2  and  N1_3 
ROOT
HETATM    1  N1  UNL     1       8.785   7.451  42.368  1.00  0.00    -0.345 N 
HETATM    2  C3  UNL     1      10.157   7.016  42.244  1.00  0.00     0.187 C 
HETATM    3  N2  UNL     1      10.825   6.227  43.262  1.00  0.00    -0.064 NA
HETATM    4  N3  UNL     1      10.667   7.420  41.166  1.00  0.00    -0.354 N 
ATOM      5  H3  UNL     1      11.624   7.232  40.870  1.00  0.00     0.163 HD
HETATM    6  C4  UNL     1       9.718   8.180  40.417  1.00  0.00     0.050 C 
HETATM    7  C5  UNL     1       9.222   7.229  39.315  1.00  0.00     0.041 C 
HETATM    8  C6  UNL     1      10.319   9.424  39.817  1.00  0.00     0.041 C 
HETATM    9  C7  UNL     1       8.600   8.453  41.347  1.00  0.00     0.052 C 
HETATM   10  C8  UNL     1       8.643   9.838  41.950  1.00  0.00     0.041 C 
HETATM   11  C9  UNL     1       7.278   8.322  40.626  1.00  0.00     0.041 C 
ENDROOT
BRANCH   1  12
HETATM   12  C2  UNL     1       7.878   6.950  43.361  1.00  0.00     0.122 C 
HETATM   13  C1  UNL     1       7.246   5.634  42.908  1.00  0.00     0.026 C 
ENDBRANCH   1  12
TORSDOF 1
ENDMDL
MODEL 2
REMARK VINA RESULT: -4.793425417      3.408      4.791
REMARK  1 active torsions:
REMARK  status: ('A' for Active; 'I' for Inactive)
REMARK    1  A    between atoms: C2_2  and  N1_3 
ROOT
HETATM    1  N1  UNL     1       6.652   9.161  44.339  1.00  0.00    -0.345 N 
HETATM    2  C3  UNL     1       6.795   9.916  45.562  1.00  0.00     0.187 C 
HETATM    3  N2  UNL     1       6.770   9.296  46.873  1.00  0.00    -0.064 NA
HETATM    4  N3  UNL     1       6.927  11.145  45.325  1.00  0.00    -0.354 N 
ATOM      5  H3  UNL     1       7.044  11.864  46.039  1.00  0.00     0.163 HD
HETATM    6  C4  UNL     1       6.892  11.391  43.919  1.00  0.00     0.050 C 
HETATM    7  C5  UNL     1       8.359  11.602  43.510  1.00  0.00     0.041 C 
HETATM    8  C6  UNL     1       6.061  12.597  43.565  1.00  0.00     0.041 C 
HETATM    9  C7  UNL     1       6.404  10.136  43.306  1.00  0.00     0.052 C 
HETATM   10  C8  UNL     1       4.934  10.171  42.951  1.00  0.00     0.041 C 
HETATM   11  C9  UNL     1       7.164   9.850  42.030  1.00  0.00     0.041 C 
ENDROOT
BRANCH   1  12
HETATM   12  C2  UNL     1       6.724   7.729  44.273  1.00  0.00     0.122 C 
HETATM   13  C1  UNL     1       8.175   7.253  44.358  1.00  0.00     0.026 C 
ENDBRANCH   1  12
TORSDOF 1
ENDMDL
MODEL 3
REMARK VINA RESULT: -4.697433925      1.335      3.615
REMARK  1 active torsions:
REMARK  status: ('A' for Active; 'I' for Inactive)
REMARK    1  A    between atoms: C2_2  and  N1_3 
ROOT
HETATM    1  N1  UNL     1       9.187   6.736  41.761  1.00  0.00    -0.345 N 
HETATM    2  C3  UNL     1       9.775   6.476  43.055  1.00  0.00     0.187 C 
HETATM    3  N2  UNL     1      11.159   6.077  43.221  1.00  0.00    -0.064 NA
HETATM    4  N3  UNL     1       8.932   6.632  43.977  1.00  0.00    -0.354 N 
ATOM      5  H3  UNL     1       9.126   6.503  44.969  1.00  0.00     0.163 HD
HETATM    6  C4  UNL     1       7.665   7.015  43.439  1.00  0.00     0.050 C 
HETATM    7  C5  UNL     1       7.565   8.529  43.688  1.00  0.00     0.041 C 
HETATM    8  C6  UNL     1       6.518   6.290  44.092  1.00  0.00     0.041 C 
HETATM    9  C7  UNL     1       7.763   6.779  41.982  1.00  0.00     0.052 C 
HETATM   10  C8  UNL     1       7.118   5.486  41.537  1.00  0.00     0.041 C 
HETATM   11  C9  UNL     1       7.083   7.899  41.226  1.00  0.00     0.041 C 
ENDROOT
BRANCH   1  12
HETATM   12  C2  UNL     1       9.950   6.874  40.553  1.00  0.00     0.122 C 
HETATM   13  C1  UNL     1      10.638   8.238  40.496  1.00  0.00     0.026 C 
ENDBRANCH   1  12
TORSDOF 1
ENDMDL
MODEL 4
REMARK VINA RESULT: -4.663860893      1.664      2.488
REMARK  1 active torsions:
REMARK  status: ('A' for Active; 'I' for Inactive)
REMARK    1  A    between atoms: C2_2  and  N1_3 
ROOT
HETATM    1  N1  UNL     1       8.255   7.760  43.133  1.00  0.00    -0.345 N 
HETATM    2  C3  UNL     1       8.842   6.580  43.722  1.00  0.00     0.187 C 
HETATM    3  N2  UNL     1       9.208   6.502  45.124  1.00  0.00    -0.064 NA
HETATM    4  N3  UNL     1       8.992   5.669  42.866  1.00  0.00    -0.354 N 
ATOM      5  H3  UNL     1       9.387   4.749  43.059  1.00  0.00     0.163 HD
HETATM    6  C4  UNL     1       8.530   6.105  41.586  1.00  0.00     0.050 C 
HETATM    7  C5  UNL     1       7.154   5.442  41.408  1.00  0.00     0.041 C 
HETATM    8  C6  UNL     1       9.462   5.707  40.471  1.00  0.00     0.041 C 
HETATM    9  C7  UNL     1       8.341   7.567  41.706  1.00  0.00     0.052 C 
HETATM   10  C8  UNL     1       9.484   8.371  41.130  1.00  0.00     0.041 C 
HETATM   11  C9  UNL     1       7.086   7.992  40.977  1.00  0.00     0.041 C 
ENDROOT
BRANCH   1  12
HETATM   12  C2  UNL     1       7.747   8.864  43.897  1.00  0.00     0.122 C 
HETATM   13  C1  UNL     1       6.381   8.528  44.496  1.00  0.00     0.026 C 
ENDBRANCH   1  12
TORSDOF 1
ENDMDL
MODEL 5
REMARK VINA RESULT: -4.632234971      1.938      2.563
REMARK  1 active torsions:
REMARK  status: ('A' for Active; 'I' for Inactive)
REMARK    1  A    between atoms: C2_2  and  N1_3 
ROOT
HETATM    1  N1  UNL     1       7.474   8.338  44.007  1.00  0.00    -0.345 N 
HETATM    2  C3  UNL     1       8.534   7.413  43.682  1.00  0.00     0.187 C 
HETATM    3  N2  UNL     1       9.066   6.462  44.640  1.00  0.00    -0.064 NA
HETATM    4  N3  UNL     1       8.919   7.560  42.493  1.00  0.00    -0.354 N 
ATOM      5  H3  UNL     1       9.656   7.014  42.048  1.00  0.00     0.163 HD
HETATM    6  C4  UNL     1       8.177   8.600  41.852  1.00  0.00     0.050 C 
HETATM    7  C5  UNL     1       7.150   7.874  40.968  1.00  0.00     0.041 C 
HETATM    8  C6  UNL     1       9.050   9.504  41.022  1.00  0.00     0.041 C 
HETATM    9  C7  UNL     1       7.457   9.303  42.936  1.00  0.00     0.052 C 
HETATM   10  C8  UNL     1       8.128  10.588  43.369  1.00  0.00     0.041 C 
HETATM   11  C9  UNL     1       6.058   9.661  42.487  1.00  0.00     0.041 C 
ENDROOT
BRANCH   1  12
HETATM   12  C2  UNL     1       6.677   8.249  45.197  1.00  0.00     0.122 C 
HETATM   13  C1  UNL     1       7.352   8.977  46.361  1.00  0.00     0.026 C 
ENDBRANCH   1  12
TORSDOF 1
ENDMDL
