MODEL 1
REMARK VINA RESULT: -4.630615772      0.000      0.000
REMARK  1 active torsions:
REMARK  status: ('A' for Active; 'I' for Inactive)
REMARK    1  A    between atoms: C2_2  and  N1_3 
ROOT
HETATM    1  N1  UNL     1       4.662  13.151  42.482  1.00  0.00    -0.363 N 
HETATM    2  C3  UNL     1       4.852  14.563  42.785  1.00  0.00     0.200 C 
HETATM    3  S1  UNL     1       4.607  14.766  44.562  1.00  0.00    -0.119 SA
HETATM    4  C4  UNL     1       4.698  13.189  45.434  1.00  0.00     0.074 C 
HETATM    5  C5  UNL     1       5.763  13.269  46.536  1.00  0.00     0.050 C 
HETATM    6  C6  UNL     1       3.406  12.897  46.163  1.00  0.00     0.050 C 
HETATM    7  N2  UNL     1       5.064  12.097  44.612  1.00  0.00    -0.362 N 
ATOM      8  H2  UNL     1       5.371  11.244  45.079  1.00  0.00     0.162 HD
HETATM    9  C7  UNL     1       5.044  12.090  43.335  1.00  0.00     0.072 C 
HETATM   10  C8  UNL     1       5.503  10.806  42.673  1.00  0.00     0.088 C 
ENDROOT
BRANCH   1  11
HETATM   11  C2  UNL     1       4.071  12.852  41.195  1.00  0.00     0.120 C 
HETATM   12  C1  UNL     1       3.371  14.072  40.622  1.00  0.00     0.026 C 
ENDBRANCH   1  11
TORSDOF 1
ENDMDL
MODEL 2
REMARK VINA RESULT: -4.624595661      1.870      3.260
REMARK  1 active torsions:
REMARK  status: ('A' for Active; 'I' for Inactive)
REMARK    1  A    between atoms: C2_2  and  N1_3 
ROOT
HETATM    1  N1  UNL     1       4.779  12.596  44.374  1.00  0.00    -0.363 N 
HETATM    2  C3  UNL     1       4.174  11.972  45.543  1.00  0.00     0.200 C 
HETATM    3  S1  UNL     1       4.522  13.037  46.958  1.00  0.00    -0.119 SA
HETATM    4  C4  UNL     1       5.038  14.688  46.442  1.00  0.00     0.074 C 
HETATM    5  C5  UNL     1       4.125  15.739  47.085  1.00  0.00     0.050 C 
HETATM    6  C6  UNL     1       6.424  15.008  46.958  1.00  0.00     0.050 C 
HETATM    7  N2  UNL     1       4.964  14.903  45.046  1.00  0.00    -0.362 N 
ATOM      8  H2  UNL     1       5.001  15.869  44.721  1.00  0.00     0.162 HD
HETATM    9  C7  UNL     1       4.853  13.991  44.159  1.00  0.00     0.072 C 
HETATM   10  C8  UNL     1       4.770  14.471  42.723  1.00  0.00     0.088 C 
ENDROOT
BRANCH   1  11
HETATM   11  C2  UNL     1       5.299  11.693  43.370  1.00  0.00     0.120 C 
HETATM   12  C1  UNL     1       5.299  10.260  43.876  1.00  0.00     0.026 C 
ENDBRANCH   1  11
TORSDOF 1
ENDMDL
MODEL 3
REMARK VINA RESULT: -4.504767448      1.808      2.389
REMARK  1 active torsions:
REMARK  status: ('A' for Active; 'I' for Inactive)
REMARK    1  A    between atoms: C2_2  and  N1_3 
ROOT
HETATM    1  N1  UNL     1       5.281  11.101  43.801  1.00  0.00    -0.363 N 
HETATM    2  C3  UNL     1       4.899  12.400  43.263  1.00  0.00     0.200 C 
HETATM    3  S1  UNL     1       4.406  13.433  44.659  1.00  0.00    -0.119 SA
HETATM    4  C4  UNL     1       4.980  12.754  46.230  1.00  0.00     0.074 C 
HETATM    5  C5  UNL     1       5.814  13.805  46.973  1.00  0.00     0.050 C 
HETATM    6  C6  UNL     1       3.817  12.457  47.150  1.00  0.00     0.050 C 
HETATM    7  N2  UNL     1       5.812  11.617  46.095  1.00  0.00    -0.362 N 
ATOM      8  H2  UNL     1       6.361  11.341  46.909  1.00  0.00     0.162 HD
HETATM    9  C7  UNL     1       5.934  10.907  45.040  1.00  0.00     0.072 C 
HETATM   10  C8  UNL     1       6.905   9.747  45.132  1.00  0.00     0.088 C 
ENDROOT
BRANCH   1  11
HETATM   11  C2  UNL     1       4.986   9.957  42.966  1.00  0.00     0.120 C 
HETATM   12  C1  UNL     1       5.011  10.337  41.495  1.00  0.00     0.026 C 
ENDBRANCH   1  11
TORSDOF 1
ENDMDL
MODEL 4
REMARK VINA RESULT: -4.491569307      1.742      1.902
REMARK  1 active torsions:
REMARK  status: ('A' for Active; 'I' for Inactive)
REMARK    1  A    between atoms: C2_2  and  N1_3 
ROOT
HETATM    1  N1  UNL     1       4.563  13.970  43.379  1.00  0.00    -0.363 N 
HETATM    2  C3  UNL     1       5.059  15.292  43.017  1.00  0.00     0.200 C 
HETATM    3  S1  UNL     1       4.920  16.335  44.484  1.00  0.00    -0.119 SA
HETATM    4  C4  UNL     1       4.702  15.355  45.984  1.00  0.00     0.074 C 
HETATM    5  C5  UNL     1       5.794  15.713  46.999  1.00  0.00     0.050 C 
HETATM    6  C6  UNL     1       3.401  15.701  46.673  1.00  0.00     0.050 C 
HETATM    7  N2  UNL     1       4.800  13.958  45.777  1.00  0.00    -0.362 N 
ATOM      8  H2  UNL     1       4.933  13.374  46.602  1.00  0.00     0.162 HD
HETATM    9  C7  UNL     1       4.738  13.369  44.646  1.00  0.00     0.072 C 
HETATM   10  C8  UNL     1       4.891  11.861  44.676  1.00  0.00     0.088 C 
ENDROOT
BRANCH   1  11
HETATM   11  C2  UNL     1       3.881  13.241  42.332  1.00  0.00     0.120 C 
HETATM   12  C1  UNL     1       3.952  13.990  41.012  1.00  0.00     0.026 C 
ENDBRANCH   1  11
TORSDOF 1
ENDMDL
MODEL 5
REMARK VINA RESULT: -4.450690589      1.601      2.999
REMARK  1 active torsions:
REMARK  status: ('A' for Active; 'I' for Inactive)
REMARK    1  A    between atoms: C2_2  and  N1_3 
ROOT
HETATM    1  N1  UNL     1       4.835  12.140  43.225  1.00  0.00    -0.363 N 
HETATM    2  C3  UNL     1       4.676  11.508  44.528  1.00  0.00     0.200 C 
HETATM    3  S1  UNL     1       4.437  12.828  45.736  1.00  0.00    -0.119 SA
HETATM    4  C4  UNL     1       3.993  14.387  44.945  1.00  0.00     0.074 C 
HETATM    5  C5  UNL     1       2.675  14.908  45.533  1.00  0.00     0.050 C 
HETATM    6  C6  UNL     1       5.010  15.463  45.256  1.00  0.00     0.050 C 
HETATM    7  N2  UNL     1       3.786  14.285  43.549  1.00  0.00    -0.362 N 
ATOM      8  H2  UNL     1       3.300  15.057  43.092  1.00  0.00     0.162 HD
HETATM    9  C7  UNL     1       4.156  13.309  42.813  1.00  0.00     0.072 C 
HETATM   10  C8  UNL     1       3.803  13.417  41.343  1.00  0.00     0.088 C 
ENDROOT
BRANCH   1  11
HETATM   11  C2  UNL     1       5.733  11.476  42.304  1.00  0.00     0.120 C 
HETATM   12  C1  UNL     1       5.876  10.004  42.650  1.00  0.00     0.026 C 
ENDBRANCH   1  11
TORSDOF 1
ENDMDL
