MODEL 1
REMARK VINA RESULT: -4.913598458      0.000      0.000
REMARK  2 active torsions:
REMARK  status: ('A' for Active; 'I' for Inactive)
REMARK    1  A    between atoms: C2_2  and  C4_4 
REMARK    2  A    between atoms: C6_8  and  N2_9 
ROOT
HETATM    1  C4  UNL     1       4.449  12.518  44.931  1.00  0.00     0.076 C 
HETATM    2  C5  UNL     1       5.546  12.635  45.968  1.00  0.00     0.137 C 
HETATM    3  N1  UNL     1       6.116  11.370  46.246  1.00  0.00    -0.370 N 
ATOM      4  H1  UNL     1       6.529  11.185  47.160  1.00  0.00     0.161 HD
HETATM    5  C6  UNL     1       6.110  10.474  45.360  1.00  0.00     0.137 C 
HETATM    6  S1  UNL     1       5.279  11.202  43.937  1.00  0.00    -0.087 SA
ENDROOT
BRANCH   1   7
HETATM    7  C2  UNL     1       4.370  13.802  44.171  1.00  0.00    -0.007 C 
HETATM    8  C1  UNL     1       3.955  13.608  42.736  1.00  0.00     0.011 C 
HETATM    9  C3  UNL     1       3.303  14.657  44.828  1.00  0.00     0.011 C 
ENDBRANCH   1   7
BRANCH   5  10
HETATM   10  N2  UNL     1       6.635   9.156  45.462  1.00  0.00    -0.371 N 
HETATM   11  C7  UNL     1       7.593   8.911  46.523  1.00  0.00     0.151 C 
HETATM   12  C8  UNL     1       6.253   8.081  44.566  1.00  0.00     0.151 C 
ENDBRANCH   5  10
TORSDOF 2
ENDMDL
MODEL 2
REMARK VINA RESULT: -4.910096998      3.084      4.706
REMARK  2 active torsions:
REMARK  status: ('A' for Active; 'I' for Inactive)
REMARK    1  A    between atoms: C2_2  and  C4_4 
REMARK    2  A    between atoms: C6_8  and  N2_9 
ROOT
HETATM    1  C4  UNL     1       5.017  13.282  43.203  1.00  0.00     0.076 C 
HETATM    2  C5  UNL     1       4.629  12.511  44.447  1.00  0.00     0.137 C 
HETATM    3  N1  UNL     1       4.892  13.267  45.614  1.00  0.00    -0.370 N 
ATOM      4  H1  UNL     1       5.098  12.795  46.495  1.00  0.00     0.161 HD
HETATM    5  C6  UNL     1       4.870  14.526  45.560  1.00  0.00     0.137 C 
HETATM    6  S1  UNL     1       4.497  14.933  43.844  1.00  0.00    -0.087 SA
ENDROOT
BRANCH   1   7
HETATM    7  C2  UNL     1       4.144  12.840  42.075  1.00  0.00    -0.007 C 
HETATM    8  C1  UNL     1       3.908  13.925  41.058  1.00  0.00     0.011 C 
HETATM    9  C3  UNL     1       4.861  11.711  41.359  1.00  0.00     0.011 C 
ENDBRANCH   1   7
BRANCH   5  10
HETATM   10  N2  UNL     1       5.106  15.440  46.624  1.00  0.00    -0.371 N 
HETATM   11  C7  UNL     1       6.423  15.415  47.231  1.00  0.00     0.151 C 
HETATM   12  C8  UNL     1       4.101  16.368  47.106  1.00  0.00     0.151 C 
ENDBRANCH   5  10
TORSDOF 2
ENDMDL
MODEL 3
REMARK VINA RESULT: -4.880259968      3.394      5.501
REMARK  2 active torsions:
REMARK  status: ('A' for Active; 'I' for Inactive)
REMARK    1  A    between atoms: C2_2  and  C4_4 
REMARK    2  A    between atoms: C6_8  and  N2_9 
ROOT
HETATM    1  C4  UNL     1       4.229  13.125  44.658  1.00  0.00     0.076 C 
HETATM    2  C5  UNL     1       3.491  14.289  44.030  1.00  0.00     0.137 C 
HETATM    3  N1  UNL     1       3.225  15.296  44.989  1.00  0.00    -0.370 N 
ATOM      4  H1  UNL     1       2.417  15.908  44.877  1.00  0.00     0.161 HD
HETATM    5  C6  UNL     1       3.990  15.431  45.981  1.00  0.00     0.137 C 
HETATM    6  S1  UNL     1       5.249  14.154  45.803  1.00  0.00    -0.087 SA
ENDROOT
BRANCH   1   7
HETATM    7  C2  UNL     1       5.077  12.477  43.613  1.00  0.00    -0.007 C 
HETATM    8  C1  UNL     1       5.091  10.975  43.720  1.00  0.00     0.011 C 
HETATM    9  C3  UNL     1       4.476  12.818  42.263  1.00  0.00     0.011 C 
ENDBRANCH   1   7
BRANCH   5  10
HETATM   10  N2  UNL     1       3.879  16.382  47.033  1.00  0.00    -0.371 N 
HETATM   11  C7  UNL     1       4.975  16.444  47.981  1.00  0.00     0.151 C 
HETATM   12  C8  UNL     1       2.738  17.265  47.183  1.00  0.00     0.151 C 
ENDBRANCH   5  10
TORSDOF 2
ENDMDL
MODEL 4
REMARK VINA RESULT: -4.877074526      0.179      1.082
REMARK  2 active torsions:
REMARK  status: ('A' for Active; 'I' for Inactive)
REMARK    1  A    between atoms: C2_2  and  C4_4 
REMARK    2  A    between atoms: C6_8  and  N2_9 
ROOT
HETATM    1  C4  UNL     1       4.382  12.612  45.035  1.00  0.00     0.076 C 
HETATM    2  C5  UNL     1       5.472  12.719  46.081  1.00  0.00     0.137 C 
HETATM    3  N1  UNL     1       6.071  11.458  46.319  1.00  0.00    -0.370 N 
ATOM      4  H1  UNL     1       6.485  11.251  47.228  1.00  0.00     0.161 HD
HETATM    5  C6  UNL     1       6.090  10.593  45.403  1.00  0.00     0.137 C 
HETATM    6  S1  UNL     1       5.247  11.350  44.001  1.00  0.00    -0.087 SA
ENDROOT
BRANCH   1   7
HETATM    7  C2  UNL     1       4.277  13.919  44.319  1.00  0.00    -0.007 C 
HETATM    8  C1  UNL     1       3.890  13.763  42.872  1.00  0.00     0.011 C 
HETATM    9  C3  UNL     1       3.175  14.718  44.988  1.00  0.00     0.011 C 
ENDBRANCH   1   7
BRANCH   5  10
HETATM   10  N2  UNL     1       6.644   9.285  45.462  1.00  0.00    -0.371 N 
HETATM   11  C7  UNL     1       6.232   8.349  44.434  1.00  0.00     0.151 C 
HETATM   12  C8  UNL     1       7.583   8.870  46.488  1.00  0.00     0.151 C 
ENDBRANCH   5  10
TORSDOF 2
ENDMDL
MODEL 5
REMARK VINA RESULT: -4.873504978      2.601      3.754
REMARK  2 active torsions:
REMARK  status: ('A' for Active; 'I' for Inactive)
REMARK    1  A    between atoms: C2_2  and  C4_4 
REMARK    2  A    between atoms: C6_8  and  N2_9 
ROOT
HETATM    1  C4  UNL     1       3.769  14.907  45.542  1.00  0.00     0.076 C 
HETATM    2  C5  UNL     1       4.408  13.719  46.229  1.00  0.00     0.137 C 
HETATM    3  N1  UNL     1       4.534  12.627  45.338  1.00  0.00    -0.370 N 
ATOM      4  H1  UNL     1       4.531  11.671  45.696  1.00  0.00     0.161 HD
HETATM    5  C6  UNL     1       4.648  12.839  44.101  1.00  0.00     0.137 C 
HETATM    6  S1  UNL     1       4.581  14.630  43.907  1.00  0.00    -0.087 SA
ENDROOT
BRANCH   1   7
HETATM    7  C2  UNL     1       4.268  16.159  46.188  1.00  0.00    -0.007 C 
HETATM    8  C1  UNL     1       3.298  16.725  47.191  1.00  0.00     0.011 C 
HETATM    9  C3  UNL     1       5.533  15.807  46.947  1.00  0.00     0.011 C 
ENDBRANCH   1   7
BRANCH   5  10
HETATM   10  N2  UNL     1       4.784  11.872  43.068  1.00  0.00    -0.371 N 
HETATM   11  C7  UNL     1       4.592  12.333  41.706  1.00  0.00     0.151 C 
HETATM   12  C8  UNL     1       5.101  10.480  43.325  1.00  0.00     0.151 C 
ENDBRANCH   5  10
TORSDOF 2
ENDMDL
