MODEL 1
REMARK VINA RESULT: -5.226831478      0.000      0.000
REMARK  1 active torsions:
REMARK  status: ('A' for Active; 'I' for Inactive)
REMARK    1  A    between atoms: N1_4  and  C4_5 
ROOT
HETATM    1  C1  UNL     1       4.810  13.263  41.876  1.00  0.00     0.007 C 
HETATM    2  C2  UNL     1       4.692  11.972  42.644  1.00  0.00     0.044 C 
HETATM    3  C3  UNL     1       4.883  12.170  44.133  1.00  0.00     0.058 C 
HETATM    4  N1  UNL     1       4.139  13.187  44.704  1.00  0.00    -0.388 N 
HETATM    5  C8  UNL     1       3.704  14.195  43.798  1.00  0.00     0.122 C 
HETATM    6  C9  UNL     1       4.837  14.457  42.829  1.00  0.00     0.020 C 
ENDROOT
BRANCH   4   7
HETATM    7  C4  UNL     1       4.118  13.470  46.056  1.00  0.00     0.093 C 
HETATM    8  C5  UNL     1       5.318  13.222  46.879  1.00  0.00     0.036 C 
HETATM    9  C6  UNL     1       6.291  14.324  46.819  1.00  0.00     0.076 C 
HETATM   10  S1  UNL     1       5.224  15.772  46.459  1.00  0.00    -0.167 SA
HETATM   11  C7  UNL     1       3.629  14.886  46.309  1.00  0.00     0.099 C 
ENDBRANCH   4   7
TORSDOF 1
ENDMDL
MODEL 2
REMARK VINA RESULT: -5.007263468      0.816      1.678
REMARK  1 active torsions:
REMARK  status: ('A' for Active; 'I' for Inactive)
REMARK    1  A    between atoms: N1_4  and  C4_5 
ROOT
HETATM    1  C1  UNL     1       4.688  12.349  41.128  1.00  0.00     0.007 C 
HETATM    2  C2  UNL     1       4.299  13.751  41.522  1.00  0.00     0.044 C 
HETATM    3  C3  UNL     1       3.741  13.818  42.928  1.00  0.00     0.058 C 
HETATM    4  N1  UNL     1       4.494  13.190  43.904  1.00  0.00    -0.388 N 
HETATM    5  C8  UNL     1       5.377  12.181  43.426  1.00  0.00     0.122 C 
HETATM    6  C9  UNL     1       4.651  11.418  42.338  1.00  0.00     0.020 C 
ENDROOT
BRANCH   4   7
HETATM    7  C4  UNL     1       4.191  13.210  45.252  1.00  0.00     0.093 C 
HETATM    8  C5  UNL     1       5.248  12.952  46.249  1.00  0.00     0.036 C 
HETATM    9  C6  UNL     1       6.040  14.151  46.566  1.00  0.00     0.076 C 
HETATM   10  S1  UNL     1       4.849  15.508  46.237  1.00  0.00    -0.167 SA
HETATM   11  C7  UNL     1       3.458  14.487  45.626  1.00  0.00     0.099 C 
ENDBRANCH   4   7
TORSDOF 1
ENDMDL
MODEL 3
REMARK VINA RESULT: -4.850963817      1.912      4.101
REMARK  1 active torsions:
REMARK  status: ('A' for Active; 'I' for Inactive)
REMARK    1  A    between atoms: N1_4  and  C4_5 
ROOT
HETATM    1  C1  UNL     1       5.687  15.877  47.279  1.00  0.00     0.007 C 
HETATM    2  C2  UNL     1       6.424  14.615  46.916  1.00  0.00     0.044 C 
HETATM    3  C3  UNL     1       5.538  13.619  46.195  1.00  0.00     0.058 C 
HETATM    4  N1  UNL     1       4.811  14.123  45.132  1.00  0.00    -0.388 N 
HETATM    5  C8  UNL     1       4.598  15.530  45.162  1.00  0.00     0.122 C 
HETATM    6  C9  UNL     1       4.319  15.918  46.599  1.00  0.00     0.020 C 
ENDROOT
BRANCH   4   7
HETATM    7  C4  UNL     1       4.010  13.357  44.307  1.00  0.00     0.093 C 
HETATM    8  C5  UNL     1       3.673  13.840  42.953  1.00  0.00     0.036 C 
HETATM    9  C6  UNL     1       4.718  13.541  41.962  1.00  0.00     0.076 C 
HETATM   10  S1  UNL     1       5.505  12.038  42.660  1.00  0.00    -0.167 SA
HETATM   11  C7  UNL     1       4.533  11.934  44.208  1.00  0.00     0.099 C 
ENDBRANCH   4   7
TORSDOF 1
ENDMDL
MODEL 4
REMARK VINA RESULT: -4.662434781      2.824      4.473
REMARK  1 active torsions:
REMARK  status: ('A' for Active; 'I' for Inactive)
REMARK    1  A    between atoms: N1_4  and  C4_5 
ROOT
HETATM    1  C1  UNL     1       4.238  14.547  44.033  1.00  0.00     0.007 C 
HETATM    2  C2  UNL     1       4.924  13.660  45.040  1.00  0.00     0.044 C 
HETATM    3  C3  UNL     1       4.778  12.190  44.705  1.00  0.00     0.058 C 
HETATM    4  N1  UNL     1       5.085  11.838  43.403  1.00  0.00    -0.388 N 
HETATM    5  C8  UNL     1       5.008  12.899  42.458  1.00  0.00     0.122 C 
HETATM    6  C9  UNL     1       3.799  13.738  42.813  1.00  0.00     0.020 C 
ENDROOT
BRANCH   4   7
HETATM    7  C4  UNL     1       5.087  10.539  42.930  1.00  0.00     0.093 C 
HETATM    8  C5  UNL     1       5.671  10.238  41.608  1.00  0.00     0.036 C 
HETATM    9  C6  UNL     1       7.131  10.062  41.654  1.00  0.00     0.076 C 
HETATM   10  S1  UNL     1       7.405   9.480  43.372  1.00  0.00    -0.167 SA
HETATM   11  C7  UNL     1       5.674   9.587  43.958  1.00  0.00     0.099 C 
ENDBRANCH   4   7
TORSDOF 1
ENDMDL
MODEL 5
REMARK VINA RESULT: -4.621188645      1.525      2.747
REMARK  1 active torsions:
REMARK  status: ('A' for Active; 'I' for Inactive)
REMARK    1  A    between atoms: N1_4  and  C4_5 
ROOT
HETATM    1  C1  UNL     1       4.827  11.459  44.702  1.00  0.00     0.007 C 
HETATM    2  C2  UNL     1       5.220  11.790  46.118  1.00  0.00     0.044 C 
HETATM    3  C3  UNL     1       5.720  13.213  46.258  1.00  0.00     0.058 C 
HETATM    4  N1  UNL     1       4.916  14.189  45.698  1.00  0.00    -0.388 N 
HETATM    5  C8  UNL     1       4.039  13.732  44.675  1.00  0.00     0.122 C 
HETATM    6  C9  UNL     1       4.798  12.721  43.842  1.00  0.00     0.020 C 
ENDROOT
BRANCH   4   7
HETATM    7  C4  UNL     1       5.164  15.546  45.790  1.00  0.00     0.093 C 
HETATM    8  C5  UNL     1       4.085  16.512  45.506  1.00  0.00     0.036 C 
HETATM    9  C6  UNL     1       3.208  16.748  46.663  1.00  0.00     0.076 C 
HETATM   10  S1  UNL     1       4.325  16.408  48.079  1.00  0.00    -0.167 SA
HETATM   11  C7  UNL     1       5.800  15.894  47.125  1.00  0.00     0.099 C 
ENDBRANCH   4   7
TORSDOF 1
ENDMDL
