MODEL 1
REMARK VINA RESULT: -4.826877975      0.000      0.000
REMARK  1 active torsions:
REMARK  status: ('A' for Active; 'I' for Inactive)
REMARK    1  A    between atoms: C7_8  and  O1_10 
ROOT
HETATM    1  C1  UNL     1       4.483  12.735  41.557  1.00  0.00     0.015 C 
HETATM    2  C2  UNL     1       4.765  13.024  43.014  1.00  0.00     0.044 C 
HETATM    3  C3  UNL     1       3.562  13.772  43.560  1.00  0.00     0.279 C 
HETATM    4  N1  UNL     1       3.792  14.043  44.944  1.00  0.00     0.084 N 
HETATM    5  C4  UNL     1       2.699  14.874  45.470  1.00  0.00     0.309 C 
HETATM    6  C5  UNL     1       3.962  12.895  45.765  1.00  0.00     0.275 C 
HETATM    7  C6  UNL     1       4.444  11.673  45.109  1.00  0.00     0.068 C 
HETATM    8  C7  UNL     1       5.137  11.830  43.808  1.00  0.00     0.061 C 
HETATM    9  C8  UNL     1       6.661  11.815  43.947  1.00  0.00     0.046 C 
ENDROOT
BRANCH   8  10
HETATM   10  O1  UNL     1       4.824  10.689  43.031  1.00  0.00    -0.390 OA
ATOM     11  H1  UNL     1       4.227  10.152  43.540  1.00  0.00     0.210 HD
ENDBRANCH   8  10
TORSDOF 1
ENDMDL
MODEL 2
REMARK VINA RESULT: -4.611921429      2.005      3.564
REMARK  1 active torsions:
REMARK  status: ('A' for Active; 'I' for Inactive)
REMARK    1  A    between atoms: C7_8  and  O1_10 
ROOT
HETATM    1  C1  UNL     1       3.069  15.448  46.385  1.00  0.00     0.015 C 
HETATM    2  C2  UNL     1       3.095  14.178  45.566  1.00  0.00     0.044 C 
HETATM    3  C3  UNL     1       3.670  14.536  44.207  1.00  0.00     0.279 C 
HETATM    4  N1  UNL     1       3.724  13.349  43.415  1.00  0.00     0.084 N 
HETATM    5  C4  UNL     1       4.162  13.687  42.052  1.00  0.00     0.309 C 
HETATM    6  C5  UNL     1       4.539  12.309  43.939  1.00  0.00     0.275 C 
HETATM    7  C6  UNL     1       4.755  12.299  45.391  1.00  0.00     0.068 C 
HETATM    8  C7  UNL     1       3.782  13.044  46.226  1.00  0.00     0.061 C 
HETATM    9  C8  UNL     1       2.711  12.136  46.834  1.00  0.00     0.046 C 
ENDROOT
BRANCH   8  10
HETATM   10  O1  UNL     1       4.498  13.566  47.330  1.00  0.00    -0.390 OA
ATOM     11  H1  UNL     1       5.421  13.397  47.178  1.00  0.00     0.210 HD
ENDBRANCH   8  10
TORSDOF 1
ENDMDL
MODEL 3
REMARK VINA RESULT: -4.575860044      2.111      3.833
REMARK  1 active torsions:
REMARK  status: ('A' for Active; 'I' for Inactive)
REMARK    1  A    between atoms: C7_8  and  O1_10 
ROOT
HETATM    1  C1  UNL     1       3.297  13.699  45.994  1.00  0.00     0.015 C 
HETATM    2  C2  UNL     1       4.188  13.535  44.784  1.00  0.00     0.044 C 
HETATM    3  C3  UNL     1       4.303  12.046  44.515  1.00  0.00     0.279 C 
HETATM    4  N1  UNL     1       5.126  11.860  43.362  1.00  0.00     0.084 N 
HETATM    5  C4  UNL     1       5.357  10.423  43.148  1.00  0.00     0.309 C 
HETATM    6  C5  UNL     1       4.636  12.452  42.167  1.00  0.00     0.275 C 
HETATM    7  C6  UNL     1       3.731  13.600  42.314  1.00  0.00     0.068 C 
HETATM    8  C7  UNL     1       3.762  14.325  43.607  1.00  0.00     0.061 C 
HETATM    9  C8  UNL     1       4.624  15.588  43.552  1.00  0.00     0.046 C 
ENDROOT
BRANCH   8  10
HETATM   10  O1  UNL     1       2.446  14.784  43.855  1.00  0.00    -0.390 OA
ATOM     11  H1  UNL     1       2.199  15.348  43.132  1.00  0.00     0.210 HD
ENDBRANCH   8  10
TORSDOF 1
ENDMDL
MODEL 4
REMARK VINA RESULT: -4.483024218      1.590      2.104
REMARK  1 active torsions:
REMARK  status: ('A' for Active; 'I' for Inactive)
REMARK    1  A    between atoms: C7_8  and  O1_10 
ROOT
HETATM    1  C1  UNL     1       4.820  12.823  42.616  1.00  0.00     0.015 C 
HETATM    2  C2  UNL     1       5.493  12.473  43.924  1.00  0.00     0.044 C 
HETATM    3  C3  UNL     1       4.406  12.413  44.982  1.00  0.00     0.279 C 
HETATM    4  N1  UNL     1       5.011  12.065  46.228  1.00  0.00     0.084 N 
HETATM    5  C4  UNL     1       4.002  12.120  47.297  1.00  0.00     0.309 C 
HETATM    6  C5  UNL     1       5.669  10.806  46.251  1.00  0.00     0.275 C 
HETATM    7  C6  UNL     1       6.152  10.283  44.966  1.00  0.00     0.068 C 
HETATM    8  C7  UNL     1       6.338  11.259  43.865  1.00  0.00     0.061 C 
HETATM    9  C8  UNL     1       7.794  11.706  43.716  1.00  0.00     0.046 C 
ENDROOT
BRANCH   8  10
HETATM   10  O1  UNL     1       6.031  10.585  42.659  1.00  0.00    -0.390 OA
ATOM     11  H1  UNL     1       6.422  11.079  41.947  1.00  0.00     0.210 HD
ENDBRANCH   8  10
TORSDOF 1
ENDMDL
MODEL 5
REMARK VINA RESULT: -4.347854197      1.632      2.465
REMARK  1 active torsions:
REMARK  status: ('A' for Active; 'I' for Inactive)
REMARK    1  A    between atoms: C7_8  and  O1_10 
ROOT
HETATM    1  C1  UNL     1       5.546  10.071  42.088  1.00  0.00     0.015 C 
HETATM    2  C2  UNL     1       5.492  11.534  42.464  1.00  0.00     0.044 C 
HETATM    3  C3  UNL     1       4.435  12.180  41.587  1.00  0.00     0.279 C 
HETATM    4  N1  UNL     1       4.348  13.563  41.934  1.00  0.00     0.084 N 
HETATM    5  C4  UNL     1       3.420  14.242  41.016  1.00  0.00     0.309 C 
HETATM    6  C5  UNL     1       3.974  13.827  43.279  1.00  0.00     0.275 C 
HETATM    7  C6  UNL     1       4.266  12.782  44.269  1.00  0.00     0.068 C 
HETATM    8  C7  UNL     1       5.300  11.781  43.911  1.00  0.00     0.061 C 
HETATM    9  C8  UNL     1       6.667  12.105  44.518  1.00  0.00     0.046 C 
ENDROOT
BRANCH   8  10
HETATM   10  O1  UNL     1       4.911  10.555  44.504  1.00  0.00    -0.390 OA
ATOM     11  H1  UNL     1       5.576  10.323  45.143  1.00  0.00     0.210 HD
ENDBRANCH   8  10
TORSDOF 1
ENDMDL
