MODEL 1
REMARK VINA RESULT: -5.166807743      0.000      0.000
REMARK  0 active torsions:
REMARK  status: ('A' for Active; 'I' for Inactive)
ROOT
HETATM    1  C1  UNL     1       4.368  12.554  40.738  1.00  0.00     0.010 C 
HETATM    2  C2  UNL     1       4.072  12.529  42.226  1.00  0.00    -0.015 C 
HETATM    3  C3  UNL     1       4.300  13.932  42.720  1.00  0.00     0.025 C 
HETATM    4  C4  UNL     1       4.281  14.039  44.220  1.00  0.00     0.135 C 
HETATM    5  N1  UNL     1       4.450  12.763  44.865  1.00  0.00    -0.316 N 
HETATM    6  C5  UNL     1       3.782  12.514  46.058  1.00  0.00     0.180 C 
HETATM    7  N2  UNL     1       3.233  12.290  47.054  1.00  0.00    -0.172 NA
HETATM    8  C6  UNL     1       5.287  11.766  44.293  1.00  0.00     0.091 C 
HETATM    9  C7  UNL     1       6.777  12.078  44.484  1.00  0.00     0.033 C 
HETATM   10  C8  UNL     1       4.958  11.508  42.851  1.00  0.00     0.030 C 
ENDROOT
TORSDOF 0
ENDMDL
MODEL 2
REMARK VINA RESULT: -5.096200163      2.137      2.581
REMARK  0 active torsions:
REMARK  status: ('A' for Active; 'I' for Inactive)
ROOT
HETATM    1  C1  UNL     1       4.266  12.767  41.964  1.00  0.00     0.010 C 
HETATM    2  C2  UNL     1       4.765  11.873  43.083  1.00  0.00    -0.015 C 
HETATM    3  C3  UNL     1       4.927  12.762  44.286  1.00  0.00     0.025 C 
HETATM    4  C4  UNL     1       5.639  12.088  45.426  1.00  0.00     0.135 C 
HETATM    5  N1  UNL     1       6.356  10.912  45.008  1.00  0.00    -0.316 N 
HETATM    6  C5  UNL     1       6.438   9.827  45.872  1.00  0.00     0.180 C 
HETATM    7  N2  UNL     1       6.517   8.912  46.581  1.00  0.00    -0.172 NA
HETATM    8  C6  UNL     1       6.974  10.855  43.729  1.00  0.00     0.091 C 
HETATM    9  C7  UNL     1       8.263  11.683  43.667  1.00  0.00     0.033 C 
HETATM   10  C8  UNL     1       6.026  11.228  42.625  1.00  0.00     0.030 C 
ENDROOT
TORSDOF 0
ENDMDL
MODEL 3
REMARK VINA RESULT: -5.079012309      2.334      3.194
REMARK  0 active torsions:
REMARK  status: ('A' for Active; 'I' for Inactive)
ROOT
HETATM    1  C1  UNL     1       3.974  13.798  43.627  1.00  0.00     0.010 C 
HETATM    2  C2  UNL     1       4.457  12.392  43.932  1.00  0.00    -0.015 C 
HETATM    3  C3  UNL     1       4.861  12.396  45.381  1.00  0.00     0.025 C 
HETATM    4  C4  UNL     1       5.586  11.145  45.793  1.00  0.00     0.135 C 
HETATM    5  N1  UNL     1       6.089  10.403  44.667  1.00  0.00    -0.316 N 
HETATM    6  C5  UNL     1       6.109   9.015  44.725  1.00  0.00     0.180 C 
HETATM    7  N2  UNL     1       6.133   7.856  44.756  1.00  0.00    -0.172 NA
HETATM    8  C6  UNL     1       6.559  11.076  43.506  1.00  0.00     0.091 C 
HETATM    9  C7  UNL     1       7.937  11.714  43.722  1.00  0.00     0.033 C 
HETATM   10  C8  UNL     1       5.565  12.075  42.989  1.00  0.00     0.030 C 
ENDROOT
TORSDOF 0
ENDMDL
MODEL 4
REMARK VINA RESULT: -4.936101096      1.343      1.454
REMARK  0 active torsions:
REMARK  status: ('A' for Active; 'I' for Inactive)
ROOT
HETATM    1  C1  UNL     1       4.714  11.295  40.697  1.00  0.00     0.010 C 
HETATM    2  C2  UNL     1       4.760  11.366  42.212  1.00  0.00    -0.015 C 
HETATM    3  C3  UNL     1       4.723  12.829  42.562  1.00  0.00     0.025 C 
HETATM    4  C4  UNL     1       4.999  13.093  44.016  1.00  0.00     0.135 C 
HETATM    5  N1  UNL     1       5.621  11.973  44.671  1.00  0.00    -0.316 N 
HETATM    6  C5  UNL     1       5.310  11.707  45.999  1.00  0.00     0.180 C 
HETATM    7  N2  UNL     1       5.063  11.472  47.107  1.00  0.00    -0.172 NA
HETATM    8  C6  UNL     1       6.543  11.145  43.973  1.00  0.00     0.091 C 
HETATM    9  C7  UNL     1       7.909  11.818  43.791  1.00  0.00     0.033 C 
HETATM   10  C8  UNL     1       5.989  10.659  42.665  1.00  0.00     0.030 C 
ENDROOT
TORSDOF 0
ENDMDL
MODEL 5
REMARK VINA RESULT: -4.816721836      1.876      4.173
REMARK  0 active torsions:
REMARK  status: ('A' for Active; 'I' for Inactive)
ROOT
HETATM    1  C1  UNL     1       3.750  12.289  47.141  1.00  0.00     0.010 C 
HETATM    2  C2  UNL     1       3.689  12.586  45.655  1.00  0.00    -0.015 C 
HETATM    3  C3  UNL     1       5.099  12.456  45.145  1.00  0.00     0.025 C 
HETATM    4  C4  UNL     1       5.263  12.946  43.734  1.00  0.00     0.135 C 
HETATM    5  N1  UNL     1       4.172  13.787  43.313  1.00  0.00    -0.316 N 
HETATM    6  C5  UNL     1       3.751  13.737  41.989  1.00  0.00     0.180 C 
HETATM    7  N2  UNL     1       3.388  13.708  40.888  1.00  0.00    -0.172 NA
HETATM    8  C6  UNL     1       3.529  14.657  44.235  1.00  0.00     0.091 C 
HETATM    9  C7  UNL     1       4.378  15.893  44.557  1.00  0.00     0.033 C 
HETATM   10  C8  UNL     1       3.099  13.942  45.483  1.00  0.00     0.030 C 
ENDROOT
TORSDOF 0
ENDMDL
