MODEL 1
REMARK VINA RESULT: -4.961519762      0.000      0.000
REMARK  1 active torsions:
REMARK  status: ('A' for Active; 'I' for Inactive)
REMARK    1  A    between atoms: O1_1  and  C1_3 
ROOT
HETATM    1  C1  UNL     1       6.247   8.942  46.230  1.00  0.00     0.158 C 
HETATM    2  C2  UNL     1       6.781   8.184  44.999  1.00  0.00     0.152 C 
HETATM    3  C3  UNL     1       5.716   9.006  44.248  1.00  0.00     0.049 C 
HETATM    4  C4  UNL     1       6.162  10.026  45.263  1.00  0.00     0.017 C 
HETATM    5  C5  UNL     1       5.664  11.320  45.354  1.00  0.00     0.015 C 
HETATM    6  C6  UNL     1       6.580  12.163  44.445  1.00  0.00     0.004 C 
HETATM    7  C7  UNL     1       7.555  11.146  43.823  1.00  0.00     0.033 C 
HETATM    8  C8  UNL     1       7.656  10.160  44.907  1.00  0.00     0.133 C 
HETATM    9  O2  UNL     1       7.913   8.855  44.584  1.00  0.00    -0.377 OA
ENDROOT
BRANCH   1  10
HETATM   10  O1  UNL     1       7.201   9.093  47.226  1.00  0.00    -0.392 OA
ATOM     11  H1  UNL     1       7.342  10.001  47.466  1.00  0.00     0.210 HD
ENDBRANCH   1  10
TORSDOF 1
ENDMDL
MODEL 2
REMARK VINA RESULT: -4.777461850      1.939      2.907
REMARK  1 active torsions:
REMARK  status: ('A' for Active; 'I' for Inactive)
REMARK    1  A    between atoms: O1_1  and  C1_3 
ROOT
HETATM    1  C1  UNL     1       5.965  11.859  45.360  1.00  0.00     0.158 C 
HETATM    2  C2  UNL     1       4.720  11.696  44.466  1.00  0.00     0.152 C 
HETATM    3  C3  UNL     1       5.578  12.450  43.433  1.00  0.00     0.049 C 
HETATM    4  C4  UNL     1       6.644  11.618  44.096  1.00  0.00     0.017 C 
HETATM    5  C5  UNL     1       7.988  11.627  43.743  1.00  0.00     0.015 C 
HETATM    6  C6  UNL     1       8.124  10.530  42.668  1.00  0.00     0.004 C 
HETATM    7  C7  UNL     1       6.690  10.009  42.459  1.00  0.00     0.033 C 
HETATM    8  C8  UNL     1       6.129  10.194  43.805  1.00  0.00     0.133 C 
HETATM    9  O2  UNL     1       4.785  10.427  43.927  1.00  0.00    -0.377 OA
ENDROOT
BRANCH   1  10
HETATM   10  O1  UNL     1       6.082  10.855  46.311  1.00  0.00    -0.392 OA
ATOM     11  H1  UNL     1       6.896  10.901  46.798  1.00  0.00     0.210 HD
ENDBRANCH   1  10
TORSDOF 1
ENDMDL
MODEL 3
REMARK VINA RESULT: -4.765310831      2.406      3.523
REMARK  1 active torsions:
REMARK  status: ('A' for Active; 'I' for Inactive)
REMARK    1  A    between atoms: O1_1  and  C1_3 
ROOT
HETATM    1  C1  UNL     1       5.795  10.526  43.651  1.00  0.00     0.158 C 
HETATM    2  C2  UNL     1       6.384  11.103  44.954  1.00  0.00     0.152 C 
HETATM    3  C3  UNL     1       6.662  12.338  44.076  1.00  0.00     0.049 C 
HETATM    4  C4  UNL     1       5.341  11.901  43.497  1.00  0.00     0.017 C 
HETATM    5  C5  UNL     1       4.675  12.553  42.466  1.00  0.00     0.015 C 
HETATM    6  C6  UNL     1       3.766  13.580  43.169  1.00  0.00     0.004 C 
HETATM    7  C7  UNL     1       4.093  13.431  44.666  1.00  0.00     0.033 C 
HETATM    8  C8  UNL     1       4.429  12.002  44.736  1.00  0.00     0.133 C 
HETATM    9  O2  UNL     1       5.321  11.585  45.688  1.00  0.00    -0.377 OA
ENDROOT
BRANCH   1  10
HETATM   10  O1  UNL     1       4.802   9.584  43.879  1.00  0.00    -0.392 OA
ATOM     11  H1  UNL     1       4.413   9.661  44.742  1.00  0.00     0.210 HD
ENDBRANCH   1  10
TORSDOF 1
ENDMDL
MODEL 4
REMARK VINA RESULT: -4.615969884      1.132      1.267
REMARK  1 active torsions:
REMARK  status: ('A' for Active; 'I' for Inactive)
REMARK    1  A    between atoms: O1_1  and  C1_3 
ROOT
HETATM    1  C1  UNL     1       5.999   8.462  44.580  1.00  0.00     0.158 C 
HETATM    2  C2  UNL     1       7.222   8.447  43.641  1.00  0.00     0.152 C 
HETATM    3  C3  UNL     1       6.327   9.325  42.746  1.00  0.00     0.049 C 
HETATM    4  C4  UNL     1       5.915   9.835  44.103  1.00  0.00     0.017 C 
HETATM    5  C5  UNL     1       4.982  10.842  44.319  1.00  0.00     0.015 C 
HETATM    6  C6  UNL     1       5.802  12.147  44.332  1.00  0.00     0.004 C 
HETATM    7  C7  UNL     1       7.245  11.704  44.028  1.00  0.00     0.033 C 
HETATM    8  C8  UNL     1       7.260  10.367  44.637  1.00  0.00     0.133 C 
HETATM    9  O2  UNL     1       8.088   9.414  44.107  1.00  0.00    -0.377 OA
ENDROOT
BRANCH   1  10
HETATM   10  O1  UNL     1       6.342   8.306  45.914  1.00  0.00    -0.392 OA
ATOM     11  H1  UNL     1       6.599   9.123  46.327  1.00  0.00     0.210 HD
ENDBRANCH   1  10
TORSDOF 1
ENDMDL
MODEL 5
REMARK VINA RESULT: -4.604026418      1.895      3.213
REMARK  1 active torsions:
REMARK  status: ('A' for Active; 'I' for Inactive)
REMARK    1  A    between atoms: O1_1  and  C1_3 
ROOT
HETATM    1  C1  UNL     1       6.567  10.614  42.724  1.00  0.00     0.158 C 
HETATM    2  C2  UNL     1       7.192  10.397  44.116  1.00  0.00     0.152 C 
HETATM    3  C3  UNL     1       7.261  11.936  44.132  1.00  0.00     0.049 C 
HETATM    4  C4  UNL     1       5.955  11.743  43.408  1.00  0.00     0.017 C 
HETATM    5  C5  UNL     1       5.140  12.776  42.958  1.00  0.00     0.015 C 
HETATM    6  C6  UNL     1       4.183  13.066  44.131  1.00  0.00     0.004 C 
HETATM    7  C7  UNL     1       4.644  12.119  45.254  1.00  0.00     0.033 C 
HETATM    8  C8  UNL     1       5.140  10.979  44.470  1.00  0.00     0.133 C 
HETATM    9  O2  UNL     1       6.145  10.211  44.995  1.00  0.00    -0.377 OA
ENDROOT
BRANCH   1  10
HETATM   10  O1  UNL     1       5.705   9.591  42.355  1.00  0.00    -0.392 OA
ATOM     11  H1  UNL     1       5.006   9.886  41.784  1.00  0.00     0.210 HD
ENDBRANCH   1  10
TORSDOF 1
ENDMDL
