MODEL 1
REMARK VINA RESULT: -4.339943153      0.000      0.000
REMARK  2 active torsions:
REMARK  status: ('A' for Active; 'I' for Inactive)
REMARK    1  A    between atoms: C3_3  and  C4_4 
REMARK    2  A    between atoms: C4_4  and  O1_5 
ROOT
HETATM    1  C1  UNL     1       3.555  13.951  42.509  1.00  0.00     0.112 C 
HETATM    2  C2  UNL     1       4.454  13.066  43.264  1.00  0.00    -0.108 C 
HETATM    3  C3  UNL     1       5.202  12.338  43.864  1.00  0.00    -0.068 C 
ENDROOT
BRANCH   3   4
HETATM    4  C4  UNL     1       6.133  11.433  44.581  1.00  0.00     0.130 C 
HETATM    5  C5  UNL     1       5.762  10.023  44.499  1.00  0.00     0.062 C 
HETATM    6  C6  UNL     1       6.291   9.385  43.258  1.00  0.00     0.078 C 
HETATM    7  S1  UNL     1       7.723  10.421  42.793  1.00  0.00    -0.165 SA
HETATM    8  C7  UNL     1       7.496  11.698  44.091  1.00  0.00     0.125 C 
BRANCH   4   9
HETATM    9  O1  UNL     1       6.078  11.834  45.939  1.00  0.00    -0.377 OA
ATOM     10  H1  UNL     1       5.277  12.337  46.022  1.00  0.00     0.211 HD
ENDBRANCH   4   9
ENDBRANCH   3   4
TORSDOF 2
ENDMDL
MODEL 2
REMARK VINA RESULT: -4.313819590      1.043      1.140
REMARK  2 active torsions:
REMARK  status: ('A' for Active; 'I' for Inactive)
REMARK    1  A    between atoms: C3_3  and  C4_4 
REMARK    2  A    between atoms: C4_4  and  O1_5 
ROOT
HETATM    1  C1  UNL     1       3.633  14.056  41.261  1.00  0.00     0.112 C 
HETATM    2  C2  UNL     1       4.153  13.196  42.333  1.00  0.00    -0.108 C 
HETATM    3  C3  UNL     1       4.584  12.476  43.197  1.00  0.00    -0.068 C 
ENDROOT
BRANCH   3   4
HETATM    4  C4  UNL     1       5.115  11.570  44.244  1.00  0.00     0.130 C 
HETATM    5  C5  UNL     1       5.092  10.159  43.868  1.00  0.00     0.062 C 
HETATM    6  C6  UNL     1       6.308   9.776  43.093  1.00  0.00     0.078 C 
HETATM    7  S1  UNL     1       7.564  11.010  43.583  1.00  0.00    -0.165 SA
HETATM    8  C7  UNL     1       6.458  12.042  44.620  1.00  0.00     0.125 C 
BRANCH   4   9
HETATM    9  O1  UNL     1       4.266  11.750  45.364  1.00  0.00    -0.377 OA
ATOM     10  H1  UNL     1       4.640  11.214  46.054  1.00  0.00     0.211 HD
ENDBRANCH   4   9
ENDBRANCH   3   4
TORSDOF 2
ENDMDL
MODEL 3
REMARK VINA RESULT: -4.082648063      2.168      2.746
REMARK  2 active torsions:
REMARK  status: ('A' for Active; 'I' for Inactive)
REMARK    1  A    between atoms: C3_3  and  C4_4 
REMARK    2  A    between atoms: C4_4  and  O1_5 
ROOT
HETATM    1  C1  UNL     1       3.324  12.383  47.140  1.00  0.00     0.112 C 
HETATM    2  C2  UNL     1       4.077  12.201  45.891  1.00  0.00    -0.108 C 
HETATM    3  C3  UNL     1       4.708  12.040  44.878  1.00  0.00    -0.068 C 
ENDROOT
BRANCH   3   4
HETATM    4  C4  UNL     1       5.504  11.832  43.644  1.00  0.00     0.130 C 
HETATM    5  C5  UNL     1       6.946  11.857  43.864  1.00  0.00     0.062 C 
HETATM    6  C6  UNL     1       7.464  10.519  44.277  1.00  0.00     0.078 C 
HETATM    7  S1  UNL     1       6.229   9.337  43.630  1.00  0.00    -0.165 SA
HETATM    8  C7  UNL     1       5.041  10.588  43.006  1.00  0.00     0.125 C 
BRANCH   4   9
HETATM    9  O1  UNL     1       5.161  12.908  42.788  1.00  0.00    -0.377 OA
ATOM     10  H1  UNL     1       4.745  12.508  42.034  1.00  0.00     0.211 HD
ENDBRANCH   4   9
ENDBRANCH   3   4
TORSDOF 2
ENDMDL
MODEL 4
REMARK VINA RESULT: -3.961249286      2.046      3.696
REMARK  2 active torsions:
REMARK  status: ('A' for Active; 'I' for Inactive)
REMARK    1  A    between atoms: C3_3  and  C4_4 
REMARK    2  A    between atoms: C4_4  and  O1_5 
ROOT
HETATM    1  C1  UNL     1      10.568  13.085  43.056  1.00  0.00     0.112 C 
HETATM    2  C2  UNL     1       9.358  12.327  43.403  1.00  0.00    -0.108 C 
HETATM    3  C3  UNL     1       8.376  11.697  43.702  1.00  0.00    -0.068 C 
ENDROOT
BRANCH   3   4
HETATM    4  C4  UNL     1       7.183  10.905  44.086  1.00  0.00     0.130 C 
HETATM    5  C5  UNL     1       6.325  11.569  45.062  1.00  0.00     0.062 C 
HETATM    6  C6  UNL     1       5.352  12.490  44.403  1.00  0.00     0.078 C 
HETATM    7  S1  UNL     1       5.189  11.836  42.705  1.00  0.00    -0.165 SA
HETATM    8  C7  UNL     1       6.469  10.529  42.854  1.00  0.00     0.125 C 
BRANCH   4   9
HETATM    9  O1  UNL     1       7.689   9.717  44.668  1.00  0.00    -0.377 OA
ATOM     10  H1  UNL     1       6.926   9.190  44.874  1.00  0.00     0.211 HD
ENDBRANCH   4   9
ENDBRANCH   3   4
TORSDOF 2
ENDMDL
MODEL 5
REMARK VINA RESULT: -3.951056604      2.087      2.573
REMARK  2 active torsions:
REMARK  status: ('A' for Active; 'I' for Inactive)
REMARK    1  A    between atoms: C3_3  and  C4_4 
REMARK    2  A    between atoms: C4_4  and  O1_5 
ROOT
HETATM    1  C1  UNL     1       2.985  14.639  44.976  1.00  0.00     0.112 C 
HETATM    2  C2  UNL     1       3.802  13.582  44.363  1.00  0.00    -0.108 C 
HETATM    3  C3  UNL     1       4.454  12.704  43.858  1.00  0.00    -0.068 C 
ENDROOT
BRANCH   3   4
HETATM    4  C4  UNL     1       5.236  11.607  43.239  1.00  0.00     0.130 C 
HETATM    5  C5  UNL     1       6.673  11.860  43.197  1.00  0.00     0.062 C 
HETATM    6  C6  UNL     1       7.341  11.454  44.469  1.00  0.00     0.078 C 
HETATM    7  S1  UNL     1       6.224  10.197  45.185  1.00  0.00    -0.165 SA
HETATM    8  C7  UNL     1       4.893  10.353  43.931  1.00  0.00     0.125 C 
BRANCH   4   9
HETATM    9  O1  UNL     1       4.759  11.507  41.908  1.00  0.00    -0.377 OA
ATOM     10  H1  UNL     1       5.465  11.832  41.362  1.00  0.00     0.211 HD
ENDBRANCH   4   9
ENDBRANCH   3   4
TORSDOF 2
ENDMDL
