MODEL 1
REMARK VINA RESULT: -4.471891540      0.000      0.000
REMARK  1 active torsions:
REMARK  status: ('A' for Active; 'I' for Inactive)
REMARK    1  A    between atoms: C2_2  and  O1_3 
ROOT
HETATM    1  C1  UNL     1       6.062   9.519  45.570  1.00  0.00     0.048 C 
HETATM    2  C2  UNL     1       5.862  11.000  45.395  1.00  0.00     0.087 C 
HETATM    3  C3  UNL     1       7.056  11.689  44.782  1.00  0.00     0.070 C 
HETATM    4  C4  UNL     1       6.646  12.026  43.361  1.00  0.00     0.276 C 
HETATM    5  N1  UNL     1       5.387  11.392  43.116  1.00  0.00     0.096 N 
HETATM    6  C5  UNL     1       4.446  12.264  42.408  1.00  0.00     0.273 C 
HETATM    7  C6  UNL     1       4.164  13.399  43.353  1.00  0.00     0.032 C 
HETATM    8  C7  UNL     1       4.341  12.773  44.710  1.00  0.00     0.040 C 
HETATM    9  C8  UNL     1       4.765  11.344  44.432  1.00  0.00     0.256 C 
ENDROOT
BRANCH   2  10
HETATM   10  O1  UNL     1       5.535  11.554  46.629  1.00  0.00    -0.388 OA
ATOM     11  H1  UNL     1       6.337  11.698  47.118  1.00  0.00     0.210 HD
ENDBRANCH   2  10
TORSDOF 1
ENDMDL
MODEL 2
REMARK VINA RESULT: -4.451118949      6.348      7.204
REMARK  1 active torsions:
REMARK  status: ('A' for Active; 'I' for Inactive)
REMARK    1  A    between atoms: C2_2  and  O1_3 
ROOT
HETATM    1  C1  UNL     1      11.194   5.313  41.470  1.00  0.00     0.048 C 
HETATM    2  C2  UNL     1      10.257   6.112  42.334  1.00  0.00     0.087 C 
HETATM    3  C3  UNL     1       9.738   7.353  41.651  1.00  0.00     0.070 C 
HETATM    4  C4  UNL     1       8.289   7.057  41.315  1.00  0.00     0.276 C 
HETATM    5  N1  UNL     1       8.058   5.674  41.598  1.00  0.00     0.096 N 
HETATM    6  C5  UNL     1       6.782   5.445  42.283  1.00  0.00     0.273 C 
HETATM    7  C6  UNL     1       6.916   6.127  43.616  1.00  0.00     0.032 C 
HETATM    8  C7  UNL     1       8.392   6.051  43.897  1.00  0.00     0.040 C 
HETATM    9  C8  UNL     1       8.992   5.383  42.676  1.00  0.00     0.256 C 
ENDROOT
BRANCH   2  10
HETATM   10  O1  UNL     1      10.906   6.422  43.525  1.00  0.00    -0.388 OA
ATOM     11  H1  UNL     1      10.437   6.011  44.242  1.00  0.00     0.210 HD
ENDBRANCH   2  10
TORSDOF 1
ENDMDL
MODEL 3
REMARK VINA RESULT: -4.274358542      1.861      2.639
REMARK  1 active torsions:
REMARK  status: ('A' for Active; 'I' for Inactive)
REMARK    1  A    between atoms: C2_2  and  O1_3 
ROOT
HETATM    1  C1  UNL     1       7.350  11.564  44.188  1.00  0.00     0.048 C 
HETATM    2  C2  UNL     1       5.965  11.609  43.602  1.00  0.00     0.087 C 
HETATM    3  C3  UNL     1       4.899  11.171  44.575  1.00  0.00     0.070 C 
HETATM    4  C4  UNL     1       4.171  12.439  44.979  1.00  0.00     0.276 C 
HETATM    5  N1  UNL     1       4.901  13.543  44.437  1.00  0.00     0.096 N 
HETATM    6  C5  UNL     1       4.026  14.559  43.844  1.00  0.00     0.273 C 
HETATM    7  C6  UNL     1       3.363  13.883  42.676  1.00  0.00     0.032 C 
HETATM    8  C7  UNL     1       4.378  12.859  42.246  1.00  0.00     0.040 C 
HETATM    9  C8  UNL     1       5.516  12.993  43.237  1.00  0.00     0.256 C 
ENDROOT
BRANCH   2  10
HETATM   10  O1  UNL     1       5.946  10.836  42.446  1.00  0.00    -0.388 OA
ATOM     11  H1  UNL     1       5.048  10.585  42.263  1.00  0.00     0.210 HD
ENDBRANCH   2  10
TORSDOF 1
ENDMDL
MODEL 4
REMARK VINA RESULT: -4.246852059      1.651      2.293
REMARK  1 active torsions:
REMARK  status: ('A' for Active; 'I' for Inactive)
REMARK    1  A    between atoms: C2_2  and  O1_3 
ROOT
HETATM    1  C1  UNL     1       6.878   9.063  46.251  1.00  0.00     0.048 C 
HETATM    2  C2  UNL     1       6.880   9.854  44.971  1.00  0.00     0.087 C 
HETATM    3  C3  UNL     1       6.021   9.238  43.895  1.00  0.00     0.070 C 
HETATM    4  C4  UNL     1       4.796  10.127  43.794  1.00  0.00     0.276 C 
HETATM    5  N1  UNL     1       4.854  11.062  44.875  1.00  0.00     0.096 N 
HETATM    6  C5  UNL     1       4.499  12.422  44.462  1.00  0.00     0.273 C 
HETATM    7  C6  UNL     1       5.571  12.838  43.493  1.00  0.00     0.032 C 
HETATM    8  C7  UNL     1       6.775  12.063  43.953  1.00  0.00     0.040 C 
HETATM    9  C8  UNL     1       6.282  11.222  45.114  1.00  0.00     0.256 C 
ENDROOT
BRANCH   2  10
HETATM   10  O1  UNL     1       8.195  10.007  44.545  1.00  0.00    -0.388 OA
ATOM     11  H1  UNL     1       8.644   9.175  44.642  1.00  0.00     0.210 HD
ENDBRANCH   2  10
TORSDOF 1
ENDMDL
MODEL 5
REMARK VINA RESULT: -4.211685113      6.194      7.477
REMARK  1 active torsions:
REMARK  status: ('A' for Active; 'I' for Inactive)
REMARK    1  A    between atoms: C2_2  and  O1_3 
ROOT
HETATM    1  C1  UNL     1       7.752   7.903  43.448  1.00  0.00     0.048 C 
HETATM    2  C2  UNL     1       8.623   6.697  43.222  1.00  0.00     0.087 C 
HETATM    3  C3  UNL     1       7.846   5.485  42.770  1.00  0.00     0.070 C 
HETATM    4  C4  UNL     1       8.178   5.313  41.300  1.00  0.00     0.276 C 
HETATM    5  N1  UNL     1       8.925   6.463  40.892  1.00  0.00     0.096 N 
HETATM    6  C5  UNL     1      10.069   6.118  40.044  1.00  0.00     0.273 C 
HETATM    7  C6  UNL     1      10.988   5.313  40.920  1.00  0.00     0.032 C 
HETATM    8  C7  UNL     1      10.709   5.847  42.299  1.00  0.00     0.040 C 
HETATM    9  C8  UNL     1       9.612   6.876  42.108  1.00  0.00     0.256 C 
ENDROOT
BRANCH   2  10
HETATM   10  O1  UNL     1       9.336   6.438  44.387  1.00  0.00    -0.388 OA
ATOM     11  H1  UNL     1       9.404   7.243  44.887  1.00  0.00     0.210 HD
ENDBRANCH   2  10
TORSDOF 1
ENDMDL
