MODEL 1
REMARK VINA RESULT: -5.947052937      0.000      0.000
REMARK  8 active torsions:
REMARK  status: ('A' for Active; 'I' for Inactive)
REMARK    1  A    between atoms: N1_1  and  C1_4 
REMARK    2  A    between atoms: C4_8  and  O2_9 
REMARK    3  A    between atoms: C4_8  and  C5_11 
REMARK    4  A    between atoms: C7_14  and  O4_15 
REMARK    5  A    between atoms: C7_14  and  C8_17 
REMARK    6  A    between atoms: C8_17  and  O5_18 
REMARK    7  A    between atoms: C9_20  and  O6_21 
REMARK    8  A    between atoms: N3_27  and  N4_28 
ROOT
HETATM    1  C1  UNL     1      27.268 -36.193   8.962  1.00  0.00     0.143 A 
HETATM    2  C2  UNL     1      27.322 -35.227   9.983  1.00  0.00     0.093 A 
HETATM    3  C3  UNL     1      27.830 -33.895   9.740  1.00  0.00     0.105 C 
HETATM    4  O1  UNL     1      28.320 -33.538   8.518  1.00  0.00    -0.307 OA
HETATM    5  C4  UNL     1      28.950 -32.305   8.869  1.00  0.00     0.225 C 
HETATM    6  C6  UNL     1      27.715 -31.581   9.407  1.00  0.00     0.123 C 
HETATM    7  C7  UNL     1      27.173 -32.718  10.356  1.00  0.00     0.134 C 
HETATM    8  C9  UNL     1      27.010 -35.612  11.264  1.00  0.00     0.160 A 
HETATM    9  N2  UNL     1      26.659 -36.908  11.538  1.00  0.00    -0.287 N 
ATOM     10  H2  UNL     1      26.432 -37.187  12.493  1.00  0.00     0.172 HD
HETATM   11  C10 UNL     1      26.614 -37.800  10.553  1.00  0.00     0.349 A 
HETATM   12  O7  UNL     1      26.290 -39.009  10.774  1.00  0.00    -0.244 OA
HETATM   13  N3  UNL     1      26.915 -37.448   9.279  1.00  0.00    -0.186 N 
ENDROOT
BRANCH   1  14
HETATM   14  N1  UNL     1      27.535 -35.885   7.730  1.00  0.00    -0.383 N 
ATOM     15  H12 UNL     1      28.047 -35.028   7.518  1.00  0.00     0.157 HD
ATOM     16  H11 UNL     1      27.254 -36.492   6.961  1.00  0.00     0.157 HD
ENDBRANCH   1  14
BRANCH   8  17
HETATM   17  O6  UNL     1      27.012 -34.819  12.391  1.00  0.00    -0.345 OA
ATOM     18  H6  UNL     1      27.772 -34.495  12.861  1.00  0.00     0.219 HD
ENDBRANCH   8  17
BRANCH  13  19
HETATM   19  N4  UNL     1      26.793 -38.424   8.273  1.00  0.00    -0.264 N 
HETATM   20  C11 UNL     1      25.809 -38.571   7.487  1.00  0.00     0.216 C 
HETATM   21  N5  UNL     1      25.764 -39.582   6.493  1.00  0.00    -0.065 NA
HETATM   22  N6  UNL     1      24.663 -37.699   7.568  1.00  0.00    -0.065 NA
ATOM     23  H4  UNL     1      27.570 -39.076   8.166  1.00  0.00     0.190 HD
ENDBRANCH  13  19
BRANCH   7  24
HETATM   24  O4  UNL     1      27.490 -32.381  11.615  1.00  0.00    -0.381 OA
ATOM     25  H4  UNL     1      26.817 -32.416  12.285  1.00  0.00     0.211 HD
ENDBRANCH   7  24
BRANCH   7  26
HETATM   26  C8  UNL     1      25.662 -32.729  10.141  1.00  0.00     0.209 C 
BRANCH  26  27
HETATM   27  O5  UNL     1      25.016 -32.711  11.384  1.00  0.00    -0.397 OA
ATOM     28  H5  UNL     1      24.243 -32.160  11.329  1.00  0.00     0.209 HD
ENDBRANCH  26  27
ENDBRANCH   7  26
BRANCH   5  29
HETATM   29  O2  UNL     1      29.883 -32.440   9.889  1.00  0.00    -0.359 OA
ATOM     30  H2  UNL     1      30.457 -33.188   9.773  1.00  0.00     0.213 HD
ENDBRANCH   5  29
BRANCH   5  31
HETATM   31  C5  UNL     1      29.513 -31.616   7.705  1.00  0.00     0.299 C 
HETATM   32  O3  UNL     1      30.624 -31.998   7.313  1.00  0.00    -0.301 OA
ENDBRANCH   5  31
TORSDOF 8
ENDMDL
MODEL 2
REMARK VINA RESULT: -5.943308427      0.898      1.200
REMARK  8 active torsions:
REMARK  status: ('A' for Active; 'I' for Inactive)
REMARK    1  A    between atoms: N1_1  and  C1_4 
REMARK    2  A    between atoms: C4_8  and  O2_9 
REMARK    3  A    between atoms: C4_8  and  C5_11 
REMARK    4  A    between atoms: C7_14  and  O4_15 
REMARK    5  A    between atoms: C7_14  and  C8_17 
REMARK    6  A    between atoms: C8_17  and  O5_18 
REMARK    7  A    between atoms: C9_20  and  O6_21 
REMARK    8  A    between atoms: N3_27  and  N4_28 
ROOT
HETATM    1  C1  UNL     1      27.359 -36.103   8.560  1.00  0.00     0.143 A 
HETATM    2  C2  UNL     1      27.394 -35.263   9.687  1.00  0.00     0.093 A 
HETATM    3  C3  UNL     1      27.849 -33.893   9.598  1.00  0.00     0.105 C 
HETATM    4  O1  UNL     1      28.306 -33.376   8.422  1.00  0.00    -0.307 OA
HETATM    5  C4  UNL     1      28.896 -32.170   8.910  1.00  0.00     0.225 C 
HETATM    6  C6  UNL     1      27.643 -31.562   9.544  1.00  0.00     0.123 C 
HETATM    7  C7  UNL     1      27.158 -32.824  10.357  1.00  0.00     0.134 C 
HETATM    8  C9  UNL     1      27.117 -35.808  10.917  1.00  0.00     0.160 A 
HETATM    9  N2  UNL     1      26.817 -37.141  11.039  1.00  0.00    -0.287 N 
ATOM     10  H2  UNL     1      26.616 -37.539  11.957  1.00  0.00     0.172 HD
HETATM   11  C10 UNL     1      26.790 -37.911   9.955  1.00  0.00     0.349 A 
HETATM   12  O7  UNL     1      26.514 -39.148  10.035  1.00  0.00    -0.244 OA
HETATM   13  N3  UNL     1      27.058 -37.399   8.729  1.00  0.00    -0.186 N 
ENDROOT
BRANCH   1  14
HETATM   14  N1  UNL     1      27.595 -35.641   7.370  1.00  0.00    -0.383 N 
ATOM     15  H12 UNL     1      27.886 -34.671   7.247  1.00  0.00     0.157 HD
ATOM     16  H11 UNL     1      27.510 -36.236   6.546  1.00  0.00     0.157 HD
ENDBRANCH   1  14
BRANCH   8  17
HETATM   17  O6  UNL     1      27.107 -35.155  12.130  1.00  0.00    -0.345 OA
ATOM     18  H6  UNL     1      26.662 -35.429  12.923  1.00  0.00     0.219 HD
ENDBRANCH   8  17
BRANCH  13  19
HETATM   19  N4  UNL     1      26.956 -38.254   7.615  1.00  0.00    -0.264 N 
HETATM   20  C11 UNL     1      27.920 -38.808   7.007  1.00  0.00     0.216 C 
HETATM   21  N5  UNL     1      27.733 -39.663   5.890  1.00  0.00    -0.065 NA
HETATM   22  N6  UNL     1      29.282 -38.591   7.427  1.00  0.00    -0.065 NA
ATOM     23  H4  UNL     1      26.018 -38.445   7.265  1.00  0.00     0.190 HD
ENDBRANCH  13  19
BRANCH   7  24
HETATM   24  O4  UNL     1      27.483 -32.625  11.643  1.00  0.00    -0.381 OA
ATOM     25  H4  UNL     1      27.208 -31.821  12.069  1.00  0.00     0.211 HD
ENDBRANCH   7  24
BRANCH   7  26
HETATM   26  C8  UNL     1      25.646 -32.866  10.159  1.00  0.00     0.209 C 
BRANCH  26  27
HETATM   27  O5  UNL     1      25.015 -32.904  11.409  1.00  0.00    -0.397 OA
ATOM     28  H5  UNL     1      24.823 -32.017  11.692  1.00  0.00     0.209 HD
ENDBRANCH  26  27
ENDBRANCH   7  26
BRANCH   5  29
HETATM   29  O2  UNL     1      29.849 -32.388   9.896  1.00  0.00    -0.359 OA
ATOM     30  H2  UNL     1      29.502 -32.836  10.658  1.00  0.00     0.213 HD
ENDBRANCH   5  29
BRANCH   5  31
HETATM   31  C5  UNL     1      29.415 -31.327   7.829  1.00  0.00     0.299 C 
HETATM   32  O3  UNL     1      30.400 -31.754   7.211  1.00  0.00    -0.301 OA
ENDBRANCH   5  31
TORSDOF 8
ENDMDL
MODEL 3
REMARK VINA RESULT: -5.903304793      3.078      3.998
REMARK  8 active torsions:
REMARK  status: ('A' for Active; 'I' for Inactive)
REMARK    1  A    between atoms: N1_1  and  C1_4 
REMARK    2  A    between atoms: C4_8  and  O2_9 
REMARK    3  A    between atoms: C4_8  and  C5_11 
REMARK    4  A    between atoms: C7_14  and  O4_15 
REMARK    5  A    between atoms: C7_14  and  C8_17 
REMARK    6  A    between atoms: C8_17  and  O5_18 
REMARK    7  A    between atoms: C9_20  and  O6_21 
REMARK    8  A    between atoms: N3_27  and  N4_28 
ROOT
HETATM    1  C1  UNL     1      27.104 -35.250  11.972  1.00  0.00     0.143 A 
HETATM    2  C2  UNL     1      26.382 -34.138  11.504  1.00  0.00     0.093 A 
HETATM    3  C3  UNL     1      26.989 -33.147  10.642  1.00  0.00     0.105 C 
HETATM    4  O1  UNL     1      28.303 -33.231  10.286  1.00  0.00    -0.307 OA
HETATM    5  C4  UNL     1      28.478 -31.928   9.729  1.00  0.00     0.225 C 
HETATM    6  C6  UNL     1      27.412 -32.018   8.636  1.00  0.00     0.123 C 
HETATM    7  C7  UNL     1      26.222 -32.564   9.516  1.00  0.00     0.134 C 
HETATM    8  C9  UNL     1      25.116 -33.928  11.994  1.00  0.00     0.160 A 
HETATM    9  N2  UNL     1      24.574 -34.782  12.919  1.00  0.00    -0.287 N 
ATOM     10  H2  UNL     1      23.634 -34.617  13.281  1.00  0.00     0.172 HD
HETATM   11  C10 UNL     1      25.280 -35.826  13.343  1.00  0.00     0.349 A 
HETATM   12  O7  UNL     1      24.805 -36.638  14.197  1.00  0.00    -0.244 OA
HETATM   13  N3  UNL     1      26.531 -36.059  12.875  1.00  0.00    -0.186 N 
ENDROOT
BRANCH   1  14
HETATM   14  N1  UNL     1      28.298 -35.509  11.533  1.00  0.00    -0.383 N 
ATOM     15  H12 UNL     1      28.529 -35.341  10.554  1.00  0.00     0.157 HD
ATOM     16  H11 UNL     1      29.022 -35.868  12.155  1.00  0.00     0.157 HD
ENDBRANCH   1  14
BRANCH   8  17
HETATM   17  O6  UNL     1      24.260 -32.898  11.666  1.00  0.00    -0.345 OA
ATOM     18  H6  UNL     1      23.757 -32.807  10.865  1.00  0.00     0.219 HD
ENDBRANCH   8  17
BRANCH  13  19
HETATM   19  N4  UNL     1      27.203 -37.213  13.319  1.00  0.00    -0.264 N 
HETATM   20  C11 UNL     1      27.901 -37.314  14.373  1.00  0.00     0.216 C 
HETATM   21  N5  UNL     1      28.545 -38.519  14.754  1.00  0.00    -0.065 NA
HETATM   22  N6  UNL     1      28.079 -36.185  15.251  1.00  0.00    -0.065 NA
ATOM     23  H4  UNL     1      27.119 -38.047  12.739  1.00  0.00     0.190 HD
ENDBRANCH  13  19
BRANCH   7  24
HETATM   24  O4  UNL     1      25.392 -31.538   9.756  1.00  0.00    -0.381 OA
ATOM     25  H4  UNL     1      25.757 -30.706  10.035  1.00  0.00     0.211 HD
ENDBRANCH   7  24
BRANCH   7  26
HETATM   26  C8  UNL     1      25.556 -33.637   8.660  1.00  0.00     0.209 C 
BRANCH  26  27
HETATM   27  O5  UNL     1      26.543 -34.417   8.042  1.00  0.00    -0.397 OA
ATOM     28  H5  UNL     1      26.205 -35.293   7.894  1.00  0.00     0.209 HD
ENDBRANCH  26  27
ENDBRANCH   7  26
BRANCH   5  29
HETATM   29  O2  UNL     1      28.146 -30.908  10.612  1.00  0.00    -0.359 OA
ATOM     30  H2  UNL     1      27.674 -30.195  10.197  1.00  0.00     0.213 HD
ENDBRANCH   5  29
BRANCH   5  31
HETATM   31  C5  UNL     1      29.817 -31.740   9.162  1.00  0.00     0.299 C 
HETATM   32  O3  UNL     1      30.021 -32.222   8.040  1.00  0.00    -0.301 OA
ENDBRANCH   5  31
TORSDOF 8
ENDMDL
MODEL 4
REMARK VINA RESULT: -5.831272540      1.126      1.179
REMARK  8 active torsions:
REMARK  status: ('A' for Active; 'I' for Inactive)
REMARK    1  A    between atoms: N1_1  and  C1_4 
REMARK    2  A    between atoms: C4_8  and  O2_9 
REMARK    3  A    between atoms: C4_8  and  C5_11 
REMARK    4  A    between atoms: C7_14  and  O4_15 
REMARK    5  A    between atoms: C7_14  and  C8_17 
REMARK    6  A    between atoms: C8_17  and  O5_18 
REMARK    7  A    between atoms: C9_20  and  O6_21 
REMARK    8  A    between atoms: N3_27  and  N4_28 
ROOT
HETATM    1  C1  UNL     1      27.246 -35.763   9.443  1.00  0.00     0.143 A 
HETATM    2  C2  UNL     1      27.344 -34.517  10.087  1.00  0.00     0.093 A 
HETATM    3  C3  UNL     1      28.058 -33.410   9.491  1.00  0.00     0.105 C 
HETATM    4  O1  UNL     1      28.706 -33.547   8.299  1.00  0.00    -0.307 OA
HETATM    5  C4  UNL     1      29.471 -32.341   8.308  1.00  0.00     0.225 C 
HETATM    6  C6  UNL     1      28.308 -31.352   8.405  1.00  0.00     0.123 C 
HETATM    7  C7  UNL     1      27.523 -32.031   9.592  1.00  0.00     0.134 C 
HETATM    8  C9  UNL     1      26.863 -34.405  11.368  1.00  0.00     0.160 A 
HETATM    9  N2  UNL     1      26.304 -35.484  12.003  1.00  0.00    -0.287 N 
ATOM     10  H2  UNL     1      25.952 -35.393  12.956  1.00  0.00     0.172 HD
HETATM   11  C10 UNL     1      26.223 -36.650  11.369  1.00  0.00     0.349 A 
HETATM   12  O7  UNL     1      25.709 -37.669  11.928  1.00  0.00    -0.244 OA
HETATM   13  N3  UNL     1      26.688 -36.789  10.102  1.00  0.00    -0.186 N 
ENDROOT
BRANCH   1  14
HETATM   14  N1  UNL     1      27.667 -35.926   8.226  1.00  0.00    -0.383 N 
ATOM     15  H12 UNL     1      26.999 -36.086   7.472  1.00  0.00     0.157 HD
ATOM     16  H11 UNL     1      28.661 -35.882   8.001  1.00  0.00     0.157 HD
ENDBRANCH   1  14
BRANCH   8  17
HETATM   17  O6  UNL     1      26.874 -33.278  12.163  1.00  0.00    -0.345 OA
ATOM     18  H6  UNL     1      26.974 -33.246  13.107  1.00  0.00     0.219 HD
ENDBRANCH   8  17
BRANCH  13  19
HETATM   19  N4  UNL     1      26.521 -38.033   9.466  1.00  0.00    -0.264 N 
HETATM   20  C11 UNL     1      25.601 -38.338   8.648  1.00  0.00     0.216 C 
HETATM   21  N5  UNL     1      25.503 -39.618   8.045  1.00  0.00    -0.065 NA
HETATM   22  N6  UNL     1      24.588 -37.378   8.285  1.00  0.00    -0.065 NA
ATOM     23  H4  UNL     1      27.203 -38.759   9.684  1.00  0.00     0.190 HD
ENDBRANCH  13  19
BRANCH   7  24
HETATM   24  O4  UNL     1      27.768 -31.318  10.701  1.00  0.00    -0.381 OA
ATOM     25  H4  UNL     1      27.069 -31.193  11.333  1.00  0.00     0.211 HD
ENDBRANCH   7  24
BRANCH   7  26
HETATM   26  C8  UNL     1      26.053 -31.958   9.189  1.00  0.00     0.209 C 
BRANCH  26  27
HETATM   27  O5  UNL     1      25.278 -31.644  10.314  1.00  0.00    -0.397 OA
ATOM     28  H5  UNL     1      24.358 -31.659  10.076  1.00  0.00     0.209 HD
ENDBRANCH  26  27
ENDBRANCH   7  26
BRANCH   5  29
HETATM   29  O2  UNL     1      30.277 -32.214   9.432  1.00  0.00    -0.359 OA
ATOM     30  H2  UNL     1      29.792 -32.269  10.247  1.00  0.00     0.213 HD
ENDBRANCH   5  29
BRANCH   5  31
HETATM   31  C5  UNL     1      30.233 -32.155   7.069  1.00  0.00     0.299 C 
HETATM   32  O3  UNL     1      30.380 -30.992   6.672  1.00  0.00    -0.301 OA
ENDBRANCH   5  31
TORSDOF 8
ENDMDL
MODEL 5
REMARK VINA RESULT: -5.736616659      3.058      5.517
REMARK  8 active torsions:
REMARK  status: ('A' for Active; 'I' for Inactive)
REMARK    1  A    between atoms: N1_1  and  C1_4 
REMARK    2  A    between atoms: C4_8  and  O2_9 
REMARK    3  A    between atoms: C4_8  and  C5_11 
REMARK    4  A    between atoms: C7_14  and  O4_15 
REMARK    5  A    between atoms: C7_14  and  C8_17 
REMARK    6  A    between atoms: C8_17  and  O5_18 
REMARK    7  A    between atoms: C9_20  and  O6_21 
REMARK    8  A    between atoms: N3_27  and  N4_28 
ROOT
HETATM    1  C1  UNL     1      27.548 -32.905   7.498  1.00  0.00     0.143 A 
HETATM    2  C2  UNL     1      27.461 -32.671   8.882  1.00  0.00     0.093 A 
HETATM    3  C3  UNL     1      26.370 -33.196   9.673  1.00  0.00     0.105 C 
HETATM    4  O1  UNL     1      25.355 -33.901   9.096  1.00  0.00    -0.307 OA
HETATM    5  C4  UNL     1      24.431 -33.915  10.185  1.00  0.00     0.225 C 
HETATM    6  C6  UNL     1      25.323 -34.614  11.213  1.00  0.00     0.123 C 
HETATM    7  C7  UNL     1      26.620 -33.736  11.030  1.00  0.00     0.134 C 
HETATM    8  C9  UNL     1      28.365 -31.811   9.457  1.00  0.00     0.160 A 
HETATM    9  N2  UNL     1      29.325 -31.195   8.696  1.00  0.00    -0.287 N 
ATOM     10  H2  UNL     1      29.990 -30.555   9.131  1.00  0.00     0.172 HD
HETATM   11  C10 UNL     1      29.384 -31.436   7.390  1.00  0.00     0.349 A 
HETATM   12  O7  UNL     1      30.263 -30.883   6.658  1.00  0.00    -0.244 OA
HETATM   13  N3  UNL     1      28.506 -32.282   6.796  1.00  0.00    -0.186 N 
ENDROOT
BRANCH   1  14
HETATM   14  N1  UNL     1      26.733 -33.721   6.902  1.00  0.00    -0.383 N 
ATOM     15  H12 UNL     1      26.829 -34.728   7.037  1.00  0.00     0.157 HD
ATOM     16  H11 UNL     1      25.982 -33.374   6.307  1.00  0.00     0.157 HD
ENDBRANCH   1  14
BRANCH   8  17
HETATM   17  O6  UNL     1      28.437 -31.451  10.785  1.00  0.00    -0.345 OA
ATOM     18  H6  UNL     1      28.025 -30.701  11.198  1.00  0.00     0.219 HD
ENDBRANCH   8  17
BRANCH  13  19
HETATM   19  N4  UNL     1      28.658 -32.540   5.421  1.00  0.00    -0.264 N 
HETATM   20  C11 UNL     1      29.201 -33.564   4.907  1.00  0.00     0.216 C 
HETATM   21  N5  UNL     1      29.312 -33.751   3.506  1.00  0.00    -0.065 NA
HETATM   22  N6  UNL     1      29.743 -34.608   5.739  1.00  0.00    -0.065 NA
ATOM     23  H4  UNL     1      28.298 -31.836   4.777  1.00  0.00     0.190 HD
ENDBRANCH  13  19
BRANCH   7  24
HETATM   24  O4  UNL     1      26.684 -32.887  12.067  1.00  0.00    -0.381 OA
ATOM     25  H4  UNL     1      25.913 -32.382  12.297  1.00  0.00     0.211 HD
ENDBRANCH   7  24
BRANCH   7  26
HETATM   26  C8  UNL     1      27.777 -34.731  11.046  1.00  0.00     0.209 C 
BRANCH  26  27
HETATM   27  O5  UNL     1      27.439 -35.849  10.271  1.00  0.00    -0.397 OA
ATOM     28  H5  UNL     1      27.358 -35.588   9.361  1.00  0.00     0.209 HD
ENDBRANCH  26  27
ENDBRANCH   7  26
BRANCH   5  29
HETATM   29  O2  UNL     1      24.110 -32.644  10.645  1.00  0.00    -0.359 OA
ATOM     30  H2  UNL     1      23.591 -32.655  11.440  1.00  0.00     0.213 HD
ENDBRANCH   5  29
BRANCH   5  31
HETATM   31  C5  UNL     1      23.231 -34.704   9.888  1.00  0.00     0.299 C 
HETATM   32  O3  UNL     1      23.401 -35.904   9.637  1.00  0.00    -0.301 OA
ENDBRANCH   5  31
TORSDOF 8
ENDMDL
