MODEL 1
REMARK VINA RESULT: -6.173621450      0.000      0.000
REMARK  5 active torsions:
REMARK  status: ('A' for Active; 'I' for Inactive)
REMARK    1  A    between atoms: N1_1  and  N2_4 
REMARK       I    between atoms: N2_4  and  C1_6 
REMARK       I    between atoms: C1_6  and  N3_8 
REMARK    2  A    between atoms: N3_8  and  C2_10 
REMARK    3  A    between atoms: C2_10  and  C3_11 
REMARK    4  A    between atoms: C5_14  and  N4_15 
REMARK    5  A    between atoms: C9_24  and  N8_25 
REMARK       I    between atoms: N8_25  and  C10_27 
REMARK       I    between atoms: C10_27  and  N9_28 
REMARK       I    between atoms: C10_27  and  N10_32 
ROOT
HETATM    1  N4  UNL     1      27.860 -32.896   9.644  1.00  0.00    -0.232 N 
HETATM    2  C6  UNL     1      28.295 -31.623   9.715  1.00  0.00     0.333 A 
HETATM    3  O3  UNL     1      28.035 -30.888  10.727  1.00  0.00    -0.246 OA
HETATM    4  N5  UNL     1      29.012 -31.057   8.751  1.00  0.00    -0.295 N 
ATOM      5  H5  UNL     1      29.327 -30.090   8.829  1.00  0.00     0.172 HD
HETATM    6  C7  UNL     1      29.310 -31.803   7.660  1.00  0.00     0.148 A 
HETATM    7  N6  UNL     1      30.074 -31.240   6.602  1.00  0.00    -0.080 NA
HETATM    8  C8  UNL     1      28.872 -33.128   7.558  1.00  0.00     0.131 A 
HETATM    9  N7  UNL     1      29.244 -33.810   6.370  1.00  0.00    -0.095 NA
HETATM   10  C9  UNL     1      28.134 -33.684   8.568  1.00  0.00     0.142 A 
ENDROOT
BRANCH   1  11
HETATM   11  C5  UNL     1      27.086 -33.449  10.726  1.00  0.00     0.383 C 
HETATM   12  O2  UNL     1      25.917 -34.016  10.226  1.00  0.00    -0.341 OA
HETATM   13  C4  UNL     1      25.620 -35.049  11.179  1.00  0.00     0.210 C 
HETATM   14  C3  UNL     1      26.973 -35.595  11.394  1.00  0.00     0.189 C 
HETATM   15  O4  UNL     1      27.771 -34.410  11.422  1.00  0.00    -0.331 OA
BRANCH  14  16
HETATM   16  C2  UNL     1      27.262 -36.448  12.550  1.00  0.00     0.099 C 
BRANCH  16  17
HETATM   17  N3  UNL     1      28.102 -37.549  12.356  1.00  0.00    -0.319 N 
HETATM   18  C1  UNL     1      28.662 -38.419  13.286  1.00  0.00     0.338 C 
HETATM   19  N2  UNL     1      29.497 -39.525  12.824  1.00  0.00    -0.258 N 
HETATM   20  O1  UNL     1      28.475 -38.288  14.514  1.00  0.00    -0.245 OA
ATOM     21  H2  UNL     1      29.684 -39.680  11.834  1.00  0.00     0.191 HD
ATOM     22  H3  UNL     1      28.341 -37.744  11.384  1.00  0.00     0.169 HD
BRANCH  19  23
HETATM   23  N1  UNL     1      30.023 -40.355  13.807  1.00  0.00    -0.341 N 
ATOM     24  H12 UNL     1      30.123 -40.030  14.769  1.00  0.00     0.177 HD
ATOM     25  H11 UNL     1      30.296 -41.292  13.511  1.00  0.00     0.177 HD
ENDBRANCH  19  23
ENDBRANCH  16  17
ENDBRANCH  14  16
ENDBRANCH   1  11
BRANCH  10  26
HETATM   26  N8  UNL     1      27.712 -34.842   8.555  1.00  0.00    -0.325 N 
HETATM   27  C10 UNL     1      27.045 -35.704   7.690  1.00  0.00     0.481 C 
HETATM   28  N9  UNL     1      27.103 -37.111   8.073  1.00  0.00    -0.033 N 
HETATM   29  N10 UNL     1      25.627 -35.429   7.510  1.00  0.00    -0.033 N 
ATOM     30  H93 UNL     1      28.072 -37.407   8.192  1.00  0.00     0.278 HD
ATOM     31  H92 UNL     1      26.762 -37.234   9.026  1.00  0.00     0.278 HD
ATOM     32  H91 UNL     1      26.614 -37.743   7.438  1.00  0.00     0.278 HD
ATOM     33 3H10 UNL     1      25.157 -35.408   8.415  1.00  0.00     0.278 HD
ATOM     34 2H10 UNL     1      25.493 -34.462   7.215  1.00  0.00     0.278 HD
ATOM     35 1H10 UNL     1      25.139 -36.061   6.876  1.00  0.00     0.278 HD
ATOM     36  H8  UNL     1      27.908 -35.307   9.442  1.00  0.00     0.165 HD
ENDBRANCH  10  26
TORSDOF 5
ENDMDL
MODEL 2
REMARK VINA RESULT: -6.029075612      1.768      2.180
REMARK  5 active torsions:
REMARK  status: ('A' for Active; 'I' for Inactive)
REMARK    1  A    between atoms: N1_1  and  N2_4 
REMARK       I    between atoms: N2_4  and  C1_6 
REMARK       I    between atoms: C1_6  and  N3_8 
REMARK    2  A    between atoms: N3_8  and  C2_10 
REMARK    3  A    between atoms: C2_10  and  C3_11 
REMARK    4  A    between atoms: C5_14  and  N4_15 
REMARK    5  A    between atoms: C9_24  and  N8_25 
REMARK       I    between atoms: N8_25  and  C10_27 
REMARK       I    between atoms: C10_27  and  N9_28 
REMARK       I    between atoms: C10_27  and  N10_32 
ROOT
HETATM    1  N4  UNL     1      27.890 -32.926   9.626  1.00  0.00    -0.232 N 
HETATM    2  C6  UNL     1      28.293 -31.642   9.674  1.00  0.00     0.333 A 
HETATM    3  O3  UNL     1      28.031 -30.900  10.681  1.00  0.00    -0.246 OA
HETATM    4  N5  UNL     1      28.979 -31.070   8.691  1.00  0.00    -0.295 N 
ATOM      5  H5  UNL     1      29.271 -30.095   8.751  1.00  0.00     0.172 HD
HETATM    6  C7  UNL     1      29.278 -31.822   7.604  1.00  0.00     0.148 A 
HETATM    7  N6  UNL     1      30.010 -31.254   6.527  1.00  0.00    -0.080 NA
HETATM    8  C8  UNL     1      28.872 -33.159   7.527  1.00  0.00     0.131 A 
HETATM    9  N7  UNL     1      29.241 -33.847   6.341  1.00  0.00    -0.095 NA
HETATM   10  C9  UNL     1      28.166 -33.720   8.556  1.00  0.00     0.142 A 
ENDROOT
BRANCH   1  11
HETATM   11  C5  UNL     1      27.148 -33.484  10.728  1.00  0.00     0.383 C 
HETATM   12  O2  UNL     1      26.051 -34.193  10.246  1.00  0.00    -0.341 OA
HETATM   13  C4  UNL     1      25.834 -35.189  11.258  1.00  0.00     0.210 C 
HETATM   14  C3  UNL     1      27.228 -35.585  11.530  1.00  0.00     0.189 C 
HETATM   15  O4  UNL     1      27.906 -34.328  11.495  1.00  0.00    -0.331 OA
BRANCH  14  16
HETATM   16  C2  UNL     1      27.571 -36.332  12.743  1.00  0.00     0.099 C 
BRANCH  16  17
HETATM   17  N3  UNL     1      26.548 -36.597  13.660  1.00  0.00    -0.319 N 
HETATM   18  C1  UNL     1      26.435 -36.239  14.999  1.00  0.00     0.338 C 
HETATM   19  N2  UNL     1      25.239 -36.619  15.746  1.00  0.00    -0.258 N 
HETATM   20  O1  UNL     1      27.328 -35.599  15.593  1.00  0.00    -0.245 OA
ATOM     21  H2  UNL     1      24.479 -37.142  15.313  1.00  0.00     0.191 HD
ATOM     22  H3  UNL     1      25.765 -37.135  13.289  1.00  0.00     0.169 HD
BRANCH  19  23
HETATM   23  N1  UNL     1      25.192 -36.228  17.079  1.00  0.00    -0.341 N 
ATOM     24  H12 UNL     1      25.895 -35.597  17.464  1.00  0.00     0.177 HD
ATOM     25  H11 UNL     1      24.425 -36.605  17.636  1.00  0.00     0.177 HD
ENDBRANCH  19  23
ENDBRANCH  16  17
ENDBRANCH  14  16
ENDBRANCH   1  11
BRANCH  10  26
HETATM   26  N8  UNL     1      27.772 -34.889   8.565  1.00  0.00    -0.325 N 
HETATM   27  C10 UNL     1      27.136 -35.786   7.713  1.00  0.00     0.481 C 
HETATM   28  N9  UNL     1      27.225 -37.182   8.126  1.00  0.00    -0.033 N 
HETATM   29  N10 UNL     1      25.713 -35.551   7.515  1.00  0.00    -0.033 N 
ATOM     30  H93 UNL     1      28.200 -37.451   8.261  1.00  0.00     0.278 HD
ATOM     31  H92 UNL     1      26.879 -37.293   9.080  1.00  0.00     0.278 HD
ATOM     32  H91 UNL     1      26.759 -37.840   7.501  1.00  0.00     0.278 HD
ATOM     33 3H10 UNL     1      25.234 -35.522   8.415  1.00  0.00     0.278 HD
ATOM     34 2H10 UNL     1      25.557 -34.594   7.198  1.00  0.00     0.278 HD
ATOM     35 1H10 UNL     1      25.247 -36.209   6.890  1.00  0.00     0.278 HD
ATOM     36  H8  UNL     1      27.973 -35.329   9.463  1.00  0.00     0.165 HD
ENDBRANCH  10  26
TORSDOF 5
ENDMDL
MODEL 3
REMARK VINA RESULT: -5.736700706      0.985      1.052
REMARK  5 active torsions:
REMARK  status: ('A' for Active; 'I' for Inactive)
REMARK    1  A    between atoms: N1_1  and  N2_4 
REMARK       I    between atoms: N2_4  and  C1_6 
REMARK       I    between atoms: C1_6  and  N3_8 
REMARK    2  A    between atoms: N3_8  and  C2_10 
REMARK    3  A    between atoms: C2_10  and  C3_11 
REMARK    4  A    between atoms: C5_14  and  N4_15 
REMARK    5  A    between atoms: C9_24  and  N8_25 
REMARK       I    between atoms: N8_25  and  C10_27 
REMARK       I    between atoms: C10_27  and  N9_28 
REMARK       I    between atoms: C10_27  and  N10_32 
ROOT
HETATM    1  N4  UNL     1      28.067 -33.041   9.046  1.00  0.00    -0.232 N 
HETATM    2  C6  UNL     1      28.685 -31.914   8.644  1.00  0.00     0.333 A 
HETATM    3  O3  UNL     1      28.851 -30.927   9.438  1.00  0.00    -0.246 OA
HETATM    4  N5  UNL     1      29.156 -31.758   7.412  1.00  0.00    -0.295 N 
ATOM      5  H5  UNL     1      29.619 -30.893   7.132  1.00  0.00     0.172 HD
HETATM    6  C7  UNL     1      29.002 -32.782   6.538  1.00  0.00     0.148 A 
HETATM    7  N6  UNL     1      29.489 -32.661   5.209  1.00  0.00    -0.080 NA
HETATM    8  C8  UNL     1      28.363 -33.964   6.928  1.00  0.00     0.131 A 
HETATM    9  N7  UNL     1      28.258 -34.966   5.928  1.00  0.00    -0.095 NA
HETATM   10  C9  UNL     1      27.888 -34.095   8.205  1.00  0.00     0.142 A 
ENDROOT
BRANCH   1  11
HETATM   11  C5  UNL     1      27.579 -33.145  10.398  1.00  0.00     0.383 C 
HETATM   12  O2  UNL     1      26.195 -33.297  10.388  1.00  0.00    -0.341 OA
HETATM   13  C4  UNL     1      25.938 -34.034  11.594  1.00  0.00     0.210 C 
HETATM   14  C3  UNL     1      27.042 -35.009  11.538  1.00  0.00     0.189 C 
HETATM   15  O4  UNL     1      28.126 -34.204  11.072  1.00  0.00    -0.331 OA
BRANCH  14  16
HETATM   16  C2  UNL     1      27.430 -35.771  12.729  1.00  0.00     0.099 C 
BRANCH  16  17
HETATM   17  N3  UNL     1      28.112 -36.977  12.540  1.00  0.00    -0.319 N 
HETATM   18  C1  UNL     1      28.635 -37.864  13.475  1.00  0.00     0.338 C 
HETATM   19  N2  UNL     1      29.290 -39.087  13.020  1.00  0.00    -0.258 N 
HETATM   20  O1  UNL     1      28.565 -37.649  14.704  1.00  0.00    -0.245 OA
ATOM     21  H2  UNL     1      29.376 -39.314  12.030  1.00  0.00     0.191 HD
ATOM     22  H3  UNL     1      28.246 -37.250  11.565  1.00  0.00     0.169 HD
BRANCH  19  23
HETATM   23  N1  UNL     1      29.788 -39.927  14.009  1.00  0.00    -0.341 N 
ATOM     24  H12 UNL     1      29.781 -39.643  14.989  1.00  0.00     0.177 HD
ATOM     25  H11 UNL     1      30.154 -40.827  13.698  1.00  0.00     0.177 HD
ENDBRANCH  19  23
ENDBRANCH  16  17
ENDBRANCH  14  16
ENDBRANCH   1  11
BRANCH  10  26
HETATM   26  N8  UNL     1      27.315 -35.103   8.626  1.00  0.00    -0.325 N 
HETATM   27  C10 UNL     1      26.279 -35.952   8.251  1.00  0.00     0.481 C 
HETATM   28  N9  UNL     1      26.246 -37.222   8.968  1.00  0.00    -0.033 N 
HETATM   29  N10 UNL     1      24.939 -35.405   8.411  1.00  0.00    -0.033 N 
ATOM     30  H93 UNL     1      27.144 -37.700   8.885  1.00  0.00     0.278 HD
ATOM     31  H92 UNL     1      26.225 -37.061   9.975  1.00  0.00     0.278 HD
ATOM     32  H91 UNL     1      25.486 -37.845   8.693  1.00  0.00     0.278 HD
ATOM     33 3H10 UNL     1      24.803 -35.087   9.370  1.00  0.00     0.278 HD
ATOM     34 2H10 UNL     1      24.863 -34.516   7.915  1.00  0.00     0.278 HD
ATOM     35 1H10 UNL     1      24.180 -36.028   8.136  1.00  0.00     0.278 HD
ATOM     36  H8  UNL     1      27.721 -35.403   9.512  1.00  0.00     0.165 HD
ENDBRANCH  10  26
TORSDOF 5
ENDMDL
MODEL 4
REMARK VINA RESULT: -5.725991961      2.148      2.442
REMARK  5 active torsions:
REMARK  status: ('A' for Active; 'I' for Inactive)
REMARK    1  A    between atoms: N1_1  and  N2_4 
REMARK       I    between atoms: N2_4  and  C1_6 
REMARK       I    between atoms: C1_6  and  N3_8 
REMARK    2  A    between atoms: N3_8  and  C2_10 
REMARK    3  A    between atoms: C2_10  and  C3_11 
REMARK    4  A    between atoms: C5_14  and  N4_15 
REMARK    5  A    between atoms: C9_24  and  N8_25 
REMARK       I    between atoms: N8_25  and  C10_27 
REMARK       I    between atoms: C10_27  and  N9_28 
REMARK       I    between atoms: C10_27  and  N10_32 
ROOT
HETATM    1  N4  UNL     1      28.402 -32.839   8.492  1.00  0.00    -0.232 N 
HETATM    2  C6  UNL     1      29.152 -31.823   8.023  1.00  0.00     0.333 A 
HETATM    3  O3  UNL     1      29.529 -30.868   8.783  1.00  0.00    -0.246 OA
HETATM    4  N5  UNL     1      29.541 -31.748   6.755  1.00  0.00    -0.295 N 
ATOM      5  H5  UNL     1      30.107 -30.967   6.424  1.00  0.00     0.172 HD
HETATM    6  C7  UNL     1      29.163 -32.742   5.915  1.00  0.00     0.148 A 
HETATM    7  N6  UNL     1      29.556 -32.706   4.550  1.00  0.00    -0.080 NA
HETATM    8  C8  UNL     1      28.384 -33.809   6.375  1.00  0.00     0.131 A 
HETATM    9  N7  UNL     1      28.048 -34.790   5.405  1.00  0.00    -0.095 NA
HETATM   10  C9  UNL     1      27.998 -33.858   7.687  1.00  0.00     0.142 A 
ENDROOT
BRANCH   1  11
HETATM   11  C5  UNL     1      28.013 -32.857   9.879  1.00  0.00     0.383 C 
HETATM   12  O2  UNL     1      26.625 -32.860   9.979  1.00  0.00    -0.341 OA
HETATM   13  C4  UNL     1      26.386 -33.536  11.223  1.00  0.00     0.210 C 
HETATM   14  C3  UNL     1      27.373 -34.626  11.115  1.00  0.00     0.189 C 
HETATM   15  O4  UNL     1      28.497 -33.954  10.544  1.00  0.00    -0.331 OA
BRANCH  14  16
HETATM   16  C2  UNL     1      27.770 -35.397  12.297  1.00  0.00     0.099 C 
BRANCH  16  17
HETATM   17  N3  UNL     1      26.794 -35.663  13.262  1.00  0.00    -0.319 N 
HETATM   18  C1  UNL     1      26.934 -35.962  14.614  1.00  0.00     0.338 C 
HETATM   19  N2  UNL     1      25.742 -36.176  15.430  1.00  0.00    -0.258 N 
HETATM   20  O1  UNL     1      28.053 -36.054  15.161  1.00  0.00    -0.245 OA
ATOM     21  H2  UNL     1      24.803 -36.114  15.036  1.00  0.00     0.191 HD
ATOM     22  H3  UNL     1      25.832 -35.634  12.924  1.00  0.00     0.169 HD
BRANCH  19  23
HETATM   23  N1  UNL     1      25.955 -36.470  16.771  1.00  0.00    -0.341 N 
ATOM     24  H12 UNL     1      25.328 -37.098  17.275  1.00  0.00     0.177 HD
ATOM     25  H11 UNL     1      26.762 -36.027  17.211  1.00  0.00     0.177 HD
ENDBRANCH  19  23
ENDBRANCH  16  17
ENDBRANCH  14  16
ENDBRANCH   1  11
BRANCH  10  26
HETATM   26  N8  UNL     1      27.313 -34.763   8.170  1.00  0.00    -0.325 N 
HETATM   27  C10 UNL     1      26.136 -35.449   7.889  1.00  0.00     0.481 C 
HETATM   28  N9  UNL     1      25.966 -36.692   8.634  1.00  0.00    -0.033 N 
HETATM   29  N10 UNL     1      24.910 -34.704   8.132  1.00  0.00    -0.033 N 
ATOM     30  H93 UNL     1      26.773 -37.301   8.497  1.00  0.00     0.278 HD
ATOM     31  H92 UNL     1      26.044 -36.519   9.636  1.00  0.00     0.278 HD
ATOM     32  H91 UNL     1      25.103 -37.196   8.427  1.00  0.00     0.278 HD
ATOM     33 3H10 UNL     1      24.893 -34.359   9.091  1.00  0.00     0.278 HD
ATOM     34 2H10 UNL     1      24.930 -33.820   7.624  1.00  0.00     0.278 HD
ATOM     35 1H10 UNL     1      24.047 -35.208   7.925  1.00  0.00     0.278 HD
ATOM     36  H8  UNL     1      27.733 -35.111   9.031  1.00  0.00     0.165 HD
ENDBRANCH  10  26
TORSDOF 5
ENDMDL
MODEL 5
REMARK VINA RESULT: -5.644090817      4.148      6.074
REMARK  5 active torsions:
REMARK  status: ('A' for Active; 'I' for Inactive)
REMARK    1  A    between atoms: N1_1  and  N2_4 
REMARK       I    between atoms: N2_4  and  C1_6 
REMARK       I    between atoms: C1_6  and  N3_8 
REMARK    2  A    between atoms: N3_8  and  C2_10 
REMARK    3  A    between atoms: C2_10  and  C3_11 
REMARK    4  A    between atoms: C5_14  and  N4_15 
REMARK    5  A    between atoms: C9_24  and  N8_25 
REMARK       I    between atoms: N8_25  and  C10_27 
REMARK       I    between atoms: C10_27  and  N9_28 
REMARK       I    between atoms: C10_27  and  N10_32 
ROOT
HETATM    1  N4  UNL     1      26.445 -32.365   8.015  1.00  0.00    -0.232 N 
HETATM    2  C6  UNL     1      26.944 -32.016   6.813  1.00  0.00     0.333 A 
HETATM    3  O3  UNL     1      26.180 -31.798   5.814  1.00  0.00    -0.246 OA
HETATM    4  N5  UNL     1      28.247 -31.880   6.593  1.00  0.00    -0.295 N 
ATOM      5  H5  UNL     1      28.600 -31.617   5.674  1.00  0.00     0.172 HD
HETATM    6  C7  UNL     1      29.093 -32.102   7.628  1.00  0.00     0.148 A 
HETATM    7  N6  UNL     1      30.495 -31.969   7.441  1.00  0.00    -0.080 NA
HETATM    8  C8  UNL     1      28.602 -32.466   8.887  1.00  0.00     0.131 A 
HETATM    9  N7  UNL     1      29.582 -32.673   9.893  1.00  0.00    -0.095 NA
HETATM   10  C9  UNL     1      27.254 -32.599   9.083  1.00  0.00     0.142 A 
ENDROOT
BRANCH   1  11
HETATM   11  C5  UNL     1      25.020 -32.496   8.185  1.00  0.00     0.383 C 
HETATM   12  O2  UNL     1      24.721 -33.756   8.695  1.00  0.00    -0.341 OA
HETATM   13  C4  UNL     1      23.502 -33.536   9.422  1.00  0.00     0.210 C 
HETATM   14  C3  UNL     1      23.822 -32.253  10.075  1.00  0.00     0.189 C 
HETATM   15  O4  UNL     1      24.505 -31.552   9.034  1.00  0.00    -0.331 OA
BRANCH  14  16
HETATM   16  C2  UNL     1      22.764 -31.424  10.657  1.00  0.00     0.099 C 
BRANCH  16  17
HETATM   17  N3  UNL     1      22.319 -31.740  11.945  1.00  0.00    -0.319 N 
HETATM   18  C1  UNL     1      21.353 -31.123  12.733  1.00  0.00     0.338 C 
HETATM   19  N2  UNL     1      21.046 -31.666  14.053  1.00  0.00    -0.258 N 
HETATM   20  O1  UNL     1      20.731 -30.109  12.348  1.00  0.00    -0.245 OA
ATOM     21  H2  UNL     1      21.522 -32.491  14.418  1.00  0.00     0.191 HD
ATOM     22  H3  UNL     1      22.773 -32.548  12.373  1.00  0.00     0.169 HD
BRANCH  19  23
HETATM   23  N1  UNL     1      20.070 -31.000  14.785  1.00  0.00    -0.341 N 
ATOM     24  H12 UNL     1      20.133 -29.995  14.948  1.00  0.00     0.177 HD
ATOM     25  H11 UNL     1      19.302 -31.569  15.140  1.00  0.00     0.177 HD
ENDBRANCH  19  23
ENDBRANCH  16  17
ENDBRANCH  14  16
ENDBRANCH   1  11
BRANCH  10  26
HETATM   26  N8  UNL     1      26.743 -32.915  10.160  1.00  0.00    -0.325 N 
HETATM   27  C10 UNL     1      26.896 -33.883  11.148  1.00  0.00     0.481 C 
HETATM   28  N9  UNL     1      26.228 -33.575  12.407  1.00  0.00    -0.033 N 
HETATM   29  N10 UNL     1      26.418 -35.212  10.793  1.00  0.00    -0.033 N 
ATOM     30  H93 UNL     1      26.528 -32.663  12.754  1.00  0.00     0.278 HD
ATOM     31  H92 UNL     1      25.238 -33.385  12.247  1.00  0.00     0.278 HD
ATOM     32  H91 UNL     1      26.340 -34.284  13.132  1.00  0.00     0.278 HD
ATOM     33 3H10 UNL     1      25.443 -35.166  10.495  1.00  0.00     0.278 HD
ATOM     34 2H10 UNL     1      26.856 -35.522   9.926  1.00  0.00     0.278 HD
ATOM     35 1H10 UNL     1      26.530 -35.921  11.518  1.00  0.00     0.278 HD
ATOM     36  H8  UNL     1      25.982 -32.278  10.397  1.00  0.00     0.165 HD
ENDBRANCH  10  26
TORSDOF 5
ENDMDL
