MODEL 1
REMARK VINA RESULT: -5.567232334      0.000      0.000
REMARK  8 active torsions:
REMARK  status: ('A' for Active; 'I' for Inactive)
REMARK    1  A    between atoms: N2_3  and  O1_4 
REMARK    2  A    between atoms: C4_8  and  N3_9 
REMARK    3  A    between atoms: N6_19  and  C7_21 
REMARK    4  A    between atoms: C7_21  and  C8_22 
REMARK    5  A    between atoms: C8_22  and  N7_23 
REMARK    6  A    between atoms: N8_27  and  C9_28 
REMARK    7  A    between atoms: C10_32  and  O3_33 
REMARK    8  A    between atoms: C11_35  and  O4_36 
ROOT
HETATM    1  C1  UNL     1      25.182 -32.677  10.149  1.00  0.00     0.166 C 
HETATM    2  N1  UNL     1      26.476 -32.966  10.694  1.00  0.00    -0.112 NA
HETATM    3  N2  UNL     1      26.316 -33.954  11.683  1.00  0.00    -0.160 N 
HETATM    4  C2  UNL     1      26.409 -35.215  11.017  1.00  0.00     0.153 C 
HETATM    5  C3  UNL     1      27.039 -34.941   9.820  1.00  0.00     0.128 C 
HETATM    6  C4  UNL     1      27.345 -35.855   8.834  1.00  0.00     0.134 C 
HETATM    7  N4  UNL     1      27.378 -37.193   8.948  1.00  0.00    -0.293 N 
ATOM      8  H4  UNL     1      27.938 -37.669   8.242  1.00  0.00     0.172 HD
HETATM    9  C5  UNL     1      26.791 -38.006   9.845  1.00  0.00     0.327 C 
HETATM   10  O2  UNL     1      26.901 -39.249   9.678  1.00  0.00    -0.247 OA
HETATM   11  N5  UNL     1      26.076 -37.611  10.938  1.00  0.00    -0.293 N 
ATOM     12  H5  UNL     1      25.547 -38.358  11.388  1.00  0.00     0.172 HD
HETATM   13  C6  UNL     1      25.947 -36.411  11.526  1.00  0.00     0.138 C 
HETATM   14  N6  UNL     1      25.354 -36.347  12.644  1.00  0.00    -0.373 N 
ATOM     15  H6  UNL     1      25.277 -35.417  13.055  1.00  0.00     0.161 HD
HETATM   16  N8  UNL     1      27.335 -33.552   9.732  1.00  0.00    -0.251 N 
ENDROOT
BRANCH  16  17
HETATM   17  C9  UNL     1      28.285 -32.944   8.854  1.00  0.00     0.340 C 
HETATM   18  N9  UNL     1      27.833 -31.769   8.126  1.00  0.00    -0.021 N 
HETATM   19  C10 UNL     1      29.185 -31.227   8.332  1.00  0.00     0.354 C 
ATOM     20  H92 UNL     1      27.425 -31.844   7.193  1.00  0.00     0.283 HD
ATOM     21  H91 UNL     1      27.002 -31.252   8.413  1.00  0.00     0.283 HD
HETATM   22  C11 UNL     1      29.113 -31.940   9.688  1.00  0.00     0.226 C 
BRANCH  19  23
HETATM   23  O3  UNL     1      30.114 -31.752   7.467  1.00  0.00    -0.368 OA
ATOM     24  H3  UNL     1      30.874 -31.194   7.352  1.00  0.00     0.212 HD
ENDBRANCH  19  23
BRANCH  22  25
HETATM   25  O4  UNL     1      28.394 -31.243  10.624  1.00  0.00    -0.387 OA
ATOM     26  H4  UNL     1      28.378 -30.302  10.494  1.00  0.00     0.210 HD
ENDBRANCH  22  25
ENDBRANCH  16  17
BRANCH   3  27
HETATM   27  O1  UNL     1      26.112 -33.801  13.021  1.00  0.00    -0.270 OA
ATOM     28  H1  UNL     1      25.434 -34.180  13.569  1.00  0.00     0.246 HD
ENDBRANCH   3  27
BRANCH   6  29
HETATM   29  N3  UNL     1      27.620 -35.324   7.708  1.00  0.00    -0.383 N 
ATOM     30  H32 UNL     1      28.592 -35.292   7.400  1.00  0.00     0.157 HD
ATOM     31  H31 UNL     1      26.803 -34.971   7.209  1.00  0.00     0.157 HD
ENDBRANCH   6  29
BRANCH  14  32
HETATM   32  C7  UNL     1      24.780 -37.410  13.396  1.00  0.00     0.148 C 
BRANCH  32  33
HETATM   33  C8  UNL     1      25.099 -37.317  14.878  1.00  0.00     0.249 C 
BRANCH  33  34
HETATM   34  N7  UNL     1      25.847 -36.128  15.188  1.00  0.00    -0.078 N 
ATOM     35  H73 UNL     1      25.419 -35.300  14.774  1.00  0.00     0.274 HD
ATOM     36  H72 UNL     1      25.756 -35.879  16.173  1.00  0.00     0.274 HD
ATOM     37  H71 UNL     1      26.827 -36.216  14.916  1.00  0.00     0.274 HD
ENDBRANCH  33  34
ENDBRANCH  32  33
ENDBRANCH  14  32
TORSDOF 8
ENDMDL
MODEL 2
REMARK VINA RESULT: -5.523590712      1.799      1.976
REMARK  8 active torsions:
REMARK  status: ('A' for Active; 'I' for Inactive)
REMARK    1  A    between atoms: N2_3  and  O1_4 
REMARK    2  A    between atoms: C4_8  and  N3_9 
REMARK    3  A    between atoms: N6_19  and  C7_21 
REMARK    4  A    between atoms: C7_21  and  C8_22 
REMARK    5  A    between atoms: C8_22  and  N7_23 
REMARK    6  A    between atoms: N8_27  and  C9_28 
REMARK    7  A    between atoms: C10_32  and  O3_33 
REMARK    8  A    between atoms: C11_35  and  O4_36 
ROOT
HETATM    1  C1  UNL     1      24.613 -32.722   8.576  1.00  0.00     0.166 C 
HETATM    2  N1  UNL     1      25.554 -32.535   9.642  1.00  0.00    -0.112 NA
HETATM    3  N2  UNL     1      24.994 -33.081  10.812  1.00  0.00    -0.160 N 
HETATM    4  C2  UNL     1      25.368 -34.460  10.838  1.00  0.00     0.153 C 
HETATM    5  C3  UNL     1      26.446 -34.553   9.980  1.00  0.00     0.128 C 
HETATM    6  C4  UNL     1      27.148 -35.701   9.677  1.00  0.00     0.134 C 
HETATM    7  N4  UNL     1      27.137 -36.862  10.353  1.00  0.00    -0.293 N 
ATOM      8  H4  UNL     1      27.947 -37.460  10.191  1.00  0.00     0.172 HD
HETATM    9  C5  UNL     1      26.229 -37.364  11.210  1.00  0.00     0.327 C 
HETATM   10  O2  UNL     1      26.406 -38.532  11.643  1.00  0.00    -0.247 OA
HETATM   11  N5  UNL     1      25.114 -36.720  11.665  1.00  0.00    -0.293 N 
ATOM     12  H5  UNL     1      24.449 -37.322  12.148  1.00  0.00     0.172 HD
HETATM   13  C6  UNL     1      24.741 -35.433  11.586  1.00  0.00     0.138 C 
HETATM   14  N6  UNL     1      23.728 -35.058  12.249  1.00  0.00    -0.373 N 
ATOM     15  H6  UNL     1      23.478 -34.072  12.161  1.00  0.00     0.161 HD
HETATM   16  N8  UNL     1      26.743 -33.274   9.431  1.00  0.00    -0.251 N 
ENDROOT
BRANCH  16  17
HETATM   17  C9  UNL     1      27.974 -32.884   8.816  1.00  0.00     0.340 C 
HETATM   18  N9  UNL     1      27.960 -31.627   8.085  1.00  0.00    -0.021 N 
HETATM   19  C10 UNL     1      29.319 -31.407   8.609  1.00  0.00     0.354 C 
ATOM     20  H92 UNL     1      27.764 -31.594   7.085  1.00  0.00     0.283 HD
ATOM     21  H91 UNL     1      27.219 -30.939   8.222  1.00  0.00     0.283 HD
HETATM   22  C11 UNL     1      28.793 -32.106   9.870  1.00  0.00     0.226 C 
BRANCH  19  23
HETATM   23  O3  UNL     1      30.279 -32.116   7.929  1.00  0.00    -0.368 OA
ATOM     24  H3  UNL     1      30.701 -32.779   8.463  1.00  0.00     0.212 HD
ENDBRANCH  19  23
BRANCH  22  25
HETATM   25  O4  UNL     1      28.054 -31.278  10.675  1.00  0.00    -0.387 OA
ATOM     26  H4  UNL     1      27.383 -30.780  10.223  1.00  0.00     0.210 HD
ENDBRANCH  22  25
ENDBRANCH  16  17
BRANCH   3  27
HETATM   27  O1  UNL     1      24.239 -32.469  11.766  1.00  0.00    -0.270 OA
ATOM     28  H1  UNL     1      23.573 -32.842  12.331  1.00  0.00     0.246 HD
ENDBRANCH   3  27
BRANCH   6  29
HETATM   29  N3  UNL     1      27.872 -35.600   8.634  1.00  0.00    -0.383 N 
ATOM     30  H32 UNL     1      27.530 -35.052   7.844  1.00  0.00     0.157 HD
ATOM     31  H31 UNL     1      28.759 -36.099   8.698  1.00  0.00     0.157 HD
ENDBRANCH   6  29
BRANCH  14  32
HETATM   32  C7  UNL     1      22.895 -35.838  13.099  1.00  0.00     0.148 C 
BRANCH  32  33
HETATM   33  C8  UNL     1      21.546 -35.190  13.352  1.00  0.00     0.249 C 
BRANCH  33  34
HETATM   34  N7  UNL     1      21.524 -33.817  12.923  1.00  0.00    -0.078 N 
ATOM     35  H73 UNL     1      22.465 -33.425  12.885  1.00  0.00     0.274 HD
ATOM     36  H72 UNL     1      21.281 -33.740  11.935  1.00  0.00     0.274 HD
ATOM     37  H71 UNL     1      20.907 -33.249  13.503  1.00  0.00     0.274 HD
ENDBRANCH  33  34
ENDBRANCH  32  33
ENDBRANCH  14  32
TORSDOF 8
ENDMDL
MODEL 3
REMARK VINA RESULT: -5.346891060      2.088      6.245
REMARK  8 active torsions:
REMARK  status: ('A' for Active; 'I' for Inactive)
REMARK    1  A    between atoms: N2_3  and  O1_4 
REMARK    2  A    between atoms: C4_8  and  N3_9 
REMARK    3  A    between atoms: N6_19  and  C7_21 
REMARK    4  A    between atoms: C7_21  and  C8_22 
REMARK    5  A    between atoms: C8_22  and  N7_23 
REMARK    6  A    between atoms: N8_27  and  C9_28 
REMARK    7  A    between atoms: C10_32  and  O3_33 
REMARK    8  A    between atoms: C11_35  and  O4_36 
ROOT
HETATM    1  C1  UNL     1      24.981 -37.462  11.100  1.00  0.00     0.166 C 
HETATM    2  N1  UNL     1      26.390 -37.350  11.338  1.00  0.00    -0.112 NA
HETATM    3  N2  UNL     1      27.023 -37.155  10.097  1.00  0.00    -0.160 N 
HETATM    4  C2  UNL     1      27.037 -35.745   9.865  1.00  0.00     0.153 C 
HETATM    5  C3  UNL     1      26.841 -35.176  11.107  1.00  0.00     0.128 C 
HETATM    6  C4  UNL     1      26.775 -33.827  11.384  1.00  0.00     0.134 C 
HETATM    7  N4  UNL     1      27.177 -32.816  10.597  1.00  0.00    -0.293 N 
ATOM      8  H4  UNL     1      27.364 -31.941  11.086  1.00  0.00     0.172 HD
HETATM    9  C5  UNL     1      27.373 -32.771   9.266  1.00  0.00     0.327 C 
HETATM   10  O2  UNL     1      27.663 -31.661   8.748  1.00  0.00    -0.247 OA
HETATM   11  N5  UNL     1      27.287 -33.828   8.407  1.00  0.00    -0.293 N 
ATOM     12  H5  UNL     1      27.274 -33.569   7.421  1.00  0.00     0.172 HD
HETATM   13  C6  UNL     1      27.216 -35.150   8.633  1.00  0.00     0.138 C 
HETATM   14  N6  UNL     1      27.319 -35.937   7.646  1.00  0.00    -0.373 N 
ATOM     15  H6  UNL     1      27.260 -36.933   7.861  1.00  0.00     0.161 HD
HETATM   16  N8  UNL     1      26.708 -36.195  12.093  1.00  0.00    -0.251 N 
ENDROOT
BRANCH  16  17
HETATM   17  C9  UNL     1      26.865 -36.031  13.505  1.00  0.00     0.340 C 
HETATM   18  N9  UNL     1      26.375 -37.115  14.340  1.00  0.00    -0.021 N 
HETATM   19  C10 UNL     1      27.546 -36.870  15.197  1.00  0.00     0.354 C 
ATOM     20  H92 UNL     1      25.427 -37.110  14.718  1.00  0.00     0.283 HD
ATOM     21  H91 UNL     1      26.182 -38.040  13.953  1.00  0.00     0.283 HD
HETATM   22  C11 UNL     1      28.268 -36.558  13.880  1.00  0.00     0.226 C 
BRANCH  19  23
HETATM   23  O3  UNL     1      27.388 -35.785  16.025  1.00  0.00    -0.368 OA
ATOM     24  H3  UNL     1      28.058 -35.730  16.697  1.00  0.00     0.212 HD
ENDBRANCH  19  23
BRANCH  22  25
HETATM   25  O4  UNL     1      28.659 -37.683  13.201  1.00  0.00    -0.387 OA
ATOM     26  H4  UNL     1      28.174 -38.469  13.423  1.00  0.00     0.210 HD
ENDBRANCH  22  25
ENDBRANCH  16  17
BRANCH   3  27
HETATM   27  O1  UNL     1      27.539 -38.082   9.242  1.00  0.00    -0.270 OA
ATOM     28  H1  UNL     1      27.896 -37.958   8.371  1.00  0.00     0.246 HD
ENDBRANCH   3  27
BRANCH   6  29
HETATM   29  N3  UNL     1      26.269 -33.560  12.523  1.00  0.00    -0.383 N 
ATOM     30  H32 UNL     1      26.838 -33.689  13.360  1.00  0.00     0.157 HD
ATOM     31  H31 UNL     1      25.305 -33.231  12.479  1.00  0.00     0.157 HD
ENDBRANCH   6  29
BRANCH  14  32
HETATM   32  C7  UNL     1      27.507 -35.607   6.275  1.00  0.00     0.148 C 
BRANCH  32  33
HETATM   33  C8  UNL     1      28.528 -36.499   5.592  1.00  0.00     0.249 C 
BRANCH  33  34
HETATM   34  N7  UNL     1      28.994 -37.543   6.466  1.00  0.00    -0.078 N 
ATOM     35  H73 UNL     1      29.704 -37.198   7.112  1.00  0.00     0.274 HD
ATOM     36  H72 UNL     1      28.278 -37.806   7.144  1.00  0.00     0.274 HD
ATOM     37  H71 UNL     1      29.327 -38.353   5.944  1.00  0.00     0.274 HD
ENDBRANCH  33  34
ENDBRANCH  32  33
ENDBRANCH  14  32
TORSDOF 8
ENDMDL
MODEL 4
REMARK VINA RESULT: -5.318248334      2.558      3.810
REMARK  8 active torsions:
REMARK  status: ('A' for Active; 'I' for Inactive)
REMARK    1  A    between atoms: N2_3  and  O1_4 
REMARK    2  A    between atoms: C4_8  and  N3_9 
REMARK    3  A    between atoms: N6_19  and  C7_21 
REMARK    4  A    between atoms: C7_21  and  C8_22 
REMARK    5  A    between atoms: C8_22  and  N7_23 
REMARK    6  A    between atoms: N8_27  and  C9_28 
REMARK    7  A    between atoms: C10_32  and  O3_33 
REMARK    8  A    between atoms: C11_35  and  O4_36 
ROOT
HETATM    1  C1  UNL     1      24.899 -36.083  10.006  1.00  0.00     0.166 C 
HETATM    2  N1  UNL     1      25.058 -34.808  10.644  1.00  0.00    -0.112 NA
HETATM    3  N2  UNL     1      24.182 -34.763  11.744  1.00  0.00    -0.160 N 
HETATM    4  C2  UNL     1      24.894 -35.312  12.854  1.00  0.00     0.153 C 
HETATM    5  C3  UNL     1      26.225 -35.236  12.498  1.00  0.00     0.128 C 
HETATM    6  C4  UNL     1      27.297 -35.654  13.258  1.00  0.00     0.134 C 
HETATM    7  N4  UNL     1      27.302 -35.927  14.574  1.00  0.00    -0.293 N 
ATOM      8  H4  UNL     1      28.220 -35.888  15.016  1.00  0.00     0.172 HD
HETATM    9  C5  UNL     1      26.290 -36.242  15.403  1.00  0.00     0.327 C 
HETATM   10  O2  UNL     1      26.573 -36.550  16.591  1.00  0.00    -0.247 OA
HETATM   11  N5  UNL     1      24.965 -36.262  15.080  1.00  0.00    -0.293 N 
ATOM     12  H5  UNL     1      24.369 -36.711  15.774  1.00  0.00     0.172 HD
HETATM   13  C6  UNL     1      24.308 -35.795  14.006  1.00  0.00     0.138 C 
HETATM   14  N6  UNL     1      23.041 -35.788  14.030  1.00  0.00    -0.373 N 
ATOM     15  H6  UNL     1      22.582 -35.425  13.194  1.00  0.00     0.161 HD
HETATM   16  N8  UNL     1      26.350 -34.656  11.204  1.00  0.00    -0.251 N 
ENDROOT
BRANCH  16  17
HETATM   17  C9  UNL     1      27.533 -34.076  10.649  1.00  0.00     0.340 C 
HETATM   18  N9  UNL     1      27.588 -33.983   9.198  1.00  0.00    -0.021 N 
HETATM   19  C10 UNL     1      28.254 -32.685   9.393  1.00  0.00     0.354 C 
ATOM     20  H92 UNL     1      28.010 -34.719   8.633  1.00  0.00     0.283 HD
ATOM     21  H91 UNL     1      26.747 -34.069   8.628  1.00  0.00     0.283 HD
HETATM   22  C11 UNL     1      27.321 -32.546  10.603  1.00  0.00     0.226 C 
BRANCH  19  23
HETATM   23  O3  UNL     1      29.584 -32.805   9.716  1.00  0.00    -0.368 OA
ATOM     24  H3  UNL     1      29.777 -33.595  10.208  1.00  0.00     0.212 HD
ENDBRANCH  19  23
BRANCH  22  25
HETATM   25  O4  UNL     1      26.053 -32.152  10.261  1.00  0.00    -0.387 OA
ATOM     26  H4  UNL     1      25.775 -31.329  10.645  1.00  0.00     0.210 HD
ENDBRANCH  22  25
ENDBRANCH  16  17
BRANCH   3  27
HETATM   27  O1  UNL     1      22.902 -34.301  11.801  1.00  0.00    -0.270 OA
ATOM     28  H1  UNL     1      22.155 -34.667  12.259  1.00  0.00     0.246 HD
ENDBRANCH   3  27
BRANCH   6  29
HETATM   29  N3  UNL     1      28.378 -35.782  12.597  1.00  0.00    -0.383 N 
ATOM     30  H32 UNL     1      28.343 -36.193  11.664  1.00  0.00     0.157 HD
ATOM     31  H31 UNL     1      29.205 -35.444  13.089  1.00  0.00     0.157 HD
ENDBRANCH   6  29
BRANCH  14  32
HETATM   32  C7  UNL     1      22.180 -36.222  15.076  1.00  0.00     0.148 C 
BRANCH  32  33
HETATM   33  C8  UNL     1      21.005 -35.284  15.294  1.00  0.00     0.249 C 
BRANCH  33  34
HETATM   34  N7  UNL     1      21.071 -34.137  14.428  1.00  0.00    -0.078 N 
ATOM     35  H73 UNL     1      21.354 -33.301  14.940  1.00  0.00     0.274 HD
ATOM     36  H72 UNL     1      21.858 -34.202  13.783  1.00  0.00     0.274 HD
ATOM     37  H71 UNL     1      20.193 -33.989  13.930  1.00  0.00     0.274 HD
ENDBRANCH  33  34
ENDBRANCH  32  33
ENDBRANCH  14  32
TORSDOF 8
ENDMDL
MODEL 5
REMARK VINA RESULT: -5.297933756      2.609      3.446
REMARK  8 active torsions:
REMARK  status: ('A' for Active; 'I' for Inactive)
REMARK    1  A    between atoms: N2_3  and  O1_4 
REMARK    2  A    between atoms: C4_8  and  N3_9 
REMARK    3  A    between atoms: N6_19  and  C7_21 
REMARK    4  A    between atoms: C7_21  and  C8_22 
REMARK    5  A    between atoms: C8_22  and  N7_23 
REMARK    6  A    between atoms: N8_27  and  C9_28 
REMARK    7  A    between atoms: C10_32  and  O3_33 
REMARK    8  A    between atoms: C11_35  and  O4_36 
ROOT
HETATM    1  C1  UNL     1      25.364 -35.279   8.499  1.00  0.00     0.166 C 
HETATM    2  N1  UNL     1      25.430 -34.052   9.240  1.00  0.00    -0.112 NA
HETATM    3  N2  UNL     1      24.316 -34.007  10.098  1.00  0.00    -0.160 N 
HETATM    4  C2  UNL     1      24.708 -34.659  11.308  1.00  0.00     0.153 C 
HETATM    5  C3  UNL     1      26.088 -34.653  11.287  1.00  0.00     0.128 C 
HETATM    6  C4  UNL     1      26.920 -35.179  12.252  1.00  0.00     0.134 C 
HETATM    7  N4  UNL     1      26.591 -35.519  13.510  1.00  0.00    -0.293 N 
ATOM      8  H4  UNL     1      27.375 -35.565  14.160  1.00  0.00     0.172 HD
HETATM    9  C5  UNL     1      25.393 -35.810  14.050  1.00  0.00     0.327 C 
HETATM   10  O2  UNL     1      25.363 -36.197  15.247  1.00  0.00    -0.247 OA
HETATM   11  N5  UNL     1      24.187 -35.726  13.417  1.00  0.00    -0.293 N 
ATOM     12  H5  UNL     1      23.417 -36.169  13.918  1.00  0.00     0.172 HD
HETATM   13  C6  UNL     1      23.836 -35.161  12.251  1.00  0.00     0.138 C 
HETATM   14  N6  UNL     1      22.603 -35.071  11.972  1.00  0.00    -0.373 N 
ATOM     15  H6  UNL     1      22.380 -34.635  11.076  1.00  0.00     0.161 HD
HETATM   16  N8  UNL     1      26.553 -34.016  10.102  1.00  0.00    -0.251 N 
ENDROOT
BRANCH  16  17
HETATM   17  C9  UNL     1      27.864 -33.486   9.885  1.00  0.00     0.340 C 
HETATM   18  N9  UNL     1      28.160 -33.023   8.539  1.00  0.00    -0.021 N 
HETATM   19  C10 UNL     1      28.918 -31.933   9.174  1.00  0.00     0.354 C 
ATOM     20  H92 UNL     1      28.588 -33.637   7.846  1.00  0.00     0.283 HD
ATOM     21  H91 UNL     1      27.417 -32.833   7.867  1.00  0.00     0.283 HD
HETATM   22  C11 UNL     1      27.823 -31.985  10.247  1.00  0.00     0.226 C 
BRANCH  19  23
HETATM   23  O3  UNL     1      30.159 -32.326   9.614  1.00  0.00    -0.368 OA
ATOM     24  H3  UNL     1      30.870 -31.864   9.184  1.00  0.00     0.212 HD
ENDBRANCH  19  23
BRANCH  22  25
HETATM   25  O4  UNL     1      26.674 -31.336   9.875  1.00  0.00    -0.387 OA
ATOM     26  H4  UNL     1      26.446 -30.589  10.415  1.00  0.00     0.210 HD
ENDBRANCH  22  25
ENDBRANCH  16  17
BRANCH   3  27
HETATM   27  O1  UNL     1      23.086 -33.465   9.878  1.00  0.00    -0.270 OA
ATOM     28  H1  UNL     1      22.402 -33.262  10.504  1.00  0.00     0.246 HD
ENDBRANCH   3  27
BRANCH   6  29
HETATM   29  N3  UNL     1      28.121 -35.344  11.861  1.00  0.00    -0.383 N 
ATOM     30  H32 UNL     1      28.885 -35.043  12.468  1.00  0.00     0.157 HD
ATOM     31  H31 UNL     1      28.200 -35.779  10.942  1.00  0.00     0.157 HD
ENDBRANCH   6  29
BRANCH  14  32
HETATM   32  C7  UNL     1      21.492 -35.501  12.750  1.00  0.00     0.148 C 
BRANCH  32  33
HETATM   33  C8  UNL     1      20.731 -34.344  13.373  1.00  0.00     0.249 C 
BRANCH  33  34
HETATM   34  N7  UNL     1      21.006 -34.220  14.779  1.00  0.00    -0.078 N 
ATOM     35  H73 UNL     1      21.221 -33.255  15.032  1.00  0.00     0.274 HD
ATOM     36  H72 UNL     1      20.160 -34.346  15.336  1.00  0.00     0.274 HD
ATOM     37  H71 UNL     1      21.745 -34.857  15.077  1.00  0.00     0.274 HD
ENDBRANCH  33  34
ENDBRANCH  32  33
ENDBRANCH  14  32
TORSDOF 8
ENDMDL
