MODEL 1
REMARK VINA RESULT: -5.957515423      0.000      0.000
REMARK  10 active torsions:
REMARK  status: ('A' for Active; 'I' for Inactive)
REMARK    1  A    between atoms: N1_1  and  N2_4 
REMARK       I    between atoms: N2_4  and  C1_6 
REMARK    2  A    between atoms: C1_6  and  C2_8 
REMARK    3  A    between atoms: C2_8  and  O3_10 
REMARK    4  A    between atoms: O3_10  and  C3_11 
REMARK    5  A    between atoms: C5_15  and  C6_16 
REMARK    6  A    between atoms: C7_19  and  C8_20 
REMARK    7  A    between atoms: C8_20  and  O5_21 
REMARK    8  A    between atoms: C8_20  and  O6_23 
REMARK    9  A    between atoms: C9_28  and  O7_29 
REMARK   10  A    between atoms: C10_31  and  O8_32 
ROOT
HETATM    1  C3  UNL     1      28.308 -34.804   5.996  1.00  0.00     0.234 C 
HETATM    2  C4  UNL     1      28.175 -34.125   7.316  1.00  0.00     0.136 A 
HETATM    3  N3  UNL     1      27.824 -34.671   8.470  1.00  0.00    -0.336 N 
ATOM      4  H3  UNL     1      27.597 -35.656   8.601  1.00  0.00     0.167 HD
HETATM    5  C5  UNL     1      27.807 -33.725   9.470  1.00  0.00     0.129 A 
HETATM    6  C7  UNL     1      28.166 -32.558   8.885  1.00  0.00     0.121 A 
HETATM    7  N5  UNL     1      28.385 -32.840   7.554  1.00  0.00    -0.240 N 
HETATM    8  N6  UNL     1      28.770 -32.019   6.493  1.00  0.00    -0.297 N 
ATOM      9  H6  UNL     1      28.605 -31.013   6.519  1.00  0.00     0.183 HD
HETATM   10  C9  UNL     1      29.413 -32.644   5.353  1.00  0.00     0.265 C 
HETATM   11  C10 UNL     1      28.709 -33.888   4.908  1.00  0.00     0.205 C 
ENDROOT
BRANCH   1  12
HETATM   12  O3  UNL     1      29.244 -35.862   6.174  1.00  0.00    -0.298 OA
BRANCH  12  13
HETATM   13  C2  UNL     1      28.881 -37.200   6.107  1.00  0.00     0.354 C 
HETATM   14  O2  UNL     1      28.674 -37.662   4.949  1.00  0.00    -0.254 OA
BRANCH  13  15
HETATM   15  C1  UNL     1      28.742 -38.035   7.293  1.00  0.00     0.334 C 
HETATM   16  N2  UNL     1      29.721 -38.987   7.612  1.00  0.00    -0.268 N 
ATOM     17  H2  UNL     1      30.539 -39.101   7.014  1.00  0.00     0.190 HD
HETATM   18  O1  UNL     1      27.728 -37.883   8.019  1.00  0.00    -0.260 OA
BRANCH  16  19
HETATM   19  N1  UNL     1      29.568 -39.783   8.761  1.00  0.00    -0.342 N 
ATOM     20  H12 UNL     1      29.419 -40.787   8.654  1.00  0.00     0.176 HD
ATOM     21  H11 UNL     1      29.609 -39.351   9.684  1.00  0.00     0.176 HD
ENDBRANCH  16  19
ENDBRANCH  13  15
ENDBRANCH  12  13
ENDBRANCH   1  12
BRANCH  11  22
HETATM   22  O8  UNL     1      29.559 -34.564   4.015  1.00  0.00    -0.388 OA
ATOM     23  H8  UNL     1      30.394 -34.731   4.437  1.00  0.00     0.210 HD
ENDBRANCH  11  22
BRANCH  10  24
HETATM   24  O7  UNL     1      29.424 -31.723   4.321  1.00  0.00    -0.373 OA
ATOM     25  H7  UNL     1      30.091 -31.994   3.701  1.00  0.00     0.212 HD
ENDBRANCH  10  24
BRANCH   5  26
HETATM   26  C6  UNL     1      27.444 -34.038  10.849  1.00  0.00     0.283 C 
HETATM   27  N4  UNL     1      26.338 -33.287  11.405  1.00  0.00    -0.056 NA
HETATM   28  O4  UNL     1      28.025 -34.890  11.532  1.00  0.00    -0.269 OA
ENDBRANCH   5  26
BRANCH   6  29
HETATM   29  C8  UNL     1      28.373 -31.203   9.420  1.00  0.00     0.309 C 
BRANCH  29  30
HETATM   30  O5  UNL     1      29.726 -30.847   9.113  1.00  0.00    -0.366 OA
ATOM     31  H5  UNL     1      29.695 -29.987   8.711  1.00  0.00     0.213 HD
ENDBRANCH  29  30
BRANCH  29  32
HETATM   32  O6  UNL     1      28.269 -31.129  10.796  1.00  0.00    -0.366 OA
ATOM     33  H6  UNL     1      27.398 -30.903  11.100  1.00  0.00     0.213 HD
ENDBRANCH  29  32
ENDBRANCH   6  29
TORSDOF 10
ENDMDL
MODEL 2
REMARK VINA RESULT: -5.676797842      1.761      4.666
REMARK  10 active torsions:
REMARK  status: ('A' for Active; 'I' for Inactive)
REMARK    1  A    between atoms: N1_1  and  N2_4 
REMARK       I    between atoms: N2_4  and  C1_6 
REMARK    2  A    between atoms: C1_6  and  C2_8 
REMARK    3  A    between atoms: C2_8  and  O3_10 
REMARK    4  A    between atoms: O3_10  and  C3_11 
REMARK    5  A    between atoms: C5_15  and  C6_16 
REMARK    6  A    between atoms: C7_19  and  C8_20 
REMARK    7  A    between atoms: C8_20  and  O5_21 
REMARK    8  A    between atoms: C8_20  and  O6_23 
REMARK    9  A    between atoms: C9_28  and  O7_29 
REMARK   10  A    between atoms: C10_31  and  O8_32 
ROOT
HETATM    1  C3  UNL     1      27.027 -36.076  10.261  1.00  0.00     0.234 C 
HETATM    2  C4  UNL     1      27.522 -34.840   9.592  1.00  0.00     0.136 A 
HETATM    3  N3  UNL     1      28.009 -34.728   8.366  1.00  0.00    -0.336 N 
ATOM      4  H3  UNL     1      28.104 -35.500   7.707  1.00  0.00     0.167 HD
HETATM    5  C5  UNL     1      28.367 -33.425   8.103  1.00  0.00     0.129 A 
HETATM    6  C7  UNL     1      28.081 -32.726   9.225  1.00  0.00     0.121 A 
HETATM    7  N5  UNL     1      27.562 -33.630  10.126  1.00  0.00    -0.240 N 
HETATM    8  N6  UNL     1      27.102 -33.462  11.434  1.00  0.00    -0.297 N 
ATOM      9  H6  UNL     1      27.421 -32.682  12.008  1.00  0.00     0.183 HD
HETATM   10  C9  UNL     1      26.157 -34.435  11.949  1.00  0.00     0.265 C 
HETATM   11  C10 UNL     1      26.562 -35.844  11.644  1.00  0.00     0.205 C 
ENDROOT
BRANCH   1  12
HETATM   12  O3  UNL     1      25.996 -36.603   9.433  1.00  0.00    -0.298 OA
BRANCH  12  13
HETATM   13  C2  UNL     1      26.174 -37.730   8.642  1.00  0.00     0.354 C 
HETATM   14  O2  UNL     1      25.133 -38.394   8.376  1.00  0.00    -0.254 OA
BRANCH  13  15
HETATM   15  C1  UNL     1      27.481 -38.136   8.140  1.00  0.00     0.334 C 
HETATM   16  N2  UNL     1      28.225 -39.119   8.805  1.00  0.00    -0.268 N 
ATOM     17  H2  UNL     1      27.856 -39.559   9.648  1.00  0.00     0.190 HD
HETATM   18  O1  UNL     1      27.922 -37.584   7.101  1.00  0.00    -0.260 OA
BRANCH  16  19
HETATM   19  N1  UNL     1      29.484 -39.496   8.304  1.00  0.00    -0.342 N 
ATOM     20  H12 UNL     1      29.546 -39.913   7.376  1.00  0.00     0.176 HD
ATOM     21  H11 UNL     1      30.318 -39.349   8.873  1.00  0.00     0.176 HD
ENDBRANCH  16  19
ENDBRANCH  13  15
ENDBRANCH  12  13
ENDBRANCH   1  12
BRANCH  11  22
HETATM   22  O8  UNL     1      25.458 -36.673  11.913  1.00  0.00    -0.388 OA
ATOM     23  H8  UNL     1      25.764 -37.512  12.237  1.00  0.00     0.210 HD
ENDBRANCH  11  22
BRANCH  10  24
HETATM   24  O7  UNL     1      26.082 -34.261  13.319  1.00  0.00    -0.373 OA
ATOM     25  H7  UNL     1      25.378 -34.813  13.640  1.00  0.00     0.212 HD
ENDBRANCH  10  24
BRANCH   5  26
HETATM   26  C6  UNL     1      28.946 -33.007   6.829  1.00  0.00     0.283 C 
HETATM   27  N4  UNL     1      30.359 -32.691   6.842  1.00  0.00    -0.056 NA
HETATM   28  O4  UNL     1      28.297 -32.916   5.781  1.00  0.00    -0.269 OA
ENDBRANCH   5  26
BRANCH   6  29
HETATM   29  C8  UNL     1      28.193 -31.297   9.560  1.00  0.00     0.309 C 
BRANCH  29  30
HETATM   30  O5  UNL     1      29.500 -30.883   9.146  1.00  0.00    -0.366 OA
ATOM     31  H5  UNL     1      29.374 -30.202   8.495  1.00  0.00     0.213 HD
ENDBRANCH  29  30
BRANCH  29  32
HETATM   32  O6  UNL     1      28.132 -31.041  10.917  1.00  0.00    -0.366 OA
ATOM     33  H6  UNL     1      28.610 -31.670  11.445  1.00  0.00     0.213 HD
ENDBRANCH  29  32
ENDBRANCH   6  29
TORSDOF 10
ENDMDL
MODEL 3
REMARK VINA RESULT: -5.635149376      1.969      6.178
REMARK  10 active torsions:
REMARK  status: ('A' for Active; 'I' for Inactive)
REMARK    1  A    between atoms: N1_1  and  N2_4 
REMARK       I    between atoms: N2_4  and  C1_6 
REMARK    2  A    between atoms: C1_6  and  C2_8 
REMARK    3  A    between atoms: C2_8  and  O3_10 
REMARK    4  A    between atoms: O3_10  and  C3_11 
REMARK    5  A    between atoms: C5_15  and  C6_16 
REMARK    6  A    between atoms: C7_19  and  C8_20 
REMARK    7  A    between atoms: C8_20  and  O5_21 
REMARK    8  A    between atoms: C8_20  and  O6_23 
REMARK    9  A    between atoms: C9_28  and  O7_29 
REMARK   10  A    between atoms: C10_31  and  O8_32 
ROOT
HETATM    1  C3  UNL     1      27.635 -33.190   9.110  1.00  0.00     0.234 C 
HETATM    2  C4  UNL     1      27.502 -34.655   8.873  1.00  0.00     0.136 A 
HETATM    3  N3  UNL     1      27.882 -35.336   7.802  1.00  0.00    -0.336 N 
ATOM      4  H3  UNL     1      28.329 -34.925   6.983  1.00  0.00     0.167 HD
HETATM    5  C5  UNL     1      27.590 -36.673   7.948  1.00  0.00     0.129 A 
HETATM    6  C7  UNL     1      27.009 -36.798   9.163  1.00  0.00     0.121 A 
HETATM    7  N5  UNL     1      26.968 -35.533   9.708  1.00  0.00    -0.240 N 
HETATM    8  N6  UNL     1      26.478 -35.076  10.933  1.00  0.00    -0.297 N 
ATOM      9  H6  UNL     1      25.765 -35.598  11.443  1.00  0.00     0.183 HD
HETATM   10  C9  UNL     1      27.015 -33.834  11.455  1.00  0.00     0.265 C 
HETATM   11  C10 UNL     1      27.093 -32.760  10.415  1.00  0.00     0.205 C 
ENDROOT
BRANCH   1  12
HETATM   12  O3  UNL     1      29.018 -32.879   8.979  1.00  0.00    -0.298 OA
BRANCH  12  13
HETATM   13  C2  UNL     1      29.497 -31.993   8.024  1.00  0.00     0.354 C 
HETATM   14  O2  UNL     1      29.718 -30.814   8.420  1.00  0.00    -0.254 OA
BRANCH  13  15
HETATM   15  C1  UNL     1      29.736 -32.385   6.640  1.00  0.00     0.334 C 
HETATM   16  N2  UNL     1      29.493 -31.486   5.593  1.00  0.00    -0.268 N 
ATOM     17  H2  UNL     1      29.147 -30.548   5.794  1.00  0.00     0.190 HD
HETATM   18  O1  UNL     1      30.162 -33.545   6.411  1.00  0.00    -0.260 OA
BRANCH  16  19
HETATM   19  N1  UNL     1      29.730 -31.884   4.265  1.00  0.00    -0.342 N 
ATOM     20  H12 UNL     1      29.088 -31.581   3.534  1.00  0.00     0.176 HD
ATOM     21  H11 UNL     1      30.538 -32.467   4.050  1.00  0.00     0.176 HD
ENDBRANCH  16  19
ENDBRANCH  13  15
ENDBRANCH  12  13
ENDBRANCH   1  12
BRANCH  11  22
HETATM   22  O8  UNL     1      27.886 -31.720  10.933  1.00  0.00    -0.388 OA
ATOM     23  H8  UNL     1      28.369 -32.036  11.688  1.00  0.00     0.210 HD
ENDBRANCH  11  22
BRANCH  10  24
HETATM   24  O7  UNL     1      26.190 -33.421  12.486  1.00  0.00    -0.373 OA
ATOM     25  H7  UNL     1      25.528 -34.092  12.609  1.00  0.00     0.212 HD
ENDBRANCH  10  24
BRANCH   5  26
HETATM   26  C6  UNL     1      27.886 -37.663   6.916  1.00  0.00     0.283 C 
HETATM   27  N4  UNL     1      29.178 -38.312   7.005  1.00  0.00    -0.056 NA
HETATM   28  O4  UNL     1      27.104 -37.955   6.004  1.00  0.00    -0.269 OA
ENDBRANCH   5  26
BRANCH   6  29
HETATM   29  C8  UNL     1      26.514 -37.964   9.912  1.00  0.00     0.309 C 
BRANCH  29  30
HETATM   30  O5  UNL     1      25.165 -37.664  10.288  1.00  0.00    -0.366 OA
ATOM     31  H5  UNL     1      24.605 -38.133   9.680  1.00  0.00     0.213 HD
ENDBRANCH  29  30
BRANCH  29  32
HETATM   32  O6  UNL     1      27.192 -38.190  11.095  1.00  0.00    -0.366 OA
ATOM     33  H6  UNL     1      27.988 -37.678  11.181  1.00  0.00     0.213 HD
ENDBRANCH  29  32
ENDBRANCH   6  29
TORSDOF 10
ENDMDL
MODEL 4
REMARK VINA RESULT: -5.398481007      3.693      6.695
REMARK  10 active torsions:
REMARK  status: ('A' for Active; 'I' for Inactive)
REMARK    1  A    between atoms: N1_1  and  N2_4 
REMARK       I    between atoms: N2_4  and  C1_6 
REMARK    2  A    between atoms: C1_6  and  C2_8 
REMARK    3  A    between atoms: C2_8  and  O3_10 
REMARK    4  A    between atoms: O3_10  and  C3_11 
REMARK    5  A    between atoms: C5_15  and  C6_16 
REMARK    6  A    between atoms: C7_19  and  C8_20 
REMARK    7  A    between atoms: C8_20  and  O5_21 
REMARK    8  A    between atoms: C8_20  and  O6_23 
REMARK    9  A    between atoms: C9_28  and  O7_29 
REMARK   10  A    between atoms: C10_31  and  O8_32 
ROOT
HETATM    1  C3  UNL     1      27.971 -37.766  13.194  1.00  0.00     0.234 C 
HETATM    2  C4  UNL     1      27.477 -36.808  12.167  1.00  0.00     0.136 A 
HETATM    3  N3  UNL     1      27.367 -37.011  10.863  1.00  0.00    -0.336 N 
ATOM      4  H3  UNL     1      27.613 -37.879  10.388  1.00  0.00     0.167 HD
HETATM    5  C5  UNL     1      26.874 -35.889  10.236  1.00  0.00     0.129 A 
HETATM    6  C7  UNL     1      26.679 -34.972  11.212  1.00  0.00     0.121 A 
HETATM    7  N5  UNL     1      27.063 -35.571  12.392  1.00  0.00    -0.240 N 
HETATM    8  N6  UNL     1      27.076 -35.091  13.703  1.00  0.00    -0.297 N 
ATOM      9  H6  UNL     1      27.118 -34.091  13.897  1.00  0.00     0.183 HD
HETATM   10  C9  UNL     1      27.030 -36.063  14.779  1.00  0.00     0.265 C 
HETATM   11  C10 UNL     1      27.973 -37.205  14.561  1.00  0.00     0.205 C 
ENDROOT
BRANCH   1  12
HETATM   12  O3  UNL     1      27.153 -38.928  13.096  1.00  0.00    -0.298 OA
BRANCH  12  13
HETATM   13  C2  UNL     1      27.629 -40.137  12.608  1.00  0.00     0.354 C 
HETATM   14  O2  UNL     1      27.150 -41.179  13.140  1.00  0.00    -0.254 OA
BRANCH  13  15
HETATM   15  C1  UNL     1      28.622 -40.217  11.545  1.00  0.00     0.334 C 
HETATM   16  N2  UNL     1      29.986 -40.326  11.852  1.00  0.00    -0.268 N 
ATOM     17  H2  UNL     1      30.292 -40.351  12.824  1.00  0.00     0.190 HD
HETATM   18  O1  UNL     1      28.229 -40.185  10.352  1.00  0.00    -0.260 OA
BRANCH  16  19
HETATM   19  N1  UNL     1      30.929 -40.402  10.811  1.00  0.00    -0.342 N 
ATOM     20  H12 UNL     1      30.606 -40.372   9.844  1.00  0.00     0.176 HD
ATOM     21  H11 UNL     1      31.921 -40.485  11.034  1.00  0.00     0.176 HD
ENDBRANCH  16  19
ENDBRANCH  13  15
ENDBRANCH  12  13
ENDBRANCH   1  12
BRANCH  11  22
HETATM   22  O8  UNL     1      27.641 -38.214  15.483  1.00  0.00    -0.388 OA
ATOM     23  H8  UNL     1      27.867 -39.063  15.120  1.00  0.00     0.210 HD
ENDBRANCH  11  22
BRANCH  10  24
HETATM   24  O7  UNL     1      27.361 -35.406  15.951  1.00  0.00    -0.373 OA
ATOM     25  H7  UNL     1      26.783 -34.657  16.033  1.00  0.00     0.212 HD
ENDBRANCH  10  24
BRANCH   5  26
HETATM   26  C6  UNL     1      26.659 -35.820   8.794  1.00  0.00     0.283 C 
HETATM   27  N4  UNL     1      27.541 -34.939   8.057  1.00  0.00    -0.056 NA
HETATM   28  O4  UNL     1      25.784 -36.462   8.201  1.00  0.00    -0.269 OA
ENDBRANCH   5  26
BRANCH   6  29
HETATM   29  C8  UNL     1      26.138 -33.604  11.194  1.00  0.00     0.309 C 
BRANCH  29  30
HETATM   30  O5  UNL     1      27.240 -32.727  11.460  1.00  0.00    -0.366 OA
ATOM     31  H5  UNL     1      27.515 -32.903  12.352  1.00  0.00     0.213 HD
ENDBRANCH  29  30
BRANCH  29  32
HETATM   32  O6  UNL     1      25.216 -33.360  12.195  1.00  0.00    -0.366 OA
ATOM     33  H6  UNL     1      24.327 -33.256  11.876  1.00  0.00     0.213 HD
ENDBRANCH  29  32
ENDBRANCH   6  29
TORSDOF 10
ENDMDL
MODEL 5
REMARK VINA RESULT: -5.320832796      1.470      1.765
REMARK  10 active torsions:
REMARK  status: ('A' for Active; 'I' for Inactive)
REMARK    1  A    between atoms: N1_1  and  N2_4 
REMARK       I    between atoms: N2_4  and  C1_6 
REMARK    2  A    between atoms: C1_6  and  C2_8 
REMARK    3  A    between atoms: C2_8  and  O3_10 
REMARK    4  A    between atoms: O3_10  and  C3_11 
REMARK    5  A    between atoms: C5_15  and  C6_16 
REMARK    6  A    between atoms: C7_19  and  C8_20 
REMARK    7  A    between atoms: C8_20  and  O5_21 
REMARK    8  A    between atoms: C8_20  and  O6_23 
REMARK    9  A    between atoms: C9_28  and  O7_29 
REMARK   10  A    between atoms: C10_31  and  O8_32 
ROOT
HETATM    1  C3  UNL     1      28.367 -34.832   6.030  1.00  0.00     0.234 C 
HETATM    2  C4  UNL     1      28.210 -34.145   7.343  1.00  0.00     0.136 A 
HETATM    3  N3  UNL     1      27.856 -34.688   8.498  1.00  0.00    -0.336 N 
ATOM      4  H3  UNL     1      27.643 -35.676   8.634  1.00  0.00     0.167 HD
HETATM    5  C5  UNL     1      27.815 -33.735   9.490  1.00  0.00     0.129 A 
HETATM    6  C7  UNL     1      28.163 -32.568   8.900  1.00  0.00     0.121 A 
HETATM    7  N5  UNL     1      28.398 -32.856   7.573  1.00  0.00    -0.240 N 
HETATM    8  N6  UNL     1      28.782 -32.037   6.510  1.00  0.00    -0.297 N 
ATOM      9  H6  UNL     1      28.601 -31.033   6.526  1.00  0.00     0.183 HD
HETATM   10  C9  UNL     1      29.446 -32.661   5.381  1.00  0.00     0.265 C 
HETATM   11  C10 UNL     1      28.765 -33.918   4.939  1.00  0.00     0.205 C 
ENDROOT
BRANCH   1  12
HETATM   12  O3  UNL     1      29.317 -35.874   6.225  1.00  0.00    -0.298 OA
BRANCH  12  13
HETATM   13  C2  UNL     1      28.979 -37.218   6.144  1.00  0.00     0.354 C 
HETATM   14  O2  UNL     1      28.104 -37.622   6.962  1.00  0.00    -0.254 OA
BRANCH  13  15
HETATM   15  C1  UNL     1      29.588 -38.124   5.178  1.00  0.00     0.334 C 
HETATM   16  N2  UNL     1      29.480 -37.875   3.803  1.00  0.00    -0.268 N 
ATOM     17  H2  UNL     1      28.973 -37.056   3.469  1.00  0.00     0.190 HD
HETATM   18  O1  UNL     1      30.209 -39.129   5.607  1.00  0.00    -0.260 OA
BRANCH  16  19
HETATM   19  N1  UNL     1      30.075 -38.761   2.888  1.00  0.00    -0.342 N 
ATOM     20  H12 UNL     1      31.092 -38.824   2.845  1.00  0.00     0.176 HD
ATOM     21  H11 UNL     1      29.485 -39.330   2.280  1.00  0.00     0.176 HD
ENDBRANCH  16  19
ENDBRANCH  13  15
ENDBRANCH  12  13
ENDBRANCH   1  12
BRANCH  11  22
HETATM   22  O8  UNL     1      29.634 -34.588   4.060  1.00  0.00    -0.388 OA
ATOM     23  H8  UNL     1      29.992 -33.968   3.434  1.00  0.00     0.210 HD
ENDBRANCH  11  22
BRANCH  10  24
HETATM   24  O7  UNL     1      29.453 -31.747   4.342  1.00  0.00    -0.373 OA
ATOM     25  H7  UNL     1      30.331 -31.732   3.979  1.00  0.00     0.212 HD
ENDBRANCH  10  24
BRANCH   5  26
HETATM   26  C6  UNL     1      27.443 -34.044  10.867  1.00  0.00     0.283 C 
HETATM   27  N4  UNL     1      26.335 -33.289  11.415  1.00  0.00    -0.056 NA
HETATM   28  O4  UNL     1      28.018 -34.894  11.557  1.00  0.00    -0.269 OA
ENDBRANCH   5  26
BRANCH   6  29
HETATM   29  C8  UNL     1      28.344 -31.205   9.426  1.00  0.00     0.309 C 
BRANCH  29  30
HETATM   30  O5  UNL     1      29.686 -30.821   9.108  1.00  0.00    -0.366 OA
ATOM     31  H5  UNL     1      29.629 -30.220   8.375  1.00  0.00     0.213 HD
ENDBRANCH  29  30
BRANCH  29  32
HETATM   32  O6  UNL     1      28.248 -31.127  10.803  1.00  0.00    -0.366 OA
ATOM     33  H6  UNL     1      28.773 -30.430  11.182  1.00  0.00     0.213 HD
ENDBRANCH  29  32
ENDBRANCH   6  29
TORSDOF 10
ENDMDL
