MODEL 1
REMARK VINA RESULT: -5.339777409      0.000      0.000
REMARK  9 active torsions:
REMARK  status: ('A' for Active; 'I' for Inactive)
REMARK    1  A    between atoms: N1_1  and  C1_4 
REMARK    2  A    between atoms: N4_12  and  C5_13 
REMARK    3  A    between atoms: C5_13  and  C6_14 
REMARK    4  A    between atoms: C7_18  and  C8_19 
REMARK    5  A    between atoms: C8_19  and  N5_20 
REMARK    6  A    between atoms: C8_19  and  C9_24 
REMARK    7  A    between atoms: C9_24  and  O4_25 
REMARK    8  A    between atoms: C10_27  and  O5_28 
REMARK    9  A    between atoms: N6_32  and  N7_33 
ROOT
HETATM    1  C1  UNL     1      28.820 -32.066   8.777  1.00  0.00     0.701 A 
HETATM    2  N2  UNL     1      28.049 -32.816   9.586  1.00  0.00    -0.172 N 
ATOM      3  H2  UNL     1      27.819 -32.490  10.525  1.00  0.00     0.186 HD
HETATM    4  C2  UNL     1      27.579 -34.016   9.141  1.00  0.00     0.160 A 
HETATM    5  C3  UNL     1      27.907 -34.428   7.870  1.00  0.00     0.149 A 
HETATM    6  N3  UNL     1      27.342 -35.621   7.648  1.00  0.00    -0.344 N 
ATOM      7  H3  UNL     1      27.406 -36.178   6.796  1.00  0.00     0.167 HD
HETATM    8  C4  UNL     1      26.683 -35.935   8.758  1.00  0.00     0.189 A 
HETATM    9  N4  UNL     1      26.816 -34.972   9.674  1.00  0.00    -0.282 N 
HETATM   10  C11 UNL     1      28.696 -33.645   7.058  1.00  0.00     0.312 A 
HETATM   11  O6  UNL     1      28.983 -34.040   5.900  1.00  0.00    -0.263 OA
HETATM   12  N6  UNL     1      29.150 -32.455   7.529  1.00  0.00    -0.052 N 
ENDROOT
BRANCH   9  13
HETATM   13  C5  UNL     1      26.223 -35.009  10.982  1.00  0.00     0.262 C 
HETATM   14  O3  UNL     1      25.980 -36.239  11.524  1.00  0.00    -0.339 OA
HETATM   15  C7  UNL     1      26.349 -35.738  12.767  1.00  0.00     0.192 C 
HETATM   16  C10 UNL     1      27.264 -34.773  12.047  1.00  0.00     0.217 C 
BRANCH  13  17
HETATM   17  C6  UNL     1      25.051 -34.105  11.158  1.00  0.00     0.235 C 
HETATM   18  O1  UNL     1      23.852 -34.467  11.069  1.00  0.00    -0.644 OA
HETATM   19  O2  UNL     1      25.310 -32.781  11.441  1.00  0.00    -0.644 OA
ENDBRANCH  13  17
BRANCH  15  20
HETATM   20  C8  UNL     1      27.144 -36.698  13.622  1.00  0.00     0.238 C 
BRANCH  20  21
HETATM   21  N5  UNL     1      26.940 -38.072  13.265  1.00  0.00    -0.070 N 
ATOM     22  H53 UNL     1      26.950 -38.668  14.093  1.00  0.00     0.274 HD
ATOM     23  H52 UNL     1      25.980 -38.229  12.957  1.00  0.00     0.274 HD
ATOM     24  H51 UNL     1      27.604 -38.408  12.568  1.00  0.00     0.274 HD
ENDBRANCH  20  21
BRANCH  20  25
HETATM   25  C9  UNL     1      26.783 -36.490  15.071  1.00  0.00     0.199 C 
BRANCH  25  26
HETATM   26  O4  UNL     1      27.413 -35.359  15.589  1.00  0.00    -0.399 OA
ATOM     27  H4  UNL     1      26.998 -34.563  15.277  1.00  0.00     0.209 HD
ENDBRANCH  25  26
ENDBRANCH  20  25
ENDBRANCH  15  20
BRANCH  16  28
HETATM   28  O5  UNL     1      28.488 -35.368  11.830  1.00  0.00    -0.387 OA
ATOM     29  H5  UNL     1      29.239 -34.786  11.851  1.00  0.00     0.210 HD
ENDBRANCH  16  28
ENDBRANCH   9  13
BRANCH   1  30
HETATM   30  N1  UNL     1      29.264 -30.923   9.210  1.00  0.00    -0.233 N 
ATOM     31  H12 UNL     1      29.622 -30.868  10.163  1.00  0.00     0.174 HD
ATOM     32  H11 UNL     1      29.242 -30.115   8.587  1.00  0.00     0.174 HD
ENDBRANCH   1  30
BRANCH  12  33
HETATM   33  N7  UNL     1      29.940 -31.700   6.679  1.00  0.00    -0.321 N 
ATOM     34  H72 UNL     1      30.091 -30.722   6.929  1.00  0.00     0.178 HD
ATOM     35  H71 UNL     1      30.369 -32.073   5.832  1.00  0.00     0.178 HD
ENDBRANCH  12  33
TORSDOF 9
ENDMDL
MODEL 2
REMARK VINA RESULT: -5.203677558      2.699      6.604
REMARK  9 active torsions:
REMARK  status: ('A' for Active; 'I' for Inactive)
REMARK    1  A    between atoms: N1_1  and  C1_4 
REMARK    2  A    between atoms: N4_12  and  C5_13 
REMARK    3  A    between atoms: C5_13  and  C6_14 
REMARK    4  A    between atoms: C7_18  and  C8_19 
REMARK    5  A    between atoms: C8_19  and  N5_20 
REMARK    6  A    between atoms: C8_19  and  C9_24 
REMARK    7  A    between atoms: C9_24  and  O4_25 
REMARK    8  A    between atoms: C10_27  and  O5_28 
REMARK    9  A    between atoms: N6_32  and  N7_33 
ROOT
HETATM    1  C1  UNL     1      27.512 -34.607  11.092  1.00  0.00     0.701 A 
HETATM    2  N2  UNL     1      27.998 -34.321   9.869  1.00  0.00    -0.172 N 
ATOM      3  H2  UNL     1      28.828 -34.801   9.520  1.00  0.00     0.186 HD
HETATM    4  C2  UNL     1      27.370 -33.385   9.102  1.00  0.00     0.160 A 
HETATM    5  C3  UNL     1      26.253 -32.756   9.600  1.00  0.00     0.149 A 
HETATM    6  N3  UNL     1      25.808 -31.886   8.686  1.00  0.00    -0.344 N 
ATOM      7  H3  UNL     1      24.996 -31.275   8.769  1.00  0.00     0.167 HD
HETATM    8  C4  UNL     1      26.633 -31.979   7.649  1.00  0.00     0.189 A 
HETATM    9  N4  UNL     1      27.587 -32.884   7.884  1.00  0.00    -0.282 N 
HETATM   10  C11 UNL     1      25.773 -33.064  10.853  1.00  0.00     0.312 A 
HETATM   11  O6  UNL     1      24.750 -32.478  11.289  1.00  0.00    -0.263 OA
HETATM   12  N6  UNL     1      26.418 -34.000  11.595  1.00  0.00    -0.052 N 
ENDROOT
BRANCH   9  13
HETATM   13  C5  UNL     1      28.634 -33.218   6.959  1.00  0.00     0.262 C 
HETATM   14  O3  UNL     1      29.202 -34.455   7.079  1.00  0.00    -0.339 OA
HETATM   15  C7  UNL     1      29.281 -34.526   5.693  1.00  0.00     0.192 C 
HETATM   16  C10 UNL     1      28.058 -33.640   5.630  1.00  0.00     0.217 C 
BRANCH  13  17
HETATM   17  C6  UNL     1      29.675 -32.166   6.792  1.00  0.00     0.235 C 
HETATM   18  O1  UNL     1      29.681 -31.309   5.873  1.00  0.00    -0.644 OA
HETATM   19  O2  UNL     1      30.699 -32.135   7.714  1.00  0.00    -0.644 OA
ENDBRANCH  13  17
BRANCH  15  20
HETATM   20  C8  UNL     1      28.985 -35.891   5.115  1.00  0.00     0.238 C 
BRANCH  20  21
HETATM   21  N5  UNL     1      28.947 -36.927   6.106  1.00  0.00    -0.070 N 
ATOM     22  H53 UNL     1      29.563 -37.699   5.850  1.00  0.00     0.274 HD
ATOM     23  H52 UNL     1      29.405 -36.625   6.966  1.00  0.00     0.274 HD
ATOM     24  H51 UNL     1      28.003 -37.265   6.297  1.00  0.00     0.274 HD
ENDBRANCH  20  21
BRANCH  20  25
HETATM   25  C9  UNL     1      30.022 -36.225   4.072  1.00  0.00     0.199 C 
BRANCH  25  26
HETATM   26  O4  UNL     1      29.997 -35.302   3.026  1.00  0.00    -0.399 OA
ATOM     27  H4  UNL     1      29.143 -35.279   2.610  1.00  0.00     0.209 HD
ENDBRANCH  25  26
ENDBRANCH  20  25
ENDBRANCH  15  20
BRANCH  16  28
HETATM   28  O5  UNL     1      26.919 -34.412   5.689  1.00  0.00    -0.387 OA
ATOM     29  H5  UNL     1      26.333 -34.229   6.413  1.00  0.00     0.210 HD
ENDBRANCH  16  28
ENDBRANCH   9  13
BRANCH   1  30
HETATM   30  N1  UNL     1      28.116 -35.501  11.818  1.00  0.00    -0.233 N 
ATOM     31  H12 UNL     1      28.476 -35.226  12.732  1.00  0.00     0.174 HD
ATOM     32  H11 UNL     1      28.215 -36.449  11.455  1.00  0.00     0.174 HD
ENDBRANCH   1  30
BRANCH  12  33
HETATM   33  N7  UNL     1      25.901 -34.278  12.849  1.00  0.00    -0.321 N 
ATOM     34  H72 UNL     1      26.569 -34.454  13.600  1.00  0.00     0.178 HD
ATOM     35  H71 UNL     1      24.901 -34.314  13.049  1.00  0.00     0.178 HD
ENDBRANCH  12  33
TORSDOF 9
ENDMDL
MODEL 3
REMARK VINA RESULT: -5.126579172      2.410      6.291
REMARK  9 active torsions:
REMARK  status: ('A' for Active; 'I' for Inactive)
REMARK    1  A    between atoms: N1_1  and  C1_4 
REMARK    2  A    between atoms: N4_12  and  C5_13 
REMARK    3  A    between atoms: C5_13  and  C6_14 
REMARK    4  A    between atoms: C7_18  and  C8_19 
REMARK    5  A    between atoms: C8_19  and  N5_20 
REMARK    6  A    between atoms: C8_19  and  C9_24 
REMARK    7  A    between atoms: C9_24  and  O4_25 
REMARK    8  A    between atoms: C10_27  and  O5_28 
REMARK    9  A    between atoms: N6_32  and  N7_33 
ROOT
HETATM    1  C1  UNL     1      27.619 -36.777  12.795  1.00  0.00     0.701 A 
HETATM    2  N2  UNL     1      27.733 -35.875  11.803  1.00  0.00    -0.172 N 
ATOM      3  H2  UNL     1      28.548 -35.886  11.188  1.00  0.00     0.186 HD
HETATM    4  C2  UNL     1      26.752 -34.946  11.626  1.00  0.00     0.160 A 
HETATM    5  C3  UNL     1      25.666 -34.956  12.470  1.00  0.00     0.149 A 
HETATM    6  N3  UNL     1      24.838 -33.967  12.115  1.00  0.00    -0.344 N 
ATOM      7  H3  UNL     1      23.950 -33.725  12.555  1.00  0.00     0.167 HD
HETATM    8  C4  UNL     1      25.403 -33.361  11.075  1.00  0.00     0.189 A 
HETATM    9  N4  UNL     1      26.565 -33.943  10.765  1.00  0.00    -0.282 N 
HETATM   10  C11 UNL     1      25.568 -35.887  13.479  1.00  0.00     0.312 A 
HETATM   11  O6  UNL     1      24.567 -35.880  14.238  1.00  0.00    -0.263 OA
HETATM   12  N6  UNL     1      26.561 -36.801  13.631  1.00  0.00    -0.052 N 
ENDROOT
BRANCH   9  13
HETATM   13  C5  UNL     1      27.420 -33.524   9.689  1.00  0.00     0.262 C 
HETATM   14  O3  UNL     1      28.201 -34.480   9.104  1.00  0.00    -0.339 OA
HETATM   15  C7  UNL     1      27.979 -33.873   7.873  1.00  0.00     0.192 C 
HETATM   16  C10 UNL     1      26.641 -33.409   8.402  1.00  0.00     0.217 C 
BRANCH  13  17
HETATM   17  C6  UNL     1      28.203 -32.287   9.964  1.00  0.00     0.235 C 
HETATM   18  O1  UNL     1      27.699 -31.155  10.170  1.00  0.00    -0.644 OA
HETATM   19  O2  UNL     1      29.577 -32.401   9.992  1.00  0.00    -0.644 OA
ENDBRANCH  13  17
BRANCH  15  20
HETATM   20  C8  UNL     1      27.798 -34.834   6.721  1.00  0.00     0.238 C 
BRANCH  20  21
HETATM   21  N5  UNL     1      27.806 -36.210   7.128  1.00  0.00    -0.070 N 
ATOM     22  H53 UNL     1      28.102 -36.814   6.361  1.00  0.00     0.274 HD
ATOM     23  H52 UNL     1      28.565 -36.390   7.786  1.00  0.00     0.274 HD
ATOM     24  H51 UNL     1      26.912 -36.521   7.510  1.00  0.00     0.274 HD
ENDBRANCH  20  21
BRANCH  20  25
HETATM   25  C9  UNL     1      28.883 -34.599   5.702  1.00  0.00     0.199 C 
BRANCH  25  26
HETATM   26  O4  UNL     1      29.966 -33.926   6.266  1.00  0.00    -0.399 OA
ATOM     27  H4  UNL     1      29.674 -33.238   6.853  1.00  0.00     0.209 HD
ENDBRANCH  25  26
ENDBRANCH  20  25
ENDBRANCH  15  20
BRANCH  16  28
HETATM   28  O5  UNL     1      25.692 -34.384   8.187  1.00  0.00    -0.387 OA
ATOM     29  H5  UNL     1      25.189 -34.301   7.386  1.00  0.00     0.210 HD
ENDBRANCH  16  28
ENDBRANCH   9  13
BRANCH   1  30
HETATM   30  N1  UNL     1      28.559 -37.660  12.957  1.00  0.00    -0.233 N 
ATOM     31  H12 UNL     1      29.498 -37.440  12.623  1.00  0.00     0.174 HD
ATOM     32  H11 UNL     1      28.335 -38.545  13.412  1.00  0.00     0.174 HD
ENDBRANCH   1  30
BRANCH  12  33
HETATM   33  N7  UNL     1      26.421 -37.719  14.658  1.00  0.00    -0.321 N 
ATOM     34  H72 UNL     1      27.193 -37.799  15.320  1.00  0.00     0.178 HD
ATOM     35  H71 UNL     1      25.596 -38.307  14.777  1.00  0.00     0.178 HD
ENDBRANCH  12  33
TORSDOF 9
ENDMDL
MODEL 4
REMARK VINA RESULT: -5.063710110      3.785      5.344
REMARK  9 active torsions:
REMARK  status: ('A' for Active; 'I' for Inactive)
REMARK    1  A    between atoms: N1_1  and  C1_4 
REMARK    2  A    between atoms: N4_12  and  C5_13 
REMARK    3  A    between atoms: C5_13  and  C6_14 
REMARK    4  A    between atoms: C7_18  and  C8_19 
REMARK    5  A    between atoms: C8_19  and  N5_20 
REMARK    6  A    between atoms: C8_19  and  C9_24 
REMARK    7  A    between atoms: C9_24  and  O4_25 
REMARK    8  A    between atoms: C10_27  and  O5_28 
REMARK    9  A    between atoms: N6_32  and  N7_33 
ROOT
HETATM    1  C1  UNL     1      22.129 -31.862  11.470  1.00  0.00     0.701 A 
HETATM    2  N2  UNL     1      23.404 -32.272  11.335  1.00  0.00    -0.172 N 
ATOM      3  H2  UNL     1      23.866 -32.773  12.095  1.00  0.00     0.186 HD
HETATM    4  C2  UNL     1      24.072 -32.014  10.175  1.00  0.00     0.160 A 
HETATM    5  C3  UNL     1      23.421 -31.337   9.170  1.00  0.00     0.149 A 
HETATM    6  N3  UNL     1      24.260 -31.196   8.136  1.00  0.00    -0.344 N 
ATOM      7  H3  UNL     1      24.062 -30.737   7.247  1.00  0.00     0.167 HD
HETATM    8  C4  UNL     1      25.401 -31.773   8.500  1.00  0.00     0.189 A 
HETATM    9  N4  UNL     1      25.304 -32.274   9.734  1.00  0.00    -0.282 N 
HETATM   10  C11 UNL     1      22.117 -30.927   9.328  1.00  0.00     0.312 A 
HETATM   11  O6  UNL     1      21.541 -30.311   8.396  1.00  0.00    -0.263 OA
HETATM   12  N6  UNL     1      21.477 -31.198  10.494  1.00  0.00    -0.052 N 
ENDROOT
BRANCH   9  13
HETATM   13  C5  UNL     1      26.366 -32.961  10.416  1.00  0.00     0.262 C 
HETATM   14  O3  UNL     1      26.215 -33.167  11.758  1.00  0.00    -0.339 OA
HETATM   15  C7  UNL     1      26.813 -34.413  11.609  1.00  0.00     0.192 C 
HETATM   16  C10 UNL     1      26.263 -34.450  10.201  1.00  0.00     0.217 C 
BRANCH  13  17
HETATM   17  C6  UNL     1      27.733 -32.459  10.101  1.00  0.00     0.235 C 
HETATM   18  O1  UNL     1      28.542 -33.030   9.329  1.00  0.00    -0.644 OA
HETATM   19  O2  UNL     1      28.131 -31.284  10.704  1.00  0.00    -0.644 OA
ENDBRANCH  13  17
BRANCH  15  20
HETATM   20  C8  UNL     1      26.205 -35.508  12.454  1.00  0.00     0.238 C 
BRANCH  20  21
HETATM   21  N5  UNL     1      25.170 -35.037  13.329  1.00  0.00    -0.070 N 
ATOM     22  H53 UNL     1      25.201 -35.526  14.224  1.00  0.00     0.274 HD
ATOM     23  H52 UNL     1      25.370 -34.088  13.649  1.00  0.00     0.274 HD
ATOM     24  H51 UNL     1      24.239 -35.092  12.916  1.00  0.00     0.274 HD
ENDBRANCH  20  21
BRANCH  20  25
HETATM   25  C9  UNL     1      27.289 -36.175  13.261  1.00  0.00     0.199 C 
BRANCH  25  26
HETATM   26  O4  UNL     1      28.505 -36.159  12.579  1.00  0.00    -0.399 OA
ATOM     27  H4  UNL     1      29.129 -36.757  12.977  1.00  0.00     0.209 HD
ENDBRANCH  25  26
ENDBRANCH  20  25
ENDBRANCH  15  20
BRANCH  16  28
HETATM   28  O5  UNL     1      24.987 -34.970  10.214  1.00  0.00    -0.387 OA
ATOM     29  H5  UNL     1      24.927 -35.913  10.316  1.00  0.00     0.210 HD
ENDBRANCH  16  28
ENDBRANCH   9  13
BRANCH   1  30
HETATM   30  N1  UNL     1      21.499 -32.113  12.579  1.00  0.00    -0.233 N 
ATOM     31  H12 UNL     1      21.503 -31.405  13.313  1.00  0.00     0.174 HD
ATOM     32  H11 UNL     1      21.020 -33.008  12.685  1.00  0.00     0.174 HD
ENDBRANCH   1  30
BRANCH  12  33
HETATM   33  N7  UNL     1      20.166 -30.768  10.610  1.00  0.00    -0.321 N 
ATOM     34  H72 UNL     1      19.761 -30.754  11.546  1.00  0.00     0.178 HD
ATOM     35  H71 UNL     1      19.600 -30.470   9.815  1.00  0.00     0.178 HD
ENDBRANCH  12  33
TORSDOF 9
ENDMDL
MODEL 5
REMARK VINA RESULT: -5.049687341      2.619      4.259
REMARK  9 active torsions:
REMARK  status: ('A' for Active; 'I' for Inactive)
REMARK    1  A    between atoms: N1_1  and  C1_4 
REMARK    2  A    between atoms: N4_12  and  C5_13 
REMARK    3  A    between atoms: C5_13  and  C6_14 
REMARK    4  A    between atoms: C7_18  and  C8_19 
REMARK    5  A    between atoms: C8_19  and  N5_20 
REMARK    6  A    between atoms: C8_19  and  C9_24 
REMARK    7  A    between atoms: C9_24  and  O4_25 
REMARK    8  A    between atoms: C10_27  and  O5_28 
REMARK    9  A    between atoms: N6_32  and  N7_33 
ROOT
HETATM    1  C1  UNL     1      27.365 -35.340   9.264  1.00  0.00     0.701 A 
HETATM    2  N2  UNL     1      27.197 -36.152  10.325  1.00  0.00    -0.172 N 
ATOM      3  H2  UNL     1      27.379 -37.152  10.241  1.00  0.00     0.186 HD
HETATM    4  C2  UNL     1      26.781 -35.626  11.512  1.00  0.00     0.160 A 
HETATM    5  C3  UNL     1      26.544 -34.273  11.593  1.00  0.00     0.149 A 
HETATM    6  N3  UNL     1      26.149 -33.981  12.838  1.00  0.00    -0.344 N 
ATOM      7  H3  UNL     1      25.902 -33.061  13.200  1.00  0.00     0.167 HD
HETATM    8  C4  UNL     1      26.143 -35.130  13.506  1.00  0.00     0.189 A 
HETATM    9  N4  UNL     1      26.524 -36.138  12.717  1.00  0.00    -0.282 N 
HETATM   10  C11 UNL     1      26.723 -33.461  10.496  1.00  0.00     0.312 A 
HETATM   11  O6  UNL     1      26.501 -32.227  10.592  1.00  0.00    -0.263 OA
HETATM   12  N6  UNL     1      27.137 -34.013   9.327  1.00  0.00    -0.052 N 
ENDROOT
BRANCH   9  13
HETATM   13  C5  UNL     1      26.622 -37.507  13.140  1.00  0.00     0.262 C 
HETATM   14  O3  UNL     1      27.385 -38.344  12.376  1.00  0.00    -0.339 OA
HETATM   15  C7  UNL     1      27.823 -38.967  13.538  1.00  0.00     0.192 C 
HETATM   16  C10 UNL     1      27.628 -37.651  14.255  1.00  0.00     0.217 C 
BRANCH  13  17
HETATM   17  C6  UNL     1      25.322 -38.142  13.495  1.00  0.00     0.235 C 
HETATM   18  O1  UNL     1      24.878 -38.252  14.664  1.00  0.00    -0.644 OA
HETATM   19  O2  UNL     1      24.559 -38.642  12.460  1.00  0.00    -0.644 OA
ENDBRANCH  13  17
BRANCH  15  20
HETATM   20  C8  UNL     1      29.282 -39.363  13.529  1.00  0.00     0.238 C 
BRANCH  20  21
HETATM   21  N5  UNL     1      29.720 -39.871  12.261  1.00  0.00    -0.070 N 
ATOM     22  H53 UNL     1      30.083 -39.119  11.675  1.00  0.00     0.274 HD
ATOM     23  H52 UNL     1      30.570 -40.427  12.366  1.00  0.00     0.274 HD
ATOM     24  H51 UNL     1      28.999 -40.399  11.769  1.00  0.00     0.274 HD
ENDBRANCH  20  21
BRANCH  20  25
HETATM   25  C9  UNL     1      29.523 -40.396  14.601  1.00  0.00     0.199 C 
BRANCH  25  26
HETATM   26  O4  UNL     1      30.878 -40.483  14.919  1.00  0.00    -0.399 OA
ATOM     27  H4  UNL     1      31.026 -41.106  15.622  1.00  0.00     0.209 HD
ENDBRANCH  25  26
ENDBRANCH  20  25
ENDBRANCH  15  20
BRANCH  16  28
HETATM   28  O5  UNL     1      28.766 -36.884  14.138  1.00  0.00    -0.387 OA
ATOM     29  H5  UNL     1      29.563 -37.273  14.477  1.00  0.00     0.210 HD
ENDBRANCH  16  28
ENDBRANCH   9  13
BRANCH   1  30
HETATM   30  N1  UNL     1      27.763 -35.850   8.136  1.00  0.00    -0.233 N 
ATOM     31  H12 UNL     1      28.616 -35.489   7.711  1.00  0.00     0.174 HD
ATOM     32  H11 UNL     1      27.212 -36.595   7.708  1.00  0.00     0.174 HD
ENDBRANCH   1  30
BRANCH  12  33
HETATM   33  N7  UNL     1      27.305 -33.159   8.250  1.00  0.00    -0.321 N 
ATOM     34  H72 UNL     1      26.501 -32.595   7.973  1.00  0.00     0.178 HD
ATOM     35  H71 UNL     1      28.180 -33.073   7.733  1.00  0.00     0.178 HD
ENDBRANCH  12  33
TORSDOF 9
ENDMDL
