MODEL 1
REMARK VINA RESULT: -6.564077335      0.000      0.000
REMARK  5 active torsions:
REMARK  status: ('A' for Active; 'I' for Inactive)
REMARK    1  A    between atoms: O1_2  and  C2_3 
REMARK    2  A    between atoms: C2_3  and  C3_5 
REMARK    3  A    between atoms: C8_11  and  O3_12 
REMARK    4  A    between atoms: C9_14  and  N1_15 
REMARK    5  A    between atoms: N1_15  and  S1_17 
ROOT
HETATM    1  C3  UNL     1      20.882 -23.717  28.074  1.00  0.00     0.070 A 
HETATM    2  C4  UNL     1      20.556 -23.657  26.734  1.00  0.00     0.028 A 
HETATM    3  C5  UNL     1      20.468 -22.426  26.136  1.00  0.00    -0.041 A 
HETATM    4  C6  UNL     1      20.118 -22.348  24.694  1.00  0.00     0.049 C 
HETATM    5  C7  UNL     1      20.701 -21.282  26.857  1.00  0.00     0.052 A 
HETATM    6 BR1  UNL     1      20.558 -19.613  25.936  1.00  0.00    -0.048 Br
HETATM    7  C8  UNL     1      21.024 -21.359  28.195  1.00  0.00     0.112 A 
HETATM    8  C9  UNL     1      21.122 -22.577  28.843  1.00  0.00     0.093 A 
ENDROOT
BRANCH   8   9
HETATM    9  N1  UNL     1      21.440 -22.609  30.217  1.00  0.00    -0.281 N 
ATOM     10  H1  UNL     1      22.386 -22.898  30.468  1.00  0.00     0.178 HD
BRANCH   9  11
HETATM   11  S1  UNL     1      20.380 -22.206  31.506  1.00  0.00     0.227 S 
HETATM   12  C10 UNL     1      21.109 -22.893  33.008  1.00  0.00     0.186 C 
HETATM   13  O4  UNL     1      20.118 -20.762  31.688  1.00  0.00    -0.206 OA
HETATM   14  O5  UNL     1      19.047 -22.891  31.307  1.00  0.00    -0.206 OA
ENDBRANCH   9  11
ENDBRANCH   8   9
BRANCH   1  15
HETATM   15  C2  UNL     1      21.067 -25.038  28.652  1.00  0.00     0.295 C 
HETATM   16  O2  UNL     1      20.180 -25.486  29.423  1.00  0.00    -0.259 OA
BRANCH  15  17
HETATM   17  O1  UNL     1      22.158 -25.851  28.408  1.00  0.00    -0.322 OA
HETATM   18  C1  UNL     1      23.473 -25.303  28.382  1.00  0.00     0.213 C 
ENDBRANCH  15  17
ENDBRANCH   1  15
BRANCH   7  19
HETATM   19  O3  UNL     1      21.253 -20.148  28.877  1.00  0.00    -0.357 OA
ATOM     20  H3  UNL     1      20.753 -19.992  29.669  1.00  0.00     0.217 HD
ENDBRANCH   7  19
TORSDOF 5
ENDMDL
MODEL 2
REMARK VINA RESULT: -6.163558969      2.728      4.779
REMARK  5 active torsions:
REMARK  status: ('A' for Active; 'I' for Inactive)
REMARK    1  A    between atoms: O1_2  and  C2_3 
REMARK    2  A    between atoms: C2_3  and  C3_5 
REMARK    3  A    between atoms: C8_11  and  O3_12 
REMARK    4  A    between atoms: C9_14  and  N1_15 
REMARK    5  A    between atoms: N1_15  and  S1_17 
ROOT
HETATM    1  C3  UNL     1      21.546 -21.300  28.648  1.00  0.00     0.070 A 
HETATM    2  C4  UNL     1      20.792 -20.183  28.952  1.00  0.00     0.028 A 
HETATM    3  C5  UNL     1      20.027 -20.201  30.091  1.00  0.00    -0.041 A 
HETATM    4  C6  UNL     1      19.211 -19.007  30.430  1.00  0.00     0.049 C 
HETATM    5  C7  UNL     1      20.015 -21.305  30.906  1.00  0.00     0.052 A 
HETATM    6 BR1  UNL     1      18.921 -21.235  32.472  1.00  0.00    -0.048 Br
HETATM    7  C8  UNL     1      20.773 -22.411  30.587  1.00  0.00     0.112 A 
HETATM    8  C9  UNL     1      21.558 -22.443  29.448  1.00  0.00     0.093 A 
ENDROOT
BRANCH   8   9
HETATM    9  N1  UNL     1      22.305 -23.602  29.151  1.00  0.00    -0.281 N 
ATOM     10  H1  UNL     1      23.223 -23.687  29.590  1.00  0.00     0.178 HD
BRANCH   9  11
HETATM   11  S1  UNL     1      21.812 -24.881  28.118  1.00  0.00     0.227 S 
HETATM   12  C10 UNL     1      20.020 -24.746  27.948  1.00  0.00     0.186 C 
HETATM   13  O4  UNL     1      22.444 -24.900  26.781  1.00  0.00    -0.206 OA
HETATM   14  O5  UNL     1      22.096 -26.211  28.777  1.00  0.00    -0.206 OA
ENDBRANCH   9  11
ENDBRANCH   8   9
BRANCH   1  15
HETATM   15  C2  UNL     1      22.423 -21.210  27.491  1.00  0.00     0.295 C 
HETATM   16  O2  UNL     1      23.662 -21.328  27.668  1.00  0.00    -0.259 OA
BRANCH  15  17
HETATM   17  O1  UNL     1      21.987 -21.007  26.195  1.00  0.00    -0.322 OA
HETATM   18  C1  UNL     1      21.022 -21.880  25.614  1.00  0.00     0.213 C 
ENDBRANCH  15  17
ENDBRANCH   1  15
BRANCH   7  19
HETATM   19  O3  UNL     1      20.718 -23.511  31.466  1.00  0.00    -0.357 OA
ATOM     20  H3  UNL     1      19.860 -23.805  31.746  1.00  0.00     0.217 HD
ENDBRANCH   7  19
TORSDOF 5
ENDMDL
MODEL 3
REMARK VINA RESULT: -6.091295510      2.886      4.498
REMARK  5 active torsions:
REMARK  status: ('A' for Active; 'I' for Inactive)
REMARK    1  A    between atoms: O1_2  and  C2_3 
REMARK    2  A    between atoms: C2_3  and  C3_5 
REMARK    3  A    between atoms: C8_11  and  O3_12 
REMARK    4  A    between atoms: C9_14  and  N1_15 
REMARK    5  A    between atoms: N1_15  and  S1_17 
ROOT
HETATM    1  C3  UNL     1      21.919 -23.375  29.002  1.00  0.00     0.070 A 
HETATM    2  C4  UNL     1      21.372 -23.415  30.269  1.00  0.00     0.028 A 
HETATM    3  C5  UNL     1      20.716 -22.304  30.734  1.00  0.00    -0.041 A 
HETATM    4  C6  UNL     1      20.123 -22.334  32.096  1.00  0.00     0.049 C 
HETATM    5  C7  UNL     1      20.608 -21.180  29.954  1.00  0.00     0.052 A 
HETATM    6 BR1  UNL     1      19.674 -19.683  30.687  1.00  0.00    -0.048 Br
HETATM    7  C8  UNL     1      21.161 -21.156  28.692  1.00  0.00     0.112 A 
HETATM    8  C9  UNL     1      21.835 -22.251  28.180  1.00  0.00     0.093 A 
ENDROOT
BRANCH   8   9
HETATM    9  N1  UNL     1      22.400 -22.178  26.889  1.00  0.00    -0.281 N 
ATOM     10  H1  UNL     1      23.414 -22.089  26.831  1.00  0.00     0.178 HD
BRANCH   9  11
HETATM   11  S1  UNL     1      21.534 -22.225  25.407  1.00  0.00     0.227 S 
HETATM   12  C10 UNL     1      22.612 -23.033  24.205  1.00  0.00     0.186 C 
HETATM   13  O4  UNL     1      20.227 -22.916  25.455  1.00  0.00    -0.206 OA
HETATM   14  O5  UNL     1      21.291 -20.819  24.910  1.00  0.00    -0.206 OA
ENDBRANCH   9  11
ENDBRANCH   8   9
BRANCH   1  15
HETATM   15  C2  UNL     1      22.517 -24.602  28.501  1.00  0.00     0.295 C 
HETATM   16  O2  UNL     1      21.764 -25.576  28.247  1.00  0.00    -0.259 OA
BRANCH  15  17
HETATM   17  O1  UNL     1      23.870 -24.777  28.275  1.00  0.00    -0.322 OA
HETATM   18  C1  UNL     1      24.364 -24.934  26.948  1.00  0.00     0.213 C 
ENDBRANCH  15  17
ENDBRANCH   1  15
BRANCH   7  19
HETATM   19  O3  UNL     1      21.014 -19.974  27.941  1.00  0.00    -0.357 OA
ATOM     20  H3  UNL     1      21.596 -19.252  28.144  1.00  0.00     0.217 HD
ENDBRANCH   7  19
TORSDOF 5
ENDMDL
MODEL 4
REMARK VINA RESULT: -6.041383108      3.127      4.650
REMARK  5 active torsions:
REMARK  status: ('A' for Active; 'I' for Inactive)
REMARK    1  A    between atoms: O1_2  and  C2_3 
REMARK    2  A    between atoms: C2_3  and  C3_5 
REMARK    3  A    between atoms: C8_11  and  O3_12 
REMARK    4  A    between atoms: C9_14  and  N1_15 
REMARK    5  A    between atoms: N1_15  and  S1_17 
ROOT
HETATM    1  C3  UNL     1      22.171 -22.913  28.734  1.00  0.00     0.070 A 
HETATM    2  C4  UNL     1      21.640 -23.164  29.984  1.00  0.00     0.028 A 
HETATM    3  C5  UNL     1      20.840 -22.209  30.558  1.00  0.00    -0.041 A 
HETATM    4  C6  UNL     1      20.263 -22.467  31.902  1.00  0.00     0.049 C 
HETATM    5  C7  UNL     1      20.574 -21.034  29.902  1.00  0.00     0.052 A 
HETATM    6 BR1  UNL     1      19.446 -19.766  30.781  1.00  0.00    -0.048 Br
HETATM    7  C8  UNL     1      21.113 -20.799  28.655  1.00  0.00     0.112 A 
HETATM    8  C9  UNL     1      21.929 -21.729  28.035  1.00  0.00     0.093 A 
ENDROOT
BRANCH   8   9
HETATM    9  N1  UNL     1      22.472 -21.441  26.766  1.00  0.00    -0.281 N 
ATOM     10  H1  UNL     1      23.477 -21.273  26.719  1.00  0.00     0.178 HD
BRANCH   9  11
HETATM   11  S1  UNL     1      21.595 -21.348  25.293  1.00  0.00     0.227 S 
HETATM   12  C10 UNL     1      21.861 -19.687  24.637  1.00  0.00     0.186 C 
HETATM   13  O4  UNL     1      21.956 -22.356  24.272  1.00  0.00    -0.206 OA
HETATM   14  O5  UNL     1      20.116 -21.485  25.567  1.00  0.00    -0.206 OA
ENDBRANCH   9  11
ENDBRANCH   8   9
BRANCH   1  15
HETATM   15  C2  UNL     1      22.930 -23.985  28.110  1.00  0.00     0.295 C 
HETATM   16  O2  UNL     1      23.803 -24.579  28.794  1.00  0.00    -0.259 OA
BRANCH  15  17
HETATM   17  O1  UNL     1      22.756 -24.409  26.806  1.00  0.00    -0.322 OA
HETATM   18  C1  UNL     1      21.547 -25.052  26.413  1.00  0.00     0.213 C 
ENDBRANCH  15  17
ENDBRANCH   1  15
BRANCH   7  19
HETATM   19  O3  UNL     1      20.801 -19.574  28.034  1.00  0.00    -0.357 OA
ATOM     20  H3  UNL     1      21.523 -18.996  27.819  1.00  0.00     0.217 HD
ENDBRANCH   7  19
TORSDOF 5
ENDMDL
MODEL 5
REMARK VINA RESULT: -6.039186349      2.867      4.575
REMARK  5 active torsions:
REMARK  status: ('A' for Active; 'I' for Inactive)
REMARK    1  A    between atoms: O1_2  and  C2_3 
REMARK    2  A    between atoms: C2_3  and  C3_5 
REMARK    3  A    between atoms: C8_11  and  O3_12 
REMARK    4  A    between atoms: C9_14  and  N1_15 
REMARK    5  A    between atoms: N1_15  and  S1_17 
ROOT
HETATM    1  C3  UNL     1      21.839 -22.999  29.108  1.00  0.00     0.070 A 
HETATM    2  C4  UNL     1      21.277 -22.958  30.368  1.00  0.00     0.028 A 
HETATM    3  C5  UNL     1      20.587 -21.832  30.740  1.00  0.00    -0.041 A 
HETATM    4  C6  UNL     1      19.978 -21.776  32.094  1.00  0.00     0.049 C 
HETATM    5  C7  UNL     1      20.461 -20.774  29.877  1.00  0.00     0.052 A 
HETATM    6 BR1  UNL     1      19.480 -19.250  30.484  1.00  0.00    -0.048 Br
HETATM    7  C8  UNL     1      21.029 -20.830  28.622  1.00  0.00     0.112 A 
HETATM    8  C9  UNL     1      21.737 -21.942  28.202  1.00  0.00     0.093 A 
ENDROOT
BRANCH   8   9
HETATM    9  N1  UNL     1      22.316 -21.952  26.915  1.00  0.00    -0.281 N 
ATOM     10  H1  UNL     1      23.329 -21.845  26.862  1.00  0.00     0.178 HD
BRANCH   9  11
HETATM   11  S1  UNL     1      21.470 -22.128  25.432  1.00  0.00     0.227 S 
HETATM   12  C10 UNL     1      22.576 -23.007  24.308  1.00  0.00     0.186 C 
HETATM   13  O4  UNL     1      20.174 -22.835  25.517  1.00  0.00    -0.206 OA
HETATM   14  O5  UNL     1      21.210 -20.769  24.825  1.00  0.00    -0.206 OA
ENDBRANCH   9  11
ENDBRANCH   8   9
BRANCH   1  15
HETATM   15  C2  UNL     1      22.474 -24.244  28.707  1.00  0.00     0.295 C 
HETATM   16  O2  UNL     1      23.730 -24.295  28.679  1.00  0.00    -0.259 OA
BRANCH  15  17
HETATM   17  O1  UNL     1      21.790 -25.392  28.355  1.00  0.00    -0.322 OA
HETATM   18  C1  UNL     1      20.404 -25.333  28.030  1.00  0.00     0.213 C 
ENDBRANCH  15  17
ENDBRANCH   1  15
BRANCH   7  19
HETATM   19  O3  UNL     1      20.862 -19.712  27.783  1.00  0.00    -0.357 OA
ATOM     20  H3  UNL     1      21.126 -18.866  28.124  1.00  0.00     0.217 HD
ENDBRANCH   7  19
TORSDOF 5
ENDMDL
