MODEL 1
REMARK VINA RESULT: -7.605869785      0.000      0.000
REMARK  4 active torsions:
REMARK  status: ('A' for Active; 'I' for Inactive)
REMARK    1  A    between atoms: C2_2  and  C3_4 
REMARK    2  A    between atoms: C4_5  and  O2_6 
REMARK    3  A    between atoms: C5_10  and  N2_11 
REMARK    4  A    between atoms: C13_21  and  C14_22 
ROOT
HETATM    1  C3  UNL     1      19.127 -20.714  31.319  1.00  0.00     0.111 A 
HETATM    2  C4  UNL     1      19.446 -19.713  30.411  1.00  0.00     0.159 A 
HETATM    3  N1  UNL     1      20.314 -19.934  29.416  1.00  0.00    -0.321 N 
ATOM      4  H1  UNL     1      20.521 -19.173  28.770  1.00  0.00     0.169 HD
HETATM    5  C5  UNL     1      20.934 -21.142  29.230  1.00  0.00     0.128 A 
HETATM    6  C13 UNL     1      20.629 -22.160  30.130  1.00  0.00     0.097 A 
HETATM    7  C15 UNL     1      19.735 -21.946  31.162  1.00  0.00     0.207 A 
HETATM    8  O4  UNL     1      19.462 -22.858  31.970  1.00  0.00    -0.286 OA
ENDROOT
BRANCH   5   9
HETATM    9  N2  UNL     1      21.784 -21.316  28.142  1.00  0.00    -0.315 N 
HETATM   10  C6  UNL     1      23.226 -21.303  28.045  1.00  0.00     0.162 C 
HETATM   11  C7  UNL     1      23.590 -21.232  26.577  1.00  0.00     0.043 C 
HETATM   12  C8  UNL     1      24.363 -20.003  26.201  1.00  0.00     0.040 C 
HETATM   13  C9  UNL     1      24.342 -22.437  26.097  1.00  0.00     0.040 C 
HETATM   14  N3  UNL     1      22.325 -21.181  25.877  1.00  0.00    -0.360 N 
HETATM   15  C10 UNL     1      22.198 -20.746  24.500  1.00  0.00     0.152 C 
HETATM   16  C11 UNL     1      21.342 -21.626  26.800  1.00  0.00     0.118 C 
HETATM   17  C12 UNL     1      20.237 -22.243  26.426  1.00  0.00     0.133 C 
HETATM   18 CL1  UNL     1      19.915 -22.503  24.729  1.00  0.00    -0.093 Cl
ENDBRANCH   5   9
BRANCH   6  19
HETATM   19  C14 UNL     1      21.241 -23.464  30.008  1.00  0.00     0.277 C 
HETATM   20  O3  UNL     1      20.709 -24.334  29.281  1.00  0.00    -0.301 OA
ENDBRANCH   6  19
BRANCH   2  21
HETATM   21  O2  UNL     1      18.850 -18.470  30.547  1.00  0.00    -0.345 OA
ATOM     22  H2  UNL     1      18.437 -18.073  29.789  1.00  0.00     0.219 HD
ENDBRANCH   2  21
BRANCH   1  23
HETATM   23  C2  UNL     1      18.193 -20.500  32.403  1.00  0.00     0.164 C 
HETATM   24  C1  UNL     1      18.420 -20.951  33.791  1.00  0.00     0.097 C 
HETATM   25  O1  UNL     1      17.107 -19.890  32.167  1.00  0.00    -0.292 OA
ENDBRANCH   1  23
TORSDOF 4
ENDMDL
MODEL 2
REMARK VINA RESULT: -7.019835334      1.128      1.242
REMARK  4 active torsions:
REMARK  status: ('A' for Active; 'I' for Inactive)
REMARK    1  A    between atoms: C2_2  and  C3_4 
REMARK    2  A    between atoms: C4_5  and  O2_6 
REMARK    3  A    between atoms: C5_10  and  N2_11 
REMARK    4  A    between atoms: C13_21  and  C14_22 
ROOT
HETATM    1  C3  UNL     1      19.387 -21.292  31.262  1.00  0.00     0.111 A 
HETATM    2  C4  UNL     1      20.116 -20.420  30.464  1.00  0.00     0.159 A 
HETATM    3  N1  UNL     1      20.879 -20.875  29.463  1.00  0.00    -0.321 N 
ATOM      4  H1  UNL     1      21.399 -20.202  28.899  1.00  0.00     0.169 HD
HETATM    5  C5  UNL     1      20.991 -22.208  29.164  1.00  0.00     0.128 A 
HETATM    6  C13 UNL     1      20.268 -23.100  29.952  1.00  0.00     0.097 A 
HETATM    7  C15 UNL     1      19.476 -22.644  30.990  1.00  0.00     0.207 A 
HETATM    8  O4  UNL     1      18.829 -23.444  31.697  1.00  0.00    -0.286 OA
ENDROOT
BRANCH   5   9
HETATM    9  N2  UNL     1      21.761 -22.604  28.075  1.00  0.00    -0.315 N 
HETATM   10  C6  UNL     1      23.085 -23.180  28.000  1.00  0.00     0.162 C 
HETATM   11  C7  UNL     1      23.537 -23.114  26.557  1.00  0.00     0.043 C 
HETATM   12  C8  UNL     1      24.768 -22.285  26.343  1.00  0.00     0.040 C 
HETATM   13  C9  UNL     1      23.757 -24.465  25.945  1.00  0.00     0.040 C 
HETATM   14  N3  UNL     1      22.451 -22.471  25.850  1.00  0.00    -0.360 N 
HETATM   15  C10 UNL     1      22.599 -21.882  24.535  1.00  0.00     0.152 C 
HETATM   16  C11 UNL     1      21.316 -22.562  26.699  1.00  0.00     0.118 C 
HETATM   17  C12 UNL     1      20.080 -22.623  26.239  1.00  0.00     0.133 C 
HETATM   18 CL1  UNL     1      19.787 -22.549  24.518  1.00  0.00    -0.093 Cl
ENDBRANCH   5   9
BRANCH   6  19
HETATM   19  C14 UNL     1      20.332 -24.523  29.708  1.00  0.00     0.277 C 
HETATM   20  O3  UNL     1      19.682 -25.019  28.759  1.00  0.00    -0.301 OA
ENDBRANCH   6  19
BRANCH   2  21
HETATM   21  O2  UNL     1      20.043 -19.060  30.717  1.00  0.00    -0.345 OA
ATOM     22  H2  UNL     1      19.469 -18.752  31.409  1.00  0.00     0.219 HD
ENDBRANCH   2  21
BRANCH   1  23
HETATM   23  C2  UNL     1      18.555 -20.825  32.349  1.00  0.00     0.164 C 
HETATM   24  C1  UNL     1      18.651 -21.324  33.736  1.00  0.00     0.097 C 
HETATM   25  O1  UNL     1      17.683 -19.934  32.119  1.00  0.00    -0.292 OA
ENDBRANCH   1  23
TORSDOF 4
ENDMDL
MODEL 3
REMARK VINA RESULT: -6.907534942      5.560      8.797
REMARK  4 active torsions:
REMARK  status: ('A' for Active; 'I' for Inactive)
REMARK    1  A    between atoms: C2_2  and  C3_4 
REMARK    2  A    between atoms: C4_5  and  O2_6 
REMARK    3  A    between atoms: C5_10  and  N2_11 
REMARK    4  A    between atoms: C13_21  and  C14_22 
ROOT
HETATM    1  C3  UNL     1      27.248 -25.610  24.714  1.00  0.00     0.111 A 
HETATM    2  C4  UNL     1      26.497 -26.000  25.815  1.00  0.00     0.159 A 
HETATM    3  N1  UNL     1      25.329 -25.411  26.098  1.00  0.00    -0.321 N 
ATOM      4  H1  UNL     1      24.807 -25.726  26.915  1.00  0.00     0.169 HD
HETATM    5  C5  UNL     1      24.806 -24.401  25.333  1.00  0.00     0.128 A 
HETATM    6  C13 UNL     1      25.543 -23.994  24.224  1.00  0.00     0.097 A 
HETATM    7  C15 UNL     1      26.751 -24.593  23.920  1.00  0.00     0.207 A 
HETATM    8  O4  UNL     1      27.413 -24.228  22.927  1.00  0.00    -0.286 OA
ENDROOT
BRANCH   5   9
HETATM    9  N2  UNL     1      23.560 -23.871  25.656  1.00  0.00    -0.315 N 
HETATM   10  C6  UNL     1      22.228 -24.417  25.528  1.00  0.00     0.162 C 
HETATM   11  C7  UNL     1      21.243 -23.288  25.741  1.00  0.00     0.043 C 
HETATM   12  C8  UNL     1      20.367 -23.013  24.555  1.00  0.00     0.040 C 
HETATM   13  C9  UNL     1      20.371 -23.484  26.945  1.00  0.00     0.040 C 
HETATM   14  N3  UNL     1      22.058 -22.113  25.961  1.00  0.00    -0.360 N 
HETATM   15  C10 UNL     1      21.547 -20.761  25.847  1.00  0.00     0.152 C 
HETATM   16  C11 UNL     1      23.356 -22.586  26.288  1.00  0.00     0.118 C 
HETATM   17  C12 UNL     1      24.184 -21.921  27.072  1.00  0.00     0.133 C 
HETATM   18 CL1  UNL     1      23.713 -20.369  27.721  1.00  0.00    -0.093 Cl
ENDBRANCH   5   9
BRANCH   6  19
HETATM   19  C14 UNL     1      25.066 -22.933  23.366  1.00  0.00     0.277 C 
HETATM   20  O3  UNL     1      24.330 -23.208  22.390  1.00  0.00    -0.301 OA
ENDBRANCH   6  19
BRANCH   2  21
HETATM   21  O2  UNL     1      26.975 -27.017  26.625  1.00  0.00    -0.345 OA
ATOM     22  H2  UNL     1      26.362 -27.493  27.174  1.00  0.00     0.219 HD
ENDBRANCH   2  21
BRANCH   1  23
HETATM   23  C2  UNL     1      28.513 -26.232  24.387  1.00  0.00     0.164 C 
HETATM   24  C1  UNL     1      29.830 -25.625  24.672  1.00  0.00     0.097 C 
HETATM   25  O1  UNL     1      28.514 -27.366  23.822  1.00  0.00    -0.292 OA
ENDBRANCH   1  23
TORSDOF 4
ENDMDL
MODEL 4
REMARK VINA RESULT: -6.873881574      4.021      5.410
REMARK  4 active torsions:
REMARK  status: ('A' for Active; 'I' for Inactive)
REMARK    1  A    between atoms: C2_2  and  C3_4 
REMARK    2  A    between atoms: C4_5  and  O2_6 
REMARK    3  A    between atoms: C5_10  and  N2_11 
REMARK    4  A    between atoms: C13_21  and  C14_22 
ROOT
HETATM    1  C3  UNL     1      21.956 -23.797  27.043  1.00  0.00     0.111 A 
HETATM    2  C4  UNL     1      22.066 -23.908  25.663  1.00  0.00     0.159 A 
HETATM    3  N1  UNL     1      22.567 -22.907  24.928  1.00  0.00    -0.321 N 
ATOM      4  H1  UNL     1      22.631 -23.028  23.917  1.00  0.00     0.169 HD
HETATM    5  C5  UNL     1      22.996 -21.728  25.479  1.00  0.00     0.128 A 
HETATM    6  C13 UNL     1      22.894 -21.596  26.861  1.00  0.00     0.097 A 
HETATM    7  C15 UNL     1      22.379 -22.621  27.633  1.00  0.00     0.207 A 
HETATM    8  O4  UNL     1      22.287 -22.502  28.872  1.00  0.00    -0.286 OA
ENDROOT
BRANCH   5   9
HETATM    9  N2  UNL     1      23.555 -20.752  24.659  1.00  0.00    -0.315 N 
HETATM   10  C6  UNL     1      24.793 -20.727  23.912  1.00  0.00     0.162 C 
HETATM   11  C7  UNL     1      25.031 -19.302  23.459  1.00  0.00     0.043 C 
HETATM   12  C8  UNL     1      26.289 -18.694  24.002  1.00  0.00     0.040 C 
HETATM   13  C9  UNL     1      25.028 -19.148  21.968  1.00  0.00     0.040 C 
HETATM   14  N3  UNL     1      23.918 -18.546  23.993  1.00  0.00    -0.360 N 
HETATM   15  C10 UNL     1      23.926 -17.102  24.113  1.00  0.00     0.152 C 
HETATM   16  C11 UNL     1      22.918 -19.496  24.330  1.00  0.00     0.118 C 
HETATM   17  C12 UNL     1      21.628 -19.219  24.298  1.00  0.00     0.133 C 
HETATM   18 CL1  UNL     1      21.091 -17.612  23.870  1.00  0.00    -0.093 Cl
ENDBRANCH   5   9
BRANCH   6  19
HETATM   19  C14 UNL     1      23.321 -20.383  27.523  1.00  0.00     0.277 C 
HETATM   20  O3  UNL     1      24.531 -20.223  27.803  1.00  0.00    -0.301 OA
ENDBRANCH   6  19
BRANCH   2  21
HETATM   21  O2  UNL     1      21.649 -25.077  25.049  1.00  0.00    -0.345 OA
ATOM     22  H2  UNL     1      22.157 -25.870  25.176  1.00  0.00     0.219 HD
ENDBRANCH   2  21
BRANCH   1  23
HETATM   23  C2  UNL     1      21.419 -24.864  27.859  1.00  0.00     0.164 C 
HETATM   24  C1  UNL     1      20.017 -24.926  28.320  1.00  0.00     0.097 C 
HETATM   25  O1  UNL     1      22.181 -25.814  28.211  1.00  0.00    -0.292 OA
ENDBRANCH   1  23
TORSDOF 4
ENDMDL
MODEL 5
REMARK VINA RESULT: -6.851053427      4.683      7.712
REMARK  4 active torsions:
REMARK  status: ('A' for Active; 'I' for Inactive)
REMARK    1  A    between atoms: C2_2  and  C3_4 
REMARK    2  A    between atoms: C4_5  and  O2_6 
REMARK    3  A    between atoms: C5_10  and  N2_11 
REMARK    4  A    between atoms: C13_21  and  C14_22 
ROOT
HETATM    1  C3  UNL     1      25.715 -19.129  23.565  1.00  0.00     0.111 A 
HETATM    2  C4  UNL     1      25.109 -18.624  24.708  1.00  0.00     0.159 A 
HETATM    3  N1  UNL     1      24.387 -19.414  25.513  1.00  0.00    -0.321 N 
ATOM      4  H1  UNL     1      23.958 -19.005  26.343  1.00  0.00     0.169 HD
HETATM    5  C5  UNL     1      24.200 -20.749  25.266  1.00  0.00     0.128 A 
HETATM    6  C13 UNL     1      24.799 -21.275  24.124  1.00  0.00     0.097 A 
HETATM    7  C15 UNL     1      25.547 -20.472  23.284  1.00  0.00     0.207 A 
HETATM    8  O4  UNL     1      26.083 -20.943  22.260  1.00  0.00    -0.286 OA
ENDROOT
BRANCH   5   9
HETATM    9  N2  UNL     1      23.482 -21.520  26.174  1.00  0.00    -0.315 N 
HETATM   10  C6  UNL     1      23.780 -21.923  27.531  1.00  0.00     0.162 C 
HETATM   11  C7  UNL     1      22.796 -23.006  27.918  1.00  0.00     0.043 C 
HETATM   12  C8  UNL     1      23.439 -24.321  28.249  1.00  0.00     0.040 C 
HETATM   13  C9  UNL     1      21.899 -22.612  29.053  1.00  0.00     0.040 C 
HETATM   14  N3  UNL     1      21.975 -23.208  26.744  1.00  0.00    -0.360 N 
HETATM   15  C10 UNL     1      21.155 -24.385  26.542  1.00  0.00     0.152 C 
HETATM   16  C11 UNL     1      22.164 -22.062  25.926  1.00  0.00     0.118 C 
HETATM   17  C12 UNL     1      21.232 -21.602  25.112  1.00  0.00     0.133 C 
HETATM   18 CL1  UNL     1      19.703 -22.437  24.976  1.00  0.00    -0.093 Cl
ENDBRANCH   5   9
BRANCH   6  19
HETATM   19  C14 UNL     1      24.650 -22.674  23.787  1.00  0.00     0.277 C 
HETATM   20  O3  UNL     1      23.730 -23.031  23.017  1.00  0.00    -0.301 OA
ENDBRANCH   6  19
BRANCH   2  21
HETATM   21  O2  UNL     1      25.262 -17.281  25.010  1.00  0.00    -0.345 OA
ATOM     22  H2  UNL     1      25.186 -17.003  25.916  1.00  0.00     0.219 HD
ENDBRANCH   2  21
BRANCH   1  23
HETATM   23  C2  UNL     1      26.500 -18.296  22.680  1.00  0.00     0.164 C 
HETATM   24  C1  UNL     1      25.999 -17.743  21.405  1.00  0.00     0.097 C 
HETATM   25  O1  UNL     1      27.693 -18.011  23.000  1.00  0.00    -0.292 OA
ENDBRANCH   1  23
TORSDOF 4
ENDMDL
