MODEL 1
REMARK VINA RESULT: -5.557643477      0.000      0.000
REMARK  9 active torsions:
REMARK  status: ('A' for Active; 'I' for Inactive)
REMARK    1  A    between atoms: C2_2  and  C4_4 
REMARK    2  A    between atoms: C4_4  and  C5_5 
REMARK    3  A    between atoms: C4_4  and  C6_10 
REMARK    4  A    between atoms: C6_10  and  N3_11 
REMARK    5  A    between atoms: C6_10  and  C7_15 
REMARK    6  A    between atoms: C7_15  and  O1_16 
REMARK    7  A    between atoms: C7_15  and  C8_18 
REMARK    8  A    between atoms: C8_18  and  C9_20 
REMARK    9  A    between atoms: C9_20  and  N4_21 
ROOT
HETATM    1  C6  UNL     1      13.022  -6.421 -36.853  1.00  0.00     0.234 C 
ENDROOT
BRANCH   1   2
HETATM    2  C4  UNL     1      12.258  -7.079 -35.789  1.00  0.00     0.111 C 
BRANCH   2   3
HETATM    3  C2  UNL     1      10.808  -6.877 -35.731  1.00  0.00    -0.080 C 
HETATM    4  C1  UNL     1      10.102  -5.904 -36.263  1.00  0.00     0.015 C 
HETATM    5  C3  UNL     1      10.051  -7.921 -34.958  1.00  0.00     0.043 C 
ENDBRANCH   2   3
BRANCH   2   6
HETATM    6  C5  UNL     1      12.897  -6.870 -34.467  1.00  0.00     0.097 C 
HETATM    7  N1  UNL     1      13.607  -7.724 -33.862  1.00  0.00    -0.390 N 
ATOM      8  H12 UNL     1      13.750  -8.625 -34.318  1.00  0.00     0.157 HD
ATOM      9  H11 UNL     1      14.047  -7.581 -32.952  1.00  0.00     0.157 HD
HETATM   10  N2  UNL     1      12.694  -5.596 -33.821  1.00  0.00    -0.087 NA
ENDBRANCH   2   6
ENDBRANCH   1   2
BRANCH   1  11
HETATM   11  N3  UNL     1      14.254  -5.893 -36.303  1.00  0.00    -0.071 N 
ATOM     12  H33 UNL     1      14.086  -5.187 -35.586  1.00  0.00     0.274 HD
ATOM     13  H32 UNL     1      14.741  -6.576 -35.723  1.00  0.00     0.274 HD
ATOM     14  H31 UNL     1      14.840  -5.543 -37.061  1.00  0.00     0.274 HD
ENDBRANCH   1  11
BRANCH   1  15
HETATM   15  C7  UNL     1      13.221  -7.147 -38.142  1.00  0.00     0.220 C 
BRANCH  15  16
HETATM   16  O1  UNL     1      12.809  -8.469 -38.087  1.00  0.00    -0.386 OA
ATOM     17  H1  UNL     1      12.128  -8.672 -38.716  1.00  0.00     0.210 HD
ENDBRANCH  15  16
BRANCH  15  18
HETATM   18  C8  UNL     1      12.480  -6.379 -39.185  1.00  0.00     0.176 C 
HETATM   19  O2  UNL     1      12.626  -5.152 -39.173  1.00  0.00    -0.293 OA
BRANCH  18  20
HETATM   20  C9  UNL     1      11.630  -7.062 -40.162  1.00  0.00     0.229 C 
BRANCH  20  21
HETATM   21  N4  UNL     1      10.536  -6.168 -40.574  1.00  0.00    -0.296 N 
HETATM   22  C10 UNL     1      10.155  -5.919 -41.836  1.00  0.00     0.112 A 
HETATM   23  C11 UNL     1       9.096  -5.032 -41.839  1.00  0.00     0.045 A 
HETATM   24  C12 UNL     1       8.864  -4.764 -40.505  1.00  0.00     0.023 A 
HETATM   25  C13 UNL     1       7.795  -3.839 -39.988  1.00  0.00     0.070 C 
HETATM   26  N5  UNL     1       9.743  -5.460 -39.795  1.00  0.00    -0.303 N 
ATOM     27  H5  UNL     1       9.798  -5.449 -38.777  1.00  0.00     0.186 HD
ENDBRANCH  20  21
ENDBRANCH  18  20
ENDBRANCH  15  18
ENDBRANCH   1  15
TORSDOF 9
ENDMDL
MODEL 2
REMARK VINA RESULT: -5.444899136      0.897      1.386
REMARK  9 active torsions:
REMARK  status: ('A' for Active; 'I' for Inactive)
REMARK    1  A    between atoms: C2_2  and  C4_4 
REMARK    2  A    between atoms: C4_4  and  C5_5 
REMARK    3  A    between atoms: C4_4  and  C6_10 
REMARK    4  A    between atoms: C6_10  and  N3_11 
REMARK    5  A    between atoms: C6_10  and  C7_15 
REMARK    6  A    between atoms: C7_15  and  O1_16 
REMARK    7  A    between atoms: C7_15  and  C8_18 
REMARK    8  A    between atoms: C8_18  and  C9_20 
REMARK    9  A    between atoms: C9_20  and  N4_21 
ROOT
HETATM    1  C6  UNL     1      12.871  -6.462 -36.911  1.00  0.00     0.234 C 
ENDROOT
BRANCH   1   2
HETATM    2  C4  UNL     1      12.183  -7.140 -35.807  1.00  0.00     0.111 C 
BRANCH   2   3
HETATM    3  C2  UNL     1      10.728  -7.011 -35.698  1.00  0.00    -0.080 C 
HETATM    4  C1  UNL     1       9.964  -6.034 -36.133  1.00  0.00     0.015 C 
HETATM    5  C3  UNL     1      10.041  -8.146 -34.990  1.00  0.00     0.043 C 
ENDBRANCH   2   3
BRANCH   2   6
HETATM    6  C5  UNL     1      12.860  -6.876 -34.515  1.00  0.00     0.097 C 
HETATM    7  N1  UNL     1      13.592  -7.702 -33.897  1.00  0.00    -0.390 N 
ATOM      8  H12 UNL     1      13.726  -8.620 -34.321  1.00  0.00     0.157 HD
ATOM      9  H11 UNL     1      14.057  -7.521 -33.008  1.00  0.00     0.157 HD
HETATM   10  N2  UNL     1      12.669  -5.578 -33.914  1.00  0.00    -0.087 NA
ENDBRANCH   2   6
ENDBRANCH   1   2
BRANCH   1  11
HETATM   11  N3  UNL     1      14.107  -5.884 -36.421  1.00  0.00    -0.071 N 
ATOM     12  H33 UNL     1      14.118  -4.867 -36.507  1.00  0.00     0.274 HD
ATOM     13  H32 UNL     1      14.186  -5.944 -35.406  1.00  0.00     0.274 HD
ATOM     14  H31 UNL     1      14.896  -6.321 -36.897  1.00  0.00     0.274 HD
ENDBRANCH   1  11
BRANCH   1  15
HETATM   15  C7  UNL     1      13.038  -7.191 -38.202  1.00  0.00     0.220 C 
BRANCH  15  16
HETATM   16  O1  UNL     1      12.890  -8.563 -38.073  1.00  0.00    -0.386 OA
ATOM     17  H1  UNL     1      13.442  -8.934 -37.395  1.00  0.00     0.210 HD
ENDBRANCH  15  16
BRANCH  15  18
HETATM   18  C8  UNL     1      12.043  -6.613 -39.151  1.00  0.00     0.176 C 
HETATM   19  O2  UNL     1      11.432  -7.415 -39.866  1.00  0.00    -0.293 OA
BRANCH  18  20
HETATM   20  C9  UNL     1      11.816  -5.168 -39.217  1.00  0.00     0.229 C 
BRANCH  20  21
HETATM   21  N4  UNL     1      10.503  -4.903 -39.828  1.00  0.00    -0.296 N 
HETATM   22  C10 UNL     1       9.444  -4.359 -39.212  1.00  0.00     0.112 A 
HETATM   23  C11 UNL     1       8.387  -4.262 -40.096  1.00  0.00     0.045 A 
HETATM   24  C12 UNL     1       8.875  -4.780 -41.278  1.00  0.00     0.023 A 
HETATM   25  C13 UNL     1       8.088  -4.892 -42.557  1.00  0.00     0.070 C 
HETATM   26  N5  UNL     1      10.132  -5.146 -41.069  1.00  0.00    -0.303 N 
ATOM     27  H5  UNL     1      10.736  -5.562 -41.778  1.00  0.00     0.186 HD
ENDBRANCH  20  21
ENDBRANCH  18  20
ENDBRANCH  15  18
ENDBRANCH   1  15
TORSDOF 9
ENDMDL
MODEL 3
REMARK VINA RESULT: -5.439629160      2.436      3.559
REMARK  9 active torsions:
REMARK  status: ('A' for Active; 'I' for Inactive)
REMARK    1  A    between atoms: C2_2  and  C4_4 
REMARK    2  A    between atoms: C4_4  and  C5_5 
REMARK    3  A    between atoms: C4_4  and  C6_10 
REMARK    4  A    between atoms: C6_10  and  N3_11 
REMARK    5  A    between atoms: C6_10  and  C7_15 
REMARK    6  A    between atoms: C7_15  and  O1_16 
REMARK    7  A    between atoms: C7_15  and  C8_18 
REMARK    8  A    between atoms: C8_18  and  C9_20 
REMARK    9  A    between atoms: C9_20  and  N4_21 
ROOT
HETATM    1  C6  UNL     1      10.644  -7.652 -35.359  1.00  0.00     0.234 C 
ENDROOT
BRANCH   1   2
HETATM    2  C4  UNL     1      11.928  -6.996 -35.627  1.00  0.00     0.111 C 
BRANCH   2   3
HETATM    3  C2  UNL     1      12.693  -7.397 -36.810  1.00  0.00    -0.080 C 
HETATM    4  C1  UNL     1      12.676  -8.554 -37.434  1.00  0.00     0.015 C 
HETATM    5  C3  UNL     1      13.610  -6.342 -37.361  1.00  0.00     0.043 C 
ENDBRANCH   2   3
BRANCH   2   6
HETATM    6  C5  UNL     1      12.773  -6.962 -34.408  1.00  0.00     0.097 C 
HETATM    7  N1  UNL     1      13.531  -7.900 -34.025  1.00  0.00    -0.390 N 
ATOM      8  H12 UNL     1      13.562  -8.743 -34.598  1.00  0.00     0.157 HD
ATOM      9  H11 UNL     1      14.112  -7.877 -33.187  1.00  0.00     0.157 HD
HETATM   10  N2  UNL     1      12.728  -5.770 -33.597  1.00  0.00    -0.087 NA
ENDBRANCH   2   6
ENDBRANCH   1   2
BRANCH   1  11
HETATM   11  N3  UNL     1      10.561  -7.987 -33.952  1.00  0.00    -0.071 N 
ATOM     12  H33 UNL     1       9.896  -8.740 -33.772  1.00  0.00     0.274 HD
ATOM     13  H32 UNL     1      11.403  -8.455 -33.616  1.00  0.00     0.274 HD
ATOM     14  H31 UNL     1      10.347  -7.146 -33.416  1.00  0.00     0.274 HD
ENDBRANCH   1  11
BRANCH   1  15
HETATM   15  C7  UNL     1       9.398  -7.020 -35.884  1.00  0.00     0.220 C 
BRANCH  15  16
HETATM   16  O1  UNL     1       8.430  -6.841 -34.909  1.00  0.00    -0.386 OA
ATOM     17  H1  UNL     1       7.784  -6.185 -35.143  1.00  0.00     0.210 HD
ENDBRANCH  15  16
BRANCH  15  18
HETATM   18  C8  UNL     1       9.804  -5.727 -36.506  1.00  0.00     0.176 C 
HETATM   19  O2  UNL     1      10.194  -4.843 -35.736  1.00  0.00    -0.293 OA
BRANCH  18  20
HETATM   20  C9  UNL     1       9.737  -5.534 -37.957  1.00  0.00     0.229 C 
BRANCH  20  21
HETATM   21  N4  UNL     1       9.374  -4.139 -38.253  1.00  0.00    -0.296 N 
HETATM   22  C10 UNL     1       8.295  -3.736 -38.940  1.00  0.00     0.112 A 
HETATM   23  C11 UNL     1       8.281  -2.357 -39.021  1.00  0.00     0.045 A 
HETATM   24  C12 UNL     1       9.414  -1.958 -38.343  1.00  0.00     0.023 A 
HETATM   25  C13 UNL     1       9.843  -0.527 -38.153  1.00  0.00     0.070 C 
HETATM   26  N5  UNL     1      10.029  -3.050 -37.907  1.00  0.00    -0.303 N 
ATOM     27  H5  UNL     1      10.897  -3.047 -37.372  1.00  0.00     0.186 HD
ENDBRANCH  20  21
ENDBRANCH  18  20
ENDBRANCH  15  18
ENDBRANCH   1  15
TORSDOF 9
ENDMDL
MODEL 4
REMARK VINA RESULT: -5.369076761      1.268      1.625
REMARK  9 active torsions:
REMARK  status: ('A' for Active; 'I' for Inactive)
REMARK    1  A    between atoms: C2_2  and  C4_4 
REMARK    2  A    between atoms: C4_4  and  C5_5 
REMARK    3  A    between atoms: C4_4  and  C6_10 
REMARK    4  A    between atoms: C6_10  and  N3_11 
REMARK    5  A    between atoms: C6_10  and  C7_15 
REMARK    6  A    between atoms: C7_15  and  O1_16 
REMARK    7  A    between atoms: C7_15  and  C8_18 
REMARK    8  A    between atoms: C8_18  and  C9_20 
REMARK    9  A    between atoms: C9_20  and  N4_21 
ROOT
HETATM    1  C6  UNL     1      12.989  -6.412 -36.887  1.00  0.00     0.234 C 
ENDROOT
BRANCH   1   2
HETATM    2  C4  UNL     1      12.232  -7.082 -35.824  1.00  0.00     0.111 C 
BRANCH   2   3
HETATM    3  C2  UNL     1      10.778  -6.903 -35.772  1.00  0.00    -0.080 C 
HETATM    4  C1  UNL     1      10.062  -5.924 -36.279  1.00  0.00     0.015 C 
HETATM    5  C3  UNL     1      10.031  -7.982 -35.039  1.00  0.00     0.043 C 
ENDBRANCH   2   3
BRANCH   2   6
HETATM    6  C5  UNL     1      12.863  -6.860 -34.500  1.00  0.00     0.097 C 
HETATM    7  N1  UNL     1      13.557  -7.714 -33.876  1.00  0.00    -0.390 N 
ATOM      8  H12 UNL     1      13.693  -8.623 -34.318  1.00  0.00     0.157 HD
ATOM      9  H11 UNL     1      13.991  -7.561 -32.965  1.00  0.00     0.157 HD
HETATM   10  N2  UNL     1      12.670  -5.574 -33.876  1.00  0.00    -0.087 NA
ENDBRANCH   2   6
ENDBRANCH   1   2
BRANCH   1  11
HETATM   11  N3  UNL     1      14.208  -5.860 -36.332  1.00  0.00    -0.071 N 
ATOM     12  H33 UNL     1      14.285  -6.023 -35.328  1.00  0.00     0.274 HD
ATOM     13  H32 UNL     1      15.036  -6.379 -36.627  1.00  0.00     0.274 HD
ATOM     14  H31 UNL     1      14.269  -4.870 -36.569  1.00  0.00     0.274 HD
ENDBRANCH   1  11
BRANCH   1  15
HETATM   15  C7  UNL     1      13.207  -7.139 -38.172  1.00  0.00     0.220 C 
BRANCH  15  16
HETATM   16  O1  UNL     1      12.967  -8.500 -38.072  1.00  0.00    -0.386 OA
ATOM     17  H1  UNL     1      13.198  -8.976 -38.860  1.00  0.00     0.210 HD
ENDBRANCH  15  16
BRANCH  15  18
HETATM   18  C8  UNL     1      12.322  -6.493 -39.185  1.00  0.00     0.176 C 
HETATM   19  O2  UNL     1      11.451  -7.208 -39.692  1.00  0.00    -0.293 OA
BRANCH  18  20
HETATM   20  C9  UNL     1      12.491  -5.083 -39.544  1.00  0.00     0.229 C 
BRANCH  20  21
HETATM   21  N4  UNL     1      11.222  -4.366 -39.339  1.00  0.00    -0.296 N 
HETATM   22  C10 UNL     1      11.052  -3.264 -38.595  1.00  0.00     0.112 A 
HETATM   23  C11 UNL     1       9.728  -2.871 -38.635  1.00  0.00     0.045 A 
HETATM   24  C12 UNL     1       9.114  -3.804 -39.446  1.00  0.00     0.023 A 
HETATM   25  C13 UNL     1       7.651  -3.805 -39.800  1.00  0.00     0.070 C 
HETATM   26  N5  UNL     1      10.041  -4.669 -39.839  1.00  0.00    -0.303 N 
ATOM     27  H5  UNL     1       9.862  -5.467 -40.449  1.00  0.00     0.186 HD
ENDBRANCH  20  21
ENDBRANCH  18  20
ENDBRANCH  15  18
ENDBRANCH   1  15
TORSDOF 9
ENDMDL
MODEL 5
REMARK VINA RESULT: -5.311006067      2.010      2.955
REMARK  9 active torsions:
REMARK  status: ('A' for Active; 'I' for Inactive)
REMARK    1  A    between atoms: C2_2  and  C4_4 
REMARK    2  A    between atoms: C4_4  and  C5_5 
REMARK    3  A    between atoms: C4_4  and  C6_10 
REMARK    4  A    between atoms: C6_10  and  N3_11 
REMARK    5  A    between atoms: C6_10  and  C7_15 
REMARK    6  A    between atoms: C7_15  and  O1_16 
REMARK    7  A    between atoms: C7_15  and  C8_18 
REMARK    8  A    between atoms: C8_18  and  C9_20 
REMARK    9  A    between atoms: C9_20  and  N4_21 
ROOT
HETATM    1  C6  UNL     1      11.575  -6.938 -36.951  1.00  0.00     0.234 C 
ENDROOT
BRANCH   1   2
HETATM    2  C4  UNL     1      11.741  -6.617 -35.529  1.00  0.00     0.111 C 
BRANCH   2   3
HETATM    3  C2  UNL     1      13.002  -6.020 -35.083  1.00  0.00    -0.080 C 
HETATM    4  C1  UNL     1      13.416  -5.821 -33.851  1.00  0.00     0.015 C 
HETATM    5  C3  UNL     1      13.923  -5.581 -36.187  1.00  0.00     0.043 C 
ENDBRANCH   2   3
BRANCH   2   6
HETATM    6  C5  UNL     1      11.338  -7.760 -34.675  1.00  0.00     0.097 C 
HETATM    7  N1  UNL     1      10.169  -7.961 -34.236  1.00  0.00    -0.390 N 
ATOM      8  H12 UNL     1       9.449  -7.284 -34.488  1.00  0.00     0.157 HD
ATOM      9  H11 UNL     1       9.892  -8.747 -33.647  1.00  0.00     0.157 HD
HETATM   10  N2  UNL     1      12.357  -8.718 -34.317  1.00  0.00    -0.087 NA
ENDBRANCH   2   6
ENDBRANCH   1   2
BRANCH   1  11
HETATM   11  N3  UNL     1      12.129  -8.251 -37.214  1.00  0.00    -0.071 N 
ATOM     12  H33 UNL     1      12.118  -8.848 -36.387  1.00  0.00     0.274 HD
ATOM     13  H32 UNL     1      11.521  -8.814 -37.808  1.00  0.00     0.274 HD
ATOM     14  H31 UNL     1      13.066  -8.150 -37.606  1.00  0.00     0.274 HD
ENDBRANCH   1  11
BRANCH   1  15
HETATM   15  C7  UNL     1      10.236  -6.732 -37.576  1.00  0.00     0.220 C 
BRANCH  15  16
HETATM   16  O1  UNL     1       9.388  -5.960 -36.798  1.00  0.00    -0.386 OA
ATOM     17  H1  UNL     1       8.907  -5.314 -37.301  1.00  0.00     0.210 HD
ENDBRANCH  15  16
BRANCH  15  18
HETATM   18  C8  UNL     1      10.477  -6.113 -38.912  1.00  0.00     0.176 C 
HETATM   19  O2  UNL     1      10.858  -6.872 -39.810  1.00  0.00    -0.293 OA
BRANCH  18  20
HETATM   20  C9  UNL     1      10.267  -4.680 -39.128  1.00  0.00     0.229 C 
BRANCH  20  21
HETATM   21  N4  UNL     1       9.105  -4.479 -40.009  1.00  0.00    -0.296 N 
HETATM   22  C10 UNL     1       7.966  -3.855 -39.678  1.00  0.00     0.112 A 
HETATM   23  C11 UNL     1       7.101  -3.857 -40.756  1.00  0.00     0.045 A 
HETATM   24  C12 UNL     1       7.790  -4.519 -41.752  1.00  0.00     0.023 A 
HETATM   25  C13 UNL     1       7.259  -4.778 -43.137  1.00  0.00     0.070 C 
HETATM   26  N5  UNL     1       8.972  -4.868 -41.261  1.00  0.00    -0.303 N 
ATOM     27  H5  UNL     1       9.687  -5.373 -41.786  1.00  0.00     0.186 HD
ENDBRANCH  20  21
ENDBRANCH  18  20
ENDBRANCH  15  18
ENDBRANCH   1  15
TORSDOF 9
ENDMDL
