MODEL 1
REMARK VINA RESULT: -8.573046149      0.000      0.000
REMARK  8 active torsions:
REMARK  status: ('A' for Active; 'I' for Inactive)
REMARK    1  A    between atoms: C2_2  and  O1_3 
REMARK    2  A    between atoms: O1_3  and  C3_4 
REMARK    3  A    between atoms: C3_4  and  C4_6 
REMARK    4  A    between atoms: C4_6  and  N1_7 
REMARK       I    between atoms: N2_13  and  C8_15 
REMARK       I    between atoms: C8_15  and  N3_17 
REMARK    5  A    between atoms: C13_22  and  C14_23 
REMARK    6  A    between atoms: C15_26  and  C16_27 
REMARK       I    between atoms: C16_27  and  N4_29 
REMARK    7  A    between atoms: N4_29  and  C17_31 
REMARK    8  A    between atoms: C17_31  and  C20_34 
ROOT
HETATM    1  N1  UNL     1      14.549 -12.556  15.025  1.00  0.00    -0.319 N 
HETATM    2  C5  UNL     1      15.334 -13.604  14.420  1.00  0.00     0.215 C 
HETATM    3  C6  UNL     1      14.804 -14.933  14.902  1.00  0.00     0.317 C 
HETATM    4  F1  UNL     1      15.562 -15.936  14.328  1.00  0.00    -0.196 F 
HETATM    5  F2  UNL     1      14.850 -15.039  16.279  1.00  0.00    -0.196 F 
HETATM    6  C7  UNL     1      13.381 -15.008  14.435  1.00  0.00     0.164 C 
HETATM    7  N2  UNL     1      13.004 -16.013  13.763  1.00  0.00    -0.293 N 
ATOM      8  H2  UNL     1      13.683 -16.747  13.559  1.00  0.00     0.172 HD
HETATM    9  C8  UNL     1      11.683 -16.161  13.287  1.00  0.00     0.325 C 
HETATM   10  O3  UNL     1      11.165 -15.205  12.669  1.00  0.00    -0.247 OA
HETATM   11  N3  UNL     1      10.936 -17.349  13.488  1.00  0.00    -0.309 N 
HETATM   12  C9  UNL     1      11.574 -18.422  14.194  1.00  0.00     0.099 C 
HETATM   13  C10 UNL     1      11.377 -19.734  13.405  1.00  0.00     0.032 C 
HETATM   14  C11 UNL     1       9.982 -19.681  14.038  1.00  0.00     0.005 C 
HETATM   15  C12 UNL     1       9.063 -18.741  13.357  1.00  0.00     0.046 A 
HETATM   16  C13 UNL     1       9.183 -18.410  11.921  1.00  0.00     0.132 A 
HETATM   17  C15 UNL     1       9.588 -17.412  12.965  1.00  0.00     0.137 A 
HETATM   18  C21 UNL     1      10.720 -19.101  15.232  1.00  0.00    -0.023 C 
HETATM   19  C22 UNL     1       9.987 -18.307  16.216  1.00  0.00     0.017 C 
HETATM   20  C23 UNL     1      11.528 -20.197  15.910  1.00  0.00     0.017 C 
HETATM   21  N5  UNL     1      12.523 -13.926  14.781  1.00  0.00    -0.293 N 
ATOM     22  H5  UNL     1      11.509 -14.037  14.814  1.00  0.00     0.172 HD
HETATM   23  C24 UNL     1      13.143 -12.692  15.075  1.00  0.00     0.324 C 
HETATM   24  O7  UNL     1      12.425 -11.712  15.386  1.00  0.00    -0.247 OA
ENDROOT
BRANCH  17  25
HETATM   25  C16 UNL     1       8.760 -16.198  13.036  1.00  0.00     0.248 C 
HETATM   26  O6  UNL     1       8.287 -15.888  14.182  1.00  0.00    -0.271 OA
HETATM   27  N4  UNL     1       8.479 -15.389  11.922  1.00  0.00    -0.350 N 
ATOM     28  H4  UNL     1       8.881 -15.656  11.023  1.00  0.00     0.163 HD
BRANCH  27  29
HETATM   29  C17 UNL     1       7.655 -14.203  11.974  1.00  0.00     0.034 C 
HETATM   30  C18 UNL     1       6.183 -14.521  11.845  1.00  0.00     0.039 C 
HETATM   31  C19 UNL     1       7.836 -13.465  13.275  1.00  0.00     0.039 C 
BRANCH  29  32
HETATM   32  C20 UNL     1       7.994 -13.235  10.861  1.00  0.00     0.115 C 
HETATM   33 BR1  UNL     1       7.583 -13.949   9.131  1.00  0.00    -0.094 Br
ENDBRANCH  29  32
ENDBRANCH  27  29
ENDBRANCH  17  25
BRANCH  16  34
HETATM   34  C14 UNL     1       7.921 -18.362  11.178  1.00  0.00     0.180 C 
HETATM   35  O4  UNL     1       6.867 -18.982  11.546  1.00  0.00    -0.648 OA
HETATM   36  O5  UNL     1       7.757 -17.624   9.992  1.00  0.00    -0.648 OA
ENDBRANCH  16  34
BRANCH   1  37
HETATM   37  C4  UNL     1      15.130 -11.361  15.587  1.00  0.00     0.238 C 
BRANCH  37  38
HETATM   38  C3  UNL     1      15.517 -10.412  14.536  1.00  0.00     0.276 C 
HETATM   39  O2  UNL     1      14.722  -9.559  14.084  1.00  0.00    -0.263 OA
BRANCH  38  40
HETATM   40  O1  UNL     1      16.810 -10.470  14.031  1.00  0.00    -0.321 OA
BRANCH  40  41
HETATM   41  C2  UNL     1      17.008 -10.914  12.696  1.00  0.00     0.174 C 
HETATM   42  C1  UNL     1      17.035  -9.708  11.781  1.00  0.00     0.034 C 
ENDBRANCH  40  41
ENDBRANCH  38  40
ENDBRANCH  37  38
ENDBRANCH   1  37
TORSDOF 8
ENDMDL
MODEL 2
REMARK VINA RESULT: -8.070450695      0.833      1.095
REMARK  8 active torsions:
REMARK  status: ('A' for Active; 'I' for Inactive)
REMARK    1  A    between atoms: C2_2  and  O1_3 
REMARK    2  A    between atoms: O1_3  and  C3_4 
REMARK    3  A    between atoms: C3_4  and  C4_6 
REMARK    4  A    between atoms: C4_6  and  N1_7 
REMARK       I    between atoms: N2_13  and  C8_15 
REMARK       I    between atoms: C8_15  and  N3_17 
REMARK    5  A    between atoms: C13_22  and  C14_23 
REMARK    6  A    between atoms: C15_26  and  C16_27 
REMARK       I    between atoms: C16_27  and  N4_29 
REMARK    7  A    between atoms: N4_29  and  C17_31 
REMARK    8  A    between atoms: C17_31  and  C20_34 
ROOT
HETATM    1  N1  UNL     1      14.739 -12.604  15.107  1.00  0.00    -0.319 N 
HETATM    2  C5  UNL     1      15.621 -13.647  14.642  1.00  0.00     0.215 C 
HETATM    3  C6  UNL     1      15.121 -14.966  15.179  1.00  0.00     0.317 C 
HETATM    4  F1  UNL     1      15.971 -15.963  14.740  1.00  0.00    -0.196 F 
HETATM    5  F2  UNL     1      15.063 -14.974  16.560  1.00  0.00    -0.196 F 
HETATM    6  C7  UNL     1      13.745 -15.152  14.613  1.00  0.00     0.164 C 
HETATM    7  N2  UNL     1      13.473 -16.221  13.990  1.00  0.00    -0.293 N 
ATOM      8  H2  UNL     1      14.202 -16.928  13.892  1.00  0.00     0.172 HD
HETATM    9  C8  UNL     1      12.203 -16.474  13.427  1.00  0.00     0.325 C 
HETATM   10  O3  UNL     1      11.689 -15.593  12.704  1.00  0.00    -0.247 OA
HETATM   11  N3  UNL     1      11.503 -17.685  13.658  1.00  0.00    -0.309 N 
HETATM   12  C9  UNL     1      12.135 -18.669  14.488  1.00  0.00     0.099 C 
HETATM   13  C10 UNL     1      12.067 -20.042  13.784  1.00  0.00     0.032 C 
HETATM   14  C11 UNL     1      10.625 -20.022  14.305  1.00  0.00     0.005 C 
HETATM   15  C12 UNL     1       9.718 -19.184  13.489  1.00  0.00     0.046 A 
HETATM   16  C13 UNL     1       9.935 -18.948  12.046  1.00  0.00     0.132 A 
HETATM   17  C15 UNL     1      10.205 -17.859  13.042  1.00  0.00     0.137 A 
HETATM   18  C21 UNL     1      11.237 -19.320  15.506  1.00  0.00    -0.023 C 
HETATM   19  C22 UNL     1      10.389 -18.502  16.371  1.00  0.00     0.017 C 
HETATM   20  C23 UNL     1      12.042 -20.321  16.321  1.00  0.00     0.017 C 
HETATM   21  N5  UNL     1      12.809 -14.098  14.812  1.00  0.00    -0.293 N 
ATOM     22  H5  UNL     1      11.803 -14.262  14.777  1.00  0.00     0.172 HD
HETATM   23  C24 UNL     1      13.342 -12.814  15.061  1.00  0.00     0.324 C 
HETATM   24  O7  UNL     1      12.553 -11.856  15.243  1.00  0.00    -0.247 OA
ENDROOT
BRANCH  17  25
HETATM   25  C16 UNL     1       9.315 -16.691  12.961  1.00  0.00     0.248 C 
HETATM   26  O6  UNL     1       8.726 -16.337  14.038  1.00  0.00    -0.271 OA
HETATM   27  N4  UNL     1       9.095 -15.969  11.775  1.00  0.00    -0.350 N 
ATOM     28  H4  UNL     1       9.588 -16.268  10.933  1.00  0.00     0.163 HD
BRANCH  27  29
HETATM   29  C17 UNL     1       8.212 -14.829  11.676  1.00  0.00     0.034 C 
HETATM   30  C18 UNL     1       8.511 -13.780  12.723  1.00  0.00     0.039 C 
HETATM   31  C19 UNL     1       8.329 -14.159  10.332  1.00  0.00     0.039 C 
BRANCH  29  32
HETATM   32  C20 UNL     1       6.762 -15.225  11.853  1.00  0.00     0.115 C 
HETATM   33 BR1  UNL     1       5.573 -13.740  11.618  1.00  0.00    -0.094 Br
ENDBRANCH  29  32
ENDBRANCH  27  29
ENDBRANCH  17  25
BRANCH  16  34
HETATM   34  C14 UNL     1       8.734 -19.022  11.209  1.00  0.00     0.180 C 
HETATM   35  O4  UNL     1       7.687 -19.671  11.540  1.00  0.00    -0.648 OA
HETATM   36  O5  UNL     1       8.629 -18.379   9.962  1.00  0.00    -0.648 OA
ENDBRANCH  16  34
BRANCH   1  37
HETATM   37  C4  UNL     1      15.213 -11.343  15.621  1.00  0.00     0.238 C 
BRANCH  37  38
HETATM   38  C3  UNL     1      15.544 -10.414  14.534  1.00  0.00     0.276 C 
HETATM   39  O2  UNL     1      14.717  -9.586  14.092  1.00  0.00    -0.263 OA
BRANCH  38  40
HETATM   40  O1  UNL     1      16.818 -10.463  13.982  1.00  0.00    -0.321 OA
BRANCH  40  41
HETATM   41  C2  UNL     1      16.978 -10.974  12.666  1.00  0.00     0.174 C 
HETATM   42  C1  UNL     1      17.078  -9.813  11.700  1.00  0.00     0.034 C 
ENDBRANCH  40  41
ENDBRANCH  38  40
ENDBRANCH  37  38
ENDBRANCH   1  37
TORSDOF 8
ENDMDL
MODEL 3
REMARK VINA RESULT: -8.019882064      2.751      5.048
REMARK  8 active torsions:
REMARK  status: ('A' for Active; 'I' for Inactive)
REMARK    1  A    between atoms: C2_2  and  O1_3 
REMARK    2  A    between atoms: O1_3  and  C3_4 
REMARK    3  A    between atoms: C3_4  and  C4_6 
REMARK    4  A    between atoms: C4_6  and  N1_7 
REMARK       I    between atoms: N2_13  and  C8_15 
REMARK       I    between atoms: C8_15  and  N3_17 
REMARK    5  A    between atoms: C13_22  and  C14_23 
REMARK    6  A    between atoms: C15_26  and  C16_27 
REMARK       I    between atoms: C16_27  and  N4_29 
REMARK    7  A    between atoms: N4_29  and  C17_31 
REMARK    8  A    between atoms: C17_31  and  C20_34 
ROOT
HETATM    1  N1  UNL     1      12.551 -13.381  16.571  1.00  0.00    -0.319 N 
HETATM    2  C5  UNL     1      11.395 -12.534  16.726  1.00  0.00     0.215 C 
HETATM    3  C6  UNL     1      10.755 -12.351  15.371  1.00  0.00     0.317 C 
HETATM    4  F1  UNL     1       9.651 -11.533  15.519  1.00  0.00    -0.196 F 
HETATM    5  F2  UNL     1      11.630 -11.797  14.456  1.00  0.00    -0.196 F 
HETATM    6  C7  UNL     1      10.345 -13.720  14.915  1.00  0.00     0.164 C 
HETATM    7  N2  UNL     1       9.146 -13.919  14.560  1.00  0.00    -0.293 N 
ATOM      8  H2  UNL     1       8.490 -13.138  14.594  1.00  0.00     0.172 HD
HETATM    9  C8  UNL     1       8.679 -15.177  14.119  1.00  0.00     0.325 C 
HETATM   10  O3  UNL     1       8.932 -16.182  14.819  1.00  0.00    -0.247 OA
HETATM   11  N3  UNL     1       7.942 -15.330  12.918  1.00  0.00    -0.309 N 
HETATM   12  C9  UNL     1       7.670 -14.148  12.152  1.00  0.00     0.099 C 
HETATM   13  C10 UNL     1       6.171 -14.122  11.780  1.00  0.00     0.032 C 
HETATM   14  C11 UNL     1       6.615 -15.132  10.716  1.00  0.00     0.005 C 
HETATM   15  C12 UNL     1       6.802 -16.501  11.247  1.00  0.00     0.046 A 
HETATM   16  C13 UNL     1       6.052 -17.011  12.414  1.00  0.00     0.132 A 
HETATM   17  C15 UNL     1       7.504 -16.657  12.542  1.00  0.00     0.137 A 
HETATM   18  C21 UNL     1       7.876 -14.286  10.667  1.00  0.00    -0.023 C 
HETATM   19  C22 UNL     1       9.112 -14.866  10.147  1.00  0.00     0.017 C 
HETATM   20  C23 UNL     1       7.570 -12.959   9.990  1.00  0.00     0.017 C 
HETATM   21  N5  UNL     1      11.346 -14.732  14.909  1.00  0.00    -0.293 N 
ATOM     22  H5  UNL     1      11.265 -15.560  14.318  1.00  0.00     0.172 HD
HETATM   23  C24 UNL     1      12.455 -14.534  15.759  1.00  0.00     0.324 C 
HETATM   24  O7  UNL     1      13.362 -15.401  15.784  1.00  0.00    -0.247 OA
ENDROOT
BRANCH  17  25
HETATM   25  C16 UNL     1       8.411 -17.785  12.802  1.00  0.00     0.248 C 
HETATM   26  O6  UNL     1       9.418 -17.908  12.025  1.00  0.00    -0.271 OA
HETATM   27  N4  UNL     1       8.218 -18.706  13.846  1.00  0.00    -0.350 N 
ATOM     28  H4  UNL     1       7.412 -18.575  14.457  1.00  0.00     0.163 HD
BRANCH  27  29
HETATM   29  C17 UNL     1       9.091 -19.827  14.105  1.00  0.00     0.034 C 
HETATM   30  C18 UNL     1       9.214 -20.747  12.911  1.00  0.00     0.039 C 
HETATM   31  C19 UNL     1      10.484 -19.369  14.454  1.00  0.00     0.039 C 
BRANCH  29  32
HETATM   32  C20 UNL     1       8.596 -20.671  15.260  1.00  0.00     0.115 C 
HETATM   33 BR1  UNL     1       7.199 -19.802  16.243  1.00  0.00    -0.094 Br
ENDBRANCH  29  32
ENDBRANCH  27  29
ENDBRANCH  17  25
BRANCH  16  34
HETATM   34  C14 UNL     1       5.545 -18.380  12.286  1.00  0.00     0.180 C 
HETATM   35  O4  UNL     1       5.154 -19.079  13.280  1.00  0.00    -0.648 OA
HETATM   36  O5  UNL     1       5.440 -19.046  11.051  1.00  0.00    -0.648 OA
ENDBRANCH  16  34
BRANCH   1  37
HETATM   37  C4  UNL     1      13.817 -13.111  17.209  1.00  0.00     0.238 C 
BRANCH  37  38
HETATM   38  C3  UNL     1      14.781 -12.540  16.262  1.00  0.00     0.276 C 
HETATM   39  O2  UNL     1      15.795 -13.167  15.886  1.00  0.00    -0.263 OA
BRANCH  38  40
HETATM   40  O1  UNL     1      14.553 -11.260  15.772  1.00  0.00    -0.321 OA
BRANCH  40  41
HETATM   41  C2  UNL     1      14.912 -10.963  14.430  1.00  0.00     0.174 C 
HETATM   42  C1  UNL     1      16.098 -10.022  14.439  1.00  0.00     0.034 C 
ENDBRANCH  40  41
ENDBRANCH  38  40
ENDBRANCH  37  38
ENDBRANCH   1  37
TORSDOF 8
ENDMDL
MODEL 4
REMARK VINA RESULT: -8.014359834      2.738      5.055
REMARK  8 active torsions:
REMARK  status: ('A' for Active; 'I' for Inactive)
REMARK    1  A    between atoms: C2_2  and  O1_3 
REMARK    2  A    between atoms: O1_3  and  C3_4 
REMARK    3  A    between atoms: C3_4  and  C4_6 
REMARK    4  A    between atoms: C4_6  and  N1_7 
REMARK       I    between atoms: N2_13  and  C8_15 
REMARK       I    between atoms: C8_15  and  N3_17 
REMARK    5  A    between atoms: C13_22  and  C14_23 
REMARK    6  A    between atoms: C15_26  and  C16_27 
REMARK       I    between atoms: C16_27  and  N4_29 
REMARK    7  A    between atoms: N4_29  and  C17_31 
REMARK    8  A    between atoms: C17_31  and  C20_34 
ROOT
HETATM    1  N1  UNL     1      12.551 -13.313  16.584  1.00  0.00    -0.319 N 
HETATM    2  C5  UNL     1      11.395 -12.464  16.728  1.00  0.00     0.215 C 
HETATM    3  C6  UNL     1      10.757 -12.295  15.370  1.00  0.00     0.317 C 
HETATM    4  F1  UNL     1       9.654 -11.474  15.507  1.00  0.00    -0.196 F 
HETATM    5  F2  UNL     1      11.634 -11.753  14.450  1.00  0.00    -0.196 F 
HETATM    6  C7  UNL     1      10.347 -13.669  14.929  1.00  0.00     0.164 C 
HETATM    7  N2  UNL     1       9.147 -13.870  14.575  1.00  0.00    -0.293 N 
ATOM      8  H2  UNL     1       8.492 -13.088  14.599  1.00  0.00     0.172 HD
HETATM    9  C8  UNL     1       8.680 -15.133  14.147  1.00  0.00     0.325 C 
HETATM   10  O3  UNL     1       8.931 -16.130  14.859  1.00  0.00    -0.247 OA
HETATM   11  N3  UNL     1       7.945 -15.298  12.947  1.00  0.00    -0.309 N 
HETATM   12  C9  UNL     1       7.675 -14.125  12.167  1.00  0.00     0.099 C 
HETATM   13  C10 UNL     1       6.177 -14.102  11.793  1.00  0.00     0.032 C 
HETATM   14  C11 UNL     1       6.621 -15.124  10.740  1.00  0.00     0.005 C 
HETATM   15  C12 UNL     1       6.806 -16.487  11.287  1.00  0.00     0.046 A 
HETATM   16  C13 UNL     1       6.054 -16.983  12.459  1.00  0.00     0.132 A 
HETATM   17  C15 UNL     1       7.506 -16.629  12.585  1.00  0.00     0.137 A 
HETATM   18  C21 UNL     1       7.883 -14.280  10.684  1.00  0.00    -0.023 C 
HETATM   19  C22 UNL     1       9.120 -14.867  10.172  1.00  0.00     0.017 C 
HETATM   20  C23 UNL     1       7.580 -12.960   9.992  1.00  0.00     0.017 C 
HETATM   21  N5  UNL     1      11.346 -14.682  14.935  1.00  0.00    -0.293 N 
ATOM     22  H5  UNL     1      11.266 -15.516  14.354  1.00  0.00     0.172 HD
HETATM   23  C24 UNL     1      12.454 -14.476  15.785  1.00  0.00     0.324 C 
HETATM   24  O7  UNL     1      13.360 -15.343  15.821  1.00  0.00    -0.247 OA
ENDROOT
BRANCH  17  25
HETATM   25  C16 UNL     1       8.411 -17.755  12.860  1.00  0.00     0.248 C 
HETATM   26  O6  UNL     1       9.390 -17.919  12.055  1.00  0.00    -0.271 OA
HETATM   27  N4  UNL     1       8.245 -18.633  13.945  1.00  0.00    -0.350 N 
ATOM     28  H4  UNL     1       7.461 -18.470  14.577  1.00  0.00     0.163 HD
BRANCH  27  29
HETATM   29  C17 UNL     1       9.117 -19.752  14.218  1.00  0.00     0.034 C 
HETATM   30  C18 UNL     1       8.848 -20.371  15.571  1.00  0.00     0.039 C 
HETATM   31  C19 UNL     1       8.949 -20.843  13.192  1.00  0.00     0.039 C 
BRANCH  29  32
HETATM   32  C20 UNL     1      10.574 -19.345  14.203  1.00  0.00     0.115 C 
HETATM   33 BR1  UNL     1      11.164 -18.704  15.910  1.00  0.00    -0.094 Br
ENDBRANCH  29  32
ENDBRANCH  27  29
ENDBRANCH  17  25
BRANCH  16  34
HETATM   34  C14 UNL     1       5.545 -18.353  12.346  1.00  0.00     0.180 C 
HETATM   35  O4  UNL     1       5.315 -18.926  11.229  1.00  0.00    -0.648 OA
HETATM   36  O5  UNL     1       5.266 -19.161  13.463  1.00  0.00    -0.648 OA
ENDBRANCH  16  34
BRANCH   1  37
HETATM   37  C4  UNL     1      13.815 -13.038  17.221  1.00  0.00     0.238 C 
BRANCH  37  38
HETATM   38  C3  UNL     1      14.785 -12.487  16.267  1.00  0.00     0.276 C 
HETATM   39  O2  UNL     1      15.786 -13.134  15.887  1.00  0.00    -0.263 OA
BRANCH  38  40
HETATM   40  O1  UNL     1      14.578 -11.205  15.773  1.00  0.00    -0.321 OA
BRANCH  40  41
HETATM   41  C2  UNL     1      14.947 -10.916  14.433  1.00  0.00     0.174 C 
HETATM   42  C1  UNL     1      16.175 -10.031  14.445  1.00  0.00     0.034 C 
ENDBRANCH  40  41
ENDBRANCH  38  40
ENDBRANCH  37  38
ENDBRANCH   1  37
TORSDOF 8
ENDMDL
MODEL 5
REMARK VINA RESULT: -7.971331400      2.670      5.027
REMARK  8 active torsions:
REMARK  status: ('A' for Active; 'I' for Inactive)
REMARK    1  A    between atoms: C2_2  and  O1_3 
REMARK    2  A    between atoms: O1_3  and  C3_4 
REMARK    3  A    between atoms: C3_4  and  C4_6 
REMARK    4  A    between atoms: C4_6  and  N1_7 
REMARK       I    between atoms: N2_13  and  C8_15 
REMARK       I    between atoms: C8_15  and  N3_17 
REMARK    5  A    between atoms: C13_22  and  C14_23 
REMARK    6  A    between atoms: C15_26  and  C16_27 
REMARK       I    between atoms: C16_27  and  N4_29 
REMARK    7  A    between atoms: N4_29  and  C17_31 
REMARK    8  A    between atoms: C17_31  and  C20_34 
ROOT
HETATM    1  N1  UNL     1      12.555 -13.410  16.564  1.00  0.00    -0.319 N 
HETATM    2  C5  UNL     1      11.399 -12.563  16.724  1.00  0.00     0.215 C 
HETATM    3  C6  UNL     1      10.756 -12.376  15.372  1.00  0.00     0.317 C 
HETATM    4  F1  UNL     1       9.653 -11.558  15.525  1.00  0.00    -0.196 F 
HETATM    5  F2  UNL     1      11.629 -11.819  14.456  1.00  0.00    -0.196 F 
HETATM    6  C7  UNL     1      10.345 -13.743  14.913  1.00  0.00     0.164 C 
HETATM    7  N2  UNL     1       9.144 -13.940  14.559  1.00  0.00    -0.293 N 
ATOM      8  H2  UNL     1       8.489 -13.159  14.597  1.00  0.00     0.172 HD
HETATM    9  C8  UNL     1       8.677 -15.197  14.115  1.00  0.00     0.325 C 
HETATM   10  O3  UNL     1       8.930 -16.204  14.811  1.00  0.00    -0.247 OA
HETATM   11  N3  UNL     1       7.937 -15.345  12.915  1.00  0.00    -0.309 N 
HETATM   12  C9  UNL     1       7.663 -14.161  12.153  1.00  0.00     0.099 C 
HETATM   13  C10 UNL     1       6.164 -14.133  11.785  1.00  0.00     0.032 C 
HETATM   14  C11 UNL     1       6.605 -15.140  10.716  1.00  0.00     0.005 C 
HETATM   15  C12 UNL     1       6.793 -16.510  11.243  1.00  0.00     0.046 A 
HETATM   16  C13 UNL     1       6.045 -17.024  12.410  1.00  0.00     0.132 A 
HETATM   17  C15 UNL     1       7.498 -16.671  12.536  1.00  0.00     0.137 A 
HETATM   18  C21 UNL     1       7.866 -14.294  10.668  1.00  0.00    -0.023 C 
HETATM   19  C22 UNL     1       9.101 -14.873  10.143  1.00  0.00     0.017 C 
HETATM   20  C23 UNL     1       7.559 -12.964   9.996  1.00  0.00     0.017 C 
HETATM   21  N5  UNL     1      11.345 -14.756  14.900  1.00  0.00    -0.293 N 
ATOM     22  H5  UNL     1      11.263 -15.581  14.307  1.00  0.00     0.172 HD
HETATM   23  C24 UNL     1      12.456 -14.561  15.749  1.00  0.00     0.324 C 
HETATM   24  O7  UNL     1      13.363 -15.428  15.769  1.00  0.00    -0.247 OA
ENDROOT
BRANCH  17  25
HETATM   25  C16 UNL     1       8.405 -17.800  12.791  1.00  0.00     0.248 C 
HETATM   26  O6  UNL     1       9.409 -17.922  12.010  1.00  0.00    -0.271 OA
HETATM   27  N4  UNL     1       8.214 -18.724  13.833  1.00  0.00    -0.350 N 
ATOM     28  H4  UNL     1       7.410 -18.593  14.447  1.00  0.00     0.163 HD
BRANCH  27  29
HETATM   29  C17 UNL     1       9.088 -19.846  14.086  1.00  0.00     0.034 C 
HETATM   30  C18 UNL     1      10.435 -19.415  14.618  1.00  0.00     0.039 C 
HETATM   31  C19 UNL     1       8.492 -20.787  15.102  1.00  0.00     0.039 C 
BRANCH  29  32
HETATM   32  C20 UNL     1       9.348 -20.650  12.831  1.00  0.00     0.115 C 
HETATM   33 BR1  UNL     1       7.782 -21.578  12.229  1.00  0.00    -0.094 Br
ENDBRANCH  29  32
ENDBRANCH  27  29
ENDBRANCH  17  25
BRANCH  16  34
HETATM   34  C14 UNL     1       5.537 -18.393  12.279  1.00  0.00     0.180 C 
HETATM   35  O4  UNL     1       5.314 -18.953  11.154  1.00  0.00    -0.648 OA
HETATM   36  O5  UNL     1       5.251 -19.213  13.385  1.00  0.00    -0.648 OA
ENDBRANCH  16  34
BRANCH   1  37
HETATM   37  C4  UNL     1      13.822 -13.143  17.201  1.00  0.00     0.238 C 
BRANCH  37  38
HETATM   38  C3  UNL     1      14.781 -12.561  16.255  1.00  0.00     0.276 C 
HETATM   39  O2  UNL     1      15.800 -13.179  15.876  1.00  0.00    -0.263 OA
BRANCH  38  40
HETATM   40  O1  UNL     1      14.544 -11.280  15.771  1.00  0.00    -0.321 OA
BRANCH  40  41
HETATM   41  C2  UNL     1      14.929 -10.966  14.440  1.00  0.00     0.174 C 
HETATM   42  C1  UNL     1      16.101 -10.009  14.485  1.00  0.00     0.034 C 
ENDBRANCH  40  41
ENDBRANCH  38  40
ENDBRANCH  37  38
ENDBRANCH   1  37
TORSDOF 8
ENDMDL
