MODEL 1
REMARK VINA RESULT: -7.390513262      0.000      0.000
REMARK  12 active torsions:
REMARK  status: ('A' for Active; 'I' for Inactive)
REMARK    1  A    between atoms: C1_2  and  C2_4 
REMARK    2  A    between atoms: C2_4  and  C3_5 
REMARK    3  A    between atoms: N2_14  and  O2_15 
REMARK    4  A    between atoms: N4_19  and  C9_20 
REMARK    5  A    between atoms: C9_20  and  C10_21 
REMARK    6  A    between atoms: C10_21  and  C11_22 
REMARK    7  A    between atoms: C11_22  and  C12_23 
REMARK    8  A    between atoms: C12_23  and  C13_24 
REMARK    9  A    between atoms: C13_24  and  N5_25 
REMARK   10  A    between atoms: C13_24  and  C14_29 
REMARK   11  A    between atoms: C13_24  and  C19_34 
REMARK   12  A    between atoms: C15_30  and  C16_31 
ROOT
HETATM    1  C3  UNL     1       8.859 -14.717  12.207  1.00  0.00     0.002 A 
HETATM    2  C4  UNL     1       9.462 -15.562  11.318  1.00  0.00     0.038 A 
HETATM    3 BR1  UNL     1       8.968 -15.575   9.483  1.00  0.00    -0.049 Br
HETATM    4  C5  UNL     1      10.425 -16.459  11.725  1.00  0.00     0.048 A 
HETATM    5 BR2  UNL     1      11.285 -17.648  10.488  1.00  0.00    -0.048 Br
HETATM    6  C6  UNL     1      10.794 -16.515  13.052  1.00  0.00     0.060 A 
HETATM    7 BR3  UNL     1      12.131 -17.759  13.576  1.00  0.00    -0.047 Br
HETATM    8  C7  UNL     1      10.227 -15.700  13.984  1.00  0.00     0.102 A 
HETATM    9  C8  UNL     1       9.247 -14.789  13.565  1.00  0.00     0.120 A 
HETATM   10  N2  UNL     1       8.877 -14.147  14.677  1.00  0.00    -0.146 N 
HETATM   11  N3  UNL     1       9.564 -14.619  15.681  1.00  0.00    -0.213 N 
ATOM     12  H3  UNL     1       9.465 -14.290  16.641  1.00  0.00     0.211 HD
HETATM   13  N4  UNL     1      10.404 -15.572  15.311  1.00  0.00    -0.272 N 
ENDROOT
BRANCH  13  14
HETATM   14  C9  UNL     1      11.268 -16.312  16.195  1.00  0.00     0.151 C 
BRANCH  14  15
HETATM   15  C10 UNL     1      12.257 -15.391  16.850  1.00  0.00     0.022 C 
BRANCH  15  16
HETATM   16  C11 UNL     1      13.395 -14.956  16.026  1.00  0.00     0.005 C 
BRANCH  16  17
HETATM   17  C12 UNL     1      13.894 -13.556  16.224  1.00  0.00     0.062 C 
BRANCH  17  18
HETATM   18  C13 UNL     1      13.472 -12.761  14.983  1.00  0.00     0.263 C 
BRANCH  18  19
HETATM   19  N5  UNL     1      13.134 -13.678  13.903  1.00  0.00    -0.051 N 
ATOM     20  H53 UNL     1      12.640 -14.504  14.241  1.00  0.00     0.276 HD
ATOM     21  H52 UNL     1      12.401 -13.306  13.298  1.00  0.00     0.276 HD
ATOM     22  H51 UNL     1      13.976 -13.921  13.381  1.00  0.00     0.276 HD
ENDBRANCH  18  19
BRANCH  18  23
HETATM   23  C14 UNL     1      14.507 -11.840  14.579  1.00  0.00    -0.058 C 
HETATM   24  C15 UNL     1      15.384 -11.078  14.210  1.00  0.00    -0.099 C 
BRANCH  24  25
HETATM   25  C16 UNL     1      16.434 -10.176  13.736  1.00  0.00     0.065 A 
HETATM   26  C17 UNL     1      17.054 -10.414  12.435  1.00  0.00     0.018 A 
HETATM   27  C18 UNL     1      16.083  -9.288  12.501  1.00  0.00     0.018 A 
ENDBRANCH  24  25
ENDBRANCH  18  23
BRANCH  18  28
HETATM   28  C19 UNL     1      12.205 -12.044  15.397  1.00  0.00     0.279 C 
HETATM   29  N6  UNL     1      12.245 -11.387  16.657  1.00  0.00    -0.059 NA
HETATM   30  O3  UNL     1      11.191 -12.049  14.639  1.00  0.00    -0.273 OA
ENDBRANCH  18  28
ENDBRANCH  17  18
ENDBRANCH  16  17
ENDBRANCH  15  16
ENDBRANCH  14  15
ENDBRANCH  13  14
BRANCH  10  31
HETATM   31  O2  UNL     1       7.916 -13.151  14.773  1.00  0.00    -0.266 OA
ATOM     32  H2  UNL     1       8.075 -12.227  14.927  1.00  0.00     0.247 HD
ENDBRANCH  10  31
BRANCH   1  33
HETATM   33  C2  UNL     1       7.830 -13.728  11.928  1.00  0.00     0.142 C 
BRANCH  33  34
HETATM   34  C1  UNL     1       6.449 -14.116  11.775  1.00  0.00     0.235 C 
HETATM   35  N1  UNL     1       5.992 -15.347  12.303  1.00  0.00    -0.062 NA
HETATM   36  O1  UNL     1       5.631 -13.378  11.179  1.00  0.00    -0.277 OA
ENDBRANCH  33  34
ENDBRANCH   1  33
TORSDOF 12
ENDMDL
MODEL 2
REMARK VINA RESULT: -7.211813336      2.905      7.016
REMARK  12 active torsions:
REMARK  status: ('A' for Active; 'I' for Inactive)
REMARK    1  A    between atoms: C1_2  and  C2_4 
REMARK    2  A    between atoms: C2_4  and  C3_5 
REMARK    3  A    between atoms: N2_14  and  O2_15 
REMARK    4  A    between atoms: N4_19  and  C9_20 
REMARK    5  A    between atoms: C9_20  and  C10_21 
REMARK    6  A    between atoms: C10_21  and  C11_22 
REMARK    7  A    between atoms: C11_22  and  C12_23 
REMARK    8  A    between atoms: C12_23  and  C13_24 
REMARK    9  A    between atoms: C13_24  and  N5_25 
REMARK   10  A    between atoms: C13_24  and  C14_29 
REMARK   11  A    between atoms: C13_24  and  C19_34 
REMARK   12  A    between atoms: C15_30  and  C16_31 
ROOT
HETATM    1  C3  UNL     1      13.112 -15.314  15.900  1.00  0.00     0.002 A 
HETATM    2  C4  UNL     1      12.843 -16.469  16.580  1.00  0.00     0.038 A 
HETATM    3 BR1  UNL     1      13.640 -16.825  18.268  1.00  0.00    -0.049 Br
HETATM    4  C5  UNL     1      12.013 -17.434  16.052  1.00  0.00     0.048 A 
HETATM    5 BR2  UNL     1      11.622 -19.058  16.997  1.00  0.00    -0.048 Br
HETATM    6  C6  UNL     1      11.437 -17.240  14.814  1.00  0.00     0.060 A 
HETATM    7 BR3  UNL     1      10.291 -18.587  14.120  1.00  0.00    -0.047 Br
HETATM    8  C7  UNL     1      11.670 -16.111  14.089  1.00  0.00     0.102 A 
HETATM    9  C8  UNL     1      12.515 -15.133  14.630  1.00  0.00     0.120 A 
HETATM   10  N2  UNL     1      12.558 -14.167  13.708  1.00  0.00    -0.146 N 
HETATM   11  N3  UNL     1      11.810 -14.518  12.699  1.00  0.00    -0.213 N 
ATOM     12  H3  UNL     1      11.677 -13.947  11.865  1.00  0.00     0.211 HD
HETATM   13  N4  UNL     1      11.244 -15.701  12.881  1.00  0.00    -0.272 N 
ENDROOT
BRANCH  13  14
HETATM   14  C9  UNL     1      10.397 -16.375  11.931  1.00  0.00     0.151 C 
BRANCH  14  15
HETATM   15  C10 UNL     1      10.382 -15.634  10.625  1.00  0.00     0.022 C 
BRANCH  15  16
HETATM   16  C11 UNL     1       9.074 -15.143  10.164  1.00  0.00     0.005 C 
BRANCH  16  17
HETATM   17  C12 UNL     1       7.878 -15.473  11.006  1.00  0.00     0.062 C 
BRANCH  17  18
HETATM   18  C13 UNL     1       7.383 -14.151  11.603  1.00  0.00     0.263 C 
BRANCH  18  19
HETATM   19  N5  UNL     1       7.671 -13.059  10.684  1.00  0.00    -0.051 N 
ATOM     20  H53 UNL     1       8.190 -13.373   9.864  1.00  0.00     0.276 HD
ATOM     21  H52 UNL     1       6.832 -12.726  10.208  1.00  0.00     0.276 HD
ATOM     22  H51 UNL     1       8.154 -12.309  11.180  1.00  0.00     0.276 HD
ENDBRANCH  18  19
BRANCH  18  23
HETATM   23  C14 UNL     1       7.974 -13.911  12.898  1.00  0.00    -0.058 C 
HETATM   24  C15 UNL     1       8.448 -13.723  14.005  1.00  0.00    -0.099 C 
BRANCH  24  25
HETATM   25  C16 UNL     1       8.993 -13.519  15.347  1.00  0.00     0.065 A 
HETATM   26  C17 UNL     1       9.742 -12.300  15.643  1.00  0.00     0.018 A 
HETATM   27  C18 UNL     1       8.359 -12.368  16.189  1.00  0.00     0.018 A 
ENDBRANCH  24  25
ENDBRANCH  18  23
BRANCH  18  28
HETATM   28  C19 UNL     1       5.880 -14.304  11.686  1.00  0.00     0.279 C 
HETATM   29  N6  UNL     1       5.406 -15.577  12.106  1.00  0.00    -0.059 NA
HETATM   30  O3  UNL     1       5.121 -13.334  11.393  1.00  0.00    -0.273 OA
ENDBRANCH  18  28
ENDBRANCH  17  18
ENDBRANCH  16  17
ENDBRANCH  15  16
ENDBRANCH  14  15
ENDBRANCH  13  14
BRANCH  10  31
HETATM   31  O2  UNL     1      13.281 -12.985  13.786  1.00  0.00    -0.266 OA
ATOM     32  H2  UNL     1      12.964 -12.115  13.572  1.00  0.00     0.247 HD
ENDBRANCH  10  31
BRANCH   1  33
HETATM   33  C2  UNL     1      13.966 -14.216  16.325  1.00  0.00     0.142 C 
BRANCH  33  34
HETATM   34  C1  UNL     1      15.382 -14.229  16.050  1.00  0.00     0.235 C 
HETATM   35  N1  UNL     1      15.989 -13.138  15.384  1.00  0.00    -0.062 NA
HETATM   36  O1  UNL     1      16.100 -15.196  16.395  1.00  0.00    -0.277 OA
ENDBRANCH  33  34
ENDBRANCH   1  33
TORSDOF 12
ENDMDL
MODEL 3
REMARK VINA RESULT: -7.183609476      2.533      3.074
REMARK  12 active torsions:
REMARK  status: ('A' for Active; 'I' for Inactive)
REMARK    1  A    between atoms: C1_2  and  C2_4 
REMARK    2  A    between atoms: C2_4  and  C3_5 
REMARK    3  A    between atoms: N2_14  and  O2_15 
REMARK    4  A    between atoms: N4_19  and  C9_20 
REMARK    5  A    between atoms: C9_20  and  C10_21 
REMARK    6  A    between atoms: C10_21  and  C11_22 
REMARK    7  A    between atoms: C11_22  and  C12_23 
REMARK    8  A    between atoms: C12_23  and  C13_24 
REMARK    9  A    between atoms: C13_24  and  N5_25 
REMARK   10  A    between atoms: C13_24  and  C14_29 
REMARK   11  A    between atoms: C13_24  and  C19_34 
REMARK   12  A    between atoms: C15_30  and  C16_31 
ROOT
HETATM    1  C3  UNL     1       8.639 -15.404  11.346  1.00  0.00     0.002 A 
HETATM    2  C4  UNL     1       9.667 -16.209  10.944  1.00  0.00     0.038 A 
HETATM    3 BR1  UNL     1       9.738 -16.905   9.177  1.00  0.00    -0.049 Br
HETATM    4  C5  UNL     1      10.672 -16.574  11.813  1.00  0.00     0.048 A 
HETATM    5 BR2  UNL     1      12.126 -17.700  11.262  1.00  0.00    -0.048 Br
HETATM    6  C6  UNL     1      10.649 -16.125  13.117  1.00  0.00     0.060 A 
HETATM    7 BR3  UNL     1      12.055 -16.642  14.286  1.00  0.00    -0.047 Br
HETATM    8  C7  UNL     1       9.649 -15.323  13.575  1.00  0.00     0.102 A 
HETATM    9  C8  UNL     1       8.629 -14.954  12.687  1.00  0.00     0.120 A 
HETATM   10  N2  UNL     1       7.805 -14.189  13.409  1.00  0.00    -0.146 N 
HETATM   11  N3  UNL     1       8.275 -14.096  14.622  1.00  0.00    -0.213 N 
ATOM     12  H3  UNL     1       7.825 -13.564  15.367  1.00  0.00     0.211 HD
HETATM   13  N4  UNL     1       9.402 -14.773  14.778  1.00  0.00    -0.272 N 
ENDROOT
BRANCH  13  14
HETATM   14  C9  UNL     1      10.138 -14.895  16.009  1.00  0.00     0.151 C 
BRANCH  14  15
HETATM   15  C10 UNL     1       9.471 -14.105  17.098  1.00  0.00     0.022 C 
BRANCH  15  16
HETATM   16  C11 UNL     1      10.223 -12.960  17.633  1.00  0.00     0.005 C 
BRANCH  16  17
HETATM   17  C12 UNL     1      11.590 -13.232  18.187  1.00  0.00     0.062 C 
BRANCH  17  18
HETATM   18  C13 UNL     1      12.542 -12.239  17.511  1.00  0.00     0.263 C 
BRANCH  18  19
HETATM   19  N5  UNL     1      11.830 -11.503  16.475  1.00  0.00    -0.051 N 
ATOM     20  H53 UNL     1      10.915 -11.181  16.792  1.00  0.00     0.276 HD
ATOM     21  H52 UNL     1      12.251 -10.591  16.293  1.00  0.00     0.276 HD
ATOM     22  H51 UNL     1      11.765 -12.071  15.631  1.00  0.00     0.276 HD
ENDBRANCH  18  19
BRANCH  18  23
HETATM   23  C14 UNL     1      13.697 -12.914  16.969  1.00  0.00    -0.058 C 
HETATM   24  C15 UNL     1      14.661 -13.512  16.522  1.00  0.00    -0.099 C 
BRANCH  24  25
HETATM   25  C16 UNL     1      15.800 -14.258  15.989  1.00  0.00     0.065 A 
HETATM   26  C17 UNL     1      15.997 -15.651  16.383  1.00  0.00     0.018 A 
HETATM   27  C18 UNL     1      15.469 -15.428  15.009  1.00  0.00     0.018 A 
ENDBRANCH  24  25
ENDBRANCH  18  23
BRANCH  18  28
HETATM   28  C19 UNL     1      12.917 -11.259  18.601  1.00  0.00     0.279 C 
HETATM   29  N6  UNL     1      11.840 -10.751  19.378  1.00  0.00    -0.059 NA
HETATM   30  O3  UNL     1      14.127 -10.937  18.783  1.00  0.00    -0.273 OA
ENDBRANCH  18  28
ENDBRANCH  17  18
ENDBRANCH  16  17
ENDBRANCH  15  16
ENDBRANCH  14  15
ENDBRANCH  13  14
BRANCH  10  31
HETATM   31  O2  UNL     1       6.634 -13.592  12.965  1.00  0.00    -0.266 OA
ATOM     32  H2  UNL     1       5.781 -13.645  13.381  1.00  0.00     0.247 HD
ENDBRANCH  10  31
BRANCH   1  33
HETATM   33  C2  UNL     1       7.513 -14.942  10.549  1.00  0.00     0.142 C 
BRANCH  33  34
HETATM   34  C1  UNL     1       7.604 -13.732   9.769  1.00  0.00     0.235 C 
HETATM   35  N1  UNL     1       7.722 -13.799   8.361  1.00  0.00    -0.062 NA
HETATM   36  O1  UNL     1       7.577 -12.605  10.317  1.00  0.00    -0.277 OA
ENDBRANCH  33  34
ENDBRANCH   1  33
TORSDOF 12
ENDMDL
MODEL 4
REMARK VINA RESULT: -7.181146193      1.979      3.186
REMARK  12 active torsions:
REMARK  status: ('A' for Active; 'I' for Inactive)
REMARK    1  A    between atoms: C1_2  and  C2_4 
REMARK    2  A    between atoms: C2_4  and  C3_5 
REMARK    3  A    between atoms: N2_14  and  O2_15 
REMARK    4  A    between atoms: N4_19  and  C9_20 
REMARK    5  A    between atoms: C9_20  and  C10_21 
REMARK    6  A    between atoms: C10_21  and  C11_22 
REMARK    7  A    between atoms: C11_22  and  C12_23 
REMARK    8  A    between atoms: C12_23  and  C13_24 
REMARK    9  A    between atoms: C13_24  and  N5_25 
REMARK   10  A    between atoms: C13_24  and  C14_29 
REMARK   11  A    between atoms: C13_24  and  C19_34 
REMARK   12  A    between atoms: C15_30  and  C16_31 
ROOT
HETATM    1  C3  UNL     1       8.707 -15.455  11.413  1.00  0.00     0.002 A 
HETATM    2  C4  UNL     1       9.712 -16.273  10.976  1.00  0.00     0.038 A 
HETATM    3 BR1  UNL     1       9.727 -16.951   9.200  1.00  0.00    -0.049 Br
HETATM    4  C5  UNL     1      10.733 -16.663  11.815  1.00  0.00     0.048 A 
HETATM    5 BR2  UNL     1      12.154 -17.805  11.215  1.00  0.00    -0.048 Br
HETATM    6  C6  UNL     1      10.750 -16.227  13.123  1.00  0.00     0.060 A 
HETATM    7 BR3  UNL     1      12.177 -16.779  14.250  1.00  0.00    -0.047 Br
HETATM    8  C7  UNL     1       9.775 -15.414  13.616  1.00  0.00     0.102 A 
HETATM    9  C8  UNL     1       8.739 -15.020  12.758  1.00  0.00     0.120 A 
HETATM   10  N2  UNL     1       7.946 -14.250  13.508  1.00  0.00    -0.146 N 
HETATM   11  N3  UNL     1       8.448 -14.177  14.710  1.00  0.00    -0.213 N 
ATOM     12  H3  UNL     1       8.026 -13.646  15.471  1.00  0.00     0.211 HD
HETATM   13  N4  UNL     1       9.567 -14.873  14.830  1.00  0.00    -0.272 N 
ENDROOT
BRANCH  13  14
HETATM   14  C9  UNL     1      10.333 -15.020  16.041  1.00  0.00     0.151 C 
BRANCH  14  15
HETATM   15  C10 UNL     1      10.842 -13.685  16.502  1.00  0.00     0.022 C 
BRANCH  15  16
HETATM   16  C11 UNL     1      11.574 -12.884  15.510  1.00  0.00     0.005 C 
BRANCH  16  17
HETATM   17  C12 UNL     1      12.930 -12.375  15.898  1.00  0.00     0.062 C 
BRANCH  17  18
HETATM   18  C13 UNL     1      13.920 -12.937  14.872  1.00  0.00     0.263 C 
BRANCH  18  19
HETATM   19  N5  UNL     1      13.192 -13.484  13.735  1.00  0.00    -0.051 N 
ATOM     20  H53 UNL     1      13.074 -12.798  12.989  1.00  0.00     0.276 HD
ATOM     21  H52 UNL     1      13.743 -14.170  13.219  1.00  0.00     0.276 HD
ATOM     22  H51 UNL     1      12.299 -13.866  14.049  1.00  0.00     0.276 HD
ENDBRANCH  18  19
BRANCH  18  23
HETATM   23  C14 UNL     1      14.778 -13.933  15.468  1.00  0.00    -0.058 C 
HETATM   24  C15 UNL     1      15.478 -14.784  15.990  1.00  0.00    -0.099 C 
BRANCH  24  25
HETATM   25  C16 UNL     1      16.289 -15.821  16.627  1.00  0.00     0.065 A 
HETATM   26  C17 UNL     1      15.702 -17.131  16.897  1.00  0.00     0.018 A 
HETATM   27  C18 UNL     1      16.649 -17.061  15.750  1.00  0.00     0.018 A 
ENDBRANCH  24  25
ENDBRANCH  18  23
BRANCH  18  28
HETATM   28  C19 UNL     1      14.699 -11.733  14.388  1.00  0.00     0.279 C 
HETATM   29  N6  UNL     1      15.733 -11.999  13.448  1.00  0.00    -0.059 NA
HETATM   30  O3  UNL     1      14.419 -10.576  14.814  1.00  0.00    -0.273 OA
ENDBRANCH  18  28
ENDBRANCH  17  18
ENDBRANCH  16  17
ENDBRANCH  15  16
ENDBRANCH  14  15
ENDBRANCH  13  14
BRANCH  10  31
HETATM   31  O2  UNL     1       6.773 -13.630  13.101  1.00  0.00    -0.266 OA
ATOM     32  H2  UNL     1       6.084 -13.301  13.665  1.00  0.00     0.247 HD
ENDBRANCH  10  31
BRANCH   1  33
HETATM   33  C2  UNL     1       7.569 -14.967  10.649  1.00  0.00     0.142 C 
BRANCH  33  34
HETATM   34  C1  UNL     1       7.661 -13.754   9.875  1.00  0.00     0.235 C 
HETATM   35  N1  UNL     1       7.752 -13.814   8.464  1.00  0.00    -0.062 NA
HETATM   36  O1  UNL     1       7.660 -12.630  10.429  1.00  0.00    -0.277 OA
ENDBRANCH  33  34
ENDBRANCH   1  33
TORSDOF 12
ENDMDL
MODEL 5
REMARK VINA RESULT: -7.107746348      3.568      7.708
REMARK  12 active torsions:
REMARK  status: ('A' for Active; 'I' for Inactive)
REMARK    1  A    between atoms: C1_2  and  C2_4 
REMARK    2  A    between atoms: C2_4  and  C3_5 
REMARK    3  A    between atoms: N2_14  and  O2_15 
REMARK    4  A    between atoms: N4_19  and  C9_20 
REMARK    5  A    between atoms: C9_20  and  C10_21 
REMARK    6  A    between atoms: C10_21  and  C11_22 
REMARK    7  A    between atoms: C11_22  and  C12_23 
REMARK    8  A    between atoms: C12_23  and  C13_24 
REMARK    9  A    between atoms: C13_24  and  N5_25 
REMARK   10  A    between atoms: C13_24  and  C14_29 
REMARK   11  A    between atoms: C13_24  and  C19_34 
REMARK   12  A    between atoms: C15_30  and  C16_31 
ROOT
HETATM    1  C3  UNL     1      13.315 -12.477  16.285  1.00  0.00     0.002 A 
HETATM    2  C4  UNL     1      12.505 -12.243  17.360  1.00  0.00     0.038 A 
HETATM    3 BR1  UNL     1      13.170 -11.399  18.928  1.00  0.00    -0.049 Br
HETATM    4  C5  UNL     1      11.185 -12.640  17.362  1.00  0.00     0.048 A 
HETATM    5 BR2  UNL     1      10.034 -12.314  18.863  1.00  0.00    -0.048 Br
HETATM    6  C6  UNL     1      10.662 -13.288  16.263  1.00  0.00     0.060 A 
HETATM    7 BR3  UNL     1       8.837 -13.815  16.297  1.00  0.00    -0.047 Br
HETATM    8  C7  UNL     1      11.421 -13.551  15.164  1.00  0.00     0.102 A 
HETATM    9  C8  UNL     1      12.763 -13.145  15.167  1.00  0.00     0.120 A 
HETATM   10  N2  UNL     1      13.244 -13.538  13.984  1.00  0.00    -0.146 N 
HETATM   11  N3  UNL     1      12.289 -14.128  13.319  1.00  0.00    -0.213 N 
ATOM     12  H3  UNL     1      12.405 -14.518  12.384  1.00  0.00     0.211 HD
HETATM   13  N4  UNL     1      11.153 -14.163  13.997  1.00  0.00    -0.272 N 
ENDROOT
BRANCH  13  14
HETATM   14  C9  UNL     1       9.932 -14.781  13.546  1.00  0.00     0.151 C 
BRANCH  14  15
HETATM   15  C10 UNL     1       9.924 -16.240  13.899  1.00  0.00     0.022 C 
BRANCH  15  16
HETATM   16  C11 UNL     1      10.682 -17.134  13.010  1.00  0.00     0.005 C 
BRANCH  16  17
HETATM   17  C12 UNL     1       9.939 -17.767  11.872  1.00  0.00     0.062 C 
BRANCH  17  18
HETATM   18  C13 UNL     1      10.475 -17.125  10.587  1.00  0.00     0.263 C 
BRANCH  18  19
HETATM   19  N5  UNL     1      11.810 -16.592  10.824  1.00  0.00    -0.051 N 
ATOM     20  H53 UNL     1      12.059 -15.868  10.150  1.00  0.00     0.276 HD
ATOM     21  H52 UNL     1      11.853 -16.026  11.671  1.00  0.00     0.276 HD
ATOM     22  H51 UNL     1      12.487 -17.355  10.836  1.00  0.00     0.276 HD
ENDBRANCH  18  19
BRANCH  18  23
HETATM   23  C14 UNL     1       9.581 -16.097  10.109  1.00  0.00    -0.058 C 
HETATM   24  C15 UNL     1       8.828 -15.215   9.733  1.00  0.00    -0.099 C 
BRANCH  24  25
HETATM   25  C16 UNL     1       7.933 -14.138   9.311  1.00  0.00     0.065 A 
HETATM   26  C17 UNL     1       6.648 -13.963   9.983  1.00  0.00     0.018 A 
HETATM   27  C18 UNL     1       7.709 -12.978  10.331  1.00  0.00     0.018 A 
ENDBRANCH  24  25
ENDBRANCH  18  23
BRANCH  18  28
HETATM   28  C19 UNL     1      10.599 -18.270   9.606  1.00  0.00     0.279 C 
HETATM   29  N6  UNL     1      11.720 -19.125   9.788  1.00  0.00    -0.059 NA
HETATM   30  O3  UNL     1       9.738 -18.426   8.692  1.00  0.00    -0.273 OA
ENDBRANCH  18  28
ENDBRANCH  17  18
ENDBRANCH  16  17
ENDBRANCH  15  16
ENDBRANCH  14  15
ENDBRANCH  13  14
BRANCH  10  31
HETATM   31  O2  UNL     1      14.542 -13.369  13.524  1.00  0.00    -0.266 OA
ATOM     32  H2  UNL     1      15.003 -13.934  12.915  1.00  0.00     0.247 HD
ENDBRANCH  10  31
BRANCH   1  33
HETATM   33  C2  UNL     1      14.718 -12.123  16.141  1.00  0.00     0.142 C 
BRANCH  33  34
HETATM   34  C1  UNL     1      15.110 -10.803  15.709  1.00  0.00     0.235 C 
HETATM   35  N1  UNL     1      14.962 -10.424  14.354  1.00  0.00    -0.062 NA
HETATM   36  O1  UNL     1      15.583  -9.971  16.518  1.00  0.00    -0.277 OA
ENDBRANCH  33  34
ENDBRANCH   1  33
TORSDOF 12
ENDMDL
