MODEL 1
REMARK VINA RESULT: -7.071150128      0.000      0.000
REMARK  9 active torsions:
REMARK  status: ('A' for Active; 'I' for Inactive)
REMARK    1  A    between atoms: C2_2  and  C4_4 
REMARK    2  A    between atoms: C4_4  and  S1_5 
REMARK    3  A    between atoms: S1_5  and  N1_8 
REMARK    4  A    between atoms: C8_15  and  C9_16 
REMARK       I    between atoms: C9_16  and  N3_18 
REMARK    5  A    between atoms: N3_18  and  C10_20 
REMARK    6  A    between atoms: C10_20  and  C11_21 
REMARK    7  A    between atoms: C10_20  and  C12_23 
REMARK    8  A    between atoms: C16_29  and  C17_30 
REMARK    9  A    between atoms: C17_30  and  O5_31 
ROOT
HETATM    1  N1  UNL     1      12.885 -13.956  16.306  1.00  0.00    -0.180 NA
HETATM    2  C5  UNL     1      12.834 -13.400  17.660  1.00  0.00     0.135 C 
HETATM    3  C6  UNL     1      11.407 -13.022  17.855  1.00  0.00     0.107 C 
HETATM    4  N2  UNL     1      11.058 -11.958  16.973  1.00  0.00    -0.352 N 
ATOM      5  H2  UNL     1      10.808 -11.006  17.241  1.00  0.00     0.163 HD
HETATM    6  C7  UNL     1      11.124 -12.476  15.632  1.00  0.00     0.252 C 
HETATM    7  O3  UNL     1      10.896 -11.916  14.547  1.00  0.00    -0.271 OA
HETATM    8  C8  UNL     1      11.539 -13.891  15.793  1.00  0.00     0.196 C 
HETATM    9  C16 UNL     1      10.778 -14.221  17.095  1.00  0.00     0.076 C 
ENDROOT
BRANCH   8  10
HETATM   10  C9  UNL     1      11.247 -14.770  14.690  1.00  0.00     0.252 C 
HETATM   11  O4  UNL     1      12.105 -15.686  14.437  1.00  0.00    -0.271 OA
HETATM   12  N3  UNL     1      10.105 -14.726  13.851  1.00  0.00    -0.353 N 
ATOM     13  H3  UNL     1       9.402 -14.011  14.038  1.00  0.00     0.163 HD
BRANCH  12  14
HETATM   14  C10 UNL     1       9.875 -15.624  12.757  1.00  0.00     0.098 C 
BRANCH  14  15
HETATM   15  C11 UNL     1       9.361 -16.979  13.135  1.00  0.00     0.110 C 
HETATM   16 BR1  UNL     1       8.450 -16.981  14.842  1.00  0.00    -0.094 Br
ENDBRANCH  14  15
BRANCH  14  17
HETATM   17  C12 UNL     1       9.092 -14.977  11.657  1.00  0.00     0.014 C 
HETATM   18  C13 UNL     1       7.750 -15.590  11.350  1.00  0.00     0.039 C 
HETATM   19  C14 UNL     1       7.261 -14.165  11.060  1.00  0.00     0.076 C 
HETATM   20 BR2  UNL     1       5.487 -13.809  11.685  1.00  0.00    -0.073 Br
HETATM   21 BR3  UNL     1       7.564 -13.672   9.224  1.00  0.00    -0.073 Br
HETATM   22  C15 UNL     1       8.374 -13.707  12.016  1.00  0.00     0.039 C 
ENDBRANCH  14  17
ENDBRANCH  12  14
ENDBRANCH   8  10
BRANCH   1  23
HETATM   23  S1  UNL     1      14.028 -12.998  15.459  1.00  0.00     0.213 S 
HETATM   24  O1  UNL     1      14.074 -11.590  16.013  1.00  0.00    -0.211 OA
HETATM   25  O2  UNL     1      13.780 -12.879  14.001  1.00  0.00    -0.211 OA
BRANCH  23  26
HETATM   26  C4  UNL     1      15.606 -13.800  15.654  1.00  0.00     0.161 C 
BRANCH  26  27
HETATM   27  C2  UNL     1      15.462 -15.274  15.937  1.00  0.00    -0.007 C 
HETATM   28  C1  UNL     1      16.668 -15.689  16.754  1.00  0.00     0.010 C 
HETATM   29  C3  UNL     1      15.439 -16.116  14.695  1.00  0.00     0.010 C 
ENDBRANCH  26  27
ENDBRANCH  23  26
ENDBRANCH   1  23
BRANCH   9  30
HETATM   30  C17 UNL     1       9.322 -13.959  17.033  1.00  0.00     0.173 C 
BRANCH  30  31
HETATM   31  O5  UNL     1       8.770 -13.467  18.205  1.00  0.00    -0.400 OA
ATOM     32  H5  UNL     1       8.443 -14.132  18.799  1.00  0.00     0.209 HD
ENDBRANCH  30  31
ENDBRANCH   9  30
TORSDOF 9
ENDMDL
MODEL 2
REMARK VINA RESULT: -7.046222809      3.573      6.828
REMARK  9 active torsions:
REMARK  status: ('A' for Active; 'I' for Inactive)
REMARK    1  A    between atoms: C2_2  and  C4_4 
REMARK    2  A    between atoms: C4_4  and  S1_5 
REMARK    3  A    between atoms: S1_5  and  N1_8 
REMARK    4  A    between atoms: C8_15  and  C9_16 
REMARK       I    between atoms: C9_16  and  N3_18 
REMARK    5  A    between atoms: N3_18  and  C10_20 
REMARK    6  A    between atoms: C10_20  and  C11_21 
REMARK    7  A    between atoms: C10_20  and  C12_23 
REMARK    8  A    between atoms: C16_29  and  C17_30 
REMARK    9  A    between atoms: C17_30  and  O5_31 
ROOT
HETATM    1  N1  UNL     1       9.841 -13.471  13.985  1.00  0.00    -0.180 NA
HETATM    2  C5  UNL     1       8.541 -13.086  14.538  1.00  0.00     0.135 C 
HETATM    3  C6  UNL     1       8.778 -12.968  16.004  1.00  0.00     0.107 C 
HETATM    4  N2  UNL     1       9.084 -14.246  16.554  1.00  0.00    -0.352 N 
ATOM      5  H2  UNL     1       8.512 -14.774  17.214  1.00  0.00     0.163 HD
HETATM    6  C7  UNL     1      10.350 -14.655  16.006  1.00  0.00     0.252 C 
HETATM    7  O3  UNL     1      11.010 -15.688  16.205  1.00  0.00    -0.271 OA
HETATM    8  C8  UNL     1      10.747 -13.547  15.104  1.00  0.00     0.196 C 
HETATM    9  C16 UNL     1      10.203 -12.358  15.925  1.00  0.00     0.076 C 
ENDROOT
BRANCH   8  10
HETATM   10  C9  UNL     1      12.148 -13.459  14.781  1.00  0.00     0.252 C 
HETATM   11  O4  UNL     1      12.453 -13.390  13.540  1.00  0.00    -0.271 OA
HETATM   12  N3  UNL     1      13.230 -13.443  15.698  1.00  0.00    -0.353 N 
ATOM     13  H3  UNL     1      13.013 -13.488  16.694  1.00  0.00     0.163 HD
BRANCH  12  14
HETATM   14  C10 UNL     1      14.610 -13.367  15.314  1.00  0.00     0.098 C 
BRANCH  14  15
HETATM   15  C11 UNL     1      15.266 -12.040  15.539  1.00  0.00     0.110 C 
HETATM   16 BR1  UNL     1      16.315 -11.460  14.021  1.00  0.00    -0.094 Br
ENDBRANCH  14  15
BRANCH  14  17
HETATM   17  C12 UNL     1      15.403 -14.521  15.846  1.00  0.00     0.014 C 
HETATM   18  C13 UNL     1      14.679 -15.439  16.796  1.00  0.00     0.039 C 
HETATM   19  C14 UNL     1      15.484 -16.584  16.168  1.00  0.00     0.076 C 
HETATM   20 BR2  UNL     1      14.482 -18.196  15.920  1.00  0.00    -0.073 Br
HETATM   21 BR3  UNL     1      17.172 -16.835  17.058  1.00  0.00    -0.073 Br
HETATM   22  C15 UNL     1      15.569 -15.692  14.919  1.00  0.00     0.039 C 
ENDBRANCH  14  17
ENDBRANCH  12  14
ENDBRANCH   8  10
BRANCH   1  23
HETATM   23  S1  UNL     1       9.573 -14.955  13.170  1.00  0.00     0.213 S 
HETATM   24  O1  UNL     1       8.232 -15.548  13.548  1.00  0.00    -0.211 OA
HETATM   25  O2  UNL     1      10.594 -16.000  13.430  1.00  0.00    -0.211 OA
BRANCH  23  26
HETATM   26  C4  UNL     1       9.629 -14.595  11.427  1.00  0.00     0.161 C 
BRANCH  26  27
HETATM   27  C2  UNL     1       8.254 -14.561  10.810  1.00  0.00    -0.007 C 
HETATM   28  C1  UNL     1       8.366 -15.197   9.439  1.00  0.00     0.010 C 
HETATM   29  C3  UNL     1       7.720 -13.171  10.627  1.00  0.00     0.010 C 
ENDBRANCH  26  27
ENDBRANCH  23  26
ENDBRANCH   1  23
BRANCH   9  30
HETATM   30  C17 UNL     1      10.708 -12.296  17.316  1.00  0.00     0.173 C 
BRANCH  30  31
HETATM   31  O5  UNL     1      11.733 -11.386  17.521  1.00  0.00    -0.400 OA
ATOM     32  H5  UNL     1      11.449 -10.488  17.640  1.00  0.00     0.209 HD
ENDBRANCH  30  31
ENDBRANCH   9  30
TORSDOF 9
ENDMDL
MODEL 3
REMARK VINA RESULT: -6.984372070      3.681      6.787
REMARK  9 active torsions:
REMARK  status: ('A' for Active; 'I' for Inactive)
REMARK    1  A    between atoms: C2_2  and  C4_4 
REMARK    2  A    between atoms: C4_4  and  S1_5 
REMARK    3  A    between atoms: S1_5  and  N1_8 
REMARK    4  A    between atoms: C8_15  and  C9_16 
REMARK       I    between atoms: C9_16  and  N3_18 
REMARK    5  A    between atoms: N3_18  and  C10_20 
REMARK    6  A    between atoms: C10_20  and  C11_21 
REMARK    7  A    between atoms: C10_20  and  C12_23 
REMARK    8  A    between atoms: C16_29  and  C17_30 
REMARK    9  A    between atoms: C17_30  and  O5_31 
ROOT
HETATM    1  N1  UNL     1       9.448 -13.891  13.834  1.00  0.00    -0.180 NA
HETATM    2  C5  UNL     1       8.323 -13.219  14.489  1.00  0.00     0.135 C 
HETATM    3  C6  UNL     1       8.822 -12.901  15.856  1.00  0.00     0.107 C 
HETATM    4  N2  UNL     1       9.048 -14.104  16.586  1.00  0.00    -0.352 N 
ATOM      5  H2  UNL     1       8.533 -14.419  17.408  1.00  0.00     0.163 HD
HETATM    6  C7  UNL     1      10.137 -14.793  15.946  1.00  0.00     0.252 C 
HETATM    7  O3  UNL     1      10.680 -15.871  16.236  1.00  0.00    -0.271 OA
HETATM    8  C8  UNL     1      10.515 -13.925  14.804  1.00  0.00     0.196 C 
HETATM    9  C16 UNL     1      10.280 -12.547  15.458  1.00  0.00     0.076 C 
ENDROOT
BRANCH   8  10
HETATM   10  C9  UNL     1      11.839 -14.116  14.270  1.00  0.00     0.252 C 
HETATM   11  O4  UNL     1      12.019 -13.804  13.042  1.00  0.00    -0.271 OA
HETATM   12  N3  UNL     1      12.969 -14.617  14.965  1.00  0.00    -0.353 N 
ATOM     13  H3  UNL     1      12.854 -14.865  15.948  1.00  0.00     0.163 HD
BRANCH  12  14
HETATM   14  C10 UNL     1      14.263 -14.797  14.373  1.00  0.00     0.098 C 
BRANCH  14  15
HETATM   15  C11 UNL     1      15.224 -13.665  14.575  1.00  0.00     0.110 C 
HETATM   16 BR1  UNL     1      14.790 -12.586  16.120  1.00  0.00    -0.094 Br
ENDBRANCH  14  15
BRANCH  14  17
HETATM   17  C12 UNL     1      14.846 -16.137  14.700  1.00  0.00     0.014 C 
HETATM   18  C13 UNL     1      16.124 -16.127  15.497  1.00  0.00     0.039 C 
HETATM   19  C14 UNL     1      15.606 -17.397  16.184  1.00  0.00     0.076 C 
HETATM   20 BR2  UNL     1      15.979 -17.475  18.060  1.00  0.00    -0.073 Br
HETATM   21 BR3  UNL     1      16.109 -18.982  15.214  1.00  0.00    -0.073 Br
HETATM   22  C15 UNL     1      14.201 -16.879  15.837  1.00  0.00     0.039 C 
ENDBRANCH  14  17
ENDBRANCH  12  14
ENDBRANCH   8  10
BRANCH   1  23
HETATM   23  S1  UNL     1       8.853 -15.427  13.359  1.00  0.00     0.213 S 
HETATM   24  O1  UNL     1       8.018 -16.050  14.458  1.00  0.00    -0.211 OA
HETATM   25  O2  UNL     1       9.900 -16.415  13.002  1.00  0.00    -0.211 OA
BRANCH  23  26
HETATM   26  C4  UNL     1       7.868 -15.161  11.900  1.00  0.00     0.161 C 
BRANCH  26  27
HETATM   27  C2  UNL     1       8.620 -14.396  10.840  1.00  0.00    -0.007 C 
HETATM   28  C1  UNL     1       7.753 -13.219  10.442  1.00  0.00     0.010 C 
HETATM   29  C3  UNL     1       8.889 -15.204   9.605  1.00  0.00     0.010 C 
ENDBRANCH  26  27
ENDBRANCH  23  26
ENDBRANCH   1  23
BRANCH   9  30
HETATM   30  C17 UNL     1      11.019 -12.339  16.724  1.00  0.00     0.173 C 
BRANCH  30  31
HETATM   31  O5  UNL     1      11.736 -11.155  16.790  1.00  0.00    -0.400 OA
ATOM     32  H5  UNL     1      11.439 -10.548  17.457  1.00  0.00     0.209 HD
ENDBRANCH  30  31
ENDBRANCH   9  30
TORSDOF 9
ENDMDL
MODEL 4
REMARK VINA RESULT: -6.868237623      2.133      2.944
REMARK  9 active torsions:
REMARK  status: ('A' for Active; 'I' for Inactive)
REMARK    1  A    between atoms: C2_2  and  C4_4 
REMARK    2  A    between atoms: C4_4  and  S1_5 
REMARK    3  A    between atoms: S1_5  and  N1_8 
REMARK    4  A    between atoms: C8_15  and  C9_16 
REMARK       I    between atoms: C9_16  and  N3_18 
REMARK    5  A    between atoms: N3_18  and  C10_20 
REMARK    6  A    between atoms: C10_20  and  C11_21 
REMARK    7  A    between atoms: C10_20  and  C12_23 
REMARK    8  A    between atoms: C16_29  and  C17_30 
REMARK    9  A    between atoms: C17_30  and  O5_31 
ROOT
HETATM    1  N1  UNL     1      13.464 -15.349  16.156  1.00  0.00    -0.180 NA
HETATM    2  C5  UNL     1      14.577 -14.720  16.871  1.00  0.00     0.135 C 
HETATM    3  C6  UNL     1      14.322 -13.258  16.748  1.00  0.00     0.107 C 
HETATM    4  N2  UNL     1      14.443 -12.854  15.386  1.00  0.00    -0.352 N 
ATOM      5  H2  UNL     1      15.157 -12.237  14.999  1.00  0.00     0.163 HD
HETATM    6  C7  UNL     1      13.370 -13.479  14.659  1.00  0.00     0.252 C 
HETATM    7  O3  UNL     1      13.075 -13.410  13.455  1.00  0.00    -0.271 OA
HETATM    8  C8  UNL     1      12.636 -14.271  15.675  1.00  0.00     0.196 C 
HETATM    9  C16 UNL     1      12.777 -13.314  16.878  1.00  0.00     0.076 C 
ENDROOT
BRANCH   8  10
HETATM   10  C9  UNL     1      11.278 -14.624  15.348  1.00  0.00     0.252 C 
HETATM   11  O4  UNL     1      10.719 -15.515  16.079  1.00  0.00    -0.271 OA
HETATM   12  N3  UNL     1      10.493 -14.088  14.296  1.00  0.00    -0.353 N 
ATOM     13  H3  UNL     1      10.912 -13.371  13.705  1.00  0.00     0.163 HD
BRANCH  12  14
HETATM   14  C10 UNL     1       9.146 -14.491  14.011  1.00  0.00     0.098 C 
BRANCH  14  15
HETATM   15  C11 UNL     1       8.096 -13.458  14.283  1.00  0.00     0.110 C 
HETATM   16 BR1  UNL     1       8.395 -12.509  15.942  1.00  0.00    -0.094 Br
ENDBRANCH  14  15
BRANCH  14  17
HETATM   17  C12 UNL     1       9.025 -15.120  12.658  1.00  0.00     0.014 C 
HETATM   18  C13 UNL     1       7.667 -15.041  12.010  1.00  0.00     0.039 C 
HETATM   19  C14 UNL     1       8.407 -14.892  10.675  1.00  0.00     0.076 C 
HETATM   20 BR2  UNL     1       7.603 -13.638   9.473  1.00  0.00    -0.073 Br
HETATM   21 BR3  UNL     1       8.792 -16.605   9.883  1.00  0.00    -0.073 Br
HETATM   22  C15 UNL     1       9.566 -14.320  11.506  1.00  0.00     0.039 C 
ENDBRANCH  14  17
ENDBRANCH  12  14
ENDBRANCH   8  10
BRANCH   1  23
HETATM   23  S1  UNL     1      14.187 -16.307  14.931  1.00  0.00     0.213 S 
HETATM   24  O1  UNL     1      15.391 -15.610  14.336  1.00  0.00    -0.211 OA
HETATM   25  O2  UNL     1      13.288 -16.653  13.803  1.00  0.00    -0.211 OA
BRANCH  23  26
HETATM   26  C4  UNL     1      14.667 -17.838  15.702  1.00  0.00     0.161 C 
BRANCH  26  27
HETATM   27  C2  UNL     1      16.140 -18.117  15.540  1.00  0.00    -0.007 C 
HETATM   28  C1  UNL     1      16.298 -19.620  15.424  1.00  0.00     0.010 C 
HETATM   29  C3  UNL     1      16.962 -17.661  16.709  1.00  0.00     0.010 C 
ENDBRANCH  26  27
ENDBRANCH  23  26
ENDBRANCH   1  23
BRANCH   9  30
HETATM   30  C17 UNL     1      12.286 -11.940  16.625  1.00  0.00     0.173 C 
BRANCH  30  31
HETATM   31  O5  UNL     1      11.869 -11.255  17.754  1.00  0.00    -0.400 OA
ATOM     32  H5  UNL     1      11.445 -10.424  17.582  1.00  0.00     0.209 HD
ENDBRANCH  30  31
ENDBRANCH   9  30
TORSDOF 9
ENDMDL
MODEL 5
REMARK VINA RESULT: -6.859637473      2.310      3.496
REMARK  9 active torsions:
REMARK  status: ('A' for Active; 'I' for Inactive)
REMARK    1  A    between atoms: C2_2  and  C4_4 
REMARK    2  A    between atoms: C4_4  and  S1_5 
REMARK    3  A    between atoms: S1_5  and  N1_8 
REMARK    4  A    between atoms: C8_15  and  C9_16 
REMARK       I    between atoms: C9_16  and  N3_18 
REMARK    5  A    between atoms: N3_18  and  C10_20 
REMARK    6  A    between atoms: C10_20  and  C11_21 
REMARK    7  A    between atoms: C10_20  and  C12_23 
REMARK    8  A    between atoms: C16_29  and  C17_30 
REMARK    9  A    between atoms: C17_30  and  O5_31 
ROOT
HETATM    1  N1  UNL     1      13.655 -15.425  16.132  1.00  0.00    -0.180 NA
HETATM    2  C5  UNL     1      15.002 -14.998  16.516  1.00  0.00     0.135 C 
HETATM    3  C6  UNL     1      14.965 -13.512  16.416  1.00  0.00     0.107 C 
HETATM    4  N2  UNL     1      14.793 -13.118  15.057  1.00  0.00    -0.352 N 
ATOM      5  H2  UNL     1      15.472 -12.622  14.480  1.00  0.00     0.163 HD
HETATM    6  C7  UNL     1      13.481 -13.549  14.651  1.00  0.00     0.252 C 
HETATM    7  O3  UNL     1      12.900 -13.418  13.562  1.00  0.00    -0.271 OA
HETATM    8  C8  UNL     1      12.917 -14.220  15.847  1.00  0.00     0.196 C 
HETATM    9  C16 UNL     1      13.518 -13.314  16.941  1.00  0.00     0.076 C 
ENDROOT
BRANCH   8  10
HETATM   10  C9  UNL     1      11.482 -14.340  15.892  1.00  0.00     0.252 C 
HETATM   11  O4  UNL     1      11.005 -15.363  16.497  1.00  0.00    -0.271 OA
HETATM   12  N3  UNL     1      10.538 -13.443  15.331  1.00  0.00    -0.353 N 
ATOM     13  H3  UNL     1      10.892 -12.616  14.851  1.00  0.00     0.163 HD
BRANCH  12  14
HETATM   14  C10 UNL     1       9.117 -13.624  15.397  1.00  0.00     0.098 C 
BRANCH  14  15
HETATM   15  C11 UNL     1       8.389 -12.668  16.291  1.00  0.00     0.110 C 
HETATM   16 BR1  UNL     1       8.796 -12.940  18.163  1.00  0.00    -0.094 Br
ENDBRANCH  14  15
BRANCH  14  17
HETATM   17  C12 UNL     1       8.505 -13.749  14.036  1.00  0.00     0.014 C 
HETATM   18  C13 UNL     1       9.393 -13.385  12.875  1.00  0.00     0.039 C 
HETATM   19  C14 UNL     1       8.695 -14.508  12.099  1.00  0.00     0.076 C 
HETATM   20 BR2  UNL     1       9.867 -15.527  10.979  1.00  0.00    -0.073 Br
HETATM   21 BR3  UNL     1       7.109 -13.875  11.209  1.00  0.00    -0.073 Br
HETATM   22  C15 UNL     1       8.424 -15.140  13.473  1.00  0.00     0.039 C 
ENDBRANCH  14  17
ENDBRANCH  12  14
ENDBRANCH   8  10
BRANCH   1  23
HETATM   23  S1  UNL     1      13.870 -16.476  14.794  1.00  0.00     0.213 S 
HETATM   24  O1  UNL     1      15.005 -16.004  13.910  1.00  0.00    -0.211 OA
HETATM   25  O2  UNL     1      12.679 -16.623  13.923  1.00  0.00    -0.211 OA
BRANCH  23  26
HETATM   26  C4  UNL     1      14.227 -18.086  15.464  1.00  0.00     0.161 C 
BRANCH  26  27
HETATM   27  C2  UNL     1      15.586 -18.587  15.045  1.00  0.00    -0.007 C 
HETATM   28  C1  UNL     1      15.458 -20.079  14.815  1.00  0.00     0.010 C 
HETATM   29  C3  UNL     1      16.644 -18.375  16.088  1.00  0.00     0.010 C 
ENDBRANCH  26  27
ENDBRANCH  23  26
ENDBRANCH   1  23
BRANCH   9  30
HETATM   30  C17 UNL     1      13.208 -11.874  16.779  1.00  0.00     0.173 C 
BRANCH  30  31
HETATM   31  O5  UNL     1      12.022 -11.467  17.366  1.00  0.00    -0.400 OA
ATOM     32  H5  UNL     1      11.852 -10.534  17.313  1.00  0.00     0.209 HD
ENDBRANCH  30  31
ENDBRANCH   9  30
TORSDOF 9
ENDMDL
