MODEL 1
REMARK VINA RESULT: -7.061937940      0.000      0.000
REMARK  10 active torsions:
REMARK  status: ('A' for Active; 'I' for Inactive)
REMARK    1  A    between atoms: C2_2  and  O1_5 
REMARK    2  A    between atoms: O1_5  and  C5_6 
REMARK       I    between atoms: C5_6  and  N1_8 
REMARK    3  A    between atoms: N1_8  and  C6_10 
REMARK    4  A    between atoms: C9_13  and  C10_14 
REMARK    5  A    between atoms: C10_14  and  N2_15 
REMARK    6  A    between atoms: N2_15  and  C11_17 
REMARK    7  A    between atoms: C12_20  and  N4_21 
REMARK    8  A    between atoms: C13_26  and  C14_27 
REMARK    9  A    between atoms: C18_32  and  C19_33 
REMARK   10  A    between atoms: C19_33  and  N6_34 
ROOT
HETATM    1  C11 UNL     1      13.959  71.269  30.326  1.00  0.00     0.131 A 
HETATM    2  N3  UNL     1      14.446  71.713  31.457  1.00  0.00    -0.176 N 
ATOM      3  H3  UNL     1      14.829  72.656  31.529  1.00  0.00     0.186 HD
HETATM    4  C12 UNL     1      14.427  70.871  32.550  1.00  0.00     0.678 A 
HETATM    5  N5  UNL     1      13.910  69.660  32.369  1.00  0.00    -0.188 N 
ATOM      6  H5  UNL     1      13.899  69.045  33.183  1.00  0.00     0.184 HD
HETATM    7  C13 UNL     1      13.390  69.146  31.210  1.00  0.00     0.098 A 
HETATM    8  C18 UNL     1      13.410  69.972  30.150  1.00  0.00     0.053 A 
ENDROOT
BRANCH   1   9
HETATM    9  N2  UNL     1      13.955  72.086  29.302  1.00  0.00    -0.375 N 
ATOM     10  H2  UNL     1      14.252  71.747  28.387  1.00  0.00     0.161 HD
BRANCH   9  11
HETATM   11  C10 UNL     1      13.534  73.462  29.449  1.00  0.00     0.126 C 
BRANCH  11  12
HETATM   12  C9  UNL     1      12.912  73.965  28.181  1.00  0.00     0.003 C 
HETATM   13  C8  UNL     1      11.770  74.898  28.505  1.00  0.00     0.008 C 
HETATM   14  C7  UNL     1      11.400  75.685  27.287  1.00  0.00     0.026 C 
HETATM   15  C6  UNL     1      11.220  74.775  26.098  1.00  0.00     0.086 C 
HETATM   16  C21 UNL     1      11.339  73.317  26.361  1.00  0.00     0.026 C 
HETATM   17  C20 UNL     1      12.508  72.902  27.203  1.00  0.00     0.008 C 
BRANCH  15  18
HETATM   18  N1  UNL     1       9.867  75.069  25.562  1.00  0.00    -0.332 N 
HETATM   19  C5  UNL     1       9.838  75.442  24.165  1.00  0.00     0.361 C 
HETATM   20  O2  UNL     1      10.867  75.525  23.460  1.00  0.00    -0.238 OA
ATOM     21  H1  UNL     1       9.024  75.011  26.133  1.00  0.00     0.165 HD
BRANCH  19  22
HETATM   22  O1  UNL     1       8.620  75.724  23.565  1.00  0.00    -0.294 OA
BRANCH  22  23
HETATM   23  C2  UNL     1       7.948  74.821  22.752  1.00  0.00     0.061 C 
HETATM   24  C1  UNL     1       8.014  75.339  21.319  1.00  0.00     0.046 C 
HETATM   25  C3  UNL     1       6.501  74.761  23.191  1.00  0.00     0.046 C 
HETATM   26  C4  UNL     1       8.563  73.436  22.703  1.00  0.00     0.046 C 
ENDBRANCH  22  23
ENDBRANCH  19  22
ENDBRANCH  15  18
ENDBRANCH  11  12
ENDBRANCH   9  11
ENDBRANCH   1   9
BRANCH   8  27
HETATM   27  C19 UNL     1      12.947  69.741  28.796  1.00  0.00     0.098 C 
BRANCH  27  28
HETATM   28  N6  UNL     1      11.637  69.555  28.415  1.00  0.00    -0.407 N 
ATOM     29  H62 UNL     1      11.023  70.363  28.518  1.00  0.00     0.155 HD
ATOM     30  H61 UNL     1      11.241  68.692  28.045  1.00  0.00     0.155 HD
ENDBRANCH  27  28
ENDBRANCH   8  27
BRANCH   4  31
HETATM   31  N4  UNL     1      14.919  71.270  33.611  1.00  0.00    -0.234 N 
ATOM     32  H42 UNL     1      15.700  70.823  34.092  1.00  0.00     0.174 HD
ATOM     33  H41 UNL     1      14.547  72.124  34.029  1.00  0.00     0.174 HD
ENDBRANCH   4  31
BRANCH   7  34
HETATM   34  C14 UNL     1      12.856  67.784  31.232  1.00  0.00     0.103 A 
HETATM   35  C15 UNL     1      11.536  67.533  31.604  1.00  0.00     0.041 A 
HETATM   36  C16 UNL     1      11.315  66.163  31.525  1.00  0.00     0.027 A 
HETATM   37  C17 UNL     1      12.531  65.634  31.105  1.00  0.00     0.142 A 
HETATM   38  O3  UNL     1      13.357  66.625  30.964  1.00  0.00    -0.320 OA
ENDBRANCH   7  34
TORSDOF 10
ENDMDL
MODEL 2
REMARK VINA RESULT: -6.952540826      0.951      1.183
REMARK  10 active torsions:
REMARK  status: ('A' for Active; 'I' for Inactive)
REMARK    1  A    between atoms: C2_2  and  O1_5 
REMARK    2  A    between atoms: O1_5  and  C5_6 
REMARK       I    between atoms: C5_6  and  N1_8 
REMARK    3  A    between atoms: N1_8  and  C6_10 
REMARK    4  A    between atoms: C9_13  and  C10_14 
REMARK    5  A    between atoms: C10_14  and  N2_15 
REMARK    6  A    between atoms: N2_15  and  C11_17 
REMARK    7  A    between atoms: C12_20  and  N4_21 
REMARK    8  A    between atoms: C13_26  and  C14_27 
REMARK    9  A    between atoms: C18_32  and  C19_33 
REMARK   10  A    between atoms: C19_33  and  N6_34 
ROOT
HETATM    1  C11 UNL     1      13.453  71.440  30.520  1.00  0.00     0.131 A 
HETATM    2  N3  UNL     1      14.128  71.829  31.573  1.00  0.00    -0.176 N 
ATOM      3  H3  UNL     1      14.449  72.793  31.663  1.00  0.00     0.186 HD
HETATM    4  C12 UNL     1      14.393  70.898  32.558  1.00  0.00     0.678 A 
HETATM    5  N5  UNL     1      13.937  69.666  32.360  1.00  0.00    -0.188 N 
ATOM      6  H5  UNL     1      14.137  68.986  33.093  1.00  0.00     0.184 HD
HETATM    7  C13 UNL     1      13.230  69.207  31.280  1.00  0.00     0.098 A 
HETATM    8  C18 UNL     1      12.974  70.119  30.325  1.00  0.00     0.053 A 
ENDROOT
BRANCH   1   9
HETATM    9  N2  UNL     1      13.181  72.338  29.605  1.00  0.00    -0.375 N 
ATOM     10  H2  UNL     1      12.209  72.541  29.374  1.00  0.00     0.161 HD
BRANCH   9  11
HETATM   11  C10 UNL     1      14.240  73.044  28.918  1.00  0.00     0.126 C 
BRANCH  11  12
HETATM   12  C9  UNL     1      13.781  73.499  27.565  1.00  0.00     0.003 C 
HETATM   13  C8  UNL     1      12.991  74.779  27.696  1.00  0.00     0.008 C 
HETATM   14  C7  UNL     1      12.860  75.431  26.355  1.00  0.00     0.026 C 
HETATM   15  C6  UNL     1      12.384  74.439  25.324  1.00  0.00     0.086 C 
HETATM   16  C21 UNL     1      12.050  73.080  25.823  1.00  0.00     0.026 C 
HETATM   17  C20 UNL     1      13.048  72.468  26.759  1.00  0.00     0.008 C 
BRANCH  15  18
HETATM   18  N1  UNL     1      11.178  75.044  24.702  1.00  0.00    -0.332 N 
HETATM   19  C5  UNL     1      11.087  74.874  23.270  1.00  0.00     0.361 C 
HETATM   20  O2  UNL     1      11.954  74.277  22.597  1.00  0.00    -0.238 OA
ATOM     21  H1  UNL     1      10.471  75.541  25.244  1.00  0.00     0.165 HD
BRANCH  19  22
HETATM   22  O1  UNL     1       9.992  75.392  22.595  1.00  0.00    -0.294 OA
BRANCH  22  23
HETATM   23  C2  UNL     1       8.770  74.736  22.516  1.00  0.00     0.061 C 
HETATM   24  C1  UNL     1       9.047  73.261  22.240  1.00  0.00     0.046 C 
HETATM   25  C3  UNL     1       7.984  75.317  21.360  1.00  0.00     0.046 C 
HETATM   26  C4  UNL     1       7.958  74.756  23.795  1.00  0.00     0.046 C 
ENDBRANCH  22  23
ENDBRANCH  19  22
ENDBRANCH  15  18
ENDBRANCH  11  12
ENDBRANCH   9  11
ENDBRANCH   1   9
BRANCH   8  27
HETATM   27  C19 UNL     1      12.262  69.962  29.073  1.00  0.00     0.098 C 
BRANCH  27  28
HETATM   28  N6  UNL     1      10.895  69.999  28.915  1.00  0.00    -0.407 N 
ATOM     29  H62 UNL     1      10.347  69.584  29.668  1.00  0.00     0.155 HD
ATOM     30  H61 UNL     1      10.398  70.400  28.120  1.00  0.00     0.155 HD
ENDBRANCH  27  28
ENDBRANCH   8  27
BRANCH   4  31
HETATM   31  N4  UNL     1      15.061  71.250  33.536  1.00  0.00    -0.234 N 
ATOM     32  H42 UNL     1      15.729  70.653  34.025  1.00  0.00     0.174 HD
ATOM     33  H41 UNL     1      14.970  72.210  33.868  1.00  0.00     0.174 HD
ENDBRANCH   4  31
BRANCH   7  34
HETATM   34  C14 UNL     1      12.811  67.805  31.268  1.00  0.00     0.103 A 
HETATM   35  C15 UNL     1      11.517  67.437  31.632  1.00  0.00     0.041 A 
HETATM   36  C16 UNL     1      11.409  66.056  31.519  1.00  0.00     0.027 A 
HETATM   37  C17 UNL     1      12.665  65.639  31.088  1.00  0.00     0.142 A 
HETATM   38  O3  UNL     1      13.406  66.699  30.972  1.00  0.00    -0.320 OA
ENDBRANCH   7  34
TORSDOF 10
ENDMDL
MODEL 3
REMARK VINA RESULT: -6.518777995      1.196      1.664
REMARK  10 active torsions:
REMARK  status: ('A' for Active; 'I' for Inactive)
REMARK    1  A    between atoms: C2_2  and  O1_5 
REMARK    2  A    between atoms: O1_5  and  C5_6 
REMARK       I    between atoms: C5_6  and  N1_8 
REMARK    3  A    between atoms: N1_8  and  C6_10 
REMARK    4  A    between atoms: C9_13  and  C10_14 
REMARK    5  A    between atoms: C10_14  and  N2_15 
REMARK    6  A    between atoms: N2_15  and  C11_17 
REMARK    7  A    between atoms: C12_20  and  N4_21 
REMARK    8  A    between atoms: C13_26  and  C14_27 
REMARK    9  A    between atoms: C18_32  and  C19_33 
REMARK   10  A    between atoms: C19_33  and  N6_34 
ROOT
HETATM    1  C11 UNL     1      14.403  70.451  30.070  1.00  0.00     0.131 A 
HETATM    2  N3  UNL     1      14.671  71.046  31.205  1.00  0.00    -0.176 N 
ATOM      3  H3  UNL     1      15.152  71.946  31.223  1.00  0.00     0.186 HD
HETATM    4  C12 UNL     1      14.287  70.423  32.375  1.00  0.00     0.678 A 
HETATM    5  N5  UNL     1      13.666  69.254  32.258  1.00  0.00    -0.188 N 
ATOM      6  H5  UNL     1      13.385  68.802  33.128  1.00  0.00     0.184 HD
HETATM    7  C13 UNL     1      13.363  68.588  31.100  1.00  0.00     0.098 A 
HETATM    8  C18 UNL     1      13.739  69.201  29.964  1.00  0.00     0.053 A 
ENDROOT
BRANCH   1   9
HETATM    9  N2  UNL     1      14.746  71.064  28.964  1.00  0.00    -0.375 N 
ATOM     10  H2  UNL     1      15.129  70.524  28.187  1.00  0.00     0.161 HD
BRANCH   9  11
HETATM   11  C10 UNL     1      14.589  72.495  28.827  1.00  0.00     0.126 C 
BRANCH  11  12
HETATM   12  C9  UNL     1      13.219  72.832  28.318  1.00  0.00     0.003 C 
HETATM   13  C8  UNL     1      12.995  72.173  26.978  1.00  0.00     0.008 C 
HETATM   14  C7  UNL     1      11.535  72.183  26.649  1.00  0.00     0.026 C 
HETATM   15  C6  UNL     1      10.956  73.563  26.835  1.00  0.00     0.086 C 
HETATM   16  C21 UNL     1      11.917  74.636  27.200  1.00  0.00     0.026 C 
HETATM   17  C20 UNL     1      12.892  74.295  28.286  1.00  0.00     0.008 C 
BRANCH  15  18
HETATM   18  N1  UNL     1      10.300  73.906  25.548  1.00  0.00    -0.332 N 
HETATM   19  C5  UNL     1       9.028  74.580  25.679  1.00  0.00     0.361 C 
HETATM   20  O2  UNL     1       8.508  74.846  26.784  1.00  0.00    -0.238 OA
ATOM     21  H1  UNL     1      10.714  73.684  24.643  1.00  0.00     0.165 HD
BRANCH  19  22
HETATM   22  O1  UNL     1       8.339  74.956  24.535  1.00  0.00    -0.294 OA
BRANCH  22  23
HETATM   23  C2  UNL     1       7.598  74.066  23.770  1.00  0.00     0.061 C 
HETATM   24  C1  UNL     1       6.416  74.829  23.178  1.00  0.00     0.046 C 
HETATM   25  C3  UNL     1       7.078  72.969  24.673  1.00  0.00     0.046 C 
HETATM   26  C4  UNL     1       8.336  73.490  22.577  1.00  0.00     0.046 C 
ENDBRANCH  22  23
ENDBRANCH  19  22
ENDBRANCH  15  18
ENDBRANCH  11  12
ENDBRANCH   9  11
ENDBRANCH   1   9
BRANCH   8  27
HETATM   27  C19 UNL     1      13.574  68.771  28.590  1.00  0.00     0.098 C 
BRANCH  27  28
HETATM   28  N6  UNL     1      12.392  68.767  27.885  1.00  0.00    -0.407 N 
ATOM     29  H62 UNL     1      11.899  67.875  27.842  1.00  0.00     0.155 HD
ATOM     30  H61 UNL     1      11.978  69.570  27.411  1.00  0.00     0.155 HD
ENDBRANCH  27  28
ENDBRANCH   8  27
BRANCH   4  31
HETATM   31  N4  UNL     1      14.570  70.962  33.450  1.00  0.00    -0.234 N 
ATOM     32  H42 UNL     1      15.411  71.515  33.616  1.00  0.00     0.174 HD
ATOM     33  H41 UNL     1      13.910  70.880  34.224  1.00  0.00     0.174 HD
ENDBRANCH   4  31
BRANCH   7  34
HETATM   34  C14 UNL     1      12.659  67.309  31.197  1.00  0.00     0.103 A 
HETATM   35  C15 UNL     1      11.289  67.257  31.449  1.00  0.00     0.041 A 
HETATM   36  C16 UNL     1      10.902  65.923  31.480  1.00  0.00     0.027 A 
HETATM   37  C17 UNL     1      12.074  65.211  31.245  1.00  0.00     0.142 A 
HETATM   38  O3  UNL     1      13.030  66.076  31.098  1.00  0.00    -0.320 OA
ENDBRANCH   7  34
TORSDOF 10
ENDMDL
MODEL 4
REMARK VINA RESULT: -6.505988693      5.762     11.201
REMARK  10 active torsions:
REMARK  status: ('A' for Active; 'I' for Inactive)
REMARK    1  A    between atoms: C2_2  and  O1_5 
REMARK    2  A    between atoms: O1_5  and  C5_6 
REMARK       I    between atoms: C5_6  and  N1_8 
REMARK    3  A    between atoms: N1_8  and  C6_10 
REMARK    4  A    between atoms: C9_13  and  C10_14 
REMARK    5  A    between atoms: C10_14  and  N2_15 
REMARK    6  A    between atoms: N2_15  and  C11_17 
REMARK    7  A    between atoms: C12_20  and  N4_21 
REMARK    8  A    between atoms: C13_26  and  C14_27 
REMARK    9  A    between atoms: C18_32  and  C19_33 
REMARK   10  A    between atoms: C19_33  and  N6_34 
ROOT
HETATM    1  C11 UNL     1       4.307  73.275  28.255  1.00  0.00     0.131 A 
HETATM    2  N3  UNL     1       5.476  73.039  27.713  1.00  0.00    -0.176 N 
ATOM      3  H3  UNL     1       5.827  72.085  27.620  1.00  0.00     0.186 HD
HETATM    4  C12 UNL     1       6.219  74.114  27.271  1.00  0.00     0.678 A 
HETATM    5  N5  UNL     1       5.686  75.321  27.431  1.00  0.00    -0.188 N 
ATOM      6  H5  UNL     1       6.243  76.110  27.101  1.00  0.00     0.184 HD
HETATM    7  C13 UNL     1       4.473  75.624  27.991  1.00  0.00     0.098 A 
HETATM    8  C18 UNL     1       3.754  74.571  28.419  1.00  0.00     0.053 A 
ENDROOT
BRANCH   1   9
HETATM    9  N2  UNL     1       3.596  72.246  28.645  1.00  0.00    -0.375 N 
ATOM     10  H2  UNL     1       2.950  71.805  27.990  1.00  0.00     0.161 HD
BRANCH   9  11
HETATM   11  C10 UNL     1       3.714  71.726  29.989  1.00  0.00     0.126 C 
BRANCH  11  12
HETATM   12  C9  UNL     1       4.598  70.514  30.012  1.00  0.00     0.003 C 
HETATM   13  C8  UNL     1       5.964  70.886  30.538  1.00  0.00     0.008 C 
HETATM   14  C7  UNL     1       6.712  69.647  30.918  1.00  0.00     0.026 C 
HETATM   15  C6  UNL     1       6.664  68.631  29.805  1.00  0.00     0.086 C 
HETATM   16  C21 UNL     1       5.997  69.063  28.549  1.00  0.00     0.026 C 
HETATM   17  C20 UNL     1       4.681  69.760  28.719  1.00  0.00     0.008 C 
BRANCH  15  18
HETATM   18  N1  UNL     1       8.077  68.278  29.515  1.00  0.00    -0.332 N 
HETATM   19  C5  UNL     1       8.512  67.018  30.074  1.00  0.00     0.361 C 
HETATM   20  O2  UNL     1       7.769  66.283  30.759  1.00  0.00    -0.238 OA
ATOM     21  H1  UNL     1       8.692  68.878  28.965  1.00  0.00     0.165 HD
BRANCH  19  22
HETATM   22  O1  UNL     1       9.812  66.590  29.849  1.00  0.00    -0.294 OA
BRANCH  22  23
HETATM   23  C2  UNL     1      10.885  66.978  30.640  1.00  0.00     0.061 C 
HETATM   24  C1  UNL     1      11.989  67.485  29.716  1.00  0.00     0.046 C 
HETATM   25  C3  UNL     1      11.390  65.768  31.397  1.00  0.00     0.046 C 
HETATM   26  C4  UNL     1      10.594  68.130  31.581  1.00  0.00     0.046 C 
ENDBRANCH  22  23
ENDBRANCH  19  22
ENDBRANCH  15  18
ENDBRANCH  11  12
ENDBRANCH   9  11
ENDBRANCH   1   9
BRANCH   8  27
HETATM   27  C19 UNL     1       2.449  74.546  29.050  1.00  0.00     0.098 C 
BRANCH  27  28
HETATM   28  N6  UNL     1       1.300  75.110  28.545  1.00  0.00    -0.407 N 
ATOM     29  H62 UNL     1       0.868  75.834  29.119  1.00  0.00     0.155 HD
ATOM     30  H61 UNL     1       0.855  74.865  27.660  1.00  0.00     0.155 HD
ENDBRANCH  27  28
ENDBRANCH   8  27
BRANCH   4  31
HETATM   31  N4  UNL     1       7.338  73.900  26.793  1.00  0.00    -0.234 N 
ATOM     32  H42 UNL     1       8.181  73.739  27.343  1.00  0.00     0.174 HD
ATOM     33  H41 UNL     1       7.432  73.849  25.778  1.00  0.00     0.174 HD
ENDBRANCH   4  31
BRANCH   7  34
HETATM   34  C14 UNL     1       4.070  77.029  28.059  1.00  0.00     0.103 A 
HETATM   35  C15 UNL     1       4.974  78.021  28.436  1.00  0.00     0.041 A 
HETATM   36  C16 UNL     1       4.317  79.245  28.403  1.00  0.00     0.027 A 
HETATM   37  C17 UNL     1       3.020  78.937  28.004  1.00  0.00     0.142 A 
HETATM   38  O3  UNL     1       2.963  77.651  27.831  1.00  0.00    -0.320 OA
ENDBRANCH   7  34
TORSDOF 10
ENDMDL
MODEL 5
REMARK VINA RESULT: -6.496861640      1.480      1.834
REMARK  10 active torsions:
REMARK  status: ('A' for Active; 'I' for Inactive)
REMARK    1  A    between atoms: C2_2  and  O1_5 
REMARK    2  A    between atoms: O1_5  and  C5_6 
REMARK       I    between atoms: C5_6  and  N1_8 
REMARK    3  A    between atoms: N1_8  and  C6_10 
REMARK    4  A    between atoms: C9_13  and  C10_14 
REMARK    5  A    between atoms: C10_14  and  N2_15 
REMARK    6  A    between atoms: N2_15  and  C11_17 
REMARK    7  A    between atoms: C12_20  and  N4_21 
REMARK    8  A    between atoms: C13_26  and  C14_27 
REMARK    9  A    between atoms: C18_32  and  C19_33 
REMARK   10  A    between atoms: C19_33  and  N6_34 
ROOT
HETATM    1  C11 UNL     1      14.608  70.401  29.973  1.00  0.00     0.131 A 
HETATM    2  N3  UNL     1      14.769  71.073  31.086  1.00  0.00    -0.176 N 
ATOM      3  H3  UNL     1      15.236  71.980  31.087  1.00  0.00     0.186 HD
HETATM    4  C12 UNL     1      14.290  70.521  32.256  1.00  0.00     0.678 A 
HETATM    5  N5  UNL     1      13.694  69.337  32.164  1.00  0.00    -0.188 N 
ATOM      6  H5  UNL     1      13.342  68.937  33.034  1.00  0.00     0.184 HD
HETATM    7  C13 UNL     1      13.500  68.592  31.030  1.00  0.00     0.098 A 
HETATM    8  C18 UNL     1      13.969  69.137  29.893  1.00  0.00     0.053 A 
ENDROOT
BRANCH   1   9
HETATM    9  N2  UNL     1      15.039  70.947  28.863  1.00  0.00    -0.375 N 
ATOM     10  H2  UNL     1      15.463  70.359  28.146  1.00  0.00     0.161 HD
BRANCH   9  11
HETATM   11  C10 UNL     1      14.924  72.372  28.641  1.00  0.00     0.126 C 
BRANCH  11  12
HETATM   12  C9  UNL     1      14.311  72.650  27.300  1.00  0.00     0.003 C 
HETATM   13  C8  UNL     1      12.956  73.291  27.480  1.00  0.00     0.008 C 
HETATM   14  C7  UNL     1      12.514  73.908  26.190  1.00  0.00     0.026 C 
HETATM   15  C6  UNL     1      12.659  72.929  25.053  1.00  0.00     0.086 C 
HETATM   16  C21 UNL     1      13.100  71.557  25.418  1.00  0.00     0.026 C 
HETATM   17  C20 UNL     1      14.257  71.477  26.367  1.00  0.00     0.008 C 
BRANCH  15  18
HETATM   18  N1  UNL     1      11.326  72.860  24.403  1.00  0.00    -0.332 N 
HETATM   19  C5  UNL     1      11.252  73.497  23.107  1.00  0.00     0.361 C 
HETATM   20  O2  UNL     1      12.224  74.072  22.573  1.00  0.00    -0.238 OA
ATOM     21  H1  UNL     1      10.525  72.400  24.836  1.00  0.00     0.165 HD
BRANCH  19  22
HETATM   22  O1  UNL     1      10.053  73.477  22.410  1.00  0.00    -0.294 OA
BRANCH  22  23
HETATM   23  C2  UNL     1       8.950  74.237  22.776  1.00  0.00     0.061 C 
HETATM   24  C1  UNL     1       7.894  73.290  23.339  1.00  0.00     0.046 C 
HETATM   25  C3  UNL     1       8.399  74.915  21.541  1.00  0.00     0.046 C 
HETATM   26  C4  UNL     1       9.213  75.241  23.882  1.00  0.00     0.046 C 
ENDBRANCH  22  23
ENDBRANCH  19  22
ENDBRANCH  15  18
ENDBRANCH  11  12
ENDBRANCH   9  11
ENDBRANCH   1   9
BRANCH   8  27
HETATM   27  C19 UNL     1      13.928  68.616  28.541  1.00  0.00     0.098 C 
BRANCH  27  28
HETATM   28  N6  UNL     1      12.793  68.414  27.790  1.00  0.00    -0.407 N 
ATOM     29  H62 UNL     1      11.932  68.258  28.315  1.00  0.00     0.155 HD
ATOM     30  H61 UNL     1      12.745  68.408  26.772  1.00  0.00     0.155 HD
ENDBRANCH  27  28
ENDBRANCH   8  27
BRANCH   4  31
HETATM   31  N4  UNL     1      14.472  71.133  33.314  1.00  0.00    -0.234 N 
ATOM     32  H42 UNL     1      14.190  72.099  33.480  1.00  0.00     0.174 HD
ATOM     33  H41 UNL     1      14.907  70.638  34.094  1.00  0.00     0.174 HD
ENDBRANCH   4  31
BRANCH   7  34
HETATM   34  C14 UNL     1      12.804  67.311  31.150  1.00  0.00     0.103 A 
HETATM   35  C15 UNL     1      11.464  67.252  31.530  1.00  0.00     0.041 A 
HETATM   36  C16 UNL     1      11.077  65.918  31.552  1.00  0.00     0.027 A 
HETATM   37  C17 UNL     1      12.218  65.214  31.181  1.00  0.00     0.142 A 
HETATM   38  O3  UNL     1      13.159  66.083  30.972  1.00  0.00    -0.320 OA
ENDBRANCH   7  34
TORSDOF 10
ENDMDL
