MODEL 1
REMARK VINA RESULT: -6.956831689      0.000      0.000
REMARK  10 active torsions:
REMARK  status: ('A' for Active; 'I' for Inactive)
REMARK    1  A    between atoms: C2_2  and  O1_3 
REMARK    2  A    between atoms: C2_2  and  C3_5 
REMARK    3  A    between atoms: C3_5  and  C4_6 
REMARK    4  A    between atoms: C4_6  and  C6_8 
REMARK    5  A    between atoms: C6_8  and  C7_9 
REMARK    6  A    between atoms: C7_9  and  O2_10 
REMARK    7  A    between atoms: C7_9  and  C8_12 
REMARK    8  A    between atoms: C11_15  and  O3_16 
REMARK    9  A    between atoms: C15_21  and  O4_22 
REMARK   10  A    between atoms: C24_33  and  O5_34 
ROOT
HETATM    1  C8  UNL     1       6.642  71.683  27.265  1.00  0.00     0.003 C 
HETATM    2  C9  UNL     1       7.664  72.211  26.642  1.00  0.00    -0.058 C 
HETATM    3  C10 UNL     1       8.467  73.333  27.251  1.00  0.00     0.068 C 
HETATM    4  C11 UNL     1       8.744  74.434  26.198  1.00  0.00     0.131 C 
HETATM    5  C12 UNL     1       9.313  73.949  24.922  1.00  0.00    -0.009 C 
HETATM    6  C13 UNL     1      10.761  73.602  25.165  1.00  0.00     0.018 C 
HETATM    7  C14 UNL     1       9.325  75.108  23.950  1.00  0.00     0.065 C 
HETATM    8  C15 UNL     1       8.619  74.917  22.669  1.00  0.00     0.147 C 
HETATM    9  C16 UNL     1       7.254  75.506  22.743  1.00  0.00     0.097 C 
HETATM   10  N1  UNL     1       6.185  75.952  22.816  1.00  0.00    -0.194 NA
HETATM   11  C17 UNL     1       8.568  73.553  22.099  1.00  0.00     0.054 C 
HETATM   12  C18 UNL     1       8.935  72.452  23.046  1.00  0.00     0.010 C 
HETATM   13  C19 UNL     1       8.463  72.856  24.404  1.00  0.00     0.009 C 
HETATM   14  C20 UNL     1       8.224  71.717  25.318  1.00  0.00    -0.015 C 
HETATM   15  C21 UNL     1       9.489  70.905  25.589  1.00  0.00     0.020 C 
HETATM   16  C22 UNL     1       7.298  70.760  24.624  1.00  0.00     0.017 C 
HETATM   17  C23 UNL     1       6.696  69.799  25.681  1.00  0.00     0.037 C 
HETATM   18  C24 UNL     1       5.789  70.665  26.456  1.00  0.00     0.154 C 
ENDROOT
BRANCH   8  19
HETATM   19  O4  UNL     1       9.261  75.721  21.688  1.00  0.00    -0.375 OA
ATOM     20  H4  UNL     1      10.113  75.342  21.508  1.00  0.00     0.211 HD
ENDBRANCH   8  19
BRANCH   4  21
HETATM   21  O3  UNL     1       9.580  75.345  26.860  1.00  0.00    -0.394 OA
ATOM     22  H3  UNL     1       9.461  76.160  26.387  1.00  0.00     0.210 HD
ENDBRANCH   4  21
BRANCH   1  23
HETATM   23  C7  UNL     1       6.037  71.946  28.565  1.00  0.00     0.052 C 
BRANCH  23  24
HETATM   24  C6  UNL     1       4.630  72.079  28.841  1.00  0.00     0.069 C 
BRANCH  24  25
HETATM   25  C4  UNL     1       3.994  73.362  28.256  1.00  0.00    -0.010 C 
HETATM   26  C5  UNL     1       4.941  74.430  27.953  1.00  0.00     0.010 C 
BRANCH  25  27
HETATM   27  C3  UNL     1       2.866  73.795  29.132  1.00  0.00     0.035 C 
BRANCH  27  28
HETATM   28  C2  UNL     1       1.543  74.029  28.522  1.00  0.00     0.114 C 
HETATM   29  C1  UNL     1       1.460  75.554  28.201  1.00  0.00     0.039 C 
BRANCH  28  30
HETATM   30  O1  UNL     1       1.322  73.448  27.278  1.00  0.00    -0.396 OA
ATOM     31  H1  UNL     1       0.428  73.135  27.353  1.00  0.00     0.210 HD
ENDBRANCH  28  30
ENDBRANCH  27  28
ENDBRANCH  25  27
ENDBRANCH  24  25
ENDBRANCH  23  24
BRANCH  23  32
HETATM   32  O2  UNL     1       6.730  71.217  29.595  1.00  0.00    -0.364 OA
ATOM     33  H2  UNL     1       7.496  71.680  29.911  1.00  0.00     0.217 HD
ENDBRANCH  23  32
ENDBRANCH   1  23
BRANCH  18  34
HETATM   34  O5  UNL     1       4.946  71.387  25.603  1.00  0.00    -0.391 OA
ATOM     35  H5  UNL     1       4.649  70.800  24.918  1.00  0.00     0.210 HD
ENDBRANCH  18  34
TORSDOF 10
ENDMDL
MODEL 2
REMARK VINA RESULT: -6.940472237      1.583      2.044
REMARK  10 active torsions:
REMARK  status: ('A' for Active; 'I' for Inactive)
REMARK    1  A    between atoms: C2_2  and  O1_3 
REMARK    2  A    between atoms: C2_2  and  C3_5 
REMARK    3  A    between atoms: C3_5  and  C4_6 
REMARK    4  A    between atoms: C4_6  and  C6_8 
REMARK    5  A    between atoms: C6_8  and  C7_9 
REMARK    6  A    between atoms: C7_9  and  O2_10 
REMARK    7  A    between atoms: C7_9  and  C8_12 
REMARK    8  A    between atoms: C11_15  and  O3_16 
REMARK    9  A    between atoms: C15_21  and  O4_22 
REMARK   10  A    between atoms: C24_33  and  O5_34 
ROOT
HETATM    1  C8  UNL     1       4.748  71.847  27.966  1.00  0.00     0.003 C 
HETATM    2  C9  UNL     1       5.923  72.091  27.446  1.00  0.00    -0.058 C 
HETATM    3  C10 UNL     1       6.801  73.203  27.964  1.00  0.00     0.068 C 
HETATM    4  C11 UNL     1       7.407  74.007  26.787  1.00  0.00     0.131 C 
HETATM    5  C12 UNL     1       8.069  73.190  25.748  1.00  0.00    -0.009 C 
HETATM    6  C13 UNL     1       9.389  72.716  26.305  1.00  0.00     0.018 C 
HETATM    7  C14 UNL     1       8.414  74.102  24.592  1.00  0.00     0.065 C 
HETATM    8  C15 UNL     1       7.882  73.735  23.265  1.00  0.00     0.147 C 
HETATM    9  C16 UNL     1       6.636  74.499  22.982  1.00  0.00     0.097 C 
HETATM   10  N1  UNL     1       5.656  75.086  22.779  1.00  0.00    -0.194 NA
HETATM   11  C17 UNL     1       7.692  72.299  22.964  1.00  0.00     0.054 C 
HETATM   12  C18 UNL     1       7.731  71.388  24.153  1.00  0.00     0.010 C 
HETATM   13  C19 UNL     1       7.137  72.131  25.304  1.00  0.00     0.009 C 
HETATM   14  C20 UNL     1       6.582  71.256  26.361  1.00  0.00    -0.015 C 
HETATM   15  C21 UNL     1       7.643  70.364  27.001  1.00  0.00     0.020 C 
HETATM   16  C22 UNL     1       5.624  70.302  25.708  1.00  0.00     0.017 C 
HETATM   17  C23 UNL     1       4.725  69.677  26.804  1.00  0.00     0.037 C 
HETATM   18  C24 UNL     1       3.867  70.799  27.228  1.00  0.00     0.154 C 
ENDROOT
BRANCH   8  19
HETATM   19  O4  UNL     1       8.785  74.219  22.279  1.00  0.00    -0.375 OA
ATOM     20  H4  UNL     1       8.618  75.146  22.157  1.00  0.00     0.211 HD
ENDBRANCH   8  19
BRANCH   4  21
HETATM   21  O3  UNL     1       8.274  74.922  27.402  1.00  0.00    -0.394 OA
ATOM     22  H3  UNL     1       7.698  75.578  27.774  1.00  0.00     0.210 HD
ENDBRANCH   4  21
BRANCH   1  23
HETATM   23  C7  UNL     1       4.010  72.459  29.064  1.00  0.00     0.052 C 
BRANCH  23  24
HETATM   24  C6  UNL     1       2.763  73.172  28.962  1.00  0.00     0.069 C 
BRANCH  24  25
HETATM   25  C4  UNL     1       2.870  74.519  28.207  1.00  0.00    -0.010 C 
HETATM   26  C5  UNL     1       3.969  75.376  28.640  1.00  0.00     0.010 C 
BRANCH  25  27
HETATM   27  C3  UNL     1       1.541  75.198  28.223  1.00  0.00     0.035 C 
BRANCH  27  28
HETATM   28  C2  UNL     1       1.495  76.662  28.404  1.00  0.00     0.114 C 
HETATM   29  C1  UNL     1       0.523  77.217  27.316  1.00  0.00     0.039 C 
BRANCH  28  30
HETATM   30  O1  UNL     1       0.920  77.124  29.583  1.00  0.00    -0.396 OA
ATOM     31  H1  UNL     1       1.672  77.218  30.155  1.00  0.00     0.210 HD
ENDBRANCH  28  30
ENDBRANCH  27  28
ENDBRANCH  25  27
ENDBRANCH  24  25
ENDBRANCH  23  24
BRANCH  23  32
HETATM   32  O2  UNL     1       4.066  71.620  30.233  1.00  0.00    -0.364 OA
ATOM     33  H2  UNL     1       4.853  71.090  30.259  1.00  0.00     0.217 HD
ENDBRANCH  23  32
ENDBRANCH   1  23
BRANCH  18  34
HETATM   34  O5  UNL     1       3.289  71.426  26.117  1.00  0.00    -0.391 OA
ATOM     35  H5  UNL     1       3.743  71.122  25.339  1.00  0.00     0.210 HD
ENDBRANCH  18  34
TORSDOF 10
ENDMDL
MODEL 3
REMARK VINA RESULT: -6.925434297      1.586      2.016
REMARK  10 active torsions:
REMARK  status: ('A' for Active; 'I' for Inactive)
REMARK    1  A    between atoms: C2_2  and  O1_3 
REMARK    2  A    between atoms: C2_2  and  C3_5 
REMARK    3  A    between atoms: C3_5  and  C4_6 
REMARK    4  A    between atoms: C4_6  and  C6_8 
REMARK    5  A    between atoms: C6_8  and  C7_9 
REMARK    6  A    between atoms: C7_9  and  O2_10 
REMARK    7  A    between atoms: C7_9  and  C8_12 
REMARK    8  A    between atoms: C11_15  and  O3_16 
REMARK    9  A    between atoms: C15_21  and  O4_22 
REMARK   10  A    between atoms: C24_33  and  O5_34 
ROOT
HETATM    1  C8  UNL     1       4.973  71.706  27.496  1.00  0.00     0.003 C 
HETATM    2  C9  UNL     1       6.169  72.016  27.067  1.00  0.00    -0.058 C 
HETATM    3  C10 UNL     1       6.946  73.166  27.658  1.00  0.00     0.068 C 
HETATM    4  C11 UNL     1       7.596  74.014  26.536  1.00  0.00     0.131 C 
HETATM    5  C12 UNL     1       8.376  73.245  25.544  1.00  0.00    -0.009 C 
HETATM    6  C13 UNL     1       9.673  72.834  26.196  1.00  0.00     0.018 C 
HETATM    7  C14 UNL     1       8.758  74.186  24.424  1.00  0.00     0.065 C 
HETATM    8  C15 UNL     1       8.347  73.807  23.058  1.00  0.00     0.147 C 
HETATM    9  C16 UNL     1       7.088  74.509  22.689  1.00  0.00     0.097 C 
HETATM   10  N1  UNL     1       6.096  75.047  22.417  1.00  0.00    -0.194 NA
HETATM   11  C17 UNL     1       8.256  72.367  22.733  1.00  0.00     0.054 C 
HETATM   12  C18 UNL     1       8.253  71.446  23.915  1.00  0.00     0.010 C 
HETATM   13  C19 UNL     1       7.537  72.144  25.024  1.00  0.00     0.009 C 
HETATM   14  C20 UNL     1       6.951  71.229  26.029  1.00  0.00    -0.015 C 
HETATM   15  C21 UNL     1       8.007  70.386  26.740  1.00  0.00     0.020 C 
HETATM   16  C22 UNL     1       6.096  70.234  25.298  1.00  0.00     0.017 C 
HETATM   17  C23 UNL     1       5.151  69.551  26.318  1.00  0.00     0.037 C 
HETATM   18  C24 UNL     1       4.207  70.622  26.685  1.00  0.00     0.154 C 
ENDROOT
BRANCH   8  19
HETATM   19  O4  UNL     1       9.294  74.349  22.147  1.00  0.00    -0.375 OA
ATOM     20  H4  UNL     1       8.932  75.150  21.787  1.00  0.00     0.211 HD
ENDBRANCH   8  19
BRANCH   4  21
HETATM   21  O3  UNL     1       8.365  74.966  27.222  1.00  0.00    -0.394 OA
ATOM     22  H3  UNL     1       8.603  74.535  28.034  1.00  0.00     0.210 HD
ENDBRANCH   4  21
BRANCH   1  23
HETATM   23  C7  UNL     1       4.124  72.266  28.540  1.00  0.00     0.052 C 
BRANCH  23  24
HETATM   24  C6  UNL     1       2.799  72.804  28.366  1.00  0.00     0.069 C 
BRANCH  24  25
HETATM   25  C4  UNL     1       2.647  74.265  28.853  1.00  0.00    -0.010 C 
HETATM   26  C5  UNL     1       1.604  75.029  28.176  1.00  0.00     0.010 C 
BRANCH  25  27
HETATM   27  C3  UNL     1       3.981  74.931  28.837  1.00  0.00     0.035 C 
BRANCH  27  28
HETATM   28  C2  UNL     1       4.178  76.106  27.967  1.00  0.00     0.114 C 
HETATM   29  C1  UNL     1       4.951  77.166  28.812  1.00  0.00     0.039 C 
BRANCH  28  30
HETATM   30  O1  UNL     1       5.013  75.932  26.868  1.00  0.00    -0.396 OA
ATOM     31  H1  UNL     1       4.516  76.335  26.166  1.00  0.00     0.210 HD
ENDBRANCH  28  30
ENDBRANCH  27  28
ENDBRANCH  25  27
ENDBRANCH  24  25
ENDBRANCH  23  24
BRANCH  23  32
HETATM   32  O2  UNL     1       4.246  71.496  29.750  1.00  0.00    -0.364 OA
ATOM     33  H2  UNL     1       4.615  70.635  29.594  1.00  0.00     0.217 HD
ENDBRANCH  23  32
ENDBRANCH   1  23
BRANCH  18  34
HETATM   34  O5  UNL     1       3.681  71.230  25.538  1.00  0.00    -0.391 OA
ATOM     35  H5  UNL     1       4.316  71.136  24.838  1.00  0.00     0.210 HD
ENDBRANCH  18  34
TORSDOF 10
ENDMDL
MODEL 4
REMARK VINA RESULT: -6.874666507      4.680      6.939
REMARK  10 active torsions:
REMARK  status: ('A' for Active; 'I' for Inactive)
REMARK    1  A    between atoms: C2_2  and  O1_3 
REMARK    2  A    between atoms: C2_2  and  C3_5 
REMARK    3  A    between atoms: C3_5  and  C4_6 
REMARK    4  A    between atoms: C4_6  and  C6_8 
REMARK    5  A    between atoms: C6_8  and  C7_9 
REMARK    6  A    between atoms: C7_9  and  O2_10 
REMARK    7  A    between atoms: C7_9  and  C8_12 
REMARK    8  A    between atoms: C11_15  and  O3_16 
REMARK    9  A    between atoms: C15_21  and  O4_22 
REMARK   10  A    between atoms: C24_33  and  O5_34 
ROOT
HETATM    1  C8  UNL     1       2.348  71.780  28.548  1.00  0.00     0.003 C 
HETATM    2  C9  UNL     1       2.940  71.023  29.436  1.00  0.00    -0.058 C 
HETATM    3  C10 UNL     1       3.253  71.528  30.822  1.00  0.00     0.068 C 
HETATM    4  C11 UNL     1       4.691  71.123  31.233  1.00  0.00     0.131 C 
HETATM    5  C12 UNL     1       5.010  69.691  31.059  1.00  0.00    -0.009 C 
HETATM    6  C13 UNL     1       4.316  68.926  32.159  1.00  0.00     0.018 C 
HETATM    7  C14 UNL     1       6.492  69.513  31.306  1.00  0.00     0.065 C 
HETATM    8  C15 UNL     1       7.284  68.896  30.225  1.00  0.00     0.147 C 
HETATM    9  C16 UNL     1       7.947  69.949  29.409  1.00  0.00     0.097 C 
HETATM   10  N1  UNL     1       8.445  70.779  28.768  1.00  0.00    -0.194 NA
HETATM   11  C17 UNL     1       6.617  67.904  29.353  1.00  0.00     0.054 C 
HETATM   12  C18 UNL     1       5.121  67.885  29.437  1.00  0.00     0.010 C 
HETATM   13  C19 UNL     1       4.670  69.288  29.677  1.00  0.00     0.009 C 
HETATM   14  C20 UNL     1       3.283  69.556  29.235  1.00  0.00    -0.015 C 
HETATM   15  C21 UNL     1       2.256  68.702  29.975  1.00  0.00     0.020 C 
HETATM   16  C22 UNL     1       3.171  69.131  27.799  1.00  0.00     0.017 C 
HETATM   17  C23 UNL     1       1.900  69.776  27.190  1.00  0.00     0.037 C 
HETATM   18  C24 UNL     1       2.247  71.207  27.106  1.00  0.00     0.154 C 
ENDROOT
BRANCH   8  19
HETATM   19  O4  UNL     1       8.381  68.212  30.817  1.00  0.00    -0.375 OA
ATOM     20  H4  UNL     1       8.065  67.380  31.148  1.00  0.00     0.211 HD
ENDBRANCH   8  19
BRANCH   4  21
HETATM   21  O3  UNL     1       4.806  71.554  32.563  1.00  0.00    -0.394 OA
ATOM     22  H3  UNL     1       4.785  72.502  32.506  1.00  0.00     0.210 HD
ENDBRANCH   4  21
BRANCH   1  23
HETATM   23  C7  UNL     1       1.853  73.150  28.595  1.00  0.00     0.052 C 
BRANCH  23  24
HETATM   24  C6  UNL     1       2.482  74.264  29.257  1.00  0.00     0.069 C 
BRANCH  24  25
HETATM   25  C4  UNL     1       3.436  75.076  28.349  1.00  0.00    -0.010 C 
HETATM   26  C5  UNL     1       4.661  74.379  27.971  1.00  0.00     0.010 C 
BRANCH  25  27
HETATM   27  C3  UNL     1       3.677  76.415  28.962  1.00  0.00     0.035 C 
BRANCH  27  28
HETATM   28  C2  UNL     1       4.649  77.323  28.324  1.00  0.00     0.114 C 
HETATM   29  C1  UNL     1       3.951  78.714  28.202  1.00  0.00     0.039 C 
BRANCH  28  30
HETATM   30  O1  UNL     1       5.792  77.624  29.058  1.00  0.00    -0.396 OA
ATOM     31  H1  UNL     1       5.547  77.358  29.936  1.00  0.00     0.210 HD
ENDBRANCH  28  30
ENDBRANCH  27  28
ENDBRANCH  25  27
ENDBRANCH  24  25
ENDBRANCH  23  24
BRANCH  23  32
HETATM   32  O2  UNL     1       1.284  73.520  27.325  1.00  0.00    -0.364 OA
ATOM     33  H2  UNL     1       0.343  73.396  27.301  1.00  0.00     0.217 HD
ENDBRANCH  23  32
ENDBRANCH   1  23
BRANCH  18  34
HETATM   34  O5  UNL     1       3.489  71.378  26.483  1.00  0.00    -0.391 OA
ATOM     35  H5  UNL     1       3.799  72.254  26.682  1.00  0.00     0.210 HD
ENDBRANCH  18  34
TORSDOF 10
ENDMDL
MODEL 5
REMARK VINA RESULT: -6.826532338      4.866      6.820
REMARK  10 active torsions:
REMARK  status: ('A' for Active; 'I' for Inactive)
REMARK    1  A    between atoms: C2_2  and  O1_3 
REMARK    2  A    between atoms: C2_2  and  C3_5 
REMARK    3  A    between atoms: C3_5  and  C4_6 
REMARK    4  A    between atoms: C4_6  and  C6_8 
REMARK    5  A    between atoms: C6_8  and  C7_9 
REMARK    6  A    between atoms: C7_9  and  O2_10 
REMARK    7  A    between atoms: C7_9  and  C8_12 
REMARK    8  A    between atoms: C11_15  and  O3_16 
REMARK    9  A    between atoms: C15_21  and  O4_22 
REMARK   10  A    between atoms: C24_33  and  O5_34 
ROOT
HETATM    1  C8  UNL     1       2.286  71.827  28.531  1.00  0.00     0.003 C 
HETATM    2  C9  UNL     1       2.887  71.068  29.411  1.00  0.00    -0.058 C 
HETATM    3  C10 UNL     1       3.165  71.551  30.813  1.00  0.00     0.068 C 
HETATM    4  C11 UNL     1       4.609  71.181  31.236  1.00  0.00     0.131 C 
HETATM    5  C12 UNL     1       4.975  69.764  31.035  1.00  0.00    -0.009 C 
HETATM    6  C13 UNL     1       4.290  68.953  32.107  1.00  0.00     0.018 C 
HETATM    7  C14 UNL     1       6.458  69.626  31.300  1.00  0.00     0.065 C 
HETATM    8  C15 UNL     1       7.284  69.059  30.217  1.00  0.00     0.147 C 
HETATM    9  C16 UNL     1       7.926  70.151  29.435  1.00  0.00     0.097 C 
HETATM   10  N1  UNL     1       8.407  71.009  28.820  1.00  0.00    -0.194 NA
HETATM   11  C17 UNL     1       6.661  68.067  29.313  1.00  0.00     0.054 C 
HETATM   12  C18 UNL     1       5.166  68.000  29.374  1.00  0.00     0.010 C 
HETATM   13  C19 UNL     1       4.668  69.383  29.639  1.00  0.00     0.009 C 
HETATM   14  C20 UNL     1       3.280  69.617  29.182  1.00  0.00    -0.015 C 
HETATM   15  C21 UNL     1       2.269  68.716  29.887  1.00  0.00     0.020 C 
HETATM   16  C22 UNL     1       3.201  69.222  27.736  1.00  0.00     0.017 C 
HETATM   17  C23 UNL     1       1.920  69.841  27.123  1.00  0.00     0.037 C 
HETATM   18  C24 UNL     1       2.222  71.283  27.076  1.00  0.00     0.154 C 
ENDROOT
BRANCH   8  19
HETATM   19  O4  UNL     1       8.393  68.396  30.810  1.00  0.00    -0.375 OA
ATOM     20  H4  UNL     1       8.746  67.785  30.175  1.00  0.00     0.211 HD
ENDBRANCH   8  19
BRANCH   4  21
HETATM   21  O3  UNL     1       4.691  71.585  32.577  1.00  0.00    -0.394 OA
ATOM     22  H3  UNL     1       5.623  71.609  32.758  1.00  0.00     0.210 HD
ENDBRANCH   4  21
BRANCH   1  23
HETATM   23  C7  UNL     1       1.747  73.179  28.602  1.00  0.00     0.052 C 
BRANCH  23  24
HETATM   24  C6  UNL     1       2.300  74.281  29.346  1.00  0.00     0.069 C 
BRANCH  24  25
HETATM   25  C4  UNL     1       2.956  75.369  28.463  1.00  0.00    -0.010 C 
HETATM   26  C5  UNL     1       4.334  75.090  28.073  1.00  0.00     0.010 C 
BRANCH  25  27
HETATM   27  C3  UNL     1       2.777  76.702  29.109  1.00  0.00     0.035 C 
BRANCH  27  28
HETATM   28  C2  UNL     1       1.832  77.662  28.507  1.00  0.00     0.114 C 
HETATM   29  C1  UNL     1       2.682  78.641  27.638  1.00  0.00     0.039 C 
BRANCH  28  30
HETATM   30  O1  UNL     1       0.929  77.147  27.582  1.00  0.00    -0.396 OA
ATOM     31  H1  UNL     1       1.173  76.230  27.547  1.00  0.00     0.210 HD
ENDBRANCH  28  30
ENDBRANCH  27  28
ENDBRANCH  25  27
ENDBRANCH  24  25
ENDBRANCH  23  24
BRANCH  23  32
HETATM   32  O2  UNL     1       1.248  73.586  27.314  1.00  0.00    -0.364 OA
ATOM     33  H2  UNL     1       1.120  72.849  26.728  1.00  0.00     0.217 HD
ENDBRANCH  23  32
ENDBRANCH   1  23
BRANCH  18  34
HETATM   34  O5  UNL     1       3.468  71.507  26.476  1.00  0.00    -0.391 OA
ATOM     35  H5  UNL     1       3.331  71.596  25.540  1.00  0.00     0.210 HD
ENDBRANCH  18  34
TORSDOF 10
ENDMDL
