MODEL 1
REMARK VINA RESULT: -6.757807008      0.000      0.000
REMARK  8 active torsions:
REMARK  status: ('A' for Active; 'I' for Inactive)
REMARK    1  A    between atoms: C2_2  and  C3_3 
REMARK    2  A    between atoms: C3_3  and  C4_4 
REMARK    3  A    between atoms: C5_5  and  C6_6 
REMARK    4  A    between atoms: C7_7  and  C8_8 
REMARK    5  A    between atoms: C9_9  and  C10_10 
REMARK    6  A    between atoms: C17_18  and  O2_19 
REMARK    7  A    between atoms: C20_25  and  N2_26 
REMARK    8  A    between atoms: C21_31  and  N4_32 
ROOT
HETATM    1  C8  UNL     1       6.788  74.146  26.869  1.00  0.00    -0.034 C 
HETATM    2  C9  UNL     1       6.353  72.904  26.952  1.00  0.00     0.022 C 
HETATM    3  C13 UNL     1       6.787  72.177  25.722  1.00  0.00     0.165 C 
HETATM    4  O1  UNL     1       6.630  70.960  25.404  1.00  0.00    -0.292 OA
HETATM    5  C14 UNL     1       7.477  73.075  24.828  1.00  0.00     0.074 C 
HETATM    6  C15 UNL     1       6.852  73.468  23.549  1.00  0.00     0.018 C 
HETATM    7  C16 UNL     1       7.933  73.840  22.521  1.00  0.00     0.062 C 
HETATM    8  C17 UNL     1       8.391  75.274  22.621  1.00  0.00     0.267 C 
HETATM    9  O3  UNL     1       9.576  75.444  23.414  1.00  0.00    -0.303 OA
HETATM   10  C19 UNL     1       9.866  75.028  24.709  1.00  0.00     0.170 A 
HETATM   11  N1  UNL     1      11.186  75.153  24.916  1.00  0.00    -0.170 N 
ATOM     12  H1  UNL     1      11.756  75.513  24.151  1.00  0.00     0.186 HD
HETATM   13  C20 UNL     1      11.800  74.838  26.051  1.00  0.00     0.679 A 
HETATM   14  N3  UNL     1      11.062  74.365  27.058  1.00  0.00    -0.177 N 
ATOM     15  H3  UNL     1      11.525  74.121  27.934  1.00  0.00     0.186 HD
HETATM   16  C21 UNL     1       9.716  74.196  26.962  1.00  0.00     0.126 A 
HETATM   17  C22 UNL     1       9.110  74.519  25.812  1.00  0.00     0.047 A 
HETATM   18  C23 UNL     1       7.679  74.272  25.765  1.00  0.00     0.072 C 
ENDROOT
BRANCH   1  19
HETATM   19  C7  UNL     1       6.464  75.209  27.803  1.00  0.00     0.009 C 
HETATM   20  C6  UNL     1       5.363  75.779  28.140  1.00  0.00     0.000 C 
BRANCH  20  21
HETATM   21  C5  UNL     1       3.991  75.634  27.768  1.00  0.00    -0.004 C 
HETATM   22  C4  UNL     1       3.083  75.541  28.729  1.00  0.00    -0.023 C 
BRANCH  22  23
HETATM   23  C3  UNL     1       1.643  75.411  28.487  1.00  0.00     0.053 C 
BRANCH  23  24
HETATM   24  C2  UNL     1       0.920  76.724  28.509  1.00  0.00    -0.033 C 
HETATM   25  C1  UNL     1       0.565  77.313  27.382  1.00  0.00     0.007 C 
ENDBRANCH  23  24
ENDBRANCH  22  23
ENDBRANCH  20  21
ENDBRANCH   1  19
BRANCH   2  26
HETATM   26  C10 UNL     1       5.510  72.222  27.888  1.00  0.00    -0.057 C 
HETATM   27  C11 UNL     1       5.973  71.659  29.016  1.00  0.00     0.019 C 
HETATM   28  C12 UNL     1       4.024  72.012  27.761  1.00  0.00     0.048 C 
ENDBRANCH   2  26
BRANCH  16  29
HETATM   29  N4  UNL     1       9.125  73.712  27.962  1.00  0.00    -0.384 N 
ATOM     30  H42 UNL     1       9.280  72.770  28.320  1.00  0.00     0.157 HD
ATOM     31  H41 UNL     1       8.471  74.321  28.455  1.00  0.00     0.157 HD
ENDBRANCH  16  29
BRANCH   8  32
HETATM   32  O2  UNL     1       8.820  75.686  21.323  1.00  0.00    -0.366 OA
HETATM   33  C18 UNL     1       7.683  75.720  20.536  1.00  0.00     0.204 C 
ENDBRANCH   8  32
BRANCH  13  34
HETATM   34  N2  UNL     1      13.070  74.976  26.182  1.00  0.00    -0.234 N 
ATOM     35  H22 UNL     1      13.454  75.566  26.920  1.00  0.00     0.174 HD
ATOM     36  H21 UNL     1      13.722  74.500  25.558  1.00  0.00     0.174 HD
ENDBRANCH  13  34
TORSDOF 8
ENDMDL
MODEL 2
REMARK VINA RESULT: -6.534095905      6.093      9.476
REMARK  8 active torsions:
REMARK  status: ('A' for Active; 'I' for Inactive)
REMARK    1  A    between atoms: C2_2  and  C3_3 
REMARK    2  A    between atoms: C3_3  and  C4_4 
REMARK    3  A    between atoms: C5_5  and  C6_6 
REMARK    4  A    between atoms: C7_7  and  C8_8 
REMARK    5  A    between atoms: C9_9  and  C10_10 
REMARK    6  A    between atoms: C17_18  and  O2_19 
REMARK    7  A    between atoms: C20_25  and  N2_26 
REMARK    8  A    between atoms: C21_31  and  N4_32 
ROOT
HETATM    1  C8  UNL     1      12.497  70.651  27.870  1.00  0.00    -0.034 C 
HETATM    2  C9  UNL     1      11.393  71.322  27.606  1.00  0.00     0.022 C 
HETATM    3  C13 UNL     1      10.359  70.926  28.607  1.00  0.00     0.165 C 
HETATM    4  O1  UNL     1       9.174  71.352  28.759  1.00  0.00    -0.292 OA
HETATM    5  C14 UNL     1      10.878  69.905  29.486  1.00  0.00     0.074 C 
HETATM    6  C15 UNL     1      10.350  68.528  29.410  1.00  0.00     0.018 C 
HETATM    7  C16 UNL     1      10.517  67.820  30.764  1.00  0.00     0.062 C 
HETATM    8  C17 UNL     1      11.873  67.182  30.946  1.00  0.00     0.267 C 
HETATM    9  O3  UNL     1      12.807  68.012  31.655  1.00  0.00    -0.303 OA
HETATM   10  C19 UNL     1      13.208  69.324  31.426  1.00  0.00     0.170 A 
HETATM   11  N1  UNL     1      13.865  69.768  32.508  1.00  0.00    -0.170 N 
ATOM     12  H1  UNL     1      13.976  69.128  33.294  1.00  0.00     0.186 HD
HETATM   13  C20 UNL     1      14.381  70.986  32.624  1.00  0.00     0.679 A 
HETATM   14  N3  UNL     1      14.241  71.832  31.599  1.00  0.00    -0.177 N 
ATOM     15  H3  UNL     1      14.634  72.770  31.679  1.00  0.00     0.186 HD
HETATM   16  C21 UNL     1      13.594  71.490  30.453  1.00  0.00     0.126 A 
HETATM   17  C22 UNL     1      13.080  70.258  30.350  1.00  0.00     0.047 A 
HETATM   18  C23 UNL     1      12.365  69.977  29.117  1.00  0.00     0.072 C 
ENDROOT
BRANCH   1  19
HETATM   19  C7  UNL     1      13.693  70.655  27.047  1.00  0.00     0.009 C 
HETATM   20  C6  UNL     1      13.934  70.282  25.842  1.00  0.00     0.000 C 
BRANCH  20  21
HETATM   21  C5  UNL     1      13.160  69.713  24.784  1.00  0.00    -0.004 C 
HETATM   22  C4  UNL     1      12.401  68.659  25.052  1.00  0.00    -0.023 C 
BRANCH  22  23
HETATM   23  C3  UNL     1      11.543  67.994  24.068  1.00  0.00     0.053 C 
BRANCH  23  24
HETATM   24  C2  UNL     1      10.102  67.949  24.474  1.00  0.00    -0.033 C 
HETATM   25  C1  UNL     1       9.751  68.183  25.726  1.00  0.00     0.007 C 
ENDBRANCH  23  24
ENDBRANCH  22  23
ENDBRANCH  20  21
ENDBRANCH   1  19
BRANCH   2  26
HETATM   26  C10 UNL     1      11.014  72.207  26.545  1.00  0.00    -0.057 C 
HETATM   27  C11 UNL     1      11.358  73.505  26.515  1.00  0.00     0.019 C 
HETATM   28  C12 UNL     1      10.183  71.850  25.341  1.00  0.00     0.048 C 
ENDBRANCH   2  26
BRANCH  16  29
HETATM   29  N4  UNL     1      13.492  72.376  29.566  1.00  0.00    -0.384 N 
ATOM     30  H42 UNL     1      13.239  73.347  29.750  1.00  0.00     0.157 HD
ATOM     31  H41 UNL     1      13.705  72.100  28.607  1.00  0.00     0.157 HD
ENDBRANCH  16  29
BRANCH   8  32
HETATM   32  O2  UNL     1      11.716  66.066  31.823  1.00  0.00    -0.366 OA
HETATM   33  C18 UNL     1      12.114  64.954  31.104  1.00  0.00     0.204 C 
ENDBRANCH   8  32
BRANCH  13  34
HETATM   34  N2  UNL     1      14.995  71.352  33.692  1.00  0.00    -0.234 N 
ATOM     35  H22 UNL     1      14.497  71.847  34.431  1.00  0.00     0.174 HD
ATOM     36  H21 UNL     1      15.986  71.153  33.827  1.00  0.00     0.174 HD
ENDBRANCH  13  34
TORSDOF 8
ENDMDL
MODEL 3
REMARK VINA RESULT: -6.466020067      1.738      2.419
REMARK  8 active torsions:
REMARK  status: ('A' for Active; 'I' for Inactive)
REMARK    1  A    between atoms: C2_2  and  C3_3 
REMARK    2  A    between atoms: C3_3  and  C4_4 
REMARK    3  A    between atoms: C5_5  and  C6_6 
REMARK    4  A    between atoms: C7_7  and  C8_8 
REMARK    5  A    between atoms: C9_9  and  C10_10 
REMARK    6  A    between atoms: C17_18  and  O2_19 
REMARK    7  A    between atoms: C20_25  and  N2_26 
REMARK    8  A    between atoms: C21_31  and  N4_32 
ROOT
HETATM    1  C8  UNL     1       5.569  72.114  27.087  1.00  0.00    -0.034 C 
HETATM    2  C9  UNL     1       5.492  70.862  26.681  1.00  0.00     0.022 C 
HETATM    3  C13 UNL     1       6.437  70.685  25.539  1.00  0.00     0.165 C 
HETATM    4  O1  UNL     1       6.720  69.641  24.878  1.00  0.00    -0.292 OA
HETATM    5  C14 UNL     1       7.071  71.940  25.216  1.00  0.00     0.074 C 
HETATM    6  C15 UNL     1       6.745  72.627  23.949  1.00  0.00     0.018 C 
HETATM    7  C16 UNL     1       7.922  73.510  23.506  1.00  0.00     0.062 C 
HETATM    8  C17 UNL     1       7.916  74.882  24.135  1.00  0.00     0.267 C 
HETATM    9  O3  UNL     1       8.736  74.978  25.310  1.00  0.00    -0.303 OA
HETATM   10  C19 UNL     1       8.756  74.205  26.466  1.00  0.00     0.170 A 
HETATM   11  N1  UNL     1       9.876  74.483  27.150  1.00  0.00    -0.170 N 
ATOM     12  H1  UNL     1      10.514  75.177  26.759  1.00  0.00     0.186 HD
HETATM   13  C20 UNL     1      10.211  73.915  28.303  1.00  0.00     0.679 A 
HETATM   14  N3  UNL     1       9.382  73.005  28.823  1.00  0.00    -0.177 N 
ATOM     15  H3  UNL     1       9.631  72.564  29.709  1.00  0.00     0.186 HD
HETATM   16  C21 UNL     1       8.219  72.645  28.217  1.00  0.00     0.126 A 
HETATM   17  C22 UNL     1       7.895  73.227  27.056  1.00  0.00     0.047 A 
HETATM   18  C23 UNL     1       6.662  72.763  26.443  1.00  0.00     0.072 C 
ENDROOT
BRANCH   1  19
HETATM   19  C7  UNL     1       4.714  72.721  28.091  1.00  0.00     0.009 C 
HETATM   20  C6  UNL     1       4.396  73.937  28.358  1.00  0.00     0.000 C 
BRANCH  20  21
HETATM   21  C5  UNL     1       4.723  75.214  27.807  1.00  0.00    -0.004 C 
HETATM   22  C4  UNL     1       4.367  76.301  28.478  1.00  0.00    -0.023 C 
BRANCH  22  23
HETATM   23  C3  UNL     1       4.659  77.668  28.038  1.00  0.00     0.053 C 
BRANCH  23  24
HETATM   24  C2  UNL     1       3.438  78.531  27.938  1.00  0.00    -0.033 C 
HETATM   25  C1  UNL     1       2.295  78.138  28.471  1.00  0.00     0.007 C 
ENDBRANCH  23  24
ENDBRANCH  22  23
ENDBRANCH  20  21
ENDBRANCH   1  19
BRANCH   2  26
HETATM   26  C10 UNL     1       4.645  69.765  27.045  1.00  0.00    -0.057 C 
HETATM   27  C11 UNL     1       3.492  69.489  26.415  1.00  0.00     0.019 C 
HETATM   28  C12 UNL     1       4.885  68.786  28.165  1.00  0.00     0.048 C 
ENDBRANCH   2  26
BRANCH  16  29
HETATM   29  N4  UNL     1       7.532  71.754  28.779  1.00  0.00    -0.384 N 
ATOM     30  H42 UNL     1       7.409  71.674  29.789  1.00  0.00     0.157 HD
ATOM     31  H41 UNL     1       7.049  71.089  28.175  1.00  0.00     0.157 HD
ENDBRANCH  16  29
BRANCH   8  32
HETATM   32  O2  UNL     1       8.558  75.780  23.229  1.00  0.00    -0.366 OA
HETATM   33  C18 UNL     1       8.258  75.323  21.958  1.00  0.00     0.204 C 
ENDBRANCH   8  32
BRANCH  13  34
HETATM   34  N2  UNL     1      11.303  74.222  28.905  1.00  0.00    -0.234 N 
ATOM     35  H22 UNL     1      11.562  73.758  29.776  1.00  0.00     0.174 HD
ATOM     36  H21 UNL     1      11.934  74.929  28.529  1.00  0.00     0.174 HD
ENDBRANCH  13  34
TORSDOF 8
ENDMDL
MODEL 4
REMARK VINA RESULT: -6.433694574      5.126      7.795
REMARK  8 active torsions:
REMARK  status: ('A' for Active; 'I' for Inactive)
REMARK    1  A    between atoms: C2_2  and  C3_3 
REMARK    2  A    between atoms: C3_3  and  C4_4 
REMARK    3  A    between atoms: C5_5  and  C6_6 
REMARK    4  A    between atoms: C7_7  and  C8_8 
REMARK    5  A    between atoms: C9_9  and  C10_10 
REMARK    6  A    between atoms: C17_18  and  O2_19 
REMARK    7  A    between atoms: C20_25  and  N2_26 
REMARK    8  A    between atoms: C21_31  and  N4_32 
ROOT
HETATM    1  C8  UNL     1      13.625  74.731  27.186  1.00  0.00    -0.034 C 
HETATM    2  C9  UNL     1      12.974  74.826  28.329  1.00  0.00     0.022 C 
HETATM    3  C13 UNL     1      11.511  74.776  28.034  1.00  0.00     0.165 C 
HETATM    4  O1  UNL     1      10.525  74.787  28.830  1.00  0.00    -0.292 OA
HETATM    5  C14 UNL     1      11.290  74.704  26.610  1.00  0.00     0.074 C 
HETATM    6  C15 UNL     1      10.699  75.855  25.897  1.00  0.00     0.018 C 
HETATM    7  C16 UNL     1       9.971  75.377  24.630  1.00  0.00     0.062 C 
HETATM    8  C17 UNL     1      10.878  75.230  23.433  1.00  0.00     0.267 C 
HETATM    9  O3  UNL     1      11.362  73.891  23.242  1.00  0.00    -0.303 OA
HETATM   10  C19 UNL     1      12.011  73.029  24.119  1.00  0.00     0.170 A 
HETATM   11  N1  UNL     1      12.004  71.794  23.593  1.00  0.00    -0.170 N 
ATOM     12  H1  UNL     1      11.558  71.666  22.685  1.00  0.00     0.186 HD
HETATM   13  C20 UNL     1      12.538  70.728  24.177  1.00  0.00     0.679 A 
HETATM   14  N3  UNL     1      13.124  70.887  25.367  1.00  0.00    -0.177 N 
ATOM     15  H3  UNL     1      13.538  70.073  25.823  1.00  0.00     0.186 HD
HETATM   16  C21 UNL     1      13.191  72.091  25.994  1.00  0.00     0.126 A 
HETATM   17  C22 UNL     1      12.649  73.157  25.393  1.00  0.00     0.047 A 
HETATM   18  C23 UNL     1      12.718  74.402  26.139  1.00  0.00     0.072 C 
ENDROOT
BRANCH   1  19
HETATM   19  C7  UNL     1      15.062  74.872  27.030  1.00  0.00     0.009 C 
HETATM   20  C6  UNL     1      15.892  75.809  27.320  1.00  0.00     0.000 C 
BRANCH  20  21
HETATM   21  C5  UNL     1      15.790  77.104  27.916  1.00  0.00    -0.004 C 
HETATM   22  C4  UNL     1      14.960  77.985  27.374  1.00  0.00    -0.023 C 
BRANCH  22  23
HETATM   23  C3  UNL     1      14.743  79.337  27.898  1.00  0.00     0.053 C 
BRANCH  23  24
HETATM   24  C2  UNL     1      15.104  80.414  26.921  1.00  0.00    -0.033 C 
HETATM   25  C1  UNL     1      15.749  81.494  27.323  1.00  0.00     0.007 C 
ENDBRANCH  23  24
ENDBRANCH  22  23
ENDBRANCH  20  21
ENDBRANCH   1  19
BRANCH   2  26
HETATM   26  C10 UNL     1      13.392  75.062  29.679  1.00  0.00    -0.057 C 
HETATM   27  C11 UNL     1      13.249  76.248  30.293  1.00  0.00     0.019 C 
HETATM   28  C12 UNL     1      14.055  74.067  30.594  1.00  0.00     0.048 C 
ENDBRANCH   2  26
BRANCH  16  29
HETATM   29  N4  UNL     1      13.738  72.118  27.127  1.00  0.00    -0.384 N 
ATOM     30  H42 UNL     1      13.438  71.554  27.923  1.00  0.00     0.157 HD
ATOM     31  H41 UNL     1      14.548  72.728  27.238  1.00  0.00     0.157 HD
ENDBRANCH  16  29
BRANCH   8  32
HETATM   32  O2  UNL     1      10.093  75.450  22.261  1.00  0.00    -0.366 OA
HETATM   33  C18 UNL     1       8.864  74.864  22.506  1.00  0.00     0.204 C 
ENDBRANCH   8  32
BRANCH  13  34
HETATM   34  N2  UNL     1      12.492  69.571  23.622  1.00  0.00    -0.234 N 
ATOM     35  H22 UNL     1      13.220  69.279  22.970  1.00  0.00     0.174 HD
ATOM     36  H21 UNL     1      11.734  68.918  23.821  1.00  0.00     0.174 HD
ENDBRANCH  13  34
TORSDOF 8
ENDMDL
MODEL 5
REMARK VINA RESULT: -6.350838349      6.104      9.400
REMARK  8 active torsions:
REMARK  status: ('A' for Active; 'I' for Inactive)
REMARK    1  A    between atoms: C2_2  and  C3_3 
REMARK    2  A    between atoms: C3_3  and  C4_4 
REMARK    3  A    between atoms: C5_5  and  C6_6 
REMARK    4  A    between atoms: C7_7  and  C8_8 
REMARK    5  A    between atoms: C9_9  and  C10_10 
REMARK    6  A    between atoms: C17_18  and  O2_19 
REMARK    7  A    between atoms: C20_25  and  N2_26 
REMARK    8  A    between atoms: C21_31  and  N4_32 
ROOT
HETATM    1  C8  UNL     1      11.680  70.048  27.746  1.00  0.00    -0.034 C 
HETATM    2  C9  UNL     1      10.567  70.741  27.606  1.00  0.00     0.022 C 
HETATM    3  C13 UNL     1       9.638  70.355  28.710  1.00  0.00     0.165 C 
HETATM    4  O1  UNL     1       8.485  70.801  28.990  1.00  0.00    -0.292 OA
HETATM    5  C14 UNL     1      10.229  69.319  29.521  1.00  0.00     0.074 C 
HETATM    6  C15 UNL     1       9.671  67.952  29.495  1.00  0.00     0.018 C 
HETATM    7  C16 UNL     1       9.969  67.230  30.818  1.00  0.00     0.062 C 
HETATM    8  C17 UNL     1      11.324  66.567  30.850  1.00  0.00     0.267 C 
HETATM    9  O3  UNL     1      12.344  67.374  31.460  1.00  0.00    -0.303 OA
HETATM   10  C19 UNL     1      12.743  68.680  31.197  1.00  0.00     0.170 A 
HETATM   11  N1  UNL     1      13.520  69.104  32.205  1.00  0.00    -0.170 N 
ATOM     12  H1  UNL     1      13.703  68.456  32.971  1.00  0.00     0.186 HD
HETATM   13  C20 UNL     1      14.068  70.312  32.272  1.00  0.00     0.679 A 
HETATM   14  N3  UNL     1      13.835  71.168  31.274  1.00  0.00    -0.177 N 
ATOM     15  H3  UNL     1      14.252  72.098  31.317  1.00  0.00     0.186 HD
HETATM   16  C21 UNL     1      13.062  70.847  30.201  1.00  0.00     0.126 A 
HETATM   17  C22 UNL     1      12.518  69.625  30.147  1.00  0.00     0.047 A 
HETATM   18  C23 UNL     1      11.670  69.366  28.996  1.00  0.00     0.072 C 
ENDROOT
BRANCH   1  19
HETATM   19  C7  UNL     1      12.781  70.037  26.800  1.00  0.00     0.009 C 
HETATM   20  C6  UNL     1      12.977  69.432  25.683  1.00  0.00     0.000 C 
BRANCH  20  21
HETATM   21  C5  UNL     1      12.224  68.522  24.879  1.00  0.00    -0.004 C 
HETATM   22  C4  UNL     1      11.671  68.976  23.762  1.00  0.00    -0.023 C 
BRANCH  22  23
HETATM   23  C3  UNL     1      10.895  68.146  22.836  1.00  0.00     0.053 C 
BRANCH  23  24
HETATM   24  C2  UNL     1       9.444  68.517  22.784  1.00  0.00    -0.033 C 
HETATM   25  C1  UNL     1       9.066  69.672  22.268  1.00  0.00     0.007 C 
ENDBRANCH  23  24
ENDBRANCH  22  23
ENDBRANCH  20  21
ENDBRANCH   1  19
BRANCH   2  26
HETATM   26  C10 UNL     1      10.093  71.641  26.597  1.00  0.00    -0.057 C 
HETATM   27  C11 UNL     1       9.256  71.266  25.616  1.00  0.00     0.019 C 
HETATM   28  C12 UNL     1      10.455  73.096  26.459  1.00  0.00     0.048 C 
ENDBRANCH   2  26
BRANCH  16  29
HETATM   29  N4  UNL     1      12.883  71.742  29.336  1.00  0.00    -0.384 N 
ATOM     30  H42 UNL     1      12.578  71.563  28.379  1.00  0.00     0.157 HD
ATOM     31  H41 UNL     1      13.030  72.708  29.629  1.00  0.00     0.157 HD
ENDBRANCH  16  29
BRANCH   8  32
HETATM   32  O2  UNL     1      11.241  65.447  31.732  1.00  0.00    -0.366 OA
HETATM   33  C18 UNL     1      12.247  64.579  31.346  1.00  0.00     0.204 C 
ENDBRANCH   8  32
BRANCH  13  34
HETATM   34  N2  UNL     1      14.799  70.657  33.270  1.00  0.00    -0.234 N 
ATOM     35  H22 UNL     1      15.384  71.492  33.220  1.00  0.00     0.174 HD
ATOM     36  H21 UNL     1      14.810  70.112  34.133  1.00  0.00     0.174 HD
ENDBRANCH  13  34
TORSDOF 8
ENDMDL
