MODEL 1
REMARK VINA RESULT: -6.362939011      0.000      0.000
REMARK  12 active torsions:
REMARK  status: ('A' for Active; 'I' for Inactive)
REMARK    1  A    between atoms: O1_2  and  C2_3 
REMARK    2  A    between atoms: C2_3  and  O2_4 
REMARK    3  A    between atoms: C4_6  and  N1_7 
REMARK       I    between atoms: N1_7  and  C5_9 
REMARK    4  A    between atoms: C5_9  and  C6_11 
REMARK    5  A    between atoms: C6_11  and  N2_13 
REMARK    6  A    between atoms: C8_17  and  C9_18 
REMARK    7  A    between atoms: C9_18  and  O4_19 
REMARK    8  A    between atoms: C9_18  and  C10_21 
REMARK    9  A    between atoms: C10_21  and  O5_22 
REMARK   10  A    between atoms: C12_26  and  O6_27 
REMARK   11  A    between atoms: C14_30  and  O7_31 
REMARK   12  A    between atoms: C14_30  and  C15_33 
REMARK       I    between atoms: C15_33  and  N4_35 
ROOT
HETATM    1  C2  UNL     1       7.944  -7.629  -2.527  1.00  0.00     0.213 C 
HETATM    2  C4  UNL     1       8.807  -6.347  -2.634  1.00  0.00     0.201 C 
HETATM    3  C8  UNL     1       9.928  -6.806  -1.692  1.00  0.00     0.070 C 
HETATM    4  N3  UNL     1      10.109  -8.112  -1.927  1.00  0.00    -0.328 N 
HETATM    5  C11 UNL     1       8.962  -8.639  -2.733  1.00  0.00     0.181 C 
HETATM    6  C12 UNL     1       9.686  -8.736  -4.038  1.00  0.00     0.151 C 
HETATM    7  C13 UNL     1      10.946  -9.488  -3.546  1.00  0.00     0.105 C 
HETATM    8  C14 UNL     1      11.161  -8.932  -2.112  1.00  0.00     0.223 C 
ENDROOT
BRANCH   8   9
HETATM    9  O7  UNL     1      12.471  -8.509  -2.126  1.00  0.00    -0.363 OA
ATOM     10  H7  UNL     1      12.829  -7.916  -2.775  1.00  0.00     0.213 HD
ENDBRANCH   8   9
BRANCH   8  11
HETATM   11  C15 UNL     1      11.111 -10.143  -1.247  1.00  0.00     0.313 C 
HETATM   12  O8  UNL     1      10.136 -10.437  -0.502  1.00  0.00    -0.264 OA
HETATM   13  N4  UNL     1      12.196 -11.055  -1.224  1.00  0.00    -0.127 N 
HETATM   14  N5  UNL     1      12.282 -12.232  -0.427  1.00  0.00    -0.207 N 
HETATM   15  N8  UNL     1      13.384 -11.051  -1.954  1.00  0.00     0.020 NA
HETATM   16  N6  UNL     1      13.467 -12.708  -0.494  1.00  0.00    -0.212 N 
ATOM     17  H5  UNL     1      11.516 -12.633   0.114  1.00  0.00     0.211 HD
HETATM   18  N7  UNL     1      14.253 -11.922  -1.313  1.00  0.00     0.010 NA
ATOM     19  H6  UNL     1      13.785 -13.549  -0.012  1.00  0.00     0.207 HD
ENDBRANCH   8  11
BRANCH   3  20
HETATM   20  C9  UNL     1      10.883  -5.712  -1.592  1.00  0.00     0.091 C 
BRANCH  20  21
HETATM   21  O4  UNL     1      11.913  -5.839  -0.655  1.00  0.00    -0.361 OA
ATOM     22  H4  UNL     1      12.322  -6.692  -0.567  1.00  0.00     0.217 HD
ENDBRANCH  20  21
BRANCH  20  23
HETATM   23  C10 UNL     1      11.400  -5.124  -2.890  1.00  0.00     0.230 C 
BRANCH  23  24
HETATM   24  O5  UNL     1      11.007  -3.763  -2.986  1.00  0.00    -0.394 OA
ATOM     25  H5  UNL     1      11.405  -3.370  -3.754  1.00  0.00     0.209 HD
ENDBRANCH  23  24
ENDBRANCH  20  23
ENDBRANCH   3  20
BRANCH   6  26
HETATM   26  O6  UNL     1       9.132  -9.605  -4.961  1.00  0.00    -0.393 OA
ATOM     27  H6  UNL     1       8.188  -9.557  -5.051  1.00  0.00     0.210 HD
ENDBRANCH   6  26
BRANCH   2  28
HETATM   28  N1  UNL     1       8.120  -5.241  -2.017  1.00  0.00    -0.344 N 
HETATM   29  C5  UNL     1       7.734  -4.066  -2.688  1.00  0.00     0.248 C 
HETATM   30  O3  UNL     1       7.987  -3.942  -3.907  1.00  0.00    -0.271 OA
ATOM     31  H1  UNL     1       7.899  -5.315  -1.023  1.00  0.00     0.163 HD
BRANCH  29  32
HETATM   32  C6  UNL     1       7.028  -2.937  -2.037  1.00  0.00     0.270 C 
HETATM   33  C7  UNL     1       6.127  -2.311  -3.091  1.00  0.00     0.050 C 
BRANCH  32  34
HETATM   34  N2  UNL     1       7.933  -1.975  -1.461  1.00  0.00    -0.067 N 
ATOM     35  H23 UNL     1       8.722  -2.439  -1.011  1.00  0.00     0.275 HD
ATOM     36  H22 UNL     1       8.435  -1.465  -2.188  1.00  0.00     0.275 HD
ATOM     37  H21 UNL     1       7.468  -1.335  -0.818  1.00  0.00     0.275 HD
ENDBRANCH  32  34
ENDBRANCH  29  32
ENDBRANCH   2  28
BRANCH   1  38
HETATM   38  O1  UNL     1       7.669  -7.621  -1.118  1.00  0.00    -0.356 OA
HETATM   39  C1  UNL     1       6.724  -8.541  -0.762  1.00  0.00     0.205 C 
ENDBRANCH   1  38
BRANCH   1  40
HETATM   40  O2  UNL     1       6.772  -7.556  -3.089  1.00  0.00    -0.356 OA
HETATM   41  C3  UNL     1       6.424  -7.285  -4.327  1.00  0.00     0.205 C 
ENDBRANCH   1  40
TORSDOF 12
ENDMDL
MODEL 2
REMARK VINA RESULT: -6.342803460      1.736      7.178
REMARK  12 active torsions:
REMARK  status: ('A' for Active; 'I' for Inactive)
REMARK    1  A    between atoms: O1_2  and  C2_3 
REMARK    2  A    between atoms: C2_3  and  O2_4 
REMARK    3  A    between atoms: C4_6  and  N1_7 
REMARK       I    between atoms: N1_7  and  C5_9 
REMARK    4  A    between atoms: C5_9  and  C6_11 
REMARK    5  A    between atoms: C6_11  and  N2_13 
REMARK    6  A    between atoms: C8_17  and  C9_18 
REMARK    7  A    between atoms: C9_18  and  O4_19 
REMARK    8  A    between atoms: C9_18  and  C10_21 
REMARK    9  A    between atoms: C10_21  and  O5_22 
REMARK   10  A    between atoms: C12_26  and  O6_27 
REMARK   11  A    between atoms: C14_30  and  O7_31 
REMARK   12  A    between atoms: C14_30  and  C15_33 
REMARK       I    between atoms: C15_33  and  N4_35 
ROOT
HETATM    1  C2  UNL     1       8.546  -8.034  -2.646  1.00  0.00     0.213 C 
HETATM    2  C4  UNL     1       9.976  -7.728  -2.134  1.00  0.00     0.201 C 
HETATM    3  C8  UNL     1      10.123  -6.363  -2.820  1.00  0.00     0.070 C 
HETATM    4  N3  UNL     1       8.926  -5.769  -2.743  1.00  0.00    -0.328 N 
HETATM    5  C11 UNL     1       7.893  -6.776  -2.341  1.00  0.00     0.181 C 
HETATM    6  C12 UNL     1       7.737  -6.322  -0.925  1.00  0.00     0.151 C 
HETATM    7  C13 UNL     1       7.556  -4.807  -1.190  1.00  0.00     0.105 C 
HETATM    8  C14 UNL     1       8.463  -4.546  -2.423  1.00  0.00     0.223 C 
ENDROOT
BRANCH   8   9
HETATM    9  O7  UNL     1       9.265  -3.504  -2.015  1.00  0.00    -0.363 OA
ATOM     10  H7  UNL     1       9.083  -2.960  -1.259  1.00  0.00     0.213 HD
ENDBRANCH   8   9
BRANCH   8  11
HETATM   11  C15 UNL     1       7.529  -3.994  -3.443  1.00  0.00     0.313 C 
HETATM   12  O8  UNL     1       7.150  -4.626  -4.467  1.00  0.00    -0.264 OA
HETATM   13  N4  UNL     1       7.002  -2.686  -3.302  1.00  0.00    -0.127 N 
HETATM   14  N5  UNL     1       6.123  -2.035  -4.214  1.00  0.00    -0.207 N 
HETATM   15  N8  UNL     1       7.177  -1.756  -2.277  1.00  0.00     0.020 NA
HETATM   16  N6  UNL     1       6.008  -0.803  -3.892  1.00  0.00    -0.212 N 
ATOM     17  H5  UNL     1       5.657  -2.483  -5.003  1.00  0.00     0.211 HD
HETATM   18  N7  UNL     1       6.772  -0.527  -2.775  1.00  0.00     0.010 NA
ATOM     19  H6  UNL     1       5.434  -0.122  -4.389  1.00  0.00     0.207 HD
ENDBRANCH   8  11
BRANCH   3  20
HETATM   20  C9  UNL     1      11.457  -5.867  -2.511  1.00  0.00     0.091 C 
BRANCH  20  21
HETATM   21  O4  UNL     1      11.710  -4.511  -2.742  1.00  0.00    -0.361 OA
ATOM     22  H4  UNL     1      12.222  -4.044  -2.092  1.00  0.00     0.217 HD
ENDBRANCH  20  21
BRANCH  20  23
HETATM   23  C10 UNL     1      12.079  -6.320  -1.204  1.00  0.00     0.230 C 
BRANCH  23  24
HETATM   24  O5  UNL     1      13.306  -6.983  -1.466  1.00  0.00    -0.394 OA
ATOM     25  H5  UNL     1      14.030  -6.438  -1.179  1.00  0.00     0.209 HD
ENDBRANCH  23  24
ENDBRANCH  20  23
ENDBRANCH   3  20
BRANCH   6  26
HETATM   26  O6  UNL     1       6.551  -6.685  -0.313  1.00  0.00    -0.393 OA
ATOM     27  H6  UNL     1       6.017  -5.965   0.002  1.00  0.00     0.210 HD
ENDBRANCH   6  26
BRANCH   2  28
HETATM   28  N1  UNL     1      10.916  -8.640  -2.733  1.00  0.00    -0.344 N 
HETATM   29  C5  UNL     1      11.536  -9.708  -2.056  1.00  0.00     0.248 C 
HETATM   30  O3  UNL     1      11.271  -9.907  -0.849  1.00  0.00    -0.271 OA
ATOM     31  H1  UNL     1      11.149  -8.503  -3.717  1.00  0.00     0.163 HD
BRANCH  29  32
HETATM   32  C6  UNL     1      12.501 -10.637  -2.688  1.00  0.00     0.270 C 
HETATM   33  C7  UNL     1      12.422 -11.948  -1.920  1.00  0.00     0.050 C 
BRANCH  32  34
HETATM   34  N2  UNL     1      13.842 -10.110  -2.716  1.00  0.00    -0.067 N 
ATOM     35  H23 UNL     1      13.964  -9.462  -3.494  1.00  0.00     0.275 HD
ATOM     36  H22 UNL     1      13.997  -9.466  -1.940  1.00  0.00     0.275 HD
ATOM     37  H21 UNL     1      14.551 -10.842  -2.733  1.00  0.00     0.275 HD
ENDBRANCH  32  34
ENDBRANCH  29  32
ENDBRANCH   2  28
BRANCH   1  38
HETATM   38  O1  UNL     1       8.786  -8.026  -4.061  1.00  0.00    -0.356 OA
HETATM   39  C1  UNL     1       7.801  -8.659  -4.765  1.00  0.00     0.205 C 
ENDBRANCH   1  38
BRANCH   1  40
HETATM   40  O2  UNL     1       8.113  -9.235  -2.395  1.00  0.00    -0.356 OA
HETATM   41  C3  UNL     1       7.823  -9.828  -1.257  1.00  0.00     0.205 C 
ENDBRANCH   1  40
TORSDOF 12
ENDMDL
MODEL 3
REMARK VINA RESULT: -6.036261947      2.232      7.057
REMARK  12 active torsions:
REMARK  status: ('A' for Active; 'I' for Inactive)
REMARK    1  A    between atoms: O1_2  and  C2_3 
REMARK    2  A    between atoms: C2_3  and  O2_4 
REMARK    3  A    between atoms: C4_6  and  N1_7 
REMARK       I    between atoms: N1_7  and  C5_9 
REMARK    4  A    between atoms: C5_9  and  C6_11 
REMARK    5  A    between atoms: C6_11  and  N2_13 
REMARK    6  A    between atoms: C8_17  and  C9_18 
REMARK    7  A    between atoms: C9_18  and  O4_19 
REMARK    8  A    between atoms: C9_18  and  C10_21 
REMARK    9  A    between atoms: C10_21  and  O5_22 
REMARK   10  A    between atoms: C12_26  and  O6_27 
REMARK   11  A    between atoms: C14_30  and  O7_31 
REMARK   12  A    between atoms: C14_30  and  C15_33 
REMARK       I    between atoms: C15_33  and  N4_35 
ROOT
HETATM    1  C2  UNL     1       7.703  -7.652  -1.974  1.00  0.00     0.213 C 
HETATM    2  C4  UNL     1       9.193  -7.234  -2.050  1.00  0.00     0.201 C 
HETATM    3  C8  UNL     1       8.969  -5.910  -2.793  1.00  0.00     0.070 C 
HETATM    4  N3  UNL     1       7.844  -5.381  -2.294  1.00  0.00    -0.328 N 
HETATM    5  C11 UNL     1       7.116  -6.417  -1.495  1.00  0.00     0.181 C 
HETATM    6  C12 UNL     1       7.465  -5.881  -0.143  1.00  0.00     0.151 C 
HETATM    7  C13 UNL     1       7.083  -4.399  -0.378  1.00  0.00     0.105 C 
HETATM    8  C14 UNL     1       7.442  -4.167  -1.871  1.00  0.00     0.223 C 
ENDROOT
BRANCH   8   9
HETATM    9  O7  UNL     1       8.256  -3.058  -1.835  1.00  0.00    -0.363 OA
ATOM     10  H7  UNL     1       8.263  -2.429  -1.124  1.00  0.00     0.213 HD
ENDBRANCH   8   9
BRANCH   8  11
HETATM   11  C15 UNL     1       6.156  -3.736  -2.485  1.00  0.00     0.313 C 
HETATM   12  O8  UNL     1       5.037  -3.818  -1.907  1.00  0.00    -0.264 OA
HETATM   13  N4  UNL     1       6.130  -3.191  -3.793  1.00  0.00    -0.127 N 
HETATM   14  N5  UNL     1       4.970  -2.766  -4.499  1.00  0.00    -0.207 N 
HETATM   15  N8  UNL     1       7.181  -2.922  -4.671  1.00  0.00     0.020 NA
HETATM   16  N6  UNL     1       5.275  -2.522  -5.717  1.00  0.00    -0.212 N 
ATOM     17  H5  UNL     1       4.038  -2.670  -4.096  1.00  0.00     0.211 HD
HETATM   18  N7  UNL     1       6.621  -2.753  -5.928  1.00  0.00     0.010 NA
ATOM     19  H6  UNL     1       4.619  -2.201  -6.430  1.00  0.00     0.207 HD
ENDBRANCH   8  11
BRANCH   3  20
HETATM   20  C9  UNL     1      10.279  -5.320  -3.028  1.00  0.00     0.091 C 
BRANCH  20  21
HETATM   21  O4  UNL     1      10.322  -4.080  -3.673  1.00  0.00    -0.361 OA
ATOM     22  H4  UNL     1      10.062  -4.053  -4.587  1.00  0.00     0.217 HD
ENDBRANCH  20  21
BRANCH  20  23
HETATM   23  C10 UNL     1      11.277  -5.373  -1.887  1.00  0.00     0.230 C 
BRANCH  23  24
HETATM   24  O5  UNL     1      12.564  -5.688  -2.395  1.00  0.00    -0.394 OA
ATOM     25  H5  UNL     1      13.230  -5.313  -1.831  1.00  0.00     0.209 HD
ENDBRANCH  23  24
ENDBRANCH  20  23
ENDBRANCH   3  20
BRANCH   6  26
HETATM   26  O6  UNL     1       6.624  -6.271   0.885  1.00  0.00    -0.393 OA
ATOM     27  H6  UNL     1       6.774  -5.842   1.719  1.00  0.00     0.210 HD
ENDBRANCH   6  26
BRANCH   2  28
HETATM   28  N1  UNL     1       9.909  -8.128  -2.923  1.00  0.00    -0.344 N 
HETATM   29  C5  UNL     1      10.902  -9.032  -2.501  1.00  0.00     0.248 C 
HETATM   30  O3  UNL     1      11.206  -9.089  -1.288  1.00  0.00    -0.271 OA
ATOM     31  H1  UNL     1       9.679  -8.105  -3.917  1.00  0.00     0.163 HD
BRANCH  29  32
HETATM   32  C6  UNL     1      11.629  -9.945  -3.413  1.00  0.00     0.270 C 
HETATM   33  C7  UNL     1      10.704 -11.120  -3.694  1.00  0.00     0.050 C 
BRANCH  32  34
HETATM   34  N2  UNL     1      12.895 -10.373  -2.876  1.00  0.00    -0.067 N 
ATOM     35  H23 UNL     1      13.667  -9.860  -3.304  1.00  0.00     0.275 HD
ATOM     36  H22 UNL     1      13.007 -10.062  -1.911  1.00  0.00     0.275 HD
ATOM     37  H21 UNL     1      13.036 -11.380  -2.956  1.00  0.00     0.275 HD
ENDBRANCH  32  34
ENDBRANCH  29  32
ENDBRANCH   2  28
BRANCH   1  38
HETATM   38  O1  UNL     1       7.397  -7.723  -3.374  1.00  0.00    -0.356 OA
HETATM   39  C1  UNL     1       6.261  -8.437  -3.629  1.00  0.00     0.205 C 
ENDBRANCH   1  38
BRANCH   1  40
HETATM   40  O2  UNL     1       7.488  -8.857  -1.532  1.00  0.00    -0.356 OA
HETATM   41  C3  UNL     1       7.783  -9.420  -0.380  1.00  0.00     0.205 C 
ENDBRANCH   1  40
TORSDOF 12
ENDMDL
MODEL 4
REMARK VINA RESULT: -5.989328300      2.255      6.987
REMARK  12 active torsions:
REMARK  status: ('A' for Active; 'I' for Inactive)
REMARK    1  A    between atoms: O1_2  and  C2_3 
REMARK    2  A    between atoms: C2_3  and  O2_4 
REMARK    3  A    between atoms: C4_6  and  N1_7 
REMARK       I    between atoms: N1_7  and  C5_9 
REMARK    4  A    between atoms: C5_9  and  C6_11 
REMARK    5  A    between atoms: C6_11  and  N2_13 
REMARK    6  A    between atoms: C8_17  and  C9_18 
REMARK    7  A    between atoms: C9_18  and  O4_19 
REMARK    8  A    between atoms: C9_18  and  C10_21 
REMARK    9  A    between atoms: C10_21  and  O5_22 
REMARK   10  A    between atoms: C12_26  and  O6_27 
REMARK   11  A    between atoms: C14_30  and  O7_31 
REMARK   12  A    between atoms: C14_30  and  C15_33 
REMARK       I    between atoms: C15_33  and  N4_35 
ROOT
HETATM    1  C2  UNL     1       8.746  -8.832  -2.151  1.00  0.00     0.213 C 
HETATM    2  C4  UNL     1      10.146  -8.191  -1.977  1.00  0.00     0.201 C 
HETATM    3  C8  UNL     1       9.966  -7.084  -3.026  1.00  0.00     0.070 C 
HETATM    4  N3  UNL     1       8.697  -6.669  -2.924  1.00  0.00    -0.328 N 
HETATM    5  C11 UNL     1       7.915  -7.646  -2.102  1.00  0.00     0.181 C 
HETATM    6  C12 UNL     1       7.840  -6.818  -0.858  1.00  0.00     0.151 C 
HETATM    7  C13 UNL     1       7.361  -5.491  -1.495  1.00  0.00     0.105 C 
HETATM    8  C14 UNL     1       8.060  -5.483  -2.881  1.00  0.00     0.223 C 
ENDROOT
BRANCH   8   9
HETATM    9  O7  UNL     1       8.702  -4.265  -2.908  1.00  0.00    -0.363 OA
ATOM     10  H7  UNL     1       9.564  -4.113  -2.541  1.00  0.00     0.213 HD
ENDBRANCH   8   9
BRANCH   8  11
HETATM   11  C15 UNL     1       6.933  -5.395  -3.850  1.00  0.00     0.313 C 
HETATM   12  O8  UNL     1       6.218  -6.378  -4.190  1.00  0.00    -0.264 OA
HETATM   13  N4  UNL     1       6.598  -4.157  -4.453  1.00  0.00    -0.127 N 
HETATM   14  N5  UNL     1       5.564  -3.944  -5.409  1.00  0.00    -0.207 N 
HETATM   15  N8  UNL     1       7.148  -2.889  -4.260  1.00  0.00     0.020 NA
HETATM   16  N6  UNL     1       5.666  -2.766  -5.895  1.00  0.00    -0.212 N 
ATOM     17  H5  UNL     1       4.851  -4.627  -5.665  1.00  0.00     0.211 HD
HETATM   18  N7  UNL     1       6.740  -2.106  -5.329  1.00  0.00     0.010 NA
ATOM     19  H6  UNL     1       5.043  -2.370  -6.599  1.00  0.00     0.207 HD
ENDBRANCH   8  11
BRANCH   3  20
HETATM   20  C9  UNL     1      11.214  -6.337  -3.082  1.00  0.00     0.091 C 
BRANCH  20  21
HETATM   21  O4  UNL     1      11.329  -5.346  -4.062  1.00  0.00    -0.361 OA
ATOM     22  H4  UNL     1      11.810  -4.559  -3.836  1.00  0.00     0.217 HD
ENDBRANCH  20  21
BRANCH  20  23
HETATM   23  C10 UNL     1      11.800  -5.867  -1.765  1.00  0.00     0.230 C 
BRANCH  23  24
HETATM   24  O5  UNL     1      13.204  -6.072  -1.768  1.00  0.00    -0.394 OA
ATOM     25  H5  UNL     1      13.520  -6.131  -0.874  1.00  0.00     0.209 HD
ENDBRANCH  23  24
ENDBRANCH  20  23
ENDBRANCH   3  20
BRANCH   6  26
HETATM   26  O6  UNL     1       6.816  -7.146   0.012  1.00  0.00    -0.393 OA
ATOM     27  H6  UNL     1       6.903  -7.987   0.446  1.00  0.00     0.210 HD
ENDBRANCH   6  26
BRANCH   2  28
HETATM   28  N1  UNL     1      11.161  -9.099  -2.447  1.00  0.00    -0.344 N 
HETATM   29  C5  UNL     1      12.359  -9.379  -1.763  1.00  0.00     0.248 C 
HETATM   30  O3  UNL     1      12.588  -8.818  -0.667  1.00  0.00    -0.271 OA
ATOM     31  H1  UNL     1      11.001  -9.572  -3.336  1.00  0.00     0.163 HD
BRANCH  29  32
HETATM   32  C6  UNL     1      13.394 -10.315  -2.260  1.00  0.00     0.270 C 
HETATM   33  C7  UNL     1      13.609 -11.357  -1.171  1.00  0.00     0.050 C 
BRANCH  32  34
HETATM   34  N2  UNL     1      14.621  -9.648  -2.616  1.00  0.00    -0.067 N 
ATOM     35  H23 UNL     1      14.534  -8.638  -2.505  1.00  0.00     0.275 HD
ATOM     36  H22 UNL     1      15.349  -9.827  -1.925  1.00  0.00     0.275 HD
ATOM     37  H21 UNL     1      14.939  -9.888  -3.555  1.00  0.00     0.275 HD
ENDBRANCH  32  34
ENDBRANCH  29  32
ENDBRANCH   2  28
BRANCH   1  38
HETATM   38  O1  UNL     1       8.819  -9.211  -3.533  1.00  0.00    -0.356 OA
HETATM   39  C1  UNL     1       8.023 -10.280  -3.828  1.00  0.00     0.205 C 
ENDBRANCH   1  38
BRANCH   1  40
HETATM   40  O2  UNL     1       8.568  -9.953  -1.514  1.00  0.00    -0.356 OA
HETATM   41  C3  UNL     1       8.668 -10.245  -0.235  1.00  0.00     0.205 C 
ENDBRANCH   1  40
TORSDOF 12
ENDMDL
MODEL 5
REMARK VINA RESULT: -5.949726062      5.494      8.334
REMARK  12 active torsions:
REMARK  status: ('A' for Active; 'I' for Inactive)
REMARK    1  A    between atoms: O1_2  and  C2_3 
REMARK    2  A    between atoms: C2_3  and  O2_4 
REMARK    3  A    between atoms: C4_6  and  N1_7 
REMARK       I    between atoms: N1_7  and  C5_9 
REMARK    4  A    between atoms: C5_9  and  C6_11 
REMARK    5  A    between atoms: C6_11  and  N2_13 
REMARK    6  A    between atoms: C8_17  and  C9_18 
REMARK    7  A    between atoms: C9_18  and  O4_19 
REMARK    8  A    between atoms: C9_18  and  C10_21 
REMARK    9  A    between atoms: C10_21  and  O5_22 
REMARK   10  A    between atoms: C12_26  and  O6_27 
REMARK   11  A    between atoms: C14_30  and  O7_31 
REMARK   12  A    between atoms: C14_30  and  C15_33 
REMARK       I    between atoms: C15_33  and  N4_35 
ROOT
HETATM    1  C2  UNL     1       6.115   0.636  -1.311  1.00  0.00     0.213 C 
HETATM    2  C4  UNL     1       5.619   0.663  -2.779  1.00  0.00     0.201 C 
HETATM    3  C8  UNL     1       6.447  -0.533  -3.268  1.00  0.00     0.070 C 
HETATM    4  N3  UNL     1       6.451  -1.425  -2.270  1.00  0.00    -0.328 N 
HETATM    5  C11 UNL     1       5.956  -0.773  -1.016  1.00  0.00     0.181 C 
HETATM    6  C12 UNL     1       4.600  -1.403  -1.006  1.00  0.00     0.151 C 
HETATM    7  C13 UNL     1       5.029  -2.875  -1.225  1.00  0.00     0.105 C 
HETATM    8  C14 UNL     1       6.271  -2.754  -2.149  1.00  0.00     0.223 C 
ENDROOT
BRANCH   8   9
HETATM    9  O7  UNL     1       5.968  -3.587  -3.202  1.00  0.00    -0.363 OA
ATOM     10  H7  UNL     1       5.241  -3.446  -3.796  1.00  0.00     0.213 HD
ENDBRANCH   8   9
BRANCH   8  11
HETATM   11  C15 UNL     1       7.357  -3.418  -1.377  1.00  0.00     0.313 C 
HETATM   12  O8  UNL     1       7.340  -3.569  -0.124  1.00  0.00    -0.264 OA
HETATM   13  N4  UNL     1       8.500  -3.933  -2.039  1.00  0.00    -0.127 N 
HETATM   14  N5  UNL     1       9.614  -4.565  -1.417  1.00  0.00    -0.207 N 
HETATM   15  N8  UNL     1       8.802  -3.974  -3.400  1.00  0.00     0.020 NA
HETATM   16  N6  UNL     1      10.550  -4.722  -2.273  1.00  0.00    -0.212 N 
ATOM     17  H5  UNL     1       9.658  -4.849  -0.439  1.00  0.00     0.211 HD
HETATM   18  N7  UNL     1      10.162  -4.226  -3.503  1.00  0.00     0.010 NA
ATOM     19  H6  UNL     1      11.454  -5.151  -2.077  1.00  0.00     0.207 HD
ENDBRANCH   8  11
BRANCH   3  20
HETATM   20  C9  UNL     1       6.175  -0.693  -4.690  1.00  0.00     0.091 C 
BRANCH  20  21
HETATM   21  O4  UNL     1       6.975  -1.592  -5.402  1.00  0.00    -0.361 OA
ATOM     22  H4  UNL     1       6.951  -1.544  -6.351  1.00  0.00     0.217 HD
ENDBRANCH  20  21
BRANCH  20  23
HETATM   23  C10 UNL     1       4.723  -0.809  -5.109  1.00  0.00     0.230 C 
BRANCH  23  24
HETATM   24  O5  UNL     1       4.303  -2.160  -5.001  1.00  0.00    -0.394 OA
ATOM     25  H5  UNL     1       3.357  -2.206  -5.077  1.00  0.00     0.209 HD
ENDBRANCH  23  24
ENDBRANCH  20  23
ENDBRANCH   3  20
BRANCH   6  26
HETATM   26  O6  UNL     1       3.968  -1.432   0.225  1.00  0.00    -0.393 OA
ATOM     27  H6  UNL     1       3.713  -2.294   0.532  1.00  0.00     0.210 HD
ENDBRANCH   6  26
BRANCH   2  28
HETATM   28  N1  UNL     1       6.103   1.849  -3.438  1.00  0.00    -0.344 N 
HETATM   29  C5  UNL     1       5.283   2.812  -4.054  1.00  0.00     0.248 C 
HETATM   30  O3  UNL     1       4.040   2.658  -4.044  1.00  0.00    -0.271 OA
ATOM     31  H1  UNL     1       7.112   2.002  -3.459  1.00  0.00     0.163 HD
BRANCH  29  32
HETATM   32  C6  UNL     1       5.797   4.027  -4.728  1.00  0.00     0.270 C 
HETATM   33  C7  UNL     1       7.192   3.693  -5.238  1.00  0.00     0.050 C 
BRANCH  32  34
HETATM   34  N2  UNL     1       5.801   5.180  -3.865  1.00  0.00    -0.067 N 
ATOM     35  H23 UNL     1       5.223   5.022  -3.039  1.00  0.00     0.275 HD
ATOM     36  H22 UNL     1       6.708   5.295  -3.411  1.00  0.00     0.275 HD
ATOM     37  H21 UNL     1       5.523   6.034  -4.349  1.00  0.00     0.275 HD
ENDBRANCH  32  34
ENDBRANCH  29  32
ENDBRANCH   2  28
BRANCH   1  38
HETATM   38  O1  UNL     1       7.518   0.845  -1.523  1.00  0.00    -0.356 OA
HETATM   39  C1  UNL     1       8.229   0.863  -0.357  1.00  0.00     0.205 C 
ENDBRANCH   1  38
BRANCH   1  40
HETATM   40  O2  UNL     1       5.740   1.648  -0.582  1.00  0.00    -0.356 OA
HETATM   41  C3  UNL     1       4.542   2.092  -0.272  1.00  0.00     0.205 C 
ENDBRANCH   1  40
TORSDOF 12
ENDMDL
