MODEL 1
REMARK VINA RESULT: -6.841815712      0.000      0.000
REMARK  11 active torsions:
REMARK  status: ('A' for Active; 'I' for Inactive)
REMARK    1  A    between atoms: C3_4  and  C4_5 
REMARK    2  A    between atoms: C4_5  and  C5_6 
REMARK    3  A    between atoms: C4_5  and  N5_15 
REMARK    4  A    between atoms: C5_6  and  N3_10 
REMARK    5  A    between atoms: N3_10  and  N4_12 
REMARK    6  A    between atoms: C6_18  and  C7_19 
REMARK    7  A    between atoms: C7_19  and  N7_20 
REMARK    8  A    between atoms: C7_19  and  C8_24 
REMARK    9  A    between atoms: C11_29  and  N8_30 
REMARK   10  A    between atoms: N11_38  and  C14_39 
REMARK   11  A    between atoms: C14_39  and  O3_40 
ROOT
HETATM    1  N5  UNL     1      10.175  -9.017  -2.632  1.00  0.00    -0.271 N 
HETATM    2  N6  UNL     1      10.832  -8.076  -1.828  1.00  0.00    -0.297 N 
ATOM      3  H6  UNL     1      11.632  -8.296  -1.236  1.00  0.00     0.187 HD
HETATM    4  C6  UNL     1      10.306  -6.888  -1.923  1.00  0.00     0.084 A 
HETATM    5  C9  UNL     1       9.368  -7.158  -2.739  1.00  0.00     0.082 A 
HETATM    6  C10 UNL     1       9.167  -8.485  -3.301  1.00  0.00     0.113 A 
HETATM    7  C11 UNL     1       8.301  -8.894  -4.262  1.00  0.00     0.132 C 
HETATM    8  N9  UNL     1       7.172  -8.147  -4.992  1.00  0.00    -0.300 N 
ATOM      9  H9  UNL     1       6.727  -8.532  -5.826  1.00  0.00     0.171 HD
HETATM   10  C12 UNL     1       6.778  -6.900  -4.450  1.00  0.00     0.266 A 
HETATM   11  N10 UNL     1       7.554  -6.839  -3.761  1.00  0.00    -0.351 NA
HETATM   12  C13 UNL     1       8.312  -6.405  -2.815  1.00  0.00     0.205 A 
HETATM   13  N11 UNL     1       7.923  -5.286  -2.275  1.00  0.00    -0.251 N 
HETATM   14  C15 UNL     1       6.699  -4.836  -3.030  1.00  0.00     0.334 A 
HETATM   15  O4  UNL     1       6.285  -3.827  -2.673  1.00  0.00    -0.246 OA
HETATM   16  N12 UNL     1       6.159  -5.703  -4.133  1.00  0.00    -0.268 N 
ATOM     17  H12 UNL     1       5.331  -5.408  -4.650  1.00  0.00     0.174 HD
ENDROOT
BRANCH   1  18
HETATM   18  C4  UNL     1      10.475 -10.395  -2.789  1.00  0.00     0.212 C 
BRANCH  18  19
HETATM   19  C3  UNL     1      11.851 -10.721  -2.352  1.00  0.00     0.008 A 
HETATM   20  C2  UNL     1      12.955  -9.906  -2.519  1.00  0.00     0.120 A 
HETATM   21  N1  UNL     1      14.048 -10.493  -2.011  1.00  0.00    -0.307 N 
HETATM   22  C1  UNL     1      15.369  -9.938  -2.010  1.00  0.00     0.177 C 
HETATM   23  N13 UNL     1      13.699 -11.657  -1.521  1.00  0.00    -0.310 N 
HETATM   24  C16 UNL     1      12.379 -11.821  -1.711  1.00  0.00     0.118 A 
ATOM     25  H13 UNL     1      14.323 -12.326  -1.070  1.00  0.00     0.186 HD
ENDBRANCH  18  19
BRANCH  18  26
HETATM   26  C5  UNL     1       9.616 -11.020  -1.686  1.00  0.00     0.119 C 
HETATM   27  N2  UNL     1       9.568 -10.580  -0.495  1.00  0.00    -0.386 N 
ATOM     28  H22 UNL     1      10.145  -9.770  -0.267  1.00  0.00     0.157 HD
ATOM     29  H21 UNL     1       8.996 -10.996   0.240  1.00  0.00     0.157 HD
BRANCH  26  30
HETATM   30  N3  UNL     1       8.806 -12.158  -2.007  1.00  0.00    -0.294 N 
ATOM     31  H3  UNL     1       7.896 -12.245  -1.555  1.00  0.00     0.187 HD
BRANCH  30  32
HETATM   32  N4  UNL     1       9.193 -13.137  -2.891  1.00  0.00    -0.344 N 
ATOM     33  H42 UNL     1       9.978 -12.927  -3.507  1.00  0.00     0.176 HD
ATOM     34  H41 UNL     1       8.737 -14.048  -2.956  1.00  0.00     0.176 HD
ENDBRANCH  30  32
ENDBRANCH  26  30
ENDBRANCH  18  26
ENDBRANCH   1  18
BRANCH   4  35
HETATM   35  C7  UNL     1      10.867  -5.506  -1.729  1.00  0.00     0.335 C 
BRANCH  35  36
HETATM   36  N7  UNL     1      11.183  -4.698  -2.918  1.00  0.00    -0.060 N 
ATOM     37  H73 UNL     1      11.781  -5.243  -3.539  1.00  0.00     0.275 HD
ATOM     38  H72 UNL     1      10.341  -4.604  -3.486  1.00  0.00     0.275 HD
ATOM     39  H71 UNL     1      11.597  -3.775  -2.787  1.00  0.00     0.275 HD
ENDBRANCH  35  36
BRANCH  35  40
HETATM   40  C8  UNL     1      12.332  -5.945  -1.427  1.00  0.00     0.210 C 
HETATM   41  O1  UNL     1      13.051  -6.046  -2.425  1.00  0.00    -0.646 OA
HETATM   42  O2  UNL     1      12.716  -6.177  -0.176  1.00  0.00    -0.646 OA
ENDBRANCH  35  40
ENDBRANCH   4  35
BRANCH   7  43
HETATM   43  N8  UNL     1       8.423 -10.185  -4.725  1.00  0.00    -0.383 N 
ATOM     44  H82 UNL     1       7.877 -10.832  -4.157  1.00  0.00     0.157 HD
ATOM     45  H81 UNL     1       9.000 -10.340  -5.552  1.00  0.00     0.157 HD
ENDBRANCH   7  43
BRANCH  13  46
HETATM   46  C14 UNL     1       8.348  -5.015  -1.054  1.00  0.00     0.303 C 
BRANCH  46  47
HETATM   47  O3  UNL     1       7.118  -5.592  -0.317  1.00  0.00    -0.382 OA
ATOM     48  H3  UNL     1       6.752  -4.754  -0.057  1.00  0.00     0.211 HD
ENDBRANCH  46  47
ENDBRANCH  13  46
TORSDOF 11
ENDMDL
MODEL 2
REMARK VINA RESULT: -6.779946133      1.548      2.109
REMARK  11 active torsions:
REMARK  status: ('A' for Active; 'I' for Inactive)
REMARK    1  A    between atoms: C3_4  and  C4_5 
REMARK    2  A    between atoms: C4_5  and  C5_6 
REMARK    3  A    between atoms: C4_5  and  N5_15 
REMARK    4  A    between atoms: C5_6  and  N3_10 
REMARK    5  A    between atoms: N3_10  and  N4_12 
REMARK    6  A    between atoms: C6_18  and  C7_19 
REMARK    7  A    between atoms: C7_19  and  N7_20 
REMARK    8  A    between atoms: C7_19  and  C8_24 
REMARK    9  A    between atoms: C11_29  and  N8_30 
REMARK   10  A    between atoms: N11_38  and  C14_39 
REMARK   11  A    between atoms: C14_39  and  O3_40 
ROOT
HETATM    1  N5  UNL     1       9.403  -8.766  -2.420  1.00  0.00    -0.271 N 
HETATM    2  N6  UNL     1      10.383  -8.035  -1.735  1.00  0.00    -0.297 N 
ATOM      3  H6  UNL     1      11.130  -8.462  -1.187  1.00  0.00     0.187 HD
HETATM    4  C6  UNL     1      10.233  -6.748  -1.876  1.00  0.00     0.084 A 
HETATM    5  C9  UNL     1       9.188  -6.755  -2.601  1.00  0.00     0.082 A 
HETATM    6  C10 UNL     1       8.546  -7.981  -3.051  1.00  0.00     0.113 A 
HETATM    7  C11 UNL     1       7.514  -8.149  -3.915  1.00  0.00     0.132 C 
HETATM    8  N9  UNL     1       6.601  -7.127  -4.614  1.00  0.00    -0.300 N 
ATOM      9  H9  UNL     1       5.988  -7.395  -5.384  1.00  0.00     0.171 HD
HETATM   10  C12 UNL     1       6.653  -5.795  -4.136  1.00  0.00     0.266 A 
HETATM   11  N10 UNL     1       7.470  -5.943  -3.511  1.00  0.00    -0.351 NA
HETATM   12  C13 UNL     1       8.406  -5.719  -2.655  1.00  0.00     0.205 A 
HETATM   13  N11 UNL     1       8.423  -4.511  -2.170  1.00  0.00    -0.251 N 
HETATM   14  C15 UNL     1       7.330  -3.743  -2.865  1.00  0.00     0.334 A 
HETATM   15  O4  UNL     1       7.273  -2.640  -2.552  1.00  0.00    -0.246 OA
HETATM   16  N12 UNL     1       6.455  -4.453  -3.862  1.00  0.00    -0.268 N 
ATOM     17  H12 UNL     1       5.712  -3.942  -4.338  1.00  0.00     0.174 HD
ENDROOT
BRANCH   1  18
HETATM   18  C4  UNL     1       9.257 -10.175  -2.499  1.00  0.00     0.212 C 
BRANCH  18  19
HETATM   19  C3  UNL     1      10.368 -10.810  -3.242  1.00  0.00     0.008 A 
HETATM   20  C2  UNL     1      10.242 -11.889  -4.098  1.00  0.00     0.120 A 
HETATM   21  N1  UNL     1      11.435 -12.219  -4.611  1.00  0.00    -0.307 N 
HETATM   22  C1  UNL     1      11.682 -13.288  -5.532  1.00  0.00     0.177 C 
HETATM   23  N13 UNL     1      12.333 -11.397  -4.123  1.00  0.00    -0.310 N 
HETATM   24  C16 UNL     1      11.719 -10.536  -3.295  1.00  0.00     0.118 A 
ATOM     25  H13 UNL     1      13.331 -11.410  -4.335  1.00  0.00     0.186 HD
ENDBRANCH  18  19
BRANCH  18  26
HETATM   26  C5  UNL     1       9.540 -10.591  -1.053  1.00  0.00     0.119 C 
HETATM   27  N2  UNL     1      10.553 -11.271  -0.700  1.00  0.00    -0.386 N 
ATOM     28  H22 UNL     1      11.205 -11.561  -1.429  1.00  0.00     0.157 HD
ATOM     29  H21 UNL     1      10.742 -11.548   0.263  1.00  0.00     0.157 HD
BRANCH  26  30
HETATM   30  N3  UNL     1       8.624 -10.184  -0.029  1.00  0.00    -0.294 N 
ATOM     31  H3  UNL     1       8.198  -9.260  -0.101  1.00  0.00     0.187 HD
BRANCH  30  32
HETATM   32  N4  UNL     1       8.291 -10.974   1.046  1.00  0.00    -0.344 N 
ATOM     33  H42 UNL     1       8.478 -11.974   0.967  1.00  0.00     0.176 HD
ATOM     34  H41 UNL     1       7.872 -10.611   1.903  1.00  0.00     0.176 HD
ENDBRANCH  30  32
ENDBRANCH  26  30
ENDBRANCH  18  26
ENDBRANCH   1  18
BRANCH   4  35
HETATM   35  C7  UNL     1      11.200  -5.598  -1.822  1.00  0.00     0.335 C 
BRANCH  35  36
HETATM   36  N7  UNL     1      11.919  -5.221  -3.051  1.00  0.00    -0.060 N 
ATOM     37  H73 UNL     1      12.901  -5.479  -2.952  1.00  0.00     0.275 HD
ATOM     38  H72 UNL     1      11.628  -5.840  -3.807  1.00  0.00     0.275 HD
ATOM     39  H71 UNL     1      11.863  -4.255  -3.374  1.00  0.00     0.275 HD
ENDBRANCH  35  36
BRANCH  35  40
HETATM   40  C8  UNL     1      12.379  -6.380  -1.168  1.00  0.00     0.210 C 
HETATM   41  O1  UNL     1      12.630  -6.047  -0.006  1.00  0.00    -0.646 OA
HETATM   42  O2  UNL     1      13.022  -7.318  -1.855  1.00  0.00    -0.646 OA
ENDBRANCH  35  40
ENDBRANCH   4  35
BRANCH   7  43
HETATM   43  N8  UNL     1       7.199  -9.436  -4.292  1.00  0.00    -0.383 N 
ATOM     44  H82 UNL     1       8.035 -10.015  -4.356  1.00  0.00     0.157 HD
ATOM     45  H81 UNL     1       6.214  -9.659  -4.438  1.00  0.00     0.157 HD
ENDBRANCH   7  43
BRANCH  13  46
HETATM   46  C14 UNL     1       9.019  -4.327  -1.005  1.00  0.00     0.303 C 
BRANCH  46  47
HETATM   47  O3  UNL     1       7.738  -4.421  -0.145  1.00  0.00    -0.382 OA
ATOM     48  H3  UNL     1       7.523  -5.317  -0.379  1.00  0.00     0.211 HD
ENDBRANCH  46  47
ENDBRANCH  13  46
TORSDOF 11
ENDMDL
MODEL 3
REMARK VINA RESULT: -6.684144245      1.143      1.236
REMARK  11 active torsions:
REMARK  status: ('A' for Active; 'I' for Inactive)
REMARK    1  A    between atoms: C3_4  and  C4_5 
REMARK    2  A    between atoms: C4_5  and  C5_6 
REMARK    3  A    between atoms: C4_5  and  N5_15 
REMARK    4  A    between atoms: C5_6  and  N3_10 
REMARK    5  A    between atoms: N3_10  and  N4_12 
REMARK    6  A    between atoms: C6_18  and  C7_19 
REMARK    7  A    between atoms: C7_19  and  N7_20 
REMARK    8  A    between atoms: C7_19  and  C8_24 
REMARK    9  A    between atoms: C11_29  and  N8_30 
REMARK   10  A    between atoms: N11_38  and  C14_39 
REMARK   11  A    between atoms: C14_39  and  O3_40 
ROOT
HETATM    1  N5  UNL     1       9.345  -8.305  -2.812  1.00  0.00    -0.271 N 
HETATM    2  N6  UNL     1      10.228  -7.535  -2.043  1.00  0.00    -0.297 N 
ATOM      3  H6  UNL     1      11.068  -7.907  -1.600  1.00  0.00     0.187 HD
HETATM    4  C6  UNL     1       9.856  -6.289  -1.957  1.00  0.00     0.084 A 
HETATM    5  C9  UNL     1       8.785  -6.361  -2.639  1.00  0.00     0.082 A 
HETATM    6  C10 UNL     1       8.331  -7.591  -3.272  1.00  0.00     0.113 A 
HETATM    7  C11 UNL     1       7.293  -7.794  -4.120  1.00  0.00     0.132 C 
HETATM    8  N9  UNL     1       6.180  -6.848  -4.604  1.00  0.00    -0.300 N 
ATOM      9  H9  UNL     1       5.575  -7.090  -5.389  1.00  0.00     0.171 HD
HETATM   10  C12 UNL     1       6.036  -5.624  -3.907  1.00  0.00     0.266 A 
HETATM   11  N10 UNL     1       6.903  -5.727  -3.342  1.00  0.00    -0.351 NA
HETATM   12  C13 UNL     1       7.838  -5.484  -2.490  1.00  0.00     0.205 A 
HETATM   13  N11 UNL     1       7.681  -4.387  -1.806  1.00  0.00    -0.251 N 
HETATM   14  C15 UNL     1       6.434  -3.720  -2.324  1.00  0.00     0.334 A 
HETATM   15  O4  UNL     1       6.212  -2.711  -1.826  1.00  0.00    -0.246 OA
HETATM   16  N12 UNL     1       5.632  -4.401  -3.400  1.00  0.00    -0.268 N 
ATOM     17  H12 UNL     1       4.787  -3.958  -3.758  1.00  0.00     0.174 HD
ENDROOT
BRANCH   1  18
HETATM   18  C4  UNL     1       9.433  -9.685  -3.127  1.00  0.00     0.212 C 
BRANCH  18  19
HETATM   19  C3  UNL     1      10.821 -10.192  -3.030  1.00  0.00     0.008 A 
HETATM   20  C2  UNL     1      11.888  -9.498  -2.491  1.00  0.00     0.120 A 
HETATM   21  N1  UNL     1      13.003 -10.238  -2.553  1.00  0.00    -0.307 N 
HETATM   22  C1  UNL     1      14.298  -9.837  -2.089  1.00  0.00     0.177 C 
HETATM   23  N13 UNL     1      12.705 -11.386  -3.111  1.00  0.00    -0.310 N 
HETATM   24  C16 UNL     1      11.395 -11.388  -3.408  1.00  0.00     0.118 A 
ATOM     25  H13 UNL     1      13.357 -12.150  -3.290  1.00  0.00     0.186 HD
ENDBRANCH  18  19
BRANCH  18  26
HETATM   26  C5  UNL     1       8.759 -10.319  -1.907  1.00  0.00     0.119 C 
HETATM   27  N2  UNL     1       9.057 -10.029  -0.707  1.00  0.00    -0.386 N 
ATOM     28  H22 UNL     1       9.796  -9.341  -0.556  1.00  0.00     0.157 HD
ATOM     29  H21 UNL     1       8.609 -10.450   0.106  1.00  0.00     0.157 HD
BRANCH  26  30
HETATM   30  N3  UNL     1       7.723 -11.285  -2.118  1.00  0.00    -0.294 N 
ATOM     31  H3  UNL     1       6.919 -11.277  -1.491  1.00  0.00     0.187 HD
BRANCH  30  32
HETATM   32  N4  UNL     1       7.756 -12.223  -3.124  1.00  0.00    -0.344 N 
ATOM     33  H42 UNL     1       8.616 -12.294  -3.667  1.00  0.00     0.176 HD
ATOM     34  H41 UNL     1       6.972 -12.838  -3.345  1.00  0.00     0.176 HD
ENDBRANCH  30  32
ENDBRANCH  26  30
ENDBRANCH  18  26
ENDBRANCH   1  18
BRANCH   4  35
HETATM   35  C7  UNL     1      10.618  -5.011  -1.737  1.00  0.00     0.335 C 
BRANCH  35  36
HETATM   36  N7  UNL     1      10.956  -4.180  -2.905  1.00  0.00    -0.060 N 
ATOM     37  H73 UNL     1      11.728  -4.617  -3.409  1.00  0.00     0.275 HD
ATOM     38  H72 UNL     1      10.206  -4.253  -3.591  1.00  0.00     0.275 HD
ATOM     39  H71 UNL     1      11.174  -3.195  -2.758  1.00  0.00     0.275 HD
ENDBRANCH  35  36
BRANCH  35  40
HETATM   40  C8  UNL     1      12.024  -5.662  -1.577  1.00  0.00     0.210 C 
HETATM   41  O1  UNL     1      12.651  -5.793  -2.633  1.00  0.00    -0.646 OA
HETATM   42  O2  UNL     1      12.460  -6.027  -0.376  1.00  0.00    -0.646 OA
ENDBRANCH  35  40
ENDBRANCH   4  35
BRANCH   7  43
HETATM   43  N8  UNL     1       7.175  -9.037  -4.701  1.00  0.00    -0.383 N 
ATOM     44  H82 UNL     1       8.002  -9.263  -5.254  1.00  0.00     0.157 HD
ATOM     45  H81 UNL     1       6.329  -9.572  -4.509  1.00  0.00     0.157 HD
ENDBRANCH   7  43
BRANCH  13  46
HETATM   46  C14 UNL     1       8.308  -4.295  -0.646  1.00  0.00     0.303 C 
BRANCH  46  47
HETATM   47  O3  UNL     1       7.131  -4.802   0.220  1.00  0.00    -0.382 OA
ATOM     48  H3  UNL     1       7.263  -5.726   0.041  1.00  0.00     0.211 HD
ENDBRANCH  46  47
ENDBRANCH  13  46
TORSDOF 11
ENDMDL
MODEL 4
REMARK VINA RESULT: -6.525375992      1.663      2.206
REMARK  11 active torsions:
REMARK  status: ('A' for Active; 'I' for Inactive)
REMARK    1  A    between atoms: C3_4  and  C4_5 
REMARK    2  A    between atoms: C4_5  and  C5_6 
REMARK    3  A    between atoms: C4_5  and  N5_15 
REMARK    4  A    between atoms: C5_6  and  N3_10 
REMARK    5  A    between atoms: N3_10  and  N4_12 
REMARK    6  A    between atoms: C6_18  and  C7_19 
REMARK    7  A    between atoms: C7_19  and  N7_20 
REMARK    8  A    between atoms: C7_19  and  C8_24 
REMARK    9  A    between atoms: C11_29  and  N8_30 
REMARK   10  A    between atoms: N11_38  and  C14_39 
REMARK   11  A    between atoms: C14_39  and  O3_40 
ROOT
HETATM    1  N5  UNL     1       9.012  -8.207  -2.469  1.00  0.00    -0.271 N 
HETATM    2  N6  UNL     1       9.997  -7.482  -1.784  1.00  0.00    -0.297 N 
ATOM      3  H6  UNL     1      10.770  -7.914  -1.278  1.00  0.00     0.187 HD
HETATM    4  C6  UNL     1       9.815  -6.195  -1.866  1.00  0.00     0.084 A 
HETATM    5  C9  UNL     1       8.747  -6.196  -2.557  1.00  0.00     0.082 A 
HETATM    6  C10 UNL     1       8.118  -7.417  -3.039  1.00  0.00     0.113 A 
HETATM    7  C11 UNL     1       7.064  -7.573  -3.877  1.00  0.00     0.132 C 
HETATM    8  N9  UNL     1       6.107  -6.544  -4.503  1.00  0.00    -0.300 N 
ATOM      9  H9  UNL     1       5.475  -6.794  -5.265  1.00  0.00     0.171 HD
HETATM   10  C12 UNL     1       6.144  -5.233  -3.971  1.00  0.00     0.266 A 
HETATM   11  N10 UNL     1       6.984  -5.387  -3.378  1.00  0.00    -0.351 NA
HETATM   12  C13 UNL     1       7.942  -5.178  -2.543  1.00  0.00     0.205 A 
HETATM   13  N11 UNL     1       7.947  -3.990  -2.008  1.00  0.00    -0.251 N 
HETATM   14  C15 UNL     1       6.815  -3.220  -2.636  1.00  0.00     0.334 A 
HETATM   15  O4  UNL     1       6.744  -2.133  -2.275  1.00  0.00    -0.246 OA
HETATM   16  N12 UNL     1       5.925  -3.908  -3.634  1.00  0.00    -0.268 N 
ATOM     17  H12 UNL     1       5.156  -3.395  -4.065  1.00  0.00     0.174 HD
ENDROOT
BRANCH   1  18
HETATM   18  C4  UNL     1       8.895  -9.614  -2.603  1.00  0.00     0.212 C 
BRANCH  18  19
HETATM   19  C3  UNL     1      10.088 -10.216  -3.241  1.00  0.00     0.008 A 
HETATM   20  C2  UNL     1      10.063 -11.199  -4.212  1.00  0.00     0.120 A 
HETATM   21  N1  UNL     1      11.311 -11.522  -4.580  1.00  0.00    -0.307 N 
HETATM   22  C1  UNL     1      11.665 -12.503  -5.562  1.00  0.00     0.177 C 
HETATM   23  N13 UNL     1      12.147 -10.788  -3.885  1.00  0.00    -0.310 N 
HETATM   24  C16 UNL     1      11.438  -9.989  -3.071  1.00  0.00     0.118 A 
ATOM     25  H13 UNL     1      13.165 -10.817  -3.953  1.00  0.00     0.186 HD
ENDBRANCH  18  19
BRANCH  18  26
HETATM   26  C5  UNL     1       9.028 -10.070  -1.147  1.00  0.00     0.119 C 
HETATM   27  N2  UNL     1      10.000 -10.761  -0.710  1.00  0.00    -0.386 N 
ATOM     28  H22 UNL     1      10.724 -11.032  -1.376  1.00  0.00     0.157 HD
ATOM     29  H21 UNL     1      10.088 -11.065   0.259  1.00  0.00     0.157 HD
BRANCH  26  30
HETATM   30  N3  UNL     1       8.010  -9.691  -0.213  1.00  0.00    -0.294 N 
ATOM     31  H3  UNL     1       8.295  -9.234   0.653  1.00  0.00     0.187 HD
BRANCH  30  32
HETATM   32  N4  UNL     1       6.669  -9.910  -0.424  1.00  0.00    -0.344 N 
ATOM     33  H42 UNL     1       6.343  -9.919  -1.390  1.00  0.00     0.176 HD
ATOM     34  H41 UNL     1       5.999 -10.062   0.331  1.00  0.00     0.176 HD
ENDBRANCH  30  32
ENDBRANCH  26  30
ENDBRANCH  18  26
ENDBRANCH   1  18
BRANCH   4  35
HETATM   35  C7  UNL     1      10.757  -5.026  -1.793  1.00  0.00     0.335 C 
BRANCH  35  36
HETATM   36  N7  UNL     1      11.180  -4.379  -3.047  1.00  0.00    -0.060 N 
ATOM     37  H73 UNL     1      12.131  -4.029  -2.934  1.00  0.00     0.275 HD
ATOM     38  H72 UNL     1      11.316  -5.096  -3.759  1.00  0.00     0.275 HD
ATOM     39  H71 UNL     1      10.599  -3.636  -3.434  1.00  0.00     0.275 HD
ENDBRANCH  35  36
BRANCH  35  40
HETATM   40  C8  UNL     1      12.060  -5.854  -1.581  1.00  0.00     0.210 C 
HETATM   41  O1  UNL     1      12.617  -6.208  -2.625  1.00  0.00    -0.646 OA
HETATM   42  O2  UNL     1      12.487  -6.126  -0.352  1.00  0.00    -0.646 OA
ENDBRANCH  35  40
ENDBRANCH   4  35
BRANCH   7  43
HETATM   43  N8  UNL     1       6.765  -8.849  -4.299  1.00  0.00    -0.383 N 
ATOM     44  H82 UNL     1       5.771  -9.049  -4.190  1.00  0.00     0.157 HD
ATOM     45  H81 UNL     1       7.527  -9.417  -4.671  1.00  0.00     0.157 HD
ENDBRANCH   7  43
BRANCH  13  46
HETATM   46  C14 UNL     1       8.576  -3.842  -0.855  1.00  0.00     0.303 C 
BRANCH  46  47
HETATM   47  O3  UNL     1       7.370  -4.208   0.041  1.00  0.00    -0.382 OA
ATOM     48  H3  UNL     1       7.878  -4.410   0.818  1.00  0.00     0.211 HD
ENDBRANCH  46  47
ENDBRANCH  13  46
TORSDOF 11
ENDMDL
MODEL 5
REMARK VINA RESULT: -6.412872109      1.005      1.320
REMARK  11 active torsions:
REMARK  status: ('A' for Active; 'I' for Inactive)
REMARK    1  A    between atoms: C3_4  and  C4_5 
REMARK    2  A    between atoms: C4_5  and  C5_6 
REMARK    3  A    between atoms: C4_5  and  N5_15 
REMARK    4  A    between atoms: C5_6  and  N3_10 
REMARK    5  A    between atoms: N3_10  and  N4_12 
REMARK    6  A    between atoms: C6_18  and  C7_19 
REMARK    7  A    between atoms: C7_19  and  N7_20 
REMARK    8  A    between atoms: C7_19  and  C8_24 
REMARK    9  A    between atoms: C11_29  and  N8_30 
REMARK   10  A    between atoms: N11_38  and  C14_39 
REMARK   11  A    between atoms: C14_39  and  O3_40 
ROOT
HETATM    1  N5  UNL     1       9.563  -8.611  -2.585  1.00  0.00    -0.271 N 
HETATM    2  N6  UNL     1      10.415  -7.769  -1.856  1.00  0.00    -0.297 N 
ATOM      3  H6  UNL     1      11.254  -8.091  -1.373  1.00  0.00     0.187 HD
HETATM    4  C6  UNL     1      10.015  -6.530  -1.864  1.00  0.00     0.084 A 
HETATM    5  C9  UNL     1       8.959  -6.673  -2.557  1.00  0.00     0.082 A 
HETATM    6  C10 UNL     1       8.544  -7.953  -3.111  1.00  0.00     0.113 A 
HETATM    7  C11 UNL     1       7.526  -8.238  -3.961  1.00  0.00     0.132 C 
HETATM    8  N9  UNL     1       6.404  -7.353  -4.529  1.00  0.00    -0.300 N 
ATOM      9  H9  UNL     1       5.819  -7.663  -5.306  1.00  0.00     0.171 HD
HETATM   10  C12 UNL     1       6.221  -6.088  -3.922  1.00  0.00     0.266 A 
HETATM   11  N10 UNL     1       7.078  -6.131  -3.336  1.00  0.00    -0.351 NA
HETATM   12  C13 UNL     1       7.992  -5.809  -2.487  1.00  0.00     0.205 A 
HETATM   13  N11 UNL     1       7.798  -4.671  -1.884  1.00  0.00    -0.251 N 
HETATM   14  C15 UNL     1       6.547  -4.070  -2.470  1.00  0.00     0.334 A 
HETATM   15  O4  UNL     1       6.294  -3.034  -2.047  1.00  0.00    -0.246 OA
HETATM   16  N12 UNL     1       5.781  -4.841  -3.509  1.00  0.00    -0.268 N 
ATOM     17  H12 UNL     1       4.933  -4.443  -3.912  1.00  0.00     0.174 HD
ENDROOT
BRANCH   1  18
HETATM   18  C4  UNL     1       9.687 -10.007  -2.801  1.00  0.00     0.212 C 
BRANCH  18  19
HETATM   19  C3  UNL     1      11.069 -10.487  -2.573  1.00  0.00     0.008 A 
HETATM   20  C2  UNL     1      11.423 -11.529  -1.736  1.00  0.00     0.120 A 
HETATM   21  N1  UNL     1      12.751 -11.711  -1.757  1.00  0.00    -0.307 N 
HETATM   22  C1  UNL     1      13.470 -12.700  -1.010  1.00  0.00     0.177 C 
HETATM   23  N13 UNL     1      13.274 -10.829  -2.574  1.00  0.00    -0.310 N 
HETATM   24  C16 UNL     1      12.283 -10.079  -3.083  1.00  0.00     0.118 A 
ATOM     25  H13 UNL     1      14.267 -10.730  -2.789  1.00  0.00     0.186 HD
ENDBRANCH  18  19
BRANCH  18  26
HETATM   26  C5  UNL     1       8.934 -10.569  -1.592  1.00  0.00     0.119 C 
HETATM   27  N2  UNL     1       9.099 -10.155  -0.403  1.00  0.00    -0.386 N 
ATOM     28  H22 UNL     1       9.782  -9.411  -0.252  1.00  0.00     0.157 HD
ATOM     29  H21 UNL     1       8.598 -10.529   0.403  1.00  0.00     0.157 HD
BRANCH  26  30
HETATM   30  N3  UNL     1       7.976 -11.614  -1.803  1.00  0.00    -0.294 N 
ATOM     31  H3  UNL     1       7.155 -11.647  -1.199  1.00  0.00     0.187 HD
BRANCH  30  32
HETATM   32  N4  UNL     1       8.105 -12.574  -2.780  1.00  0.00    -0.344 N 
ATOM     33  H42 UNL     1       8.010 -12.270  -3.749  1.00  0.00     0.176 HD
ATOM     34  H41 UNL     1       8.290 -13.557  -2.580  1.00  0.00     0.176 HD
ENDBRANCH  30  32
ENDBRANCH  26  30
ENDBRANCH  18  26
ENDBRANCH   1  18
BRANCH   4  35
HETATM   35  C7  UNL     1      10.745  -5.223  -1.720  1.00  0.00     0.335 C 
BRANCH  35  36
HETATM   36  N7  UNL     1      11.079  -4.462  -2.936  1.00  0.00    -0.060 N 
ATOM     37  H73 UNL     1      11.947  -4.827  -3.326  1.00  0.00     0.275 HD
ATOM     38  H72 UNL     1      10.414  -4.705  -3.670  1.00  0.00     0.275 HD
ATOM     39  H71 UNL     1      11.146  -3.446  -2.875  1.00  0.00     0.275 HD
ENDBRANCH  35  36
BRANCH  35  40
HETATM   40  C8  UNL     1      12.164  -5.829  -1.502  1.00  0.00     0.210 C 
HETATM   41  O1  UNL     1      12.454  -6.041  -0.321  1.00  0.00    -0.646 OA
HETATM   42  O2  UNL     1      12.953  -6.075  -2.543  1.00  0.00    -0.646 OA
ENDBRANCH  35  40
ENDBRANCH   4  35
BRANCH   7  43
HETATM   43  N8  UNL     1       7.446  -9.521  -4.456  1.00  0.00    -0.383 N 
ATOM     44  H82 UNL     1       7.309 -10.197  -3.706  1.00  0.00     0.157 HD
ATOM     45  H81 UNL     1       7.510  -9.643  -5.467  1.00  0.00     0.157 HD
ENDBRANCH   7  43
BRANCH  13  46
HETATM   46  C14 UNL     1       8.400  -4.484  -0.722  1.00  0.00     0.303 C 
BRANCH  46  47
HETATM   47  O3  UNL     1       7.195  -4.891   0.157  1.00  0.00    -0.382 OA
ATOM     48  H3  UNL     1       7.212  -5.814  -0.066  1.00  0.00     0.211 HD
ENDBRANCH  46  47
ENDBRANCH  13  46
TORSDOF 11
ENDMDL
