MODEL 1
REMARK VINA RESULT: -8.057103113      0.000      0.000
REMARK  3 active torsions:
REMARK  status: ('A' for Active; 'I' for Inactive)
REMARK    1  A    between atoms: N1_2  and  C3_4 
REMARK    2  A    between atoms: C4_7  and  C5_8 
REMARK    3  A    between atoms: C6_11  and  C7_12 
ROOT
HETATM    1  C3  UNL     1       4.520  13.733 -43.737  1.00  0.00     0.113 A 
HETATM    2  N2  UNL     1       4.132  14.392 -42.631  1.00  0.00    -0.326 N 
ATOM      3  H2  UNL     1       3.814  13.850 -41.828  1.00  0.00     0.169 HD
HETATM    4  C4  UNL     1       4.143  15.726 -42.535  1.00  0.00     0.136 A 
HETATM    5  N5  UNL     1       4.565  16.397 -43.605  1.00  0.00    -0.343 N 
ATOM      6  H5  UNL     1       4.585  17.416 -43.558  1.00  0.00     0.167 HD
HETATM    7  C15 UNL     1       4.976  15.793 -44.764  1.00  0.00     0.031 A 
HETATM    8  C16 UNL     1       4.960  14.471 -44.849  1.00  0.00     0.018 A 
HETATM    9  C17 UNL     1       5.413  13.865 -46.120  1.00  0.00     0.118 C 
HETATM   10  S1  UNL     1       5.407  15.286 -47.254  1.00  0.00    -0.158 SA
HETATM   11  C18 UNL     1       5.443  16.548 -45.942  1.00  0.00     0.132 C 
ENDROOT
BRANCH   4  12
HETATM   12  C5  UNL     1       3.719  16.436 -41.329  1.00  0.00     0.101 A 
HETATM   13  N3  UNL     1       4.467  17.314 -40.637  1.00  0.00    -0.341 N 
HETATM   14  C6  UNL     1       3.781  17.783 -39.585  1.00  0.00     0.088 A 
ATOM     15  H3  UNL     1       5.421  17.585 -40.879  1.00  0.00     0.167 HD
HETATM   16  N4  UNL     1       2.566  17.180 -39.621  1.00  0.00    -0.338 N 
HETATM   17  C10 UNL     1       2.513  16.367 -40.664  1.00  0.00     0.043 A 
HETATM   18  C14 UNL     1       1.428  17.330 -38.706  1.00  0.00     0.130 C 
HETATM   19  C11 UNL     1       1.335  15.556 -40.996  1.00  0.00     0.060 C 
HETATM   20  C12 UNL     1       0.118  15.840 -40.175  1.00  0.00     0.008 C 
HETATM   21  C13 UNL     1       0.158  17.203 -39.521  1.00  0.00     0.021 C 
BRANCH  14  22
HETATM   22  C7  UNL     1       4.210  18.760 -38.559  1.00  0.00     0.054 A 
HETATM   23  C8  UNL     1       3.709  20.161 -38.609  1.00  0.00     0.013 A 
HETATM   24  C9  UNL     1       5.076  19.932 -39.097  1.00  0.00     0.013 A 
ENDBRANCH  14  22
ENDBRANCH   4  12
BRANCH   1  25
HETATM   25  N1  UNL     1       4.482  12.296 -43.772  1.00  0.00    -0.375 N 
HETATM   26  C1  UNL     1       5.560  11.495 -43.226  1.00  0.00     0.150 C 
HETATM   27  C2  UNL     1       3.356  11.598 -44.361  1.00  0.00     0.150 C 
ENDBRANCH   1  25
TORSDOF 3
ENDMDL
MODEL 2
REMARK VINA RESULT: -7.982844855      1.412      2.523
REMARK  3 active torsions:
REMARK  status: ('A' for Active; 'I' for Inactive)
REMARK    1  A    between atoms: N1_2  and  C3_4 
REMARK    2  A    between atoms: C4_7  and  C5_8 
REMARK    3  A    between atoms: C6_11  and  C7_12 
ROOT
HETATM    1  C3  UNL     1       4.337  15.070 -44.420  1.00  0.00     0.113 A 
HETATM    2  N2  UNL     1       4.023  15.913 -43.421  1.00  0.00    -0.326 N 
ATOM      3  H2  UNL     1       3.785  16.877 -43.654  1.00  0.00     0.169 HD
HETATM    4  C4  UNL     1       4.007  15.547 -42.134  1.00  0.00     0.136 A 
HETATM    5  N5  UNL     1       4.323  14.282 -41.871  1.00  0.00    -0.343 N 
ATOM      6  H5  UNL     1       4.318  13.976 -40.898  1.00  0.00     0.167 HD
HETATM    7  C15 UNL     1       4.653  13.367 -42.837  1.00  0.00     0.031 A 
HETATM    8  C16 UNL     1       4.665  13.740 -44.108  1.00  0.00     0.018 A 
HETATM    9  C17 UNL     1       5.027  12.717 -45.113  1.00  0.00     0.118 C 
HETATM   10  S1  UNL     1       5.753  11.403 -44.090  1.00  0.00    -0.158 SA
HETATM   11  C18 UNL     1       4.999  11.966 -42.532  1.00  0.00     0.132 C 
ENDROOT
BRANCH   4  12
HETATM   12  C5  UNL     1       3.666  16.471 -41.053  1.00  0.00     0.101 A 
HETATM   13  N3  UNL     1       4.512  17.344 -40.477  1.00  0.00    -0.341 N 
HETATM   14  C6  UNL     1       3.883  18.040 -39.519  1.00  0.00     0.088 A 
ATOM     15  H3  UNL     1       5.493  17.459 -40.732  1.00  0.00     0.167 HD
HETATM   16  N4  UNL     1       2.603  17.589 -39.497  1.00  0.00    -0.338 N 
HETATM   17  C10 UNL     1       2.457  16.645 -40.413  1.00  0.00     0.043 A 
HETATM   18  C14 UNL     1       1.486  18.006 -38.640  1.00  0.00     0.130 C 
HETATM   19  C11 UNL     1       1.190  15.943 -40.653  1.00  0.00     0.060 C 
HETATM   20  C12 UNL     1       0.013  16.487 -39.910  1.00  0.00     0.008 C 
HETATM   21  C13 UNL     1       0.215  17.916 -39.458  1.00  0.00     0.021 C 
BRANCH  14  22
HETATM   22  C7  UNL     1       4.422  19.097 -38.635  1.00  0.00     0.054 A 
HETATM   23  C8  UNL     1       3.970  20.506 -38.797  1.00  0.00     0.013 A 
HETATM   24  C9  UNL     1       5.287  20.169 -39.352  1.00  0.00     0.013 A 
ENDBRANCH  14  22
ENDBRANCH   4  12
BRANCH   1  25
HETATM   25  N1  UNL     1       4.333  15.530 -45.782  1.00  0.00    -0.375 N 
HETATM   26  C1  UNL     1       5.521  16.090 -46.396  1.00  0.00     0.150 C 
HETATM   27  C2  UNL     1       3.132  15.449 -46.589  1.00  0.00     0.150 C 
ENDBRANCH   1  25
TORSDOF 3
ENDMDL
MODEL 3
REMARK VINA RESULT: -7.865853689      1.930      2.646
REMARK  3 active torsions:
REMARK  status: ('A' for Active; 'I' for Inactive)
REMARK    1  A    between atoms: N1_2  and  C3_4 
REMARK    2  A    between atoms: C4_7  and  C5_8 
REMARK    3  A    between atoms: C6_11  and  C7_12 
ROOT
HETATM    1  C3  UNL     1       2.923  14.066 -43.727  1.00  0.00     0.113 A 
HETATM    2  N2  UNL     1       2.805  15.072 -42.843  1.00  0.00    -0.326 N 
ATOM      3  H2  UNL     1       2.123  15.807 -43.030  1.00  0.00     0.169 HD
HETATM    4  C4  UNL     1       3.540  15.155 -41.729  1.00  0.00     0.136 A 
HETATM    5  N5  UNL     1       4.418  14.177 -41.520  1.00  0.00    -0.343 N 
ATOM      6  H5  UNL     1       4.992  14.215 -40.677  1.00  0.00     0.167 HD
HETATM    7  C15 UNL     1       4.594  13.121 -42.376  1.00  0.00     0.031 A 
HETATM    8  C16 UNL     1       3.860  13.049 -43.477  1.00  0.00     0.018 A 
HETATM    9  C17 UNL     1       4.085  11.890 -44.370  1.00  0.00     0.118 C 
HETATM   10  S1  UNL     1       5.662  11.226 -43.758  1.00  0.00    -0.158 SA
HETATM   11  C18 UNL     1       5.570  12.042 -42.133  1.00  0.00     0.132 C 
ENDROOT
BRANCH   4  12
HETATM   12  C5  UNL     1       3.406  16.253 -40.772  1.00  0.00     0.101 A 
HETATM   13  N3  UNL     1       4.418  17.007 -40.305  1.00  0.00    -0.341 N 
HETATM   14  C6  UNL     1       3.955  17.926 -39.444  1.00  0.00     0.088 A 
ATOM     15  H3  UNL     1       5.397  16.897 -40.569  1.00  0.00     0.167 HD
HETATM   16  N4  UNL     1       2.613  17.739 -39.372  1.00  0.00    -0.338 N 
HETATM   17  C10 UNL     1       2.268  16.737 -40.164  1.00  0.00     0.043 A 
HETATM   18  C14 UNL     1       1.616  18.469 -38.579  1.00  0.00     0.130 C 
HETATM   19  C11 UNL     1       0.884  16.271 -40.321  1.00  0.00     0.060 C 
HETATM   20  C12 UNL     1      -0.150  17.122 -39.656  1.00  0.00     0.008 C 
HETATM   21  C13 UNL     1       0.335  18.529 -39.384  1.00  0.00     0.021 C 
BRANCH  14  22
HETATM   22  C7  UNL     1       4.707  18.958 -38.696  1.00  0.00     0.054 A 
HETATM   23  C8  UNL     1       4.593  20.390 -39.084  1.00  0.00     0.013 A 
HETATM   24  C9  UNL     1       5.807  19.685 -39.516  1.00  0.00     0.013 A 
ENDBRANCH  14  22
ENDBRANCH   4  12
BRANCH   1  25
HETATM   25  N1  UNL     1       2.101  14.039 -44.905  1.00  0.00    -0.375 N 
HETATM   26  C1  UNL     1       0.878  13.261 -44.960  1.00  0.00     0.150 C 
HETATM   27  C2  UNL     1       2.471  14.795 -46.086  1.00  0.00     0.150 C 
ENDBRANCH   1  25
TORSDOF 3
ENDMDL
MODEL 4
REMARK VINA RESULT: -7.797203636      0.744      1.027
REMARK  3 active torsions:
REMARK  status: ('A' for Active; 'I' for Inactive)
REMARK    1  A    between atoms: N1_2  and  C3_4 
REMARK    2  A    between atoms: C4_7  and  C5_8 
REMARK    3  A    between atoms: C6_11  and  C7_12 
ROOT
HETATM    1  C3  UNL     1       4.220  13.285 -43.942  1.00  0.00     0.113 A 
HETATM    2  N2  UNL     1       3.993  13.948 -42.795  1.00  0.00    -0.326 N 
ATOM      3  H2  UNL     1       3.957  13.417 -41.925  1.00  0.00     0.169 HD
HETATM    4  C4  UNL     1       3.813  15.272 -42.740  1.00  0.00     0.136 A 
HETATM    5  N5  UNL     1       3.868  15.929 -43.896  1.00  0.00    -0.343 N 
ATOM      6  H5  UNL     1       3.735  16.941 -43.883  1.00  0.00     0.167 HD
HETATM    7  C15 UNL     1       4.095  15.321 -45.103  1.00  0.00     0.031 A 
HETATM    8  C16 UNL     1       4.272  14.008 -45.146  1.00  0.00     0.018 A 
HETATM    9  C17 UNL     1       4.514  13.398 -46.471  1.00  0.00     0.118 C 
HETATM   10  S1  UNL     1       4.024  14.727 -47.609  1.00  0.00    -0.158 SA
HETATM   11  C18 UNL     1       4.155  16.061 -46.377  1.00  0.00     0.132 C 
ENDROOT
BRANCH   4  12
HETATM   12  C5  UNL     1       3.566  15.986 -41.487  1.00  0.00     0.101 A 
HETATM   13  N3  UNL     1       4.475  16.713 -40.813  1.00  0.00    -0.341 N 
HETATM   14  C6  UNL     1       3.925  17.234 -39.706  1.00  0.00     0.088 A 
ATOM     15  H3  UNL     1       5.444  16.850 -41.102  1.00  0.00     0.167 HD
HETATM   16  N4  UNL     1       2.633  16.819 -39.689  1.00  0.00    -0.338 N 
HETATM   17  C10 UNL     1       2.402  16.067 -40.753  1.00  0.00     0.043 A 
HETATM   18  C14 UNL     1       1.582  17.097 -38.702  1.00  0.00     0.130 C 
HETATM   19  C11 UNL     1       1.100  15.454 -41.041  1.00  0.00     0.060 C 
HETATM   20  C12 UNL     1      -0.014  15.879 -40.138  1.00  0.00     0.008 C 
HETATM   21  C13 UNL     1       0.265  17.193 -39.442  1.00  0.00     0.021 C 
BRANCH  14  22
HETATM   22  C7  UNL     1       4.551  18.094 -38.676  1.00  0.00     0.054 A 
HETATM   23  C8  UNL     1       4.199  19.537 -38.597  1.00  0.00     0.013 A 
HETATM   24  C9  UNL     1       5.481  19.206 -39.232  1.00  0.00     0.013 A 
ENDBRANCH  14  22
ENDBRANCH   4  12
BRANCH   1  25
HETATM   25  N1  UNL     1       4.404  11.859 -43.929  1.00  0.00    -0.375 N 
HETATM   26  C1  UNL     1       3.347  10.953 -44.333  1.00  0.00     0.150 C 
HETATM   27  C2  UNL     1       5.665  11.279 -43.508  1.00  0.00     0.150 C 
ENDBRANCH   1  25
TORSDOF 3
ENDMDL
MODEL 5
REMARK VINA RESULT: -7.462442442      2.062      2.787
REMARK  3 active torsions:
REMARK  status: ('A' for Active; 'I' for Inactive)
REMARK    1  A    between atoms: N1_2  and  C3_4 
REMARK    2  A    between atoms: C4_7  and  C5_8 
REMARK    3  A    between atoms: C6_11  and  C7_12 
ROOT
HETATM    1  C3  UNL     1       2.927  14.011 -43.815  1.00  0.00     0.113 A 
HETATM    2  N2  UNL     1       2.844  14.811 -42.737  1.00  0.00    -0.326 N 
ATOM      3  H2  UNL     1       2.172  15.578 -42.752  1.00  0.00     0.169 HD
HETATM    4  C4  UNL     1       3.600  14.648 -41.647  1.00  0.00     0.136 A 
HETATM    5  N5  UNL     1       4.464  13.635 -41.667  1.00  0.00    -0.343 N 
ATOM      6  H5  UNL     1       5.054  13.488 -40.847  1.00  0.00     0.167 HD
HETATM    7  C15 UNL     1       4.604  12.780 -42.729  1.00  0.00     0.031 A 
HETATM    8  C16 UNL     1       3.849  12.951 -43.804  1.00  0.00     0.018 A 
HETATM    9  C17 UNL     1       4.037  12.002 -44.924  1.00  0.00     0.118 C 
HETATM   10  S1  UNL     1       5.612  11.202 -44.499  1.00  0.00    -0.158 SA
HETATM   11  C18 UNL     1       5.565  11.661 -42.738  1.00  0.00     0.132 C 
ENDROOT
BRANCH   4  12
HETATM   12  C5  UNL     1       3.504  15.523 -40.479  1.00  0.00     0.101 A 
HETATM   13  N3  UNL     1       4.183  16.672 -40.308  1.00  0.00    -0.341 N 
HETATM   14  C6  UNL     1       3.866  17.230 -39.130  1.00  0.00     0.088 A 
ATOM     15  H3  UNL     1       4.844  17.064 -40.979  1.00  0.00     0.167 HD
HETATM   16  N4  UNL     1       2.961  16.403 -38.548  1.00  0.00    -0.338 N 
HETATM   17  C10 UNL     1       2.733  15.372 -39.346  1.00  0.00     0.043 A 
HETATM   18  C14 UNL     1       2.285  16.533 -37.251  1.00  0.00     0.130 C 
HETATM   19  C11 UNL     1       1.802  14.286 -39.016  1.00  0.00     0.060 C 
HETATM   20  C12 UNL     1       0.983  14.505 -37.785  1.00  0.00     0.008 C 
HETATM   21  C13 UNL     1       0.890  15.964 -37.395  1.00  0.00     0.021 C 
BRANCH  14  22
HETATM   22  C7  UNL     1       4.368  18.488 -38.535  1.00  0.00     0.054 A 
HETATM   23  C8  UNL     1       3.504  19.699 -38.514  1.00  0.00     0.013 A 
HETATM   24  C9  UNL     1       4.554  19.656 -39.541  1.00  0.00     0.013 A 
ENDBRANCH  14  22
ENDBRANCH   4  12
BRANCH   1  25
HETATM   25  N1  UNL     1       2.083  14.243 -44.955  1.00  0.00    -0.375 N 
HETATM   26  C1  UNL     1       2.441  15.202 -45.982  1.00  0.00     0.150 C 
HETATM   27  C2  UNL     1       0.835  13.520 -45.114  1.00  0.00     0.150 C 
ENDBRANCH   1  25
TORSDOF 3
ENDMDL
