MODEL 1
REMARK VINA RESULT: -7.884171432      0.000      0.000
REMARK  3 active torsions:
REMARK  status: ('A' for Active; 'I' for Inactive)
REMARK    1  A    between atoms: C4_9  and  C5_10 
REMARK    2  A    between atoms: C5_10  and  C6_11 
REMARK    3  A    between atoms: C11_16  and  N3_17 
ROOT
HETATM    1  C1  UNL     1       5.157  12.671 -44.445  1.00  0.00     0.091 C 
HETATM    2  C2  UNL     1       5.245  12.650 -42.968  1.00  0.00     0.102 A 
HETATM    3  N1  UNL     1       5.462  11.488 -42.278  1.00  0.00    -0.287 N 
ATOM      4  H1  UNL     1       5.580  10.564 -42.695  1.00  0.00     0.188 HD
HETATM    5  N2  UNL     1       5.493  11.755 -40.998  1.00  0.00    -0.278 N 
ATOM      6  H2  UNL     1       5.638  11.092 -40.237  1.00  0.00     0.189 HD
HETATM    7  C3  UNL     1       5.291  13.109 -40.886  1.00  0.00     0.173 A 
HETATM    8  S1  UNL     1       5.154  14.401 -39.793  1.00  0.00    -0.053 SA
HETATM    9  C4  UNL     1       4.894  15.672 -40.925  1.00  0.00     0.031 A 
HETATM   10  C11 UNL     1       4.932  14.993 -42.117  1.00  0.00     0.127 A 
HETATM   11  N4  UNL     1       5.136  13.686 -42.074  1.00  0.00    -0.263 N 
ENDROOT
BRANCH  10  12
HETATM   12  N3  UNL     1       4.729  15.751 -43.354  1.00  0.00    -0.361 N 
HETATM   13  C12 UNL     1       3.421  16.260 -43.691  1.00  0.00     0.156 C 
HETATM   14  C13 UNL     1       3.403  17.358 -44.684  1.00  0.00     0.136 C 
HETATM   15  C14 UNL     1       3.193  18.680 -43.935  1.00  0.00     0.041 C 
HETATM   16  O1  UNL     1       4.512  17.522 -45.468  1.00  0.00    -0.378 OA
HETATM   17  C15 UNL     1       5.118  16.278 -45.628  1.00  0.00     0.136 C 
HETATM   18  C16 UNL     1       6.066  16.204 -46.776  1.00  0.00     0.041 C 
HETATM   19  C17 UNL     1       5.800  16.001 -44.286  1.00  0.00     0.156 C 
ENDBRANCH  10  12
BRANCH   9  20
HETATM   20  C5  UNL     1       4.703  17.120 -40.600  1.00  0.00     0.055 C 
BRANCH  20  21
HETATM   21  C6  UNL     1       5.093  17.523 -39.233  1.00  0.00    -0.010 C 
HETATM   22  C7  UNL     1       3.929  17.756 -38.303  1.00  0.00     0.005 C 
HETATM   23  C8  UNL     1       3.601  19.233 -38.395  1.00  0.00     0.000 C 
HETATM   24  C9  UNL     1       4.791  19.913 -39.007  1.00  0.00     0.000 C 
HETATM   25  C10 UNL     1       5.828  18.873 -39.289  1.00  0.00     0.005 C 
ENDBRANCH  20  21
ENDBRANCH   9  20
TORSDOF 3
ENDMDL
MODEL 2
REMARK VINA RESULT: -7.802082214      2.638      5.271
REMARK  3 active torsions:
REMARK  status: ('A' for Active; 'I' for Inactive)
REMARK    1  A    between atoms: C4_9  and  C5_10 
REMARK    2  A    between atoms: C5_10  and  C6_11 
REMARK    3  A    between atoms: C11_16  and  N3_17 
ROOT
HETATM    1  C1  UNL     1       2.252  15.733 -37.481  1.00  0.00     0.091 C 
HETATM    2  C2  UNL     1       3.153  14.817 -38.216  1.00  0.00     0.102 A 
HETATM    3  N1  UNL     1       3.315  13.513 -37.836  1.00  0.00    -0.287 N 
ATOM      4  H1  UNL     1       2.852  13.062 -37.046  1.00  0.00     0.188 HD
HETATM    5  N2  UNL     1       4.161  12.938 -38.651  1.00  0.00    -0.278 N 
ATOM      6  H2  UNL     1       4.479  11.969 -38.621  1.00  0.00     0.189 HD
HETATM    7  C3  UNL     1       4.535  13.901 -39.556  1.00  0.00     0.173 A 
HETATM    8  S1  UNL     1       5.496  14.220 -40.919  1.00  0.00    -0.053 SA
HETATM    9  C4  UNL     1       5.087  15.878 -41.143  1.00  0.00     0.031 A 
HETATM   10  C11 UNL     1       4.202  16.085 -40.114  1.00  0.00     0.127 A 
HETATM   11  N4  UNL     1       3.935  15.063 -39.317  1.00  0.00    -0.263 N 
ENDROOT
BRANCH  10  12
HETATM   12  N3  UNL     1       3.625  17.423 -39.955  1.00  0.00    -0.361 N 
HETATM   13  C12 UNL     1       2.417  17.783 -40.657  1.00  0.00     0.156 C 
HETATM   14  C13 UNL     1       1.685  18.946 -40.105  1.00  0.00     0.136 C 
HETATM   15  C14 UNL     1       0.487  18.423 -39.303  1.00  0.00     0.041 C 
HETATM   16  O1  UNL     1       2.370  19.794 -39.279  1.00  0.00    -0.378 OA
HETATM   17  C15 UNL     1       3.713  19.768 -39.649  1.00  0.00     0.136 C 
HETATM   18  C16 UNL     1       4.507  20.927 -39.150  1.00  0.00     0.041 C 
HETATM   19  C17 UNL     1       4.237  18.429 -39.124  1.00  0.00     0.156 C 
ENDBRANCH  10  12
BRANCH   9  20
HETATM   20  C5  UNL     1       5.602  16.778 -42.221  1.00  0.00     0.055 C 
BRANCH  20  21
HETATM   21  C6  UNL     1       5.339  16.330 -43.604  1.00  0.00    -0.010 C 
HETATM   22  C7  UNL     1       5.874  17.257 -44.665  1.00  0.00     0.005 C 
HETATM   23  C8  UNL     1       4.745  18.209 -45.006  1.00  0.00     0.000 C 
HETATM   24  C9  UNL     1       3.476  17.592 -44.494  1.00  0.00     0.000 C 
HETATM   25  C10 UNL     1       3.821  16.289 -43.847  1.00  0.00     0.005 C 
ENDBRANCH  20  21
ENDBRANCH   9  20
TORSDOF 3
ENDMDL
MODEL 3
REMARK VINA RESULT: -7.801843108      2.957      5.151
REMARK  3 active torsions:
REMARK  status: ('A' for Active; 'I' for Inactive)
REMARK    1  A    between atoms: C4_9  and  C5_10 
REMARK    2  A    between atoms: C5_10  and  C6_11 
REMARK    3  A    between atoms: C11_16  and  N3_17 
ROOT
HETATM    1  C1  UNL     1       5.420  19.145 -43.500  1.00  0.00     0.091 C 
HETATM    2  C2  UNL     1       5.562  17.673 -43.513  1.00  0.00     0.102 A 
HETATM    3  N1  UNL     1       6.220  17.023 -44.521  1.00  0.00    -0.287 N 
ATOM      4  H1  UNL     1       6.659  17.469 -45.327  1.00  0.00     0.188 HD
HETATM    5  N2  UNL     1       6.194  15.737 -44.284  1.00  0.00    -0.278 N 
ATOM      6  H2  UNL     1       6.602  15.000 -44.858  1.00  0.00     0.189 HD
HETATM    7  C3  UNL     1       5.506  15.580 -43.106  1.00  0.00     0.173 A 
HETATM    8  S1  UNL     1       4.936  14.447 -41.977  1.00  0.00    -0.053 SA
HETATM    9  C4  UNL     1       4.182  15.534 -40.876  1.00  0.00     0.031 A 
HETATM   10  C11 UNL     1       4.428  16.746 -41.471  1.00  0.00     0.127 A 
HETATM   11  N4  UNL     1       5.106  16.746 -42.607  1.00  0.00    -0.263 N 
ENDROOT
BRANCH  10  12
HETATM   12  N3  UNL     1       3.914  17.955 -40.822  1.00  0.00    -0.361 N 
HETATM   13  C12 UNL     1       2.588  18.436 -41.123  1.00  0.00     0.156 C 
HETATM   14  C13 UNL     1       2.005  19.360 -40.123  1.00  0.00     0.136 C 
HETATM   15  C14 UNL     1       1.002  18.573 -39.270  1.00  0.00     0.041 C 
HETATM   16  O1  UNL     1       2.862  19.976 -39.254  1.00  0.00    -0.378 OA
HETATM   17  C15 UNL     1       4.093  20.123 -39.889  1.00  0.00     0.136 C 
HETATM   18  C16 UNL     1       4.989  21.135 -39.260  1.00  0.00     0.041 C 
HETATM   19  C17 UNL     1       4.702  18.718 -39.887  1.00  0.00     0.156 C 
ENDBRANCH  10  12
BRANCH   9  20
HETATM   20  C5  UNL     1       3.477  15.162 -39.609  1.00  0.00     0.055 C 
BRANCH  20  21
HETATM   21  C6  UNL     1       2.427  14.132 -39.745  1.00  0.00    -0.010 C 
HETATM   22  C7  UNL     1       1.293  14.524 -40.658  1.00  0.00     0.005 C 
HETATM   23  C8  UNL     1       0.235  15.155 -39.776  1.00  0.00     0.000 C 
HETATM   24  C9  UNL     1       0.540  14.753 -38.362  1.00  0.00     0.000 C 
HETATM   25  C10 UNL     1       1.765  13.895 -38.377  1.00  0.00     0.005 C 
ENDBRANCH  20  21
ENDBRANCH   9  20
TORSDOF 3
ENDMDL
MODEL 4
REMARK VINA RESULT: -7.798104792      2.997      5.442
REMARK  3 active torsions:
REMARK  status: ('A' for Active; 'I' for Inactive)
REMARK    1  A    between atoms: C4_9  and  C5_10 
REMARK    2  A    between atoms: C5_10  and  C6_11 
REMARK    3  A    between atoms: C11_16  and  N3_17 
ROOT
HETATM    1  C1  UNL     1       5.159  19.355 -42.691  1.00  0.00     0.091 C 
HETATM    2  C2  UNL     1       5.500  17.926 -42.865  1.00  0.00     0.102 A 
HETATM    3  N1  UNL     1       6.226  17.487 -43.938  1.00  0.00    -0.287 N 
ATOM      4  H1  UNL     1       6.589  18.075 -44.690  1.00  0.00     0.188 HD
HETATM    5  N2  UNL     1       6.380  16.192 -43.844  1.00  0.00    -0.278 N 
ATOM      6  H2  UNL     1       6.876  15.585 -44.496  1.00  0.00     0.189 HD
HETATM    7  C3  UNL     1       5.737  15.814 -42.691  1.00  0.00     0.173 A 
HETATM    8  S1  UNL     1       5.344  14.496 -41.695  1.00  0.00    -0.053 SA
HETATM    9  C4  UNL     1       4.465  15.343 -40.480  1.00  0.00     0.031 A 
HETATM   10  C11 UNL     1       4.534  16.635 -40.939  1.00  0.00     0.127 A 
HETATM   11  N4  UNL     1       5.188  16.852 -42.068  1.00  0.00    -0.263 N 
ENDROOT
BRANCH  10  12
HETATM   12  N3  UNL     1       3.869  17.684 -40.160  1.00  0.00    -0.361 N 
HETATM   13  C12 UNL     1       4.566  18.345 -39.084  1.00  0.00     0.156 C 
HETATM   14  C13 UNL     1       4.004  19.650 -38.669  1.00  0.00     0.136 C 
HETATM   15  C14 UNL     1       4.875  20.761 -39.269  1.00  0.00     0.041 C 
HETATM   16  O1  UNL     1       2.713  19.927 -39.027  1.00  0.00    -0.378 OA
HETATM   17  C15 UNL     1       2.019  18.721 -39.111  1.00  0.00     0.136 C 
HETATM   18  C16 UNL     1       0.535  18.866 -39.068  1.00  0.00     0.041 C 
HETATM   19  C17 UNL     1       2.507  18.081 -40.413  1.00  0.00     0.156 C 
ENDBRANCH  10  12
BRANCH   9  20
HETATM   20  C5  UNL     1       3.835  14.742 -39.263  1.00  0.00     0.055 C 
BRANCH  20  21
HETATM   21  C6  UNL     1       2.651  13.894 -39.512  1.00  0.00    -0.010 C 
HETATM   22  C7  UNL     1       1.693  14.456 -40.531  1.00  0.00     0.005 C 
HETATM   23  C8  UNL     1       0.668  15.257 -39.754  1.00  0.00     0.000 C 
HETATM   24  C9  UNL     1       0.760  14.822 -38.321  1.00  0.00     0.000 C 
HETATM   25  C10 UNL     1       1.826  13.777 -38.219  1.00  0.00     0.005 C 
ENDBRANCH  20  21
ENDBRANCH   9  20
TORSDOF 3
ENDMDL
MODEL 5
REMARK VINA RESULT: -7.794742581      2.983      4.638
REMARK  3 active torsions:
REMARK  status: ('A' for Active; 'I' for Inactive)
REMARK    1  A    between atoms: C4_9  and  C5_10 
REMARK    2  A    between atoms: C5_10  and  C6_11 
REMARK    3  A    between atoms: C11_16  and  N3_17 
ROOT
HETATM    1  C1  UNL     1       6.148  17.589 -43.275  1.00  0.00     0.091 C 
HETATM    2  C2  UNL     1       5.999  18.028 -41.870  1.00  0.00     0.102 A 
HETATM    3  N1  UNL     1       6.589  19.173 -41.409  1.00  0.00    -0.287 N 
ATOM      4  H1  UNL     1       7.163  19.809 -41.963  1.00  0.00     0.188 HD
HETATM    5  N2  UNL     1       6.298  19.319 -40.142  1.00  0.00    -0.278 N 
ATOM      6  H2  UNL     1       6.595  20.078 -39.529  1.00  0.00     0.189 HD
HETATM    7  C3  UNL     1       5.511  18.245 -39.805  1.00  0.00     0.173 A 
HETATM    8  S1  UNL     1       4.654  17.500 -38.543  1.00  0.00    -0.053 SA
HETATM    9  C4  UNL     1       4.049  16.139 -39.407  1.00  0.00     0.031 A 
HETATM   10  C11 UNL     1       4.567  16.355 -40.660  1.00  0.00     0.127 A 
HETATM   11  N4  UNL     1       5.309  17.435 -40.841  1.00  0.00    -0.263 N 
ENDROOT
BRANCH  10  12
HETATM   12  N3  UNL     1       4.279  15.372 -41.708  1.00  0.00    -0.361 N 
HETATM   13  C12 UNL     1       3.034  15.428 -42.436  1.00  0.00     0.156 C 
HETATM   14  C13 UNL     1       3.023  14.710 -43.732  1.00  0.00     0.136 C 
HETATM   15  C14 UNL     1       3.168  15.745 -44.855  1.00  0.00     0.041 C 
HETATM   16  O1  UNL     1       3.990  13.766 -43.941  1.00  0.00    -0.378 OA
HETATM   17  C15 UNL     1       4.346  13.228 -42.706  1.00  0.00     0.136 C 
HETATM   18  C16 UNL     1       5.054  11.918 -42.791  1.00  0.00     0.041 C 
HETATM   19  C17 UNL     1       5.197  14.312 -42.039  1.00  0.00     0.156 C 
ENDBRANCH  10  12
BRANCH   9  20
HETATM   20  C5  UNL     1       3.176  15.057 -38.854  1.00  0.00     0.055 C 
BRANCH  20  21
HETATM   21  C6  UNL     1       1.889  15.507 -38.284  1.00  0.00    -0.010 C 
HETATM   22  C7  UNL     1       0.936  14.386 -37.955  1.00  0.00     0.005 C 
HETATM   23  C8  UNL     1       0.063  14.198 -39.179  1.00  0.00     0.000 C 
HETATM   24  C9  UNL     1       0.201  15.436 -40.017  1.00  0.00     0.000 C 
HETATM   25  C10 UNL     1       1.144  16.365 -39.321  1.00  0.00     0.005 C 
ENDBRANCH  20  21
ENDBRANCH   9  20
TORSDOF 3
ENDMDL
