MODEL 1
REMARK VINA RESULT: -7.278918210      0.000      0.000
REMARK  4 active torsions:
REMARK  status: ('A' for Active; 'I' for Inactive)
REMARK    1  A    between atoms: C5_5  and  C6_6 
REMARK    2  A    between atoms: N3_14  and  C9_15 
REMARK    3  A    between atoms: C9_15  and  O1_16 
REMARK    4  A    between atoms: C10_18  and  C11_19 
ROOT
HETATM    1  C1  UNL     1       3.868  20.174 -38.608  1.00  0.00     0.011 C 
HETATM    2  C2  UNL     1       4.071  18.968 -39.456  1.00  0.00    -0.000 C 
HETATM    3  C3  UNL     1       5.146  19.185 -40.529  1.00  0.00     0.008 C 
HETATM    4  C4  UNL     1       5.129  17.983 -41.380  1.00  0.00     0.033 C 
HETATM    5  C5  UNL     1       5.149  16.655 -40.692  1.00  0.00     0.145 C 
HETATM    6  N3  UNL     1       4.559  16.580 -39.377  1.00  0.00    -0.351 N 
HETATM    7  C16 UNL     1       4.638  17.799 -38.621  1.00  0.00     0.130 C 
ENDROOT
BRANCH   6   8
HETATM    8  C9  UNL     1       4.033  15.409 -38.819  1.00  0.00     0.135 C 
HETATM    9  C10 UNL     1       2.837  15.020 -38.149  1.00  0.00     0.033 C 
BRANCH   8  10
HETATM   10  O1  UNL     1       4.882  14.387 -38.956  1.00  0.00    -0.346 OA
ATOM     11  H1  UNL     1       4.703  13.896 -39.749  1.00  0.00     0.219 HD
ENDBRANCH   8  10
BRANCH   9  12
HETATM   12  C11 UNL     1       1.605  15.801 -38.057  1.00  0.00     0.012 C 
HETATM   13  C12 UNL     1       0.505  14.759 -37.658  1.00  0.00     0.009 C 
HETATM   14  C13 UNL     1       0.179  14.078 -38.967  1.00  0.00     0.001 C 
HETATM   15  C14 UNL     1       0.420  15.095 -40.059  1.00  0.00     0.001 C 
HETATM   16  C15 UNL     1       1.000  16.273 -39.354  1.00  0.00     0.009 C 
ENDBRANCH   9  12
ENDBRANCH   6   8
BRANCH   5  17
HETATM   17  C6  UNL     1       4.501  15.672 -41.650  1.00  0.00     0.092 A 
HETATM   18  N1  UNL     1       4.930  14.474 -42.006  1.00  0.00    -0.292 N 
HETATM   19  N2  UNL     1       4.280  13.781 -42.847  1.00  0.00    -0.279 N 
ATOM     20  H1  UNL     1       5.789  14.103 -41.603  1.00  0.00     0.187 HD
HETATM   21  C7  UNL     1       4.709  12.419 -43.284  1.00  0.00     0.179 C 
HETATM   22  C8  UNL     1       3.156  14.291 -43.363  1.00  0.00     0.161 A 
HETATM   23  S1  UNL     1       2.129  13.605 -44.470  1.00  0.00    -0.051 SA
HETATM   24  S2  UNL     1       3.069  15.810 -42.590  1.00  0.00    -0.042 SA
ENDBRANCH   5  17
TORSDOF 4
ENDMDL
MODEL 2
REMARK VINA RESULT: -6.875680465      1.399      4.353
REMARK  4 active torsions:
REMARK  status: ('A' for Active; 'I' for Inactive)
REMARK    1  A    between atoms: C5_5  and  C6_6 
REMARK    2  A    between atoms: N3_14  and  C9_15 
REMARK    3  A    between atoms: C9_15  and  O1_16 
REMARK    4  A    between atoms: C10_18  and  C11_19 
ROOT
HETATM    1  C1  UNL     1       0.650  15.395 -37.117  1.00  0.00     0.011 C 
HETATM    2  C2  UNL     1       1.298  15.286 -38.454  1.00  0.00    -0.000 C 
HETATM    3  C3  UNL     1       0.275  15.306 -39.598  1.00  0.00     0.008 C 
HETATM    4  C4  UNL     1       1.033  15.036 -40.832  1.00  0.00     0.033 C 
HETATM    5  C5  UNL     1       2.284  15.825 -41.056  1.00  0.00     0.145 C 
HETATM    6  N3  UNL     1       3.003  16.276 -39.889  1.00  0.00    -0.351 N 
HETATM    7  C16 UNL     1       2.175  16.524 -38.742  1.00  0.00     0.130 C 
ENDROOT
BRANCH   6   8
HETATM    8  C9  UNL     1       4.375  16.549 -39.870  1.00  0.00     0.135 C 
HETATM    9  C10 UNL     1       5.247  17.541 -40.405  1.00  0.00     0.033 C 
BRANCH   8  10
HETATM   10  O1  UNL     1       5.039  15.634 -39.159  1.00  0.00    -0.346 OA
ATOM     11  H1  UNL     1       5.967  15.649 -39.361  1.00  0.00     0.219 HD
ENDBRANCH   8  10
BRANCH   9  12
HETATM   12  C11 UNL     1       4.845  18.811 -41.007  1.00  0.00     0.012 C 
HETATM   13  C12 UNL     1       6.103  19.735 -40.858  1.00  0.00     0.009 C 
HETATM   14  C13 UNL     1       6.030  20.194 -39.421  1.00  0.00     0.001 C 
HETATM   15  C14 UNL     1       4.566  20.222 -39.046  1.00  0.00     0.001 C 
HETATM   16  C15 UNL     1       3.864  19.651 -40.230  1.00  0.00     0.009 C 
ENDBRANCH   9  12
ENDBRANCH   6   8
BRANCH   5  17
HETATM   17  C6  UNL     1       3.162  14.978 -41.959  1.00  0.00     0.092 A 
HETATM   18  N1  UNL     1       3.880  13.916 -41.640  1.00  0.00    -0.292 N 
HETATM   19  N2  UNL     1       4.589  13.331 -42.514  1.00  0.00    -0.279 N 
ATOM     20  H1  UNL     1       3.865  13.563 -40.683  1.00  0.00     0.187 HD
HETATM   21  C7  UNL     1       5.416  12.124 -42.216  1.00  0.00     0.179 C 
HETATM   22  C8  UNL     1       4.593  13.813 -43.762  1.00  0.00     0.161 A 
HETATM   23  S1  UNL     1       5.422  13.247 -45.081  1.00  0.00    -0.051 SA
HETATM   24  S2  UNL     1       3.534  15.145 -43.629  1.00  0.00    -0.042 SA
ENDBRANCH   5  17
TORSDOF 4
ENDMDL
MODEL 3
REMARK VINA RESULT: -6.845067176      1.768      2.215
REMARK  4 active torsions:
REMARK  status: ('A' for Active; 'I' for Inactive)
REMARK    1  A    between atoms: C5_5  and  C6_6 
REMARK    2  A    between atoms: N3_14  and  C9_15 
REMARK    3  A    between atoms: C9_15  and  O1_16 
REMARK    4  A    between atoms: C10_18  and  C11_19 
ROOT
HETATM    1  C1  UNL     1       4.268  20.871 -38.921  1.00  0.00     0.011 C 
HETATM    2  C2  UNL     1       4.634  19.742 -39.819  1.00  0.00    -0.000 C 
HETATM    3  C3  UNL     1       5.922  20.019 -40.605  1.00  0.00     0.008 C 
HETATM    4  C4  UNL     1       6.074  18.902 -41.553  1.00  0.00     0.033 C 
HETATM    5  C5  UNL     1       5.923  17.517 -41.011  1.00  0.00     0.145 C 
HETATM    6  N3  UNL     1       5.058  17.341 -39.870  1.00  0.00    -0.351 N 
HETATM    7  C16 UNL     1       4.986  18.481 -38.999  1.00  0.00     0.130 C 
ENDROOT
BRANCH   6   8
HETATM    8  C9  UNL     1       4.405  16.143 -39.557  1.00  0.00     0.135 C 
HETATM    9  C10 UNL     1       3.165  15.518 -39.878  1.00  0.00     0.033 C 
BRANCH   8  10
HETATM   10  O1  UNL     1       5.148  15.388 -38.743  1.00  0.00    -0.346 OA
ATOM     11  H1  UNL     1       5.166  14.484 -39.035  1.00  0.00     0.219 HD
ENDBRANCH   8  10
BRANCH   9  12
HETATM   12  C11 UNL     1       2.235  15.931 -40.927  1.00  0.00     0.012 C 
HETATM   13  C12 UNL     1       1.670  17.308 -40.433  1.00  0.00     0.009 C 
HETATM   14  C13 UNL     1       0.621  16.911 -39.420  1.00  0.00     0.001 C 
HETATM   15  C14 UNL     1       0.084  15.565 -39.853  1.00  0.00     0.001 C 
HETATM   16  C15 UNL     1       0.932  15.179 -41.016  1.00  0.00     0.009 C 
ENDBRANCH   9  12
ENDBRANCH   6   8
BRANCH   5  17
HETATM   17  C6  UNL     1       5.488  16.650 -42.179  1.00  0.00     0.092 A 
HETATM   18  N1  UNL     1       4.662  16.959 -43.164  1.00  0.00    -0.292 N 
HETATM   19  N2  UNL     1       4.377  16.105 -44.057  1.00  0.00    -0.279 N 
ATOM     20  H1  UNL     1       4.250  17.890 -43.206  1.00  0.00     0.187 HD
HETATM   21  C7  UNL     1       3.457  16.395 -45.197  1.00  0.00     0.179 C 
HETATM   22  C8  UNL     1       4.930  14.889 -43.979  1.00  0.00     0.161 A 
HETATM   23  S1  UNL     1       4.730  13.600 -45.003  1.00  0.00    -0.051 SA
HETATM   24  S2  UNL     1       5.879  15.022 -42.566  1.00  0.00    -0.042 SA
ENDBRANCH   5  17
TORSDOF 4
ENDMDL
MODEL 4
REMARK VINA RESULT: -6.819565265      3.995      7.737
REMARK  4 active torsions:
REMARK  status: ('A' for Active; 'I' for Inactive)
REMARK    1  A    between atoms: C5_5  and  C6_6 
REMARK    2  A    between atoms: N3_14  and  C9_15 
REMARK    3  A    between atoms: C9_15  and  O1_16 
REMARK    4  A    between atoms: C10_18  and  C11_19 
ROOT
HETATM    1  C1  UNL     1       0.688  13.882 -47.970  1.00  0.00     0.011 C 
HETATM    2  C2  UNL     1       1.441  13.618 -46.713  1.00  0.00    -0.000 C 
HETATM    3  C3  UNL     1       0.648  12.741 -45.734  1.00  0.00     0.008 C 
HETATM    4  C4  UNL     1       1.437  12.694 -44.491  1.00  0.00     0.033 C 
HETATM    5  C5  UNL     1       2.895  12.384 -44.615  1.00  0.00     0.145 C 
HETATM    6  N3  UNL     1       3.555  12.774 -45.839  1.00  0.00    -0.351 N 
HETATM    7  C16 UNL     1       2.705  12.777 -46.996  1.00  0.00     0.130 C 
ENDROOT
BRANCH   6   8
HETATM    8  C9  UNL     1       4.926  13.040 -45.940  1.00  0.00     0.135 C 
HETATM    9  C10 UNL     1       5.750  14.168 -46.219  1.00  0.00     0.033 C 
BRANCH   8  10
HETATM   10  O1  UNL     1       5.647  11.939 -45.713  1.00  0.00    -0.346 OA
ATOM     11  H1  UNL     1       5.088  11.195 -45.521  1.00  0.00     0.219 HD
ENDBRANCH   8  10
BRANCH   9  12
HETATM   12  C11 UNL     1       5.319  15.564 -46.260  1.00  0.00     0.012 C 
HETATM   13  C12 UNL     1       4.585  15.710 -47.637  1.00  0.00     0.009 C 
HETATM   14  C13 UNL     1       5.720  15.852 -48.624  1.00  0.00     0.001 C 
HETATM   15  C14 UNL     1       6.861  16.511 -47.883  1.00  0.00     0.001 C 
HETATM   16  C15 UNL     1       6.391  16.601 -46.472  1.00  0.00     0.009 C 
ENDBRANCH   9  12
ENDBRANCH   6   8
BRANCH   5  17
HETATM   17  C6  UNL     1       3.564  13.001 -43.401  1.00  0.00     0.092 A 
HETATM   18  N1  UNL     1       4.555  12.512 -42.676  1.00  0.00    -0.292 N 
HETATM   19  N2  UNL     1       4.987  13.145 -41.664  1.00  0.00    -0.279 N 
ATOM     20  H1  UNL     1       4.976  11.619 -42.930  1.00  0.00     0.187 HD
HETATM   21  C7  UNL     1       6.107  12.648 -40.811  1.00  0.00     0.179 C 
HETATM   22  C8  UNL     1       4.417  14.313 -41.351  1.00  0.00     0.161 A 
HETATM   23  S1  UNL     1       4.784  15.332 -40.095  1.00  0.00    -0.051 SA
HETATM   24  S2  UNL     1       3.233  14.468 -42.569  1.00  0.00    -0.042 SA
ENDBRANCH   5  17
TORSDOF 4
ENDMDL
MODEL 5
REMARK VINA RESULT: -6.801674479      2.352      2.788
REMARK  4 active torsions:
REMARK  status: ('A' for Active; 'I' for Inactive)
REMARK    1  A    between atoms: C5_5  and  C6_6 
REMARK    2  A    between atoms: N3_14  and  C9_15 
REMARK    3  A    between atoms: C9_15  and  O1_16 
REMARK    4  A    between atoms: C10_18  and  C11_19 
ROOT
HETATM    1  C1  UNL     1       4.164  21.587 -40.127  1.00  0.00     0.011 C 
HETATM    2  C2  UNL     1       4.431  20.142 -39.887  1.00  0.00    -0.000 C 
HETATM    3  C3  UNL     1       5.928  19.846 -39.724  1.00  0.00     0.008 C 
HETATM    4  C4  UNL     1       6.053  18.381 -39.651  1.00  0.00     0.033 C 
HETATM    5  C5  UNL     1       5.137  17.660 -38.714  1.00  0.00     0.145 C 
HETATM    6  N3  UNL     1       3.849  18.257 -38.453  1.00  0.00    -0.351 N 
HETATM    7  C16 UNL     1       3.833  19.691 -38.535  1.00  0.00     0.130 C 
ENDROOT
BRANCH   6   8
HETATM    8  C9  UNL     1       2.717  17.537 -38.056  1.00  0.00     0.135 C 
HETATM    9  C10 UNL     1       1.453  17.191 -38.617  1.00  0.00     0.033 C 
BRANCH   8  10
HETATM   10  O1  UNL     1       2.866  17.045 -36.824  1.00  0.00    -0.346 OA
ATOM     11  H1  UNL     1       2.338  17.524 -36.196  1.00  0.00     0.219 HD
ENDBRANCH   8  10
BRANCH   9  12
HETATM   12  C11 UNL     1       1.060  17.339 -40.017  1.00  0.00     0.012 C 
HETATM   13  C12 UNL     1      -0.314  16.591 -40.123  1.00  0.00     0.009 C 
HETATM   14  C13 UNL     1       0.087  15.137 -40.210  1.00  0.00     0.001 C 
HETATM   15  C14 UNL     1       1.443  15.097 -40.879  1.00  0.00     0.001 C 
HETATM   16  C15 UNL     1       1.829  16.529 -41.029  1.00  0.00     0.009 C 
ENDBRANCH   9  12
ENDBRANCH   6   8
BRANCH   5  17
HETATM   17  C6  UNL     1       4.997  16.251 -39.260  1.00  0.00     0.092 A 
HETATM   18  N1  UNL     1       4.595  15.163 -38.625  1.00  0.00    -0.292 N 
HETATM   19  N2  UNL     1       4.559  14.044 -39.222  1.00  0.00    -0.279 N 
ATOM     20  H1  UNL     1       4.312  15.223 -37.647  1.00  0.00     0.187 HD
HETATM   21  C7  UNL     1       4.109  12.784 -38.561  1.00  0.00     0.179 C 
HETATM   22  C8  UNL     1       4.936  13.992 -40.504  1.00  0.00     0.161 A 
HETATM   23  S1  UNL     1       4.985  12.674 -41.509  1.00  0.00    -0.051 SA
HETATM   24  S2  UNL     1       5.346  15.618 -40.819  1.00  0.00    -0.042 SA
ENDBRANCH   5  17
TORSDOF 4
ENDMDL
