MODEL 1
REMARK VINA RESULT: -7.934334539      0.000      0.000
REMARK  3 active torsions:
REMARK  status: ('A' for Active; 'I' for Inactive)
REMARK    1  A    between atoms: C4_8  and  N3_9 
REMARK    2  A    between atoms: C11_16  and  C12_17 
REMARK    3  A    between atoms: C12_17  and  C13_18 
ROOT
HETATM    1  C1  UNL     1       6.382  20.024 -39.229  1.00  0.00     0.092 C 
HETATM    2  C2  UNL     1       5.893  19.409 -40.478  1.00  0.00     0.116 A 
HETATM    3  N1  UNL     1       6.572  19.410 -41.650  1.00  0.00    -0.286 N 
ATOM      4  H1  UNL     1       7.490  19.826 -41.803  1.00  0.00     0.188 HD
HETATM    5  N2  UNL     1       5.849  18.785 -42.560  1.00  0.00    -0.281 N 
ATOM      6  H2  UNL     1       6.127  18.647 -43.531  1.00  0.00     0.188 HD
HETATM    7  C3  UNL     1       4.698  18.357 -42.026  1.00  0.00     0.170 A 
HETATM    8  C4  UNL     1       3.623  17.658 -42.578  1.00  0.00     0.080 A 
HETATM    9  C10 UNL     1       2.596  17.402 -41.681  1.00  0.00     0.060 A 
HETATM   10  C11 UNL     1       2.637  17.805 -40.357  1.00  0.00     0.037 A 
HETATM   11  N4  UNL     1       3.707  18.460 -39.938  1.00  0.00    -0.294 N 
ATOM     12  H4  UNL     1       3.746  18.759 -38.964  1.00  0.00     0.187 HD
HETATM   13  N5  UNL     1       4.734  18.744 -40.735  1.00  0.00    -0.223 N 
ENDROOT
BRANCH  10  14
HETATM   14  C12 UNL     1       1.426  17.448 -39.546  1.00  0.00     0.007 A 
HETATM   15  C18 UNL     1       0.317  18.413 -39.626  1.00  0.00     0.017 A 
HETATM   16  C19 UNL     1       1.128  18.458 -38.387  1.00  0.00     0.017 A 
BRANCH  14  17
HETATM   17  C13 UNL     1       1.309  16.046 -39.032  1.00  0.00     0.004 C 
HETATM   18  C14 UNL     1       0.179  15.339 -39.731  1.00  0.00     0.032 C 
HETATM   19  C15 UNL     1       0.438  13.834 -39.556  1.00  0.00     0.168 C 
HETATM   20  O1  UNL     1       0.934  13.542 -38.315  1.00  0.00    -0.391 OA
HETATM   21  C16 UNL     1       2.220  14.022 -38.068  1.00  0.00     0.168 C 
HETATM   22  C17 UNL     1       2.539  15.228 -38.975  1.00  0.00     0.032 C 
ENDBRANCH  14  17
ENDBRANCH  10  14
BRANCH   8  23
HETATM   23  N3  UNL     1       3.546  17.243 -43.927  1.00  0.00    -0.378 N 
HETATM   24  C5  UNL     1       3.696  15.795 -44.163  1.00  0.00     0.123 C 
HETATM   25  C6  UNL     1       2.825  15.380 -45.356  1.00  0.00     0.020 C 
HETATM   26  C7  UNL     1       3.417  16.083 -46.541  1.00  0.00     0.003 C 
HETATM   27  C8  UNL     1       3.264  17.554 -46.382  1.00  0.00     0.020 C 
HETATM   28  C9  UNL     1       3.329  18.125 -45.015  1.00  0.00     0.123 C 
ENDBRANCH   8  23
TORSDOF 3
ENDMDL
MODEL 2
REMARK VINA RESULT: -7.792260627      0.313      1.029
REMARK  3 active torsions:
REMARK  status: ('A' for Active; 'I' for Inactive)
REMARK    1  A    between atoms: C4_8  and  N3_9 
REMARK    2  A    between atoms: C11_16  and  C12_17 
REMARK    3  A    between atoms: C12_17  and  C13_18 
ROOT
HETATM    1  C1  UNL     1       6.301  20.074 -39.290  1.00  0.00     0.092 C 
HETATM    2  C2  UNL     1       5.857  19.368 -40.507  1.00  0.00     0.116 A 
HETATM    3  N1  UNL     1       6.568  19.303 -41.658  1.00  0.00    -0.286 N 
ATOM      4  H1  UNL     1       7.483  19.725 -41.815  1.00  0.00     0.188 HD
HETATM    5  N2  UNL     1       5.881  18.604 -42.542  1.00  0.00    -0.281 N 
ATOM      6  H2  UNL     1       6.188  18.408 -43.495  1.00  0.00     0.188 HD
HETATM    7  C3  UNL     1       4.723  18.192 -42.011  1.00  0.00     0.170 A 
HETATM    8  C4  UNL     1       3.676  17.438 -42.543  1.00  0.00     0.080 A 
HETATM    9  C10 UNL     1       2.629  17.225 -41.658  1.00  0.00     0.060 A 
HETATM   10  C11 UNL     1       2.627  17.715 -40.364  1.00  0.00     0.037 A 
HETATM   11  N4  UNL     1       3.673  18.417 -39.962  1.00  0.00    -0.294 N 
ATOM     12  H4  UNL     1       3.680  18.781 -39.010  1.00  0.00     0.187 HD
HETATM   13  N5  UNL     1       4.717  18.666 -40.749  1.00  0.00    -0.223 N 
ENDROOT
BRANCH  10  14
HETATM   14  C12 UNL     1       1.399  17.391 -39.563  1.00  0.00     0.007 A 
HETATM   15  C18 UNL     1       0.311  18.377 -39.666  1.00  0.00     0.017 A 
HETATM   16  C19 UNL     1       1.108  18.420 -38.419  1.00  0.00     0.017 A 
BRANCH  14  17
HETATM   17  C13 UNL     1       1.250  15.998 -39.034  1.00  0.00     0.004 C 
HETATM   18  C14 UNL     1       0.114  15.305 -39.739  1.00  0.00     0.032 C 
HETATM   19  C15 UNL     1       0.341  13.797 -39.545  1.00  0.00     0.168 C 
HETATM   20  O1  UNL     1       0.818  13.510 -38.295  1.00  0.00    -0.391 OA
HETATM   21  C16 UNL     1       2.110  13.968 -38.038  1.00  0.00     0.168 C 
HETATM   22  C17 UNL     1       2.463  15.157 -38.955  1.00  0.00     0.032 C 
ENDBRANCH  14  17
ENDBRANCH  10  14
BRANCH   8  23
HETATM   23  N3  UNL     1       3.643  16.933 -43.862  1.00  0.00    -0.378 N 
HETATM   24  C5  UNL     1       3.247  17.895 -44.908  1.00  0.00     0.123 C 
HETATM   25  C6  UNL     1       4.001  17.577 -46.207  1.00  0.00     0.020 C 
HETATM   26  C7  UNL     1       3.500  16.229 -46.634  1.00  0.00     0.003 C 
HETATM   27  C8  UNL     1       3.901  15.203 -45.635  1.00  0.00     0.020 C 
HETATM   28  C9  UNL     1       3.972  15.598 -44.208  1.00  0.00     0.123 C 
ENDBRANCH   8  23
TORSDOF 3
ENDMDL
MODEL 3
REMARK VINA RESULT: -7.760972552      3.355      6.512
REMARK  3 active torsions:
REMARK  status: ('A' for Active; 'I' for Inactive)
REMARK    1  A    between atoms: C4_8  and  N3_9 
REMARK    2  A    between atoms: C11_16  and  C12_17 
REMARK    3  A    between atoms: C12_17  and  C13_18 
ROOT
HETATM    1  C1  UNL     1       6.284  12.393 -40.586  1.00  0.00     0.092 C 
HETATM    2  C2  UNL     1       5.334  13.504 -40.386  1.00  0.00     0.116 A 
HETATM    3  N1  UNL     1       5.279  14.274 -39.273  1.00  0.00    -0.286 N 
ATOM      4  H1  UNL     1       5.883  14.182 -38.457  1.00  0.00     0.188 HD
HETATM    5  N2  UNL     1       4.315  15.164 -39.420  1.00  0.00    -0.281 N 
ATOM      6  H2  UNL     1       4.059  15.866 -38.726  1.00  0.00     0.188 HD
HETATM    7  C3  UNL     1       3.721  15.013 -40.610  1.00  0.00     0.170 A 
HETATM    8  C4  UNL     1       2.666  15.702 -41.213  1.00  0.00     0.080 A 
HETATM    9  C10 UNL     1       2.334  15.230 -42.475  1.00  0.00     0.060 A 
HETATM   10  C11 UNL     1       2.991  14.172 -43.079  1.00  0.00     0.037 A 
HETATM   11  N4  UNL     1       3.979  13.593 -42.417  1.00  0.00    -0.294 N 
ATOM     12  H4  UNL     1       4.470  12.813 -42.855  1.00  0.00     0.187 HD
HETATM   13  N5  UNL     1       4.359  13.985 -41.204  1.00  0.00    -0.223 N 
ENDROOT
BRANCH  10  14
HETATM   14  C12 UNL     1       2.479  13.798 -44.439  1.00  0.00     0.007 A 
HETATM   15  C18 UNL     1       1.104  13.274 -44.465  1.00  0.00     0.017 A 
HETATM   16  C19 UNL     1       2.184  12.269 -44.600  1.00  0.00     0.017 A 
BRANCH  14  17
HETATM   17  C13 UNL     1       3.232  14.292 -45.637  1.00  0.00     0.004 C 
HETATM   18  C14 UNL     1       2.382  15.266 -46.408  1.00  0.00     0.032 C 
HETATM   19  C15 UNL     1       3.348  16.092 -47.272  1.00  0.00     0.168 C 
HETATM   20  O1  UNL     1       4.365  15.326 -47.774  1.00  0.00    -0.391 OA
HETATM   21  C16 UNL     1       5.266  14.847 -46.824  1.00  0.00     0.168 C 
HETATM   22  C17 UNL     1       4.610  14.785 -45.429  1.00  0.00     0.032 C 
ENDBRANCH  14  17
ENDBRANCH  10  14
BRANCH   8  23
HETATM   23  N3  UNL     1       1.968  16.776 -40.619  1.00  0.00    -0.378 N 
HETATM   24  C5  UNL     1       0.800  16.407 -39.798  1.00  0.00     0.123 C 
HETATM   25  C6  UNL     1       0.665  17.393 -38.629  1.00  0.00     0.020 C 
HETATM   26  C7  UNL     1       0.357  18.717 -39.263  1.00  0.00     0.003 C 
HETATM   27  C8  UNL     1       1.517  19.166 -40.080  1.00  0.00     0.020 C 
HETATM   28  C9  UNL     1       2.336  18.138 -40.765  1.00  0.00     0.123 C 
ENDBRANCH   8  23
TORSDOF 3
ENDMDL
MODEL 4
REMARK VINA RESULT: -7.717315004      3.038      6.326
REMARK  3 active torsions:
REMARK  status: ('A' for Active; 'I' for Inactive)
REMARK    1  A    between atoms: C4_8  and  N3_9 
REMARK    2  A    between atoms: C11_16  and  C12_17 
REMARK    3  A    between atoms: C12_17  and  C13_18 
ROOT
HETATM    1  C1  UNL     1      -0.268  13.333 -39.445  1.00  0.00     0.092 C 
HETATM    2  C2  UNL     1       0.673  14.467 -39.392  1.00  0.00     0.116 A 
HETATM    3  N1  UNL     1       0.775  15.331 -38.353  1.00  0.00    -0.286 N 
ATOM      4  H1  UNL     1       0.224  15.295 -37.496  1.00  0.00     0.188 HD
HETATM    5  N2  UNL     1       1.705  16.225 -38.634  1.00  0.00    -0.281 N 
ATOM      6  H2  UNL     1       1.979  16.993 -38.021  1.00  0.00     0.188 HD
HETATM    7  C3  UNL     1       2.236  15.981 -39.838  1.00  0.00     0.170 A 
HETATM    8  C4  UNL     1       3.234  16.637 -40.561  1.00  0.00     0.080 A 
HETATM    9  C10 UNL     1       3.501  16.067 -41.797  1.00  0.00     0.060 A 
HETATM   10  C11 UNL     1       2.838  14.947 -42.268  1.00  0.00     0.037 A 
HETATM   11  N4  UNL     1       1.910  14.403 -41.498  1.00  0.00    -0.294 N 
ATOM     12  H4  UNL     1       1.417  13.577 -41.836  1.00  0.00     0.187 HD
HETATM   13  N5  UNL     1       1.595  14.888 -40.300  1.00  0.00    -0.223 N 
ENDROOT
BRANCH  10  14
HETATM   14  C12 UNL     1       3.257  14.487 -43.634  1.00  0.00     0.007 A 
HETATM   15  C18 UNL     1       3.168  15.508 -44.690  1.00  0.00     0.017 A 
HETATM   16  C19 UNL     1       2.093  14.490 -44.681  1.00  0.00     0.017 A 
BRANCH  14  17
HETATM   17  C13 UNL     1       4.024  13.204 -43.741  1.00  0.00     0.004 C 
HETATM   18  C14 UNL     1       4.732  13.145 -45.068  1.00  0.00     0.032 C 
HETATM   19  C15 UNL     1       5.862  12.115 -44.908  1.00  0.00     0.168 C 
HETATM   20  O1  UNL     1       5.475  11.047 -44.145  1.00  0.00    -0.391 OA
HETATM   21  C16 UNL     1       5.242  11.337 -42.801  1.00  0.00     0.168 C 
HETATM   22  C17 UNL     1       4.903  12.831 -42.613  1.00  0.00     0.032 C 
ENDBRANCH  14  17
ENDBRANCH  10  14
BRANCH   8  23
HETATM   23  N3  UNL     1       3.921  17.788 -40.114  1.00  0.00    -0.378 N 
HETATM   24  C5  UNL     1       3.122  19.026 -40.046  1.00  0.00     0.123 C 
HETATM   25  C6  UNL     1       3.610  19.885 -38.871  1.00  0.00     0.020 C 
HETATM   26  C7  UNL     1       5.012  20.283 -39.228  1.00  0.00     0.003 C 
HETATM   27  C8  UNL     1       5.881  19.077 -39.276  1.00  0.00     0.020 C 
HETATM   28  C9  UNL     1       5.286  17.798 -39.733  1.00  0.00     0.123 C 
ENDBRANCH   8  23
TORSDOF 3
ENDMDL
MODEL 5
REMARK VINA RESULT: -7.629574778      4.366      6.500
REMARK  3 active torsions:
REMARK  status: ('A' for Active; 'I' for Inactive)
REMARK    1  A    between atoms: C4_8  and  N3_9 
REMARK    2  A    between atoms: C11_16  and  C12_17 
REMARK    3  A    between atoms: C12_17  and  C13_18 
ROOT
HETATM    1  C1  UNL     1       5.389  15.893 -47.281  1.00  0.00     0.092 C 
HETATM    2  C2  UNL     1       4.606  14.653 -47.119  1.00  0.00     0.116 A 
HETATM    3  N1  UNL     1       4.328  13.786 -48.122  1.00  0.00    -0.286 N 
ATOM      4  H1  UNL     1       4.628  13.884 -49.091  1.00  0.00     0.188 HD
HETATM    5  N2  UNL     1       3.605  12.794 -47.637  1.00  0.00    -0.281 N 
ATOM      6  H2  UNL     1       3.258  12.005 -48.182  1.00  0.00     0.188 HD
HETATM    7  C3  UNL     1       3.393  12.970 -46.327  1.00  0.00     0.170 A 
HETATM    8  C4  UNL     1       2.696  12.206 -45.389  1.00  0.00     0.080 A 
HETATM    9  C10 UNL     1       2.703  12.740 -44.109  1.00  0.00     0.060 A 
HETATM   10  C11 UNL     1       3.344  13.925 -43.793  1.00  0.00     0.037 A 
HETATM   11  N4  UNL     1       3.977  14.568 -44.759  1.00  0.00    -0.294 N 
ATOM     12  H4  UNL     1       4.454  15.441 -44.535  1.00  0.00     0.187 HD
HETATM   13  N5  UNL     1       4.018  14.123 -46.012  1.00  0.00    -0.223 N 
ENDROOT
BRANCH  10  14
HETATM   14  C12 UNL     1       3.228  14.347 -42.357  1.00  0.00     0.007 A 
HETATM   15  C18 UNL     1       1.891  14.809 -41.951  1.00  0.00     0.017 A 
HETATM   16  C19 UNL     1       2.901  15.868 -42.176  1.00  0.00     0.017 A 
BRANCH  14  17
HETATM   17  C13 UNL     1       4.324  13.954 -41.415  1.00  0.00     0.004 C 
HETATM   18  C14 UNL     1       3.749  13.680 -40.051  1.00  0.00     0.032 C 
HETATM   19  C15 UNL     1       4.784  12.816 -39.312  1.00  0.00     0.168 C 
HETATM   20  O1  UNL     1       6.066  13.206 -39.591  1.00  0.00    -0.391 OA
HETATM   21  C16 UNL     1       6.479  12.979 -40.903  1.00  0.00     0.168 C 
HETATM   22  C17 UNL     1       5.266  12.903 -41.854  1.00  0.00     0.032 C 
ENDBRANCH  14  17
ENDBRANCH  10  14
BRANCH   8  23
HETATM   23  N3  UNL     1       2.021  10.999 -45.683  1.00  0.00    -0.378 N 
HETATM   24  C5  UNL     1       2.878   9.864 -46.073  1.00  0.00     0.123 C 
HETATM   25  C6  UNL     1       2.255   8.556 -45.565  1.00  0.00     0.020 C 
HETATM   26  C7  UNL     1       0.965   8.415 -46.319  1.00  0.00     0.003 C 
HETATM   27  C8  UNL     1       0.038   9.515 -45.942  1.00  0.00     0.020 C 
HETATM   28  C9  UNL     1       0.615  10.840 -45.611  1.00  0.00     0.123 C 
ENDBRANCH   8  23
TORSDOF 3
ENDMDL
