MODEL 1
REMARK VINA RESULT: -8.025091585      0.000      0.000
REMARK  3 active torsions:
REMARK  status: ('A' for Active; 'I' for Inactive)
REMARK    1  A    between atoms: C2_2  and  C3_3 
REMARK    2  A    between atoms: C3_3  and  C4_4 
REMARK    3  A    between atoms: C7_9  and  N2_10 
ROOT
HETATM    1  C4  UNL     1       5.636  15.643 -47.032  1.00  0.00     0.104 A 
HETATM    2  N1  UNL     1       5.909  16.240 -45.862  1.00  0.00    -0.352 N 
ATOM      3  H1  UNL     1       6.503  17.057 -45.724  1.00  0.00     0.166 HD
HETATM    4  C5  UNL     1       5.262  15.570 -44.918  1.00  0.00     0.125 A 
HETATM    5  C6  UNL     1       4.578  14.541 -45.521  1.00  0.00     0.117 A 
HETATM    6  C7  UNL     1       3.749  13.550 -44.976  1.00  0.00     0.135 A 
HETATM    7  N3  UNL     1       3.214  12.670 -45.815  1.00  0.00    -0.336 N 
ATOM      8  H3  UNL     1       2.607  11.933 -45.455  1.00  0.00     0.168 HD
HETATM    9  C18 UNL     1       3.469  12.742 -47.142  1.00  0.00     0.199 A 
HETATM   10  N4  UNL     1       4.264  13.693 -47.663  1.00  0.00    -0.288 N 
ATOM     11  H4  UNL     1       4.442  13.728 -48.667  1.00  0.00     0.188 HD
HETATM   12  N5  UNL     1       4.820  14.597 -46.837  1.00  0.00    -0.238 N 
ENDROOT
BRANCH   6  13
HETATM   13  N2  UNL     1       3.523  13.532 -43.570  1.00  0.00    -0.363 N 
HETATM   14  C8  UNL     1       4.487  12.851 -42.755  1.00  0.00     0.139 C 
HETATM   15  C9  UNL     1       5.253  13.895 -41.946  1.00  0.00     0.062 C 
HETATM   16  C10 UNL     1       6.374  13.301 -41.165  1.00  0.00     0.023 C 
HETATM   17  S1  UNL     1       3.989  14.663 -40.858  1.00  0.00    -0.151 SA
HETATM   18  C11 UNL     1       2.657  15.190 -41.957  1.00  0.00     0.025 C 
HETATM   19  C12 UNL     1       1.360  15.402 -41.206  1.00  0.00     0.022 C 
HETATM   20  C16 UNL     1       3.054  16.539 -42.530  1.00  0.00     0.022 C 
HETATM   21  C17 UNL     1       2.368  14.180 -43.049  1.00  0.00     0.145 C 
HETATM   22  C13 UNL     1       1.355  16.608 -40.342  1.00  0.00     0.002 C 
HETATM   23  C14 UNL     1       2.673  17.270 -40.155  1.00  0.00     0.000 C 
HETATM   24  C15 UNL     1       3.479  17.429 -41.393  1.00  0.00     0.002 C 
ENDBRANCH   6  13
BRANCH   1  25
HETATM   25  C3  UNL     1       6.157  16.066 -48.369  1.00  0.00     0.078 C 
BRANCH  25  26
HETATM   26  C2  UNL     1       7.558  16.633 -48.230  1.00  0.00     0.003 C 
HETATM   27  C1  UNL     1       8.178  16.920 -49.558  1.00  0.00     0.005 C 
ENDBRANCH  25  26
ENDBRANCH   1  25
TORSDOF 3
ENDMDL
MODEL 2
REMARK VINA RESULT: -7.873093346      2.083      3.156
REMARK  3 active torsions:
REMARK  status: ('A' for Active; 'I' for Inactive)
REMARK    1  A    between atoms: C2_2  and  C3_3 
REMARK    2  A    between atoms: C3_3  and  C4_4 
REMARK    3  A    between atoms: C7_9  and  N2_10 
ROOT
HETATM    1  C4  UNL     1       5.444  15.617 -46.412  1.00  0.00     0.104 A 
HETATM    2  N1  UNL     1       5.966  14.659 -45.631  1.00  0.00    -0.352 N 
ATOM      3  H1  UNL     1       6.556  13.885 -45.935  1.00  0.00     0.166 HD
HETATM    4  C5  UNL     1       5.572  14.906 -44.390  1.00  0.00     0.125 A 
HETATM    5  C6  UNL     1       4.793  16.038 -44.409  1.00  0.00     0.117 A 
HETATM    6  C7  UNL     1       4.137  16.716 -43.371  1.00  0.00     0.135 A 
HETATM    7  N3  UNL     1       3.443  17.802 -43.691  1.00  0.00    -0.336 N 
ATOM      8  H3  UNL     1       2.951  18.321 -42.963  1.00  0.00     0.168 HD
HETATM    9  C18 UNL     1       3.381  18.226 -44.975  1.00  0.00     0.199 A 
HETATM   10  N4  UNL     1       4.011  17.574 -45.969  1.00  0.00    -0.288 N 
ATOM     11  H4  UNL     1       3.950  17.911 -46.930  1.00  0.00     0.188 HD
HETATM   12  N5  UNL     1       4.720  16.471 -45.674  1.00  0.00    -0.238 N 
ENDROOT
BRANCH   6  13
HETATM   13  N2  UNL     1       4.243  16.216 -42.041  1.00  0.00    -0.363 N 
HETATM   14  C8  UNL     1       5.271  16.771 -41.208  1.00  0.00     0.139 C 
HETATM   15  C9  UNL     1       4.604  17.617 -40.125  1.00  0.00     0.062 C 
HETATM   16  C10 UNL     1       5.593  18.349 -39.286  1.00  0.00     0.023 C 
HETATM   17  S1  UNL     1       3.618  16.422 -39.140  1.00  0.00    -0.151 SA
HETATM   18  C11 UNL     1       2.593  15.536 -40.334  1.00  0.00     0.025 C 
HETATM   19  C12 UNL     1       2.084  14.225 -39.774  1.00  0.00     0.022 C 
HETATM   20  C16 UNL     1       1.371  16.397 -40.604  1.00  0.00     0.022 C 
HETATM   21  C17 UNL     1       3.339  15.206 -41.610  1.00  0.00     0.145 C 
HETATM   22  C13 UNL     1       1.038  14.380 -38.734  1.00  0.00     0.002 C 
HETATM   23  C14 UNL     1       0.831  15.764 -38.232  1.00  0.00     0.000 C 
HETATM   24  C15 UNL     1       0.785  16.815 -39.283  1.00  0.00     0.002 C 
ENDBRANCH   6  13
BRANCH   1  25
HETATM   25  C3  UNL     1       5.630  15.733 -47.892  1.00  0.00     0.078 C 
BRANCH  25  26
HETATM   26  C2  UNL     1       6.957  16.400 -48.202  1.00  0.00     0.003 C 
HETATM   27  C1  UNL     1       7.246  16.413 -49.667  1.00  0.00     0.005 C 
ENDBRANCH  25  26
ENDBRANCH   1  25
TORSDOF 3
ENDMDL
MODEL 3
REMARK VINA RESULT: -7.835364692      3.644      5.066
REMARK  3 active torsions:
REMARK  status: ('A' for Active; 'I' for Inactive)
REMARK    1  A    between atoms: C2_2  and  C3_3 
REMARK    2  A    between atoms: C3_3  and  C4_4 
REMARK    3  A    between atoms: C7_9  and  N2_10 
ROOT
HETATM    1  C4  UNL     1       2.712  12.310 -44.509  1.00  0.00     0.104 A 
HETATM    2  N1  UNL     1       1.541  12.962 -44.552  1.00  0.00    -0.352 N 
ATOM      3  H1  UNL     1       0.791  12.815 -45.227  1.00  0.00     0.166 HD
HETATM    4  C5  UNL     1       1.539  13.834 -43.554  1.00  0.00     0.125 A 
HETATM    5  C6  UNL     1       2.734  13.714 -42.884  1.00  0.00     0.117 A 
HETATM    6  C7  UNL     1       3.228  14.399 -41.764  1.00  0.00     0.135 A 
HETATM    7  N3  UNL     1       4.438  14.068 -41.328  1.00  0.00    -0.336 N 
ATOM      8  H3  UNL     1       4.832  14.545 -40.517  1.00  0.00     0.168 HD
HETATM    9  C18 UNL     1       5.153  13.102 -41.951  1.00  0.00     0.199 A 
HETATM   10  N4  UNL     1       4.677  12.446 -43.025  1.00  0.00    -0.288 N 
ATOM     11  H4  UNL     1       5.234  11.722 -43.480  1.00  0.00     0.188 HD
HETATM   12  N5  UNL     1       3.456  12.763 -43.488  1.00  0.00    -0.238 N 
ENDROOT
BRANCH   6  13
HETATM   13  N2  UNL     1       2.423  15.404 -41.155  1.00  0.00    -0.363 N 
HETATM   14  C8  UNL     1       1.413  14.972 -40.233  1.00  0.00     0.139 C 
HETATM   15  C9  UNL     1       1.834  15.400 -38.828  1.00  0.00     0.062 C 
HETATM   16  C10 UNL     1       0.916  14.879 -37.777  1.00  0.00     0.023 C 
HETATM   17  S1  UNL     1       1.845  17.235 -38.882  1.00  0.00    -0.151 SA
HETATM   18  C11 UNL     1       2.883  17.673 -40.294  1.00  0.00     0.025 C 
HETATM   19  C12 UNL     1       2.624  19.089 -40.763  1.00  0.00     0.022 C 
HETATM   20  C16 UNL     1       4.326  17.629 -39.822  1.00  0.00     0.022 C 
HETATM   21  C17 UNL     1       2.655  16.769 -41.487  1.00  0.00     0.145 C 
HETATM   22  C13 UNL     1       3.139  20.132 -39.843  1.00  0.00     0.002 C 
HETATM   23  C14 UNL     1       3.597  19.648 -38.514  1.00  0.00     0.000 C 
HETATM   24  C15 UNL     1       4.431  18.418 -38.545  1.00  0.00     0.002 C 
ENDBRANCH   6  13
BRANCH   1  25
HETATM   25  C3  UNL     1       3.146  11.232 -45.452  1.00  0.00     0.078 C 
BRANCH  25  26
HETATM   26  C2  UNL     1       2.756   9.871 -44.906  1.00  0.00     0.003 C 
HETATM   27  C1  UNL     1       2.261   8.960 -45.981  1.00  0.00     0.005 C 
ENDBRANCH  25  26
ENDBRANCH   1  25
TORSDOF 3
ENDMDL
MODEL 4
REMARK VINA RESULT: -7.819874853      1.765      2.962
REMARK  3 active torsions:
REMARK  status: ('A' for Active; 'I' for Inactive)
REMARK    1  A    between atoms: C2_2  and  C3_3 
REMARK    2  A    between atoms: C3_3  and  C4_4 
REMARK    3  A    between atoms: C7_9  and  N2_10 
ROOT
HETATM    1  C4  UNL     1       5.589  16.100 -46.601  1.00  0.00     0.104 A 
HETATM    2  N1  UNL     1       6.361  16.699 -45.682  1.00  0.00    -0.352 N 
ATOM      3  H1  UNL     1       7.263  17.145 -45.847  1.00  0.00     0.166 HD
HETATM    4  C5  UNL     1       5.733  16.604 -44.519  1.00  0.00     0.125 A 
HETATM    5  C6  UNL     1       4.551  15.933 -44.728  1.00  0.00     0.117 A 
HETATM    6  C7  UNL     1       3.531  15.575 -43.834  1.00  0.00     0.135 A 
HETATM    7  N3  UNL     1       2.488  14.918 -44.328  1.00  0.00    -0.336 N 
ATOM      8  H3  UNL     1       1.727  14.639 -43.708  1.00  0.00     0.168 HD
HETATM    9  C18 UNL     1       2.426  14.616 -45.646  1.00  0.00     0.199 A 
HETATM   10  N4  UNL     1       3.405  14.960 -46.501  1.00  0.00    -0.288 N 
ATOM     11  H4  UNL     1       3.337  14.721 -47.491  1.00  0.00     0.188 HD
HETATM   12  N5  UNL     1       4.474  15.624 -46.029  1.00  0.00    -0.238 N 
ENDROOT
BRANCH   6  13
HETATM   13  N2  UNL     1       3.659  15.925 -42.460  1.00  0.00    -0.363 N 
HETATM   14  C8  UNL     1       3.768  17.320 -42.141  1.00  0.00     0.139 C 
HETATM   15  C9  UNL     1       2.480  17.752 -41.443  1.00  0.00     0.062 C 
HETATM   16  C10 UNL     1       2.435  19.219 -41.190  1.00  0.00     0.023 C 
HETATM   17  S1  UNL     1       2.447  16.785 -39.883  1.00  0.00    -0.151 SA
HETATM   18  C11 UNL     1       2.656  15.060 -40.375  1.00  0.00     0.025 C 
HETATM   19  C12 UNL     1       3.119  14.199 -39.220  1.00  0.00     0.022 C 
HETATM   20  C16 UNL     1       1.289  14.540 -40.784  1.00  0.00     0.022 C 
HETATM   21  C17 UNL     1       3.675  14.890 -41.483  1.00  0.00     0.145 C 
HETATM   22  C13 UNL     1       2.077  13.957 -38.192  1.00  0.00     0.002 C 
HETATM   23  C14 UNL     1       0.845  14.780 -38.321  1.00  0.00     0.000 C 
HETATM   24  C15 UNL     1       0.305  14.893 -39.701  1.00  0.00     0.002 C 
ENDBRANCH   6  13
BRANCH   1  25
HETATM   25  C3  UNL     1       5.908  15.971 -48.057  1.00  0.00     0.078 C 
BRANCH  25  26
HETATM   26  C2  UNL     1       7.282  16.548 -48.346  1.00  0.00     0.003 C 
HETATM   27  C1  UNL     1       7.585  16.560 -49.808  1.00  0.00     0.005 C 
ENDBRANCH  25  26
ENDBRANCH   1  25
TORSDOF 3
ENDMDL
MODEL 5
REMARK VINA RESULT: -7.728885339      3.262      4.928
REMARK  3 active torsions:
REMARK  status: ('A' for Active; 'I' for Inactive)
REMARK    1  A    between atoms: C2_2  and  C3_3 
REMARK    2  A    between atoms: C3_3  and  C4_4 
REMARK    3  A    between atoms: C7_9  and  N2_10 
ROOT
HETATM    1  C4  UNL     1       2.288  11.588 -44.881  1.00  0.00     0.104 A 
HETATM    2  N1  UNL     1       1.518  12.661 -44.645  1.00  0.00    -0.352 N 
ATOM      3  H1  UNL     1       0.596  12.843 -45.042  1.00  0.00     0.166 HD
HETATM    4  C5  UNL     1       2.178  13.441 -43.802  1.00  0.00     0.125 A 
HETATM    5  C6  UNL     1       3.378  12.835 -43.513  1.00  0.00     0.117 A 
HETATM    6  C7  UNL     1       4.432  13.241 -42.681  1.00  0.00     0.135 A 
HETATM    7  N3  UNL     1       5.487  12.439 -42.594  1.00  0.00    -0.336 N 
ATOM      8  H3  UNL     1       6.274  12.702 -42.001  1.00  0.00     0.168 HD
HETATM    9  C18 UNL     1       5.526  11.277 -43.286  1.00  0.00     0.199 A 
HETATM   10  N4  UNL     1       4.515  10.889 -44.084  1.00  0.00    -0.288 N 
ATOM     11  H4  UNL     1       4.566  10.009 -44.597  1.00  0.00     0.188 HD
HETATM   12  N5  UNL     1       3.435  11.682 -44.192  1.00  0.00    -0.238 N 
ENDROOT
BRANCH   6  13
HETATM   13  N2  UNL     1       4.325  14.477 -41.980  1.00  0.00    -0.363 N 
HETATM   14  C8  UNL     1       4.653  15.674 -42.699  1.00  0.00     0.139 C 
HETATM   15  C9  UNL     1       3.364  16.460 -42.932  1.00  0.00     0.062 C 
HETATM   16  C10 UNL     1       3.577  17.658 -43.791  1.00  0.00     0.023 C 
HETATM   17  S1  UNL     1       2.784  16.915 -41.251  1.00  0.00    -0.151 SA
HETATM   18  C11 UNL     1       2.727  15.368 -40.321  1.00  0.00     0.025 C 
HETATM   19  C12 UNL     1       2.730  15.609 -38.827  1.00  0.00     0.022 C 
HETATM   20  C16 UNL     1       1.405  14.694 -40.649  1.00  0.00     0.022 C 
HETATM   21  C17 UNL     1       3.905  14.464 -40.621  1.00  0.00     0.145 C 
HETATM   22  C13 UNL     1       1.460  16.170 -38.304  1.00  0.00     0.002 C 
HETATM   23  C14 UNL     1       0.490  16.631 -39.332  1.00  0.00     0.000 C 
HETATM   24  C15 UNL     1       0.304  15.707 -40.481  1.00  0.00     0.002 C 
ENDBRANCH   6  13
BRANCH   1  25
HETATM   25  C3  UNL     1       1.938  10.443 -45.779  1.00  0.00     0.078 C 
BRANCH  25  26
HETATM   26  C2  UNL     1       0.470  10.092 -45.630  1.00  0.00     0.003 C 
HETATM   27  C1  UNL     1       0.123   8.831 -46.351  1.00  0.00     0.005 C 
ENDBRANCH  25  26
ENDBRANCH   1  25
TORSDOF 3
ENDMDL
