MODEL 1
REMARK VINA RESULT: -5.754211281      0.000      0.000
REMARK  9 active torsions:
REMARK  status: ('A' for Active; 'I' for Inactive)
REMARK    1  A    between atoms: C2_2  and  C4_4 
REMARK    2  A    between atoms: N1_10  and  O2_12 
REMARK    3  A    between atoms: C18_23  and  N2_24 
REMARK    4  A    between atoms: N2_24  and  C19_26 
REMARK    5  A    between atoms: C19_26  and  C20_27 
REMARK    6  A    between atoms: C20_27  and  N3_28 
REMARK    7  A    between atoms: N3_28  and  C22_30 
REMARK    8  A    between atoms: C22_30  and  C23_31 
REMARK    9  A    between atoms: C23_31  and  N4_32 
ROOT
HETATM    1  C4  UNL     1     -10.710  16.427 -25.614  1.00  0.00    -0.009 C 
HETATM    2  C5  UNL     1     -11.571  15.849 -24.511  1.00  0.00     0.013 C 
HETATM    3  C6  UNL     1     -12.779  15.220 -25.212  1.00  0.00     0.085 C 
HETATM    4  C7  UNL     1     -13.935  15.034 -24.336  1.00  0.00     0.173 C 
HETATM    5  O1  UNL     1     -14.637  16.036 -24.048  1.00  0.00    -0.291 OA
HETATM    6  C8  UNL     1     -14.343  13.759 -23.765  1.00  0.00     0.077 C 
HETATM    7  N1  UNL     1     -15.580  13.410 -23.655  1.00  0.00    -0.270 N 
ATOM      8  H1  UNL     1     -15.810  12.504 -23.248  1.00  0.00     0.194 HD
HETATM    9  C9  UNL     1     -13.309  12.781 -23.266  1.00  0.00     0.063 C 
HETATM   10  C10 UNL     1     -13.926  11.416 -23.220  1.00  0.00     0.006 C 
HETATM   11  C11 UNL     1     -12.985  10.341 -22.811  1.00  0.00     0.000 C 
HETATM   12  C12 UNL     1     -11.554  10.757 -22.722  1.00  0.00     0.000 C 
HETATM   13  C13 UNL     1     -10.785  10.578 -24.013  1.00  0.00     0.000 C 
HETATM   14  C14 UNL     1      -9.412  11.190 -23.883  1.00  0.00     0.000 C 
HETATM   15  C15 UNL     1      -8.930  11.783 -25.185  1.00  0.00     0.000 C 
HETATM   16  C16 UNL     1      -8.275  13.123 -24.898  1.00  0.00     0.002 C 
HETATM   17  C17 UNL     1      -8.846  14.189 -25.804  1.00  0.00     0.025 C 
HETATM   18  C18 UNL     1      -8.315  15.556 -25.542  1.00  0.00     0.081 C 
HETATM   19  C29 UNL     1      -9.289  16.630 -25.276  1.00  0.00     0.030 C 
ENDROOT
BRANCH  18  20
HETATM   20  N2  UNL     1      -7.438  15.893 -26.627  1.00  0.00    -0.396 N 
ATOM     21  H2  UNL     1      -7.812  16.186 -27.530  1.00  0.00     0.159 HD
BRANCH  20  22
HETATM   22  C19 UNL     1      -6.051  15.810 -26.417  1.00  0.00     0.075 C 
BRANCH  22  23
HETATM   23  C20 UNL     1      -5.581  16.250 -25.075  1.00  0.00     0.165 C 
BRANCH  23  24
HETATM   24  N3  UNL     1      -4.539  15.410 -24.541  1.00  0.00    -0.391 N 
HETATM   25  C21 UNL     1      -3.283  15.958 -24.338  1.00  0.00     0.149 C 
BRANCH  24  26
HETATM   26  C22 UNL     1      -4.798  14.041 -24.490  1.00  0.00     0.088 C 
BRANCH  26  27
HETATM   27  C23 UNL     1      -4.968  13.336 -23.222  1.00  0.00     0.316 C 
BRANCH  27  28
HETATM   28  N4  UNL     1      -4.799  11.927 -23.149  1.00  0.00     0.093 N 
HETATM   29  C24 UNL     1      -5.547  11.271 -22.118  1.00  0.00     0.273 C 
HETATM   30  C25 UNL     1      -5.236   9.808 -21.968  1.00  0.00     0.030 C 
HETATM   31  C26 UNL     1      -5.130   9.151 -23.330  1.00  0.00     0.003 C 
HETATM   32  C27 UNL     1      -5.793  10.068 -24.357  1.00  0.00     0.030 C 
HETATM   33  C28 UNL     1      -4.928  11.284 -24.442  1.00  0.00     0.273 C 
ENDBRANCH  27  28
ENDBRANCH  26  27
ENDBRANCH  24  26
ENDBRANCH  23  24
ENDBRANCH  22  23
ENDBRANCH  20  22
ENDBRANCH  18  20
BRANCH   1  34
HETATM   34  C2  UNL     1     -11.326  17.786 -25.947  1.00  0.00    -0.019 C 
HETATM   35  C1  UNL     1     -10.304  18.744 -26.521  1.00  0.00     0.010 C 
HETATM   36  C3  UNL     1     -11.963  18.453 -24.768  1.00  0.00     0.010 C 
ENDBRANCH   1  34
BRANCH   7  37
HETATM   37  O2  UNL     1     -16.590  14.235 -24.076  1.00  0.00    -0.290 OA
ATOM     38  H2  UNL     1     -17.133  14.704 -23.453  1.00  0.00     0.244 HD
ENDBRANCH   7  37
TORSDOF 9
ENDMDL
MODEL 2
REMARK VINA RESULT: -5.731601677      3.159      5.650
REMARK  9 active torsions:
REMARK  status: ('A' for Active; 'I' for Inactive)
REMARK    1  A    between atoms: C2_2  and  C4_4 
REMARK    2  A    between atoms: N1_10  and  O2_12 
REMARK    3  A    between atoms: C18_23  and  N2_24 
REMARK    4  A    between atoms: N2_24  and  C19_26 
REMARK    5  A    between atoms: C19_26  and  C20_27 
REMARK    6  A    between atoms: C20_27  and  N3_28 
REMARK    7  A    between atoms: N3_28  and  C22_30 
REMARK    8  A    between atoms: C22_30  and  C23_31 
REMARK    9  A    between atoms: C23_31  and  N4_32 
ROOT
HETATM    1  C4  UNL     1      -7.222  13.553 -25.028  1.00  0.00    -0.009 C 
HETATM    2  C5  UNL     1      -8.247  14.562 -24.558  1.00  0.00     0.013 C 
HETATM    3  C6  UNL     1      -8.985  15.023 -25.819  1.00  0.00     0.085 C 
HETATM    4  C7  UNL     1      -9.668  16.307 -25.663  1.00  0.00     0.173 C 
HETATM    5  O1  UNL     1      -8.981  17.359 -25.691  1.00  0.00    -0.291 OA
HETATM    6  C8  UNL     1     -11.102  16.463 -25.475  1.00  0.00     0.077 C 
HETATM    7  N1  UNL     1     -11.778  17.411 -26.031  1.00  0.00    -0.270 N 
ATOM      8  H1  UNL     1     -12.782  17.474 -25.867  1.00  0.00     0.194 HD
HETATM    9  C9  UNL     1     -11.866  15.502 -24.600  1.00  0.00     0.063 C 
HETATM   10  C10 UNL     1     -13.316  15.562 -24.977  1.00  0.00     0.006 C 
HETATM   11  C11 UNL     1     -14.173  14.602 -24.233  1.00  0.00     0.000 C 
HETATM   12  C12 UNL     1     -13.433  13.607 -23.403  1.00  0.00     0.000 C 
HETATM   13  C13 UNL     1     -13.094  12.330 -24.140  1.00  0.00     0.000 C 
HETATM   14  C14 UNL     1     -12.194  11.467 -23.289  1.00  0.00     0.000 C 
HETATM   15  C15 UNL     1     -11.205  10.686 -24.120  1.00  0.00     0.000 C 
HETATM   16  C16 UNL     1      -9.848  10.737 -23.440  1.00  0.00     0.002 C 
HETATM   17  C17 UNL     1      -8.785  11.164 -24.424  1.00  0.00     0.025 C 
HETATM   18  C18 UNL     1      -7.429  11.314 -23.826  1.00  0.00     0.081 C 
HETATM   19  C29 UNL     1      -6.741  12.605 -24.006  1.00  0.00     0.030 C 
ENDROOT
BRANCH  18  20
HETATM   20  N2  UNL     1      -6.629  10.218 -24.291  1.00  0.00    -0.396 N 
ATOM     21  H2  UNL     1      -7.022   9.280 -24.371  1.00  0.00     0.159 HD
BRANCH  20  22
HETATM   22  C19 UNL     1      -5.289  10.466 -24.634  1.00  0.00     0.075 C 
BRANCH  22  23
HETATM   23  C20 UNL     1      -4.278   9.970 -23.660  1.00  0.00     0.165 C 
BRANCH  23  24
HETATM   24  N3  UNL     1      -4.730   8.821 -22.917  1.00  0.00    -0.391 N 
HETATM   25  C21 UNL     1      -5.062   8.983 -21.582  1.00  0.00     0.149 C 
BRANCH  24  26
HETATM   26  C22 UNL     1      -4.573   7.577 -23.526  1.00  0.00     0.088 C 
BRANCH  26  27
HETATM   27  C23 UNL     1      -3.360   6.782 -23.353  1.00  0.00     0.316 C 
BRANCH  27  28
HETATM   28  N4  UNL     1      -3.284   5.788 -22.339  1.00  0.00     0.093 N 
HETATM   29  C24 UNL     1      -3.570   4.451 -22.767  1.00  0.00     0.273 C 
HETATM   30  C25 UNL     1      -3.628   3.446 -21.650  1.00  0.00     0.030 C 
HETATM   31  C26 UNL     1      -2.490   3.678 -20.676  1.00  0.00     0.003 C 
HETATM   32  C27 UNL     1      -1.436   4.544 -21.367  1.00  0.00     0.030 C 
HETATM   33  C28 UNL     1      -2.068   5.886 -21.556  1.00  0.00     0.273 C 
ENDBRANCH  27  28
ENDBRANCH  26  27
ENDBRANCH  24  26
ENDBRANCH  23  24
ENDBRANCH  22  23
ENDBRANCH  20  22
ENDBRANCH  18  20
BRANCH   1  34
HETATM   34  C2  UNL     1      -6.031  14.376 -25.520  1.00  0.00    -0.019 C 
HETATM   35  C1  UNL     1      -5.298  13.690 -26.653  1.00  0.00     0.010 C 
HETATM   36  C3  UNL     1      -5.031  14.673 -24.446  1.00  0.00     0.010 C 
ENDBRANCH   1  34
BRANCH   7  37
HETATM   37  O2  UNL     1     -11.168  18.337 -26.839  1.00  0.00    -0.290 OA
ATOM     38  H2  UNL     1     -10.881  19.175 -26.496  1.00  0.00     0.244 HD
ENDBRANCH   7  37
TORSDOF 9
ENDMDL
MODEL 3
REMARK VINA RESULT: -5.731439051      4.201      7.449
REMARK  9 active torsions:
REMARK  status: ('A' for Active; 'I' for Inactive)
REMARK    1  A    between atoms: C2_2  and  C4_4 
REMARK    2  A    between atoms: N1_10  and  O2_12 
REMARK    3  A    between atoms: C18_23  and  N2_24 
REMARK    4  A    between atoms: N2_24  and  C19_26 
REMARK    5  A    between atoms: C19_26  and  C20_27 
REMARK    6  A    between atoms: C20_27  and  N3_28 
REMARK    7  A    between atoms: N3_28  and  C22_30 
REMARK    8  A    between atoms: C22_30  and  C23_31 
REMARK    9  A    between atoms: C23_31  and  N4_32 
ROOT
HETATM    1  C4  UNL     1      -5.177  12.785 -24.796  1.00  0.00    -0.009 C 
HETATM    2  C5  UNL     1      -5.966  14.058 -24.582  1.00  0.00     0.013 C 
HETATM    3  C6  UNL     1      -6.284  14.591 -25.982  1.00  0.00     0.085 C 
HETATM    4  C7  UNL     1      -6.613  16.016 -26.008  1.00  0.00     0.173 C 
HETATM    5  O1  UNL     1      -5.677  16.849 -25.914  1.00  0.00    -0.291 OA
HETATM    6  C8  UNL     1      -7.960  16.550 -26.137  1.00  0.00     0.077 C 
HETATM    7  N1  UNL     1      -8.230  17.593 -26.848  1.00  0.00    -0.270 N 
ATOM      8  H1  UNL     1      -9.192  17.925 -26.905  1.00  0.00     0.194 HD
HETATM    9  C9  UNL     1      -9.114  15.892 -25.423  1.00  0.00     0.063 C 
HETATM   10  C10 UNL     1     -10.388  16.293 -26.103  1.00  0.00     0.006 C 
HETATM   11  C11 UNL     1     -11.603  15.650 -25.538  1.00  0.00     0.000 C 
HETATM   12  C12 UNL     1     -11.339  14.569 -24.545  1.00  0.00     0.000 C 
HETATM   13  C13 UNL     1     -11.216  13.192 -25.159  1.00  0.00     0.000 C 
HETATM   14  C14 UNL     1     -10.771  12.198 -24.114  1.00  0.00     0.000 C 
HETATM   15  C15 UNL     1      -9.882  11.125 -24.694  1.00  0.00     0.000 C 
HETATM   16  C16 UNL     1      -8.727  10.878 -23.740  1.00  0.00     0.002 C 
HETATM   17  C17 UNL     1      -7.413  10.936 -24.483  1.00  0.00     0.025 C 
HETATM   18  C18 UNL     1      -6.215  10.780 -23.612  1.00  0.00     0.081 C 
HETATM   19  C29 UNL     1      -5.183  11.831 -23.671  1.00  0.00     0.030 C 
ENDROOT
BRANCH  18  20
HETATM   20  N2  UNL     1      -5.663   9.480 -23.867  1.00  0.00    -0.396 N 
ATOM     21  H2  UNL     1      -6.218   8.757 -24.325  1.00  0.00     0.159 HD
BRANCH  20  22
HETATM   22  C19 UNL     1      -4.339   9.226 -23.471  1.00  0.00     0.075 C 
BRANCH  22  23
HETATM   23  C20 UNL     1      -4.178   8.208 -22.397  1.00  0.00     0.165 C 
BRANCH  23  24
HETATM   24  N3  UNL     1      -3.712   6.937 -22.892  1.00  0.00    -0.391 N 
HETATM   25  C21 UNL     1      -4.645   5.959 -23.192  1.00  0.00     0.149 C 
BRANCH  24  26
HETATM   26  C22 UNL     1      -2.341   6.694 -22.808  1.00  0.00     0.088 C 
BRANCH  26  27
HETATM   27  C23 UNL     1      -1.776   5.374 -23.076  1.00  0.00     0.316 C 
BRANCH  27  28
HETATM   28  N4  UNL     1      -1.163   4.624 -22.036  1.00  0.00     0.093 N 
HETATM   29  C24 UNL     1      -0.004   5.224 -21.446  1.00  0.00     0.273 C 
HETATM   30  C25 UNL     1       0.708   4.345 -20.456  1.00  0.00     0.030 C 
HETATM   31  C26 UNL     1      -0.294   3.646 -19.559  1.00  0.00     0.003 C 
HETATM   32  C27 UNL     1      -1.628   4.386 -19.663  1.00  0.00     0.030 C 
HETATM   33  C28 UNL     1      -2.120   4.151 -21.055  1.00  0.00     0.273 C 
ENDBRANCH  27  28
ENDBRANCH  26  27
ENDBRANCH  24  26
ENDBRANCH  23  24
ENDBRANCH  22  23
ENDBRANCH  20  22
ENDBRANCH  18  20
BRANCH   1  34
HETATM   34  C2  UNL     1      -3.734  13.231 -25.041  1.00  0.00    -0.019 C 
HETATM   35  C1  UNL     1      -2.806  12.053 -25.252  1.00  0.00     0.010 C 
HETATM   36  C3  UNL     1      -3.173  14.058 -23.927  1.00  0.00     0.010 C 
ENDBRANCH   1  34
BRANCH   7  37
HETATM   37  O2  UNL     1      -7.245  18.261 -27.529  1.00  0.00    -0.290 OA
ATOM     38  H2  UNL     1      -6.988  17.998 -28.405  1.00  0.00     0.244 HD
ENDBRANCH   7  37
TORSDOF 9
ENDMDL
MODEL 4
REMARK VINA RESULT: -5.665714064      2.752      5.706
REMARK  9 active torsions:
REMARK  status: ('A' for Active; 'I' for Inactive)
REMARK    1  A    between atoms: C2_2  and  C4_4 
REMARK    2  A    between atoms: N1_10  and  O2_12 
REMARK    3  A    between atoms: C18_23  and  N2_24 
REMARK    4  A    between atoms: N2_24  and  C19_26 
REMARK    5  A    between atoms: C19_26  and  C20_27 
REMARK    6  A    between atoms: C20_27  and  N3_28 
REMARK    7  A    between atoms: N3_28  and  C22_30 
REMARK    8  A    between atoms: C22_30  and  C23_31 
REMARK    9  A    between atoms: C23_31  and  N4_32 
ROOT
HETATM    1  C4  UNL     1      -6.858  11.479 -24.303  1.00  0.00    -0.009 C 
HETATM    2  C5  UNL     1      -8.165  10.724 -24.410  1.00  0.00     0.013 C 
HETATM    3  C6  UNL     1      -9.261  11.742 -24.082  1.00  0.00     0.085 C 
HETATM    4  C7  UNL     1     -10.525  11.132 -23.671  1.00  0.00     0.173 C 
HETATM    5  O1  UNL     1     -10.617  10.672 -22.505  1.00  0.00    -0.291 OA
HETATM    6  C8  UNL     1     -11.702  11.016 -24.519  1.00  0.00     0.077 C 
HETATM    7  N1  UNL     1     -12.900  11.190 -24.074  1.00  0.00    -0.270 N 
ATOM      8  H1  UNL     1     -13.690  11.098 -24.712  1.00  0.00     0.194 HD
HETATM    9  C9  UNL     1     -11.558  10.676 -25.981  1.00  0.00     0.063 C 
HETATM   10  C10 UNL     1     -12.800  11.113 -26.698  1.00  0.00     0.006 C 
HETATM   11  C11 UNL     1     -12.756  10.900 -28.167  1.00  0.00     0.000 C 
HETATM   12  C12 UNL     1     -11.425  10.491 -28.706  1.00  0.00     0.000 C 
HETATM   13  C13 UNL     1     -10.547  11.655 -29.112  1.00  0.00     0.000 C 
HETATM   14  C14 UNL     1      -9.167  11.159 -29.467  1.00  0.00     0.000 C 
HETATM   15  C15 UNL     1      -8.094  12.153 -29.091  1.00  0.00     0.000 C 
HETATM   16  C16 UNL     1      -6.930  11.402 -28.467  1.00  0.00     0.002 C 
HETATM   17  C17 UNL     1      -6.545  12.035 -27.151  1.00  0.00     0.025 C 
HETATM   18  C18 UNL     1      -5.458  11.318 -26.428  1.00  0.00     0.081 C 
HETATM   19  C29 UNL     1      -5.720  10.898 -25.039  1.00  0.00     0.030 C 
ENDROOT
BRANCH  18  20
HETATM   20  N2  UNL     1      -4.273  12.123 -26.523  1.00  0.00    -0.396 N 
ATOM     21  H2  UNL     1      -3.348  11.696 -26.490  1.00  0.00     0.159 HD
BRANCH  20  22
HETATM   22  C19 UNL     1      -4.419  13.514 -26.661  1.00  0.00     0.075 C 
BRANCH  22  23
HETATM   23  C20 UNL     1      -4.171  14.308 -25.426  1.00  0.00     0.165 C 
BRANCH  23  24
HETATM   24  N3  UNL     1      -5.035  15.456 -25.314  1.00  0.00    -0.391 N 
HETATM   25  C21 UNL     1      -4.464  16.695 -25.070  1.00  0.00     0.149 C 
BRANCH  24  26
HETATM   26  C22 UNL     1      -6.403  15.207 -25.218  1.00  0.00     0.088 C 
BRANCH  26  27
HETATM   27  C23 UNL     1      -7.396  16.230 -25.536  1.00  0.00     0.316 C 
BRANCH  27  28
HETATM   28  N4  UNL     1      -8.749  15.873 -25.789  1.00  0.00     0.093 N 
HETATM   29  C24 UNL     1      -8.955  14.529 -26.239  1.00  0.00     0.273 C 
HETATM   30  C25 UNL     1     -10.372  14.225 -26.641  1.00  0.00     0.030 C 
HETATM   31  C26 UNL     1     -11.340  14.821 -25.638  1.00  0.00     0.003 C 
HETATM   32  C27 UNL     1     -10.569  15.138 -24.357  1.00  0.00     0.030 C 
HETATM   33  C28 UNL     1      -9.634  16.252 -24.705  1.00  0.00     0.273 C 
ENDBRANCH  27  28
ENDBRANCH  26  27
ENDBRANCH  24  26
ENDBRANCH  23  24
ENDBRANCH  22  23
ENDBRANCH  20  22
ENDBRANCH  18  20
BRANCH   1  34
HETATM   34  C2  UNL     1      -6.511  11.492 -22.813  1.00  0.00    -0.019 C 
HETATM   35  C1  UNL     1      -5.538  12.600 -22.469  1.00  0.00     0.010 C 
HETATM   36  C3  UNL     1      -5.923  10.203 -22.331  1.00  0.00     0.010 C 
ENDBRANCH   1  34
BRANCH   7  37
HETATM   37  O2  UNL     1     -13.131  11.496 -22.757  1.00  0.00    -0.290 OA
ATOM     38  H2  UNL     1     -13.967  11.307 -22.348  1.00  0.00     0.244 HD
ENDBRANCH   7  37
TORSDOF 9
ENDMDL
MODEL 5
REMARK VINA RESULT: -5.661956599      2.580      4.538
REMARK  9 active torsions:
REMARK  status: ('A' for Active; 'I' for Inactive)
REMARK    1  A    between atoms: C2_2  and  C4_4 
REMARK    2  A    between atoms: N1_10  and  O2_12 
REMARK    3  A    between atoms: C18_23  and  N2_24 
REMARK    4  A    between atoms: N2_24  and  C19_26 
REMARK    5  A    between atoms: C19_26  and  C20_27 
REMARK    6  A    between atoms: C20_27  and  N3_28 
REMARK    7  A    between atoms: N3_28  and  C22_30 
REMARK    8  A    between atoms: C22_30  and  C23_31 
REMARK    9  A    between atoms: C23_31  and  N4_32 
ROOT
HETATM    1  C4  UNL     1      -8.372  14.625 -25.472  1.00  0.00    -0.009 C 
HETATM    2  C5  UNL     1      -9.532  15.181 -24.674  1.00  0.00     0.013 C 
HETATM    3  C6  UNL     1     -10.632  15.485 -25.695  1.00  0.00     0.085 C 
HETATM    4  C7  UNL     1     -11.628  16.444 -25.218  1.00  0.00     0.173 C 
HETATM    5  O1  UNL     1     -11.324  17.664 -25.196  1.00  0.00    -0.291 OA
HETATM    6  C8  UNL     1     -12.963  16.090 -24.760  1.00  0.00     0.077 C 
HETATM    7  N1  UNL     1     -14.003  16.805 -25.029  1.00  0.00    -0.270 N 
ATOM      8  H1  UNL     1     -14.916  16.510 -24.684  1.00  0.00     0.194 HD
HETATM    9  C9  UNL     1     -13.181  14.850 -23.931  1.00  0.00     0.063 C 
HETATM   10  C10 UNL     1     -14.624  14.454 -24.033  1.00  0.00     0.006 C 
HETATM   11  C11 UNL     1     -14.958  13.197 -23.316  1.00  0.00     0.000 C 
HETATM   12  C12 UNL     1     -13.783  12.435 -22.799  1.00  0.00     0.000 C 
HETATM   13  C13 UNL     1     -13.234  11.421 -23.779  1.00  0.00     0.000 C 
HETATM   14  C14 UNL     1     -11.949  10.835 -23.248  1.00  0.00     0.000 C 
HETATM   15  C15 UNL     1     -10.973  10.514 -24.354  1.00  0.00     0.000 C 
HETATM   16  C16 UNL     1      -9.584  10.953 -23.923  1.00  0.00     0.002 C 
HETATM   17  C17 UNL     1      -8.947  11.804 -24.996  1.00  0.00     0.025 C 
HETATM   18  C18 UNL     1      -7.609  12.344 -24.628  1.00  0.00     0.081 C 
HETATM   19  C29 UNL     1      -7.411  13.802 -24.715  1.00  0.00     0.030 C 
ENDROOT
BRANCH  18  20
HETATM   20  N2  UNL     1      -6.629  11.629 -25.396  1.00  0.00    -0.396 N 
ATOM     21  H2  UNL     1      -6.419  11.901 -26.356  1.00  0.00     0.159 HD
BRANCH  20  22
HETATM   22  C19 UNL     1      -5.967  10.546 -24.794  1.00  0.00     0.075 C 
BRANCH  22  23
HETATM   23  C20 UNL     1      -5.813  10.634 -23.315  1.00  0.00     0.165 C 
BRANCH  23  24
HETATM   24  N3  UNL     1      -5.253   9.439 -22.737  1.00  0.00    -0.391 N 
HETATM   25  C21 UNL     1      -5.257   9.303 -21.358  1.00  0.00     0.149 C 
BRANCH  24  26
HETATM   26  C22 UNL     1      -4.526   8.608 -23.589  1.00  0.00     0.088 C 
BRANCH  26  27
HETATM   27  C23 UNL     1      -4.624   7.153 -23.515  1.00  0.00     0.316 C 
BRANCH  27  28
HETATM   28  N4  UNL     1      -3.677   6.400 -22.769  1.00  0.00     0.093 N 
HETATM   29  C24 UNL     1      -3.825   4.977 -22.846  1.00  0.00     0.273 C 
HETATM   30  C25 UNL     1      -2.907   4.212 -21.933  1.00  0.00     0.030 C 
HETATM   31  C26 UNL     1      -1.514   4.810 -21.969  1.00  0.00     0.003 C 
HETATM   32  C27 UNL     1      -1.399   5.683 -23.219  1.00  0.00     0.030 C 
HETATM   33  C28 UNL     1      -2.315   6.843 -22.994  1.00  0.00     0.273 C 
ENDBRANCH  27  28
ENDBRANCH  26  27
ENDBRANCH  24  26
ENDBRANCH  23  24
ENDBRANCH  22  23
ENDBRANCH  20  22
ENDBRANCH  18  20
BRANCH   1  34
HETATM   34  C2  UNL     1      -7.632  15.844 -26.026  1.00  0.00    -0.019 C 
HETATM   35  C1  UNL     1      -7.360  15.714 -27.509  1.00  0.00     0.010 C 
HETATM   36  C3  UNL     1      -6.325  16.103 -25.344  1.00  0.00     0.010 C 
ENDBRANCH   1  34
BRANCH   7  37
HETATM   37  O2  UNL     1     -13.902  17.953 -25.772  1.00  0.00    -0.290 OA
ATOM     38  H2  UNL     1     -13.668  17.923 -26.692  1.00  0.00     0.244 HD
ENDBRANCH   7  37
TORSDOF 9
ENDMDL
