MODEL 1
REMARK VINA RESULT: -6.153298975      0.000      0.000
REMARK  11 active torsions:
REMARK  status: ('A' for Active; 'I' for Inactive)
REMARK    1  A    between atoms: C2_2  and  C3_3 
REMARK    2  A    between atoms: C3_3  and  S1_5 
REMARK    3  A    between atoms: S1_5  and  C4_6 
REMARK    4  A    between atoms: C4_6  and  C6_8 
REMARK    5  A    between atoms: C6_8  and  C7_9 
REMARK    6  A    between atoms: C7_9  and  C8_10 
REMARK    7  A    between atoms: C8_10  and  C9_11 
REMARK    8  A    between atoms: C9_11  and  C10_13 
REMARK    9  A    between atoms: C12_15  and  O3_16 
REMARK   10  A    between atoms: C17_22  and  C18_23 
REMARK   11  A    between atoms: C26_33  and  O4_34 
ROOT
HETATM    1  C10 UNL     1      -4.906  10.051 -24.420  1.00  0.00     0.066 C 
HETATM    2  C11 UNL     1      -3.729  11.021 -24.426  1.00  0.00     0.045 C 
HETATM    3  C12 UNL     1      -4.339  12.396 -24.537  1.00  0.00     0.124 C 
HETATM    4  C13 UNL     1      -5.757  12.271 -24.100  1.00  0.00     0.036 C 
HETATM    5  C14 UNL     1      -6.703  13.042 -24.968  1.00  0.00    -0.012 C 
HETATM    6  C15 UNL     1      -6.374  14.508 -24.765  1.00  0.00     0.020 C 
HETATM    7  C16 UNL     1      -6.451  12.741 -26.413  1.00  0.00    -0.004 C 
HETATM    8  C17 UNL     1      -7.085  13.335 -27.428  1.00  0.00    -0.024 C 
HETATM    9  C20 UNL     1      -8.113  14.361 -27.279  1.00  0.00     0.009 C 
HETATM   10  C21 UNL     1      -9.003  14.463 -26.330  1.00  0.00    -0.017 C 
HETATM   11  C22 UNL     1      -9.212  13.581 -25.163  1.00  0.00    -0.023 C 
HETATM   12  C23 UNL     1      -9.860  14.494 -24.092  1.00  0.00     0.019 C 
HETATM   13  C24 UNL     1     -10.436  12.717 -25.604  1.00  0.00     0.019 C 
HETATM   14  C25 UNL     1      -8.138  12.845 -24.555  1.00  0.00     0.038 C 
HETATM   15  C26 UNL     1      -8.479  11.363 -24.447  1.00  0.00     0.125 C 
HETATM   16  C27 UNL     1      -7.309  10.452 -24.628  1.00  0.00     0.042 C 
HETATM   17  C28 UNL     1      -6.090  10.830 -23.876  1.00  0.00    -0.024 C 
HETATM   18  C29 UNL     1      -6.322  10.535 -22.408  1.00  0.00     0.016 C 
ENDROOT
BRANCH   1  19
HETATM   19  C9  UNL     1      -4.507   8.867 -23.662  1.00  0.00     0.132 C 
HETATM   20  O2  UNL     1      -3.650   8.929 -22.800  1.00  0.00    -0.298 OA
BRANCH  19  21
HETATM   21  C8  UNL     1      -5.117   7.548 -23.905  1.00  0.00     0.079 C 
BRANCH  21  22
HETATM   22  C7  UNL     1      -4.852   6.594 -22.793  1.00  0.00     0.008 C 
BRANCH  22  23
HETATM   23  C6  UNL     1      -4.037   5.391 -23.136  1.00  0.00     0.015 C 
BRANCH  23  24
HETATM   24  C4  UNL     1      -2.787   5.428 -22.264  1.00  0.00     0.051 C 
HETATM   25  C5  UNL     1      -1.566   5.743 -23.062  1.00  0.00     0.022 C 
BRANCH  24  26
HETATM   26  S1  UNL     1      -2.549   3.940 -21.296  1.00  0.00    -0.088 SA
BRANCH  26  27
HETATM   27  C3  UNL     1      -1.394   4.178 -19.966  1.00  0.00     0.185 C 
HETATM   28  O1  UNL     1      -1.700   4.905 -19.034  1.00  0.00    -0.286 OA
BRANCH  27  29
HETATM   29  C2  UNL     1      -0.087   3.486 -20.019  1.00  0.00     0.086 C 
HETATM   30  C1  UNL     1       0.916   4.515 -20.567  1.00  0.00     0.013 C 
ENDBRANCH  27  29
ENDBRANCH  26  27
ENDBRANCH  24  26
ENDBRANCH  23  24
ENDBRANCH  22  23
ENDBRANCH  21  22
ENDBRANCH  19  21
ENDBRANCH   1  19
BRANCH   3  31
HETATM   31  O3  UNL     1      -3.608  13.327 -23.753  1.00  0.00    -0.395 OA
ATOM     32  H3  UNL     1      -4.019  14.184 -23.786  1.00  0.00     0.210 HD
ENDBRANCH   3  31
BRANCH  15  33
HETATM   33  O4  UNL     1      -9.205  11.085 -23.263  1.00  0.00    -0.395 OA
ATOM     34  H4  UNL     1      -9.491  10.179 -23.237  1.00  0.00     0.210 HD
ENDBRANCH  15  33
BRANCH   8  35
HETATM   35  C18 UNL     1      -6.728  12.935 -28.789  1.00  0.00     0.093 C 
HETATM   36  N1  UNL     1      -6.346  11.711 -28.948  1.00  0.00    -0.402 N 
HETATM   37  C19 UNL     1      -5.961  11.161 -30.230  1.00  0.00     0.145 C 
ATOM     38  H1  UNL     1      -6.315  11.103 -28.130  1.00  0.00     0.158 HD
ENDBRANCH   8  35
TORSDOF 11
ENDMDL
MODEL 2
REMARK VINA RESULT: -5.745752446      1.086      1.167
REMARK  11 active torsions:
REMARK  status: ('A' for Active; 'I' for Inactive)
REMARK    1  A    between atoms: C2_2  and  C3_3 
REMARK    2  A    between atoms: C3_3  and  S1_5 
REMARK    3  A    between atoms: S1_5  and  C4_6 
REMARK    4  A    between atoms: C4_6  and  C6_8 
REMARK    5  A    between atoms: C6_8  and  C7_9 
REMARK    6  A    between atoms: C7_9  and  C8_10 
REMARK    7  A    between atoms: C8_10  and  C9_11 
REMARK    8  A    between atoms: C9_11  and  C10_13 
REMARK    9  A    between atoms: C12_15  and  O3_16 
REMARK   10  A    between atoms: C17_22  and  C18_23 
REMARK   11  A    between atoms: C26_33  and  O4_34 
ROOT
HETATM    1  C10 UNL     1      -5.457  10.569 -24.975  1.00  0.00     0.066 C 
HETATM    2  C11 UNL     1      -4.494  11.718 -25.255  1.00  0.00     0.045 C 
HETATM    3  C12 UNL     1      -5.357  12.951 -25.360  1.00  0.00     0.124 C 
HETATM    4  C13 UNL     1      -6.641  12.634 -24.676  1.00  0.00     0.036 C 
HETATM    5  C14 UNL     1      -7.837  13.140 -25.422  1.00  0.00    -0.012 C 
HETATM    6  C15 UNL     1      -7.756  14.654 -25.386  1.00  0.00     0.020 C 
HETATM    7  C16 UNL     1      -7.765  12.739 -26.863  1.00  0.00    -0.004 C 
HETATM    8  C17 UNL     1      -8.649  13.110 -27.793  1.00  0.00    -0.024 C 
HETATM    9  C20 UNL     1      -9.812  13.957 -27.545  1.00  0.00     0.009 C 
HETATM   10  C21 UNL     1     -10.544  14.003 -26.466  1.00  0.00    -0.017 C 
HETATM   11  C22 UNL     1     -10.402  13.223 -25.219  1.00  0.00    -0.023 C 
HETATM   12  C23 UNL     1     -11.030  14.118 -24.122  1.00  0.00     0.019 C 
HETATM   13  C24 UNL     1     -11.500  12.124 -25.378  1.00  0.00     0.019 C 
HETATM   14  C25 UNL     1      -9.129  12.746 -24.754  1.00  0.00     0.038 C 
HETATM   15  C26 UNL     1      -9.169  11.247 -24.481  1.00  0.00     0.125 C 
HETATM   16  C27 UNL     1      -7.896  10.533 -24.794  1.00  0.00     0.042 C 
HETATM   17  C28 UNL     1      -6.664  11.188 -24.293  1.00  0.00    -0.024 C 
HETATM   18  C29 UNL     1      -6.605  11.010 -22.789  1.00  0.00     0.016 C 
ENDROOT
BRANCH   1  19
HETATM   19  C9  UNL     1      -4.733   9.553 -24.213  1.00  0.00     0.132 C 
HETATM   20  O2  UNL     1      -3.725   9.832 -23.590  1.00  0.00    -0.298 OA
BRANCH  19  21
HETATM   21  C8  UNL     1      -5.184   8.152 -24.163  1.00  0.00     0.079 C 
BRANCH  21  22
HETATM   22  C7  UNL     1      -4.784   7.478 -22.898  1.00  0.00     0.008 C 
BRANCH  22  23
HETATM   23  C6  UNL     1      -4.299   6.071 -23.024  1.00  0.00     0.015 C 
BRANCH  23  24
HETATM   24  C4  UNL     1      -2.957   5.990 -22.306  1.00  0.00     0.051 C 
HETATM   25  C5  UNL     1      -1.850   6.540 -23.142  1.00  0.00     0.022 C 
BRANCH  24  26
HETATM   26  S1  UNL     1      -2.558   4.343 -21.725  1.00  0.00    -0.088 SA
BRANCH  26  27
HETATM   27  C3  UNL     1      -1.585   4.370 -20.238  1.00  0.00     0.185 C 
HETATM   28  O1  UNL     1      -2.028   4.927 -19.247  1.00  0.00    -0.286 OA
BRANCH  27  29
HETATM   29  C2  UNL     1      -0.259   3.711 -20.237  1.00  0.00     0.086 C 
HETATM   30  C1  UNL     1       0.500   4.284 -21.445  1.00  0.00     0.013 C 
ENDBRANCH  27  29
ENDBRANCH  26  27
ENDBRANCH  24  26
ENDBRANCH  23  24
ENDBRANCH  22  23
ENDBRANCH  21  22
ENDBRANCH  19  21
ENDBRANCH   1  19
BRANCH   3  31
HETATM   31  O3  UNL     1      -4.697  14.069 -24.783  1.00  0.00    -0.395 OA
ATOM     32  H3  UNL     1      -4.616  14.771 -25.418  1.00  0.00     0.210 HD
ENDBRANCH   3  31
BRANCH  15  33
HETATM   33  O4  UNL     1      -9.637  10.973 -23.171  1.00  0.00    -0.395 OA
ATOM     34  H4  UNL     1      -9.447  10.077 -22.917  1.00  0.00     0.210 HD
ENDBRANCH  15  33
BRANCH   8  35
HETATM   35  C18 UNL     1      -8.442  12.638 -29.163  1.00  0.00     0.093 C 
HETATM   36  N1  UNL     1      -8.085  11.405 -29.299  1.00  0.00    -0.402 N 
HETATM   37  C19 UNL     1      -7.842  10.787 -30.585  1.00  0.00     0.145 C 
ATOM     38  H1  UNL     1      -7.968  10.838 -28.459  1.00  0.00     0.158 HD
ENDBRANCH   8  35
TORSDOF 11
ENDMDL
MODEL 3
REMARK VINA RESULT: -5.684874889      2.197      3.989
REMARK  11 active torsions:
REMARK  status: ('A' for Active; 'I' for Inactive)
REMARK    1  A    between atoms: C2_2  and  C3_3 
REMARK    2  A    between atoms: C3_3  and  S1_5 
REMARK    3  A    between atoms: S1_5  and  C4_6 
REMARK    4  A    between atoms: C4_6  and  C6_8 
REMARK    5  A    between atoms: C6_8  and  C7_9 
REMARK    6  A    between atoms: C7_9  and  C8_10 
REMARK    7  A    between atoms: C8_10  and  C9_11 
REMARK    8  A    between atoms: C9_11  and  C10_13 
REMARK    9  A    between atoms: C12_15  and  O3_16 
REMARK   10  A    between atoms: C17_22  and  C18_23 
REMARK   11  A    between atoms: C26_33  and  O4_34 
ROOT
HETATM    1  C10 UNL     1      -5.717  11.061 -23.869  1.00  0.00     0.066 C 
HETATM    2  C11 UNL     1      -6.422  10.521 -25.109  1.00  0.00     0.045 C 
HETATM    3  C12 UNL     1      -6.122  11.511 -26.207  1.00  0.00     0.124 C 
HETATM    4  C13 UNL     1      -4.917  12.273 -25.779  1.00  0.00     0.036 C 
HETATM    5  C14 UNL     1      -5.024  13.739 -26.065  1.00  0.00    -0.012 C 
HETATM    6  C15 UNL     1      -5.042  13.882 -27.575  1.00  0.00     0.020 C 
HETATM    7  C16 UNL     1      -6.330  14.277 -25.567  1.00  0.00    -0.004 C 
HETATM    8  C17 UNL     1      -6.745  15.534 -25.746  1.00  0.00    -0.024 C 
HETATM    9  C20 UNL     1      -5.990  16.566 -26.451  1.00  0.00     0.009 C 
HETATM   10  C21 UNL     1      -4.695  16.719 -26.485  1.00  0.00    -0.017 C 
HETATM   11  C22 UNL     1      -3.652  15.904 -25.829  1.00  0.00    -0.023 C 
HETATM   12  C23 UNL     1      -2.395  16.086 -26.717  1.00  0.00     0.019 C 
HETATM   13  C24 UNL     1      -3.272  16.771 -24.587  1.00  0.00     0.019 C 
HETATM   14  C25 UNL     1      -3.828  14.504 -25.559  1.00  0.00     0.038 C 
HETATM   15  C26 UNL     1      -3.556  14.187 -24.093  1.00  0.00     0.125 C 
HETATM   16  C27 UNL     1      -4.421  13.107 -23.530  1.00  0.00     0.042 C 
HETATM   17  C28 UNL     1      -4.556  11.898 -24.376  1.00  0.00    -0.024 C 
HETATM   18  C29 UNL     1      -3.251  11.129 -24.325  1.00  0.00     0.016 C 
ENDROOT
BRANCH   1  19
HETATM   19  C9  UNL     1      -5.371   9.924 -23.019  1.00  0.00     0.132 C 
HETATM   20  O2  UNL     1      -5.233  10.056 -21.816  1.00  0.00    -0.298 OA
BRANCH  19  21
HETATM   21  C8  UNL     1      -5.173   8.573 -23.570  1.00  0.00     0.079 C 
BRANCH  21  22
HETATM   22  C7  UNL     1      -4.482   7.670 -22.609  1.00  0.00     0.008 C 
BRANCH  22  23
HETATM   23  C6  UNL     1      -3.836   6.456 -23.192  1.00  0.00     0.015 C 
BRANCH  23  24
HETATM   24  C4  UNL     1      -2.580   6.176 -22.374  1.00  0.00     0.051 C 
HETATM   25  C5  UNL     1      -1.340   6.508 -23.134  1.00  0.00     0.022 C 
BRANCH  24  26
HETATM   26  S1  UNL     1      -2.506   4.506 -21.732  1.00  0.00    -0.088 SA
BRANCH  26  27
HETATM   27  C3  UNL     1      -1.473   4.382 -20.291  1.00  0.00     0.185 C 
HETATM   28  O1  UNL     1      -1.818   4.940 -19.261  1.00  0.00    -0.286 OA
BRANCH  27  29
HETATM   29  C2  UNL     1      -0.218   3.601 -20.373  1.00  0.00     0.086 C 
HETATM   30  C1  UNL     1       0.875   4.599 -20.793  1.00  0.00     0.013 C 
ENDBRANCH  27  29
ENDBRANCH  26  27
ENDBRANCH  24  26
ENDBRANCH  23  24
ENDBRANCH  22  23
ENDBRANCH  21  22
ENDBRANCH  19  21
ENDBRANCH   1  19
BRANCH   3  31
HETATM   31  O3  UNL     1      -5.929  10.838 -27.442  1.00  0.00    -0.395 OA
ATOM     32  H3  UNL     1      -6.630  11.047 -28.049  1.00  0.00     0.210 HD
ENDBRANCH   3  31
BRANCH  15  33
HETATM   33  O4  UNL     1      -2.178  13.953 -23.863  1.00  0.00    -0.395 OA
ATOM     34  H4  UNL     1      -1.704  14.768 -23.745  1.00  0.00     0.210 HD
ENDBRANCH  15  33
BRANCH   8  35
HETATM   35  C18 UNL     1      -8.050  15.910 -25.200  1.00  0.00     0.093 C 
HETATM   36  N1  UNL     1      -8.918  14.962 -25.079  1.00  0.00    -0.402 N 
HETATM   37  C19 UNL     1     -10.251  15.171 -24.556  1.00  0.00     0.145 C 
ATOM     38  H1  UNL     1      -8.652  14.020 -25.365  1.00  0.00     0.158 HD
ENDBRANCH   8  35
TORSDOF 11
ENDMDL
MODEL 4
REMARK VINA RESULT: -5.643736289      4.412      7.277
REMARK  11 active torsions:
REMARK  status: ('A' for Active; 'I' for Inactive)
REMARK    1  A    between atoms: C2_2  and  C3_3 
REMARK    2  A    between atoms: C3_3  and  S1_5 
REMARK    3  A    between atoms: S1_5  and  C4_6 
REMARK    4  A    between atoms: C4_6  and  C6_8 
REMARK    5  A    between atoms: C6_8  and  C7_9 
REMARK    6  A    between atoms: C7_9  and  C8_10 
REMARK    7  A    between atoms: C8_10  and  C9_11 
REMARK    8  A    between atoms: C9_11  and  C10_13 
REMARK    9  A    between atoms: C12_15  and  O3_16 
REMARK   10  A    between atoms: C17_22  and  C18_23 
REMARK   11  A    between atoms: C26_33  and  O4_34 
ROOT
HETATM    1  C10 UNL     1      -5.599  14.853 -24.738  1.00  0.00     0.066 C 
HETATM    2  C11 UNL     1      -6.074  16.216 -25.228  1.00  0.00     0.045 C 
HETATM    3  C12 UNL     1      -4.881  16.839 -25.910  1.00  0.00     0.124 C 
HETATM    4  C13 UNL     1      -3.954  15.725 -26.251  1.00  0.00     0.036 C 
HETATM    5  C14 UNL     1      -2.519  16.058 -25.979  1.00  0.00    -0.012 C 
HETATM    6  C15 UNL     1      -2.146  17.167 -26.944  1.00  0.00     0.020 C 
HETATM    7  C16 UNL     1      -2.364  16.618 -24.599  1.00  0.00    -0.004 C 
HETATM    8  C17 UNL     1      -1.214  17.078 -24.098  1.00  0.00    -0.024 C 
HETATM    9  C20 UNL     1       0.055  17.104 -24.818  1.00  0.00     0.009 C 
HETATM   10  C21 UNL     1       0.489  16.241 -25.694  1.00  0.00    -0.017 C 
HETATM   11  C22 UNL     1      -0.174  15.017 -26.191  1.00  0.00    -0.023 C 
HETATM   12  C23 UNL     1       0.414  14.798 -27.607  1.00  0.00     0.019 C 
HETATM   13  C24 UNL     1       0.545  13.888 -25.387  1.00  0.00     0.019 C 
HETATM   14  C25 UNL     1      -1.604  14.894 -26.261  1.00  0.00     0.038 C 
HETATM   15  C26 UNL     1      -2.084  13.635 -25.548  1.00  0.00     0.125 C 
HETATM   16  C27 UNL     1      -3.401  13.786 -24.860  1.00  0.00     0.042 C 
HETATM   17  C28 UNL     1      -4.460  14.448 -25.657  1.00  0.00    -0.024 C 
HETATM   18  C29 UNL     1      -4.926  13.483 -26.729  1.00  0.00     0.016 C 
ENDROOT
BRANCH   1  19
HETATM   19  C9  UNL     1      -6.754  13.959 -24.708  1.00  0.00     0.132 C 
HETATM   20  O2  UNL     1      -7.773  14.225 -25.320  1.00  0.00    -0.298 OA
BRANCH  19  21
HETATM   21  C8  UNL     1      -6.745  12.702 -23.939  1.00  0.00     0.079 C 
BRANCH  21  22
HETATM   22  C7  UNL     1      -6.021  12.841 -22.646  1.00  0.00     0.008 C 
BRANCH  22  23
HETATM   23  C6  UNL     1      -5.100  11.724 -22.281  1.00  0.00     0.015 C 
BRANCH  23  24
HETATM   24  C4  UNL     1      -5.897  10.429 -22.383  1.00  0.00     0.051 C 
HETATM   25  C5  UNL     1      -5.845   9.648 -21.113  1.00  0.00     0.022 C 
BRANCH  24  26
HETATM   26  S1  UNL     1      -5.427   9.410 -23.778  1.00  0.00    -0.088 SA
BRANCH  26  27
HETATM   27  C3  UNL     1      -3.946   8.478 -23.463  1.00  0.00     0.185 C 
HETATM   28  O1  UNL     1      -2.864   9.039 -23.527  1.00  0.00    -0.286 OA
BRANCH  27  29
HETATM   29  C2  UNL     1      -4.062   7.040 -23.128  1.00  0.00     0.086 C 
HETATM   30  C1  UNL     1      -2.621   6.526 -22.967  1.00  0.00     0.013 C 
ENDBRANCH  27  29
ENDBRANCH  26  27
ENDBRANCH  24  26
ENDBRANCH  23  24
ENDBRANCH  22  23
ENDBRANCH  21  22
ENDBRANCH  19  21
ENDBRANCH   1  19
BRANCH   3  31
HETATM   31  O3  UNL     1      -5.291  17.574 -27.054  1.00  0.00    -0.395 OA
ATOM     32  H3  UNL     1      -4.688  17.431 -27.775  1.00  0.00     0.210 HD
ENDBRANCH   3  31
BRANCH  15  33
HETATM   33  O4  UNL     1      -2.047  12.509 -26.408  1.00  0.00    -0.395 OA
ATOM     34  H4  UNL     1      -1.288  11.965 -26.233  1.00  0.00     0.210 HD
ENDBRANCH  15  33
BRANCH   8  35
HETATM   35  C18 UNL     1      -1.221  17.597 -22.730  1.00  0.00     0.093 C 
HETATM   36  N1  UNL     1      -0.095  18.036 -22.275  1.00  0.00    -0.402 N 
HETATM   37  C19 UNL     1       0.064  18.580 -20.943  1.00  0.00     0.145 C 
ATOM     38  H1  UNL     1       0.722  17.996 -22.883  1.00  0.00     0.158 HD
ENDBRANCH   8  35
TORSDOF 11
ENDMDL
MODEL 5
REMARK VINA RESULT: -5.636233453      2.115      3.201
REMARK  11 active torsions:
REMARK  status: ('A' for Active; 'I' for Inactive)
REMARK    1  A    between atoms: C2_2  and  C3_3 
REMARK    2  A    between atoms: C3_3  and  S1_5 
REMARK    3  A    between atoms: S1_5  and  C4_6 
REMARK    4  A    between atoms: C4_6  and  C6_8 
REMARK    5  A    between atoms: C6_8  and  C7_9 
REMARK    6  A    between atoms: C7_9  and  C8_10 
REMARK    7  A    between atoms: C8_10  and  C9_11 
REMARK    8  A    between atoms: C9_11  and  C10_13 
REMARK    9  A    between atoms: C12_15  and  O3_16 
REMARK   10  A    between atoms: C17_22  and  C18_23 
REMARK   11  A    between atoms: C26_33  and  O4_34 
ROOT
HETATM    1  C10 UNL     1      -5.958  11.505 -25.674  1.00  0.00     0.066 C 
HETATM    2  C11 UNL     1      -5.664  12.648 -26.641  1.00  0.00     0.045 C 
HETATM    3  C12 UNL     1      -7.010  13.224 -27.006  1.00  0.00     0.124 C 
HETATM    4  C13 UNL     1      -7.959  12.801 -25.940  1.00  0.00     0.036 C 
HETATM    5  C14 UNL     1      -9.287  12.368 -26.483  1.00  0.00    -0.012 C 
HETATM    6  C15 UNL     1      -9.926  13.602 -27.089  1.00  0.00     0.020 C 
HETATM    7  C16 UNL     1      -9.102  11.387 -27.599  1.00  0.00    -0.004 C 
HETATM    8  C17 UNL     1     -10.098  10.882 -28.331  1.00  0.00    -0.024 C 
HETATM    9  C20 UNL     1     -11.510  11.208 -28.151  1.00  0.00     0.009 C 
HETATM   10  C21 UNL     1     -12.127  11.477 -27.034  1.00  0.00    -0.017 C 
HETATM   11  C22 UNL     1     -11.576  11.524 -25.663  1.00  0.00    -0.023 C 
HETATM   12  C23 UNL     1     -12.500  12.507 -24.902  1.00  0.00     0.019 C 
HETATM   13  C24 UNL     1     -12.033  10.156 -25.065  1.00  0.00     0.019 C 
HETATM   14  C25 UNL     1     -10.208  11.875 -25.398  1.00  0.00     0.038 C 
HETATM   15  C26 UNL     1      -9.525  10.817 -24.538  1.00  0.00     0.125 C 
HETATM   16  C27 UNL     1      -8.082  10.607 -24.858  1.00  0.00     0.042 C 
HETATM   17  C28 UNL     1      -7.281  11.845 -25.011  1.00  0.00    -0.024 C 
HETATM   18  C29 UNL     1      -7.075  12.455 -23.639  1.00  0.00     0.016 C 
ENDROOT
BRANCH   1  19
HETATM   19  C9  UNL     1      -4.807  11.362 -24.786  1.00  0.00     0.132 C 
HETATM   20  O2  UNL     1      -4.132  12.324 -24.469  1.00  0.00    -0.298 OA
BRANCH  19  21
HETATM   21  C8  UNL     1      -4.409  10.055 -24.235  1.00  0.00     0.079 C 
BRANCH  21  22
HETATM   22  C7  UNL     1      -4.843   9.885 -22.822  1.00  0.00     0.008 C 
BRANCH  22  23
HETATM   23  C6  UNL     1      -4.537   8.567 -22.191  1.00  0.00     0.015 C 
BRANCH  23  24
HETATM   24  C4  UNL     1      -4.160   7.605 -23.312  1.00  0.00     0.051 C 
HETATM   25  C5  UNL     1      -5.169   6.516 -23.468  1.00  0.00     0.022 C 
BRANCH  24  26
HETATM   26  S1  UNL     1      -2.511   6.928 -23.146  1.00  0.00    -0.088 SA
BRANCH  26  27
HETATM   27  C3  UNL     1      -2.310   6.004 -21.641  1.00  0.00     0.185 C 
HETATM   28  O1  UNL     1      -2.034   6.598 -20.611  1.00  0.00    -0.286 OA
BRANCH  27  29
HETATM   29  C2  UNL     1      -2.486   4.535 -21.672  1.00  0.00     0.086 C 
HETATM   30  C1  UNL     1      -1.855   4.005 -20.373  1.00  0.00     0.013 C 
ENDBRANCH  27  29
ENDBRANCH  26  27
ENDBRANCH  24  26
ENDBRANCH  23  24
ENDBRANCH  22  23
ENDBRANCH  21  22
ENDBRANCH  19  21
ENDBRANCH   1  19
BRANCH   3  31
HETATM   31  O3  UNL     1      -6.927  14.636 -27.131  1.00  0.00    -0.395 OA
ATOM     32  H3  UNL     1      -6.294  14.875 -27.798  1.00  0.00     0.210 HD
ENDBRANCH   3  31
BRANCH  15  33
HETATM   33  O4  UNL     1      -9.747  11.050 -23.158  1.00  0.00    -0.395 OA
ATOM     34  H4  UNL     1      -9.091  11.636 -22.797  1.00  0.00     0.210 HD
ENDBRANCH  15  33
BRANCH   8  35
HETATM   35  C18 UNL     1      -9.758   9.932 -29.391  1.00  0.00     0.093 C 
HETATM   36  N1  UNL     1      -8.520   9.895 -29.755  1.00  0.00    -0.402 N 
HETATM   37  C19 UNL     1      -8.023   9.012 -30.789  1.00  0.00     0.145 C 
ATOM     38  H1  UNL     1      -7.859  10.519 -29.292  1.00  0.00     0.158 HD
ENDBRANCH   8  35
TORSDOF 11
ENDMDL
