MODEL 1
REMARK VINA RESULT: -7.204719129      0.000      0.000
REMARK  9 active torsions:
REMARK  status: ('A' for Active; 'I' for Inactive)
REMARK    1  A    between atoms: S1_2  and  C2_3 
REMARK    2  A    between atoms: C2_3  and  C3_4 
REMARK    3  A    between atoms: C4_5  and  O1_6 
REMARK    4  A    between atoms: C4_5  and  C5_8 
REMARK    5  A    between atoms: C5_8  and  C6_9 
REMARK    6  A    between atoms: C6_9  and  C7_10 
REMARK    7  A    between atoms: C8_11  and  C9_12 
REMARK    8  A    between atoms: C9_12  and  C10_13 
REMARK    9  A    between atoms: C10_13  and  C11_14 
ROOT
HETATM    1  C9  UNL     1       8.508  15.045  25.384  1.00  0.00     0.087 C 
ENDROOT
BRANCH   1   2
HETATM    2  C8  UNL     1       7.133  14.831  24.815  1.00  0.00    -0.027 C 
HETATM    3  C7  UNL     1       6.954  15.077  23.534  1.00  0.00    -0.030 C 
BRANCH   3   4
HETATM    4  C6  UNL     1       5.673  14.917  22.850  1.00  0.00     0.033 C 
BRANCH   4   5
HETATM    5  C5  UNL     1       4.515  15.542  23.556  1.00  0.00     0.068 C 
BRANCH   5   6
HETATM    6  C4  UNL     1       4.335  16.963  23.248  1.00  0.00     0.040 C 
HETATM    7  C3  UNL     1       4.196  17.830  24.241  1.00  0.00     0.015 C 
BRANCH   7   8
HETATM    8  C2  UNL     1       4.216  17.515  25.638  1.00  0.00     0.103 C 
BRANCH   8   9
HETATM    9  S1  UNL     1       2.607  17.850  26.458  1.00  0.00    -0.170 SA
HETATM   10  C1  UNL     1       1.975  19.460  25.935  1.00  0.00     0.090 C 
ENDBRANCH   8   9
ENDBRANCH   7   8
BRANCH   6  11
HETATM   11  O1  UNL     1       4.295  17.423  21.935  1.00  0.00    -0.365 OA
ATOM     12  H1  UNL     1       4.480  16.818  21.227  1.00  0.00     0.217 HD
ENDBRANCH   6  11
ENDBRANCH   5   6
ENDBRANCH   4   5
ENDBRANCH   3   4
ENDBRANCH   1   2
BRANCH   1  13
HETATM   13  C10 UNL     1       8.900  13.845  26.236  1.00  0.00     0.242 C 
HETATM   14  O4  UNL     1       8.911  12.714  25.424  1.00  0.00    -0.323 OA
HETATM   15  C12 UNL     1      10.116  12.654  24.777  1.00  0.00     0.168 C 
HETATM   16  C13 UNL     1       9.877  12.881  23.303  1.00  0.00     0.079 C 
HETATM   17  C14 UNL     1      10.767  11.313  25.044  1.00  0.00     0.079 C 
HETATM   18  O5  UNL     1      10.968  13.637  25.341  1.00  0.00    -0.281 OA
HETATM   19  C15 UNL     1      10.352  14.001  26.538  1.00  0.00     0.308 C 
HETATM   20  O6  UNL     1      10.891  14.374  27.626  1.00  0.00    -0.261 OA
BRANCH  13  21
HETATM   21  C11 UNL     1       8.085  13.684  27.434  1.00  0.00     0.220 C 
HETATM   22  O2  UNL     1       7.600  12.573  27.719  1.00  0.00    -0.645 OA
HETATM   23  O3  UNL     1       7.847  14.764  28.262  1.00  0.00    -0.645 OA
ENDBRANCH  13  21
ENDBRANCH   1  13
TORSDOF 9
ENDMDL
MODEL 2
REMARK VINA RESULT: -6.908180517      1.189      1.298
REMARK  9 active torsions:
REMARK  status: ('A' for Active; 'I' for Inactive)
REMARK    1  A    between atoms: S1_2  and  C2_3 
REMARK    2  A    between atoms: C2_3  and  C3_4 
REMARK    3  A    between atoms: C4_5  and  O1_6 
REMARK    4  A    between atoms: C4_5  and  C5_8 
REMARK    5  A    between atoms: C5_8  and  C6_9 
REMARK    6  A    between atoms: C6_9  and  C7_10 
REMARK    7  A    between atoms: C8_11  and  C9_12 
REMARK    8  A    between atoms: C9_12  and  C10_13 
REMARK    9  A    between atoms: C10_13  and  C11_14 
ROOT
HETATM    1  C9  UNL     1       8.683  15.049  25.257  1.00  0.00     0.087 C 
ENDROOT
BRANCH   1   2
HETATM    2  C8  UNL     1       7.332  14.887  24.620  1.00  0.00    -0.027 C 
HETATM    3  C7  UNL     1       7.211  15.202  23.347  1.00  0.00    -0.030 C 
BRANCH   3   4
HETATM    4  C6  UNL     1       5.959  15.098  22.602  1.00  0.00     0.033 C 
BRANCH   4   5
HETATM    5  C5  UNL     1       5.138  16.345  22.597  1.00  0.00     0.068 C 
BRANCH   5   6
HETATM    6  C4  UNL     1       4.137  16.396  23.666  1.00  0.00     0.040 C 
HETATM    7  C3  UNL     1       3.385  17.478  23.801  1.00  0.00     0.015 C 
BRANCH   7   8
HETATM    8  C2  UNL     1       3.440  18.646  22.974  1.00  0.00     0.103 C 
BRANCH   8   9
HETATM    9  S1  UNL     1       3.047  20.184  23.900  1.00  0.00    -0.170 SA
HETATM   10  C1  UNL     1       2.338  19.767  25.509  1.00  0.00     0.090 C 
ENDBRANCH   8   9
ENDBRANCH   7   8
BRANCH   6  11
HETATM   11  O1  UNL     1       3.964  15.335  24.551  1.00  0.00    -0.365 OA
ATOM     12  H1  UNL     1       3.433  14.593  24.286  1.00  0.00     0.217 HD
ENDBRANCH   6  11
ENDBRANCH   5   6
ENDBRANCH   4   5
ENDBRANCH   3   4
ENDBRANCH   1   2
BRANCH   1  13
HETATM   13  C10 UNL     1       8.998  13.825  26.106  1.00  0.00     0.242 C 
HETATM   14  O4  UNL     1       9.005  12.706  25.279  1.00  0.00    -0.323 OA
HETATM   15  C12 UNL     1      10.233  12.613  24.682  1.00  0.00     0.168 C 
HETATM   16  C13 UNL     1      10.064  12.867  23.203  1.00  0.00     0.079 C 
HETATM   17  C14 UNL     1      10.826  11.247  24.956  1.00  0.00     0.079 C 
HETATM   18  O5  UNL     1      11.094  13.558  25.296  1.00  0.00    -0.281 OA
HETATM   19  C15 UNL     1      10.440  13.927  26.471  1.00  0.00     0.308 C 
HETATM   20  O6  UNL     1      10.945  14.266  27.586  1.00  0.00    -0.261 OA
BRANCH  13  21
HETATM   21  C11 UNL     1       8.128  13.677  27.266  1.00  0.00     0.220 C 
HETATM   22  O2  UNL     1       7.535  12.601  27.473  1.00  0.00    -0.645 OA
HETATM   23  O3  UNL     1       7.957  14.729  28.146  1.00  0.00    -0.645 OA
ENDBRANCH  13  21
ENDBRANCH   1  13
TORSDOF 9
ENDMDL
MODEL 3
REMARK VINA RESULT: -6.725587632      2.072      2.696
REMARK  9 active torsions:
REMARK  status: ('A' for Active; 'I' for Inactive)
REMARK    1  A    between atoms: S1_2  and  C2_3 
REMARK    2  A    between atoms: C2_3  and  C3_4 
REMARK    3  A    between atoms: C4_5  and  O1_6 
REMARK    4  A    between atoms: C4_5  and  C5_8 
REMARK    5  A    between atoms: C5_8  and  C6_9 
REMARK    6  A    between atoms: C6_9  and  C7_10 
REMARK    7  A    between atoms: C8_11  and  C9_12 
REMARK    8  A    between atoms: C9_12  and  C10_13 
REMARK    9  A    between atoms: C10_13  and  C11_14 
ROOT
HETATM    1  C9  UNL     1       7.830  15.876  25.393  1.00  0.00     0.087 C 
ENDROOT
BRANCH   1   2
HETATM    2  C8  UNL     1       6.425  16.243  25.783  1.00  0.00    -0.027 C 
HETATM    3  C7  UNL     1       5.555  16.450  24.817  1.00  0.00    -0.030 C 
BRANCH   3   4
HETATM    4  C6  UNL     1       4.160  16.816  25.048  1.00  0.00     0.033 C 
BRANCH   4   5
HETATM    5  C5  UNL     1       3.920  17.558  26.321  1.00  0.00     0.068 C 
BRANCH   5   6
HETATM    6  C4  UNL     1       2.547  18.050  26.467  1.00  0.00     0.040 C 
HETATM    7  C3  UNL     1       2.242  19.262  26.028  1.00  0.00     0.015 C 
BRANCH   7   8
HETATM    8  C2  UNL     1       3.143  20.175  25.391  1.00  0.00     0.103 C 
BRANCH   8   9
HETATM    9  S1  UNL     1       2.835  20.324  23.586  1.00  0.00    -0.170 SA
HETATM   10  C1  UNL     1       3.364  18.814  22.746  1.00  0.00     0.090 C 
ENDBRANCH   8   9
ENDBRANCH   7   8
BRANCH   6  11
HETATM   11  O1  UNL     1       1.557  17.276  27.066  1.00  0.00    -0.365 OA
ATOM     12  H1  UNL     1       1.406  17.359  27.999  1.00  0.00     0.217 HD
ENDBRANCH   6  11
ENDBRANCH   5   6
ENDBRANCH   4   5
ENDBRANCH   3   4
ENDBRANCH   1   2
BRANCH   1  13
HETATM   13  C10 UNL     1       8.249  14.611  26.129  1.00  0.00     0.242 C 
HETATM   14  O4  UNL     1       7.491  13.548  25.646  1.00  0.00    -0.323 OA
HETATM   15  C12 UNL     1       8.077  13.081  24.500  1.00  0.00     0.168 C 
HETATM   16  C13 UNL     1       7.159  13.382  23.340  1.00  0.00     0.079 C 
HETATM   17  C14 UNL     1       8.345  11.597  24.638  1.00  0.00     0.079 C 
HETATM   18  O5  UNL     1       9.341  13.710  24.364  1.00  0.00    -0.281 OA
HETATM   19  C15 UNL     1       9.605  14.257  25.618  1.00  0.00     0.308 C 
HETATM   20  O6  UNL     1      10.727  14.419  26.193  1.00  0.00    -0.261 OA
BRANCH  13  21
HETATM   21  C11 UNL     1       8.205  14.735  27.581  1.00  0.00     0.220 C 
HETATM   22  O2  UNL     1       7.644  13.860  28.269  1.00  0.00    -0.645 OA
HETATM   23  O3  UNL     1       8.787  15.822  28.204  1.00  0.00    -0.645 OA
ENDBRANCH  13  21
ENDBRANCH   1  13
TORSDOF 9
ENDMDL
MODEL 4
REMARK VINA RESULT: -6.705572061      1.541      1.828
REMARK  9 active torsions:
REMARK  status: ('A' for Active; 'I' for Inactive)
REMARK    1  A    between atoms: S1_2  and  C2_3 
REMARK    2  A    between atoms: C2_3  and  C3_4 
REMARK    3  A    between atoms: C4_5  and  O1_6 
REMARK    4  A    between atoms: C4_5  and  C5_8 
REMARK    5  A    between atoms: C5_8  and  C6_9 
REMARK    6  A    between atoms: C6_9  and  C7_10 
REMARK    7  A    between atoms: C8_11  and  C9_12 
REMARK    8  A    between atoms: C9_12  and  C10_13 
REMARK    9  A    between atoms: C10_13  and  C11_14 
ROOT
HETATM    1  C9  UNL     1       8.415  14.923  25.401  1.00  0.00     0.087 C 
ENDROOT
BRANCH   1   2
HETATM    2  C8  UNL     1       7.049  15.472  25.100  1.00  0.00    -0.027 C 
HETATM    3  C7  UNL     1       6.682  16.577  25.715  1.00  0.00    -0.030 C 
BRANCH   3   4
HETATM    4  C6  UNL     1       5.384  17.218  25.522  1.00  0.00     0.033 C 
BRANCH   4   5
HETATM    5  C5  UNL     1       4.437  16.448  24.662  1.00  0.00     0.068 C 
BRANCH   5   6
HETATM    6  C4  UNL     1       4.135  17.103  23.386  1.00  0.00     0.040 C 
HETATM    7  C3  UNL     1       3.124  17.956  23.317  1.00  0.00     0.015 C 
BRANCH   7   8
HETATM    8  C2  UNL     1       2.267  18.331  24.402  1.00  0.00     0.103 C 
BRANCH   8   9
HETATM    9  S1  UNL     1       2.717  19.959  25.125  1.00  0.00    -0.170 SA
HETATM   10  C1  UNL     1       3.793  20.859  23.987  1.00  0.00     0.090 C 
ENDBRANCH   8   9
ENDBRANCH   7   8
BRANCH   6  11
HETATM   11  O1  UNL     1       4.881  16.841  22.241  1.00  0.00    -0.365 OA
ATOM     12  H1  UNL     1       4.838  17.447  21.511  1.00  0.00     0.217 HD
ENDBRANCH   6  11
ENDBRANCH   5   6
ENDBRANCH   4   5
ENDBRANCH   3   4
ENDBRANCH   1   2
BRANCH   1  13
HETATM   13  C10 UNL     1       8.293  13.486  25.887  1.00  0.00     0.242 C 
HETATM   14  O4  UNL     1       7.599  12.754  24.928  1.00  0.00    -0.323 OA
HETATM   15  C12 UNL     1       8.482  12.356  23.960  1.00  0.00     0.168 C 
HETATM   16  C13 UNL     1       8.142  13.079  22.679  1.00  0.00     0.079 C 
HETATM   17  C14 UNL     1       8.409  10.853  23.797  1.00  0.00     0.079 C 
HETATM   18  O5  UNL     1       9.793  12.651  24.413  1.00  0.00    -0.281 OA
HETATM   19  C15 UNL     1       9.654  12.888  25.780  1.00  0.00     0.308 C 
HETATM   20  O6  UNL     1      10.484  12.653  26.714  1.00  0.00    -0.261 OA
BRANCH  13  21
HETATM   21  C11 UNL     1       7.723  13.365  27.224  1.00  0.00     0.220 C 
HETATM   22  O2  UNL     1       7.006  12.389  27.516  1.00  0.00    -0.645 OA
HETATM   23  O3  UNL     1       7.979  14.332  28.178  1.00  0.00    -0.645 OA
ENDBRANCH  13  21
ENDBRANCH   1  13
TORSDOF 9
ENDMDL
MODEL 5
REMARK VINA RESULT: -6.548313911      1.960      3.488
REMARK  9 active torsions:
REMARK  status: ('A' for Active; 'I' for Inactive)
REMARK    1  A    between atoms: S1_2  and  C2_3 
REMARK    2  A    between atoms: C2_3  and  C3_4 
REMARK    3  A    between atoms: C4_5  and  O1_6 
REMARK    4  A    between atoms: C4_5  and  C5_8 
REMARK    5  A    between atoms: C5_8  and  C6_9 
REMARK    6  A    between atoms: C6_9  and  C7_10 
REMARK    7  A    between atoms: C8_11  and  C9_12 
REMARK    8  A    between atoms: C9_12  and  C10_13 
REMARK    9  A    between atoms: C10_13  and  C11_14 
ROOT
HETATM    1  C9  UNL     1       7.255  12.984  23.103  1.00  0.00     0.087 C 
ENDROOT
BRANCH   1   2
HETATM    2  C8  UNL     1       6.850  14.375  22.703  1.00  0.00    -0.027 C 
HETATM    3  C7  UNL     1       5.655  14.793  23.063  1.00  0.00    -0.030 C 
BRANCH   3   4
HETATM    4  C6  UNL     1       5.129  16.117  22.739  1.00  0.00     0.033 C 
BRANCH   4   5
HETATM    5  C5  UNL     1       4.160  16.658  23.738  1.00  0.00     0.068 C 
BRANCH   5   6
HETATM    6  C4  UNL     1       4.786  17.095  24.989  1.00  0.00     0.040 C 
HETATM    7  C3  UNL     1       4.034  17.629  25.940  1.00  0.00     0.015 C 
BRANCH   7   8
HETATM    8  C2  UNL     1       2.616  17.823  25.878  1.00  0.00     0.103 C 
BRANCH   8   9
HETATM    9  S1  UNL     1       2.157  19.577  25.582  1.00  0.00    -0.170 SA
HETATM   10  C1  UNL     1       2.854  20.138  24.011  1.00  0.00     0.090 C 
ENDBRANCH   8   9
ENDBRANCH   7   8
BRANCH   6  11
HETATM   11  O1  UNL     1       6.157  16.971  25.198  1.00  0.00    -0.365 OA
ATOM     12  H1  UNL     1       6.743  17.004  24.452  1.00  0.00     0.217 HD
ENDBRANCH   6  11
ENDBRANCH   5   6
ENDBRANCH   4   5
ENDBRANCH   3   4
ENDBRANCH   1   2
BRANCH   1  13
HETATM   13  C10 UNL     1       8.721  12.978  23.513  1.00  0.00     0.242 C 
HETATM   14  O4  UNL     1       8.895  13.901  24.540  1.00  0.00    -0.323 OA
HETATM   15  C12 UNL     1       8.557  13.303  25.725  1.00  0.00     0.168 C 
HETATM   16  C13 UNL     1       7.308  13.966  26.253  1.00  0.00     0.079 C 
HETATM   17  C14 UNL     1       9.712  13.419  26.697  1.00  0.00     0.079 C 
HETATM   18  O5  UNL     1       8.371  11.918  25.482  1.00  0.00    -0.281 OA
HETATM   19  C15 UNL     1       8.951  11.693  24.234  1.00  0.00     0.308 C 
HETATM   20  O6  UNL     1       9.535  10.648  23.809  1.00  0.00    -0.261 OA
BRANCH  13  21
HETATM   21  C11 UNL     1       9.642  13.176  22.400  1.00  0.00     0.220 C 
HETATM   22  O2  UNL     1      10.682  13.846  22.557  1.00  0.00    -0.645 OA
HETATM   23  O3  UNL     1       9.369  12.620  21.165  1.00  0.00    -0.645 OA
ENDBRANCH  13  21
ENDBRANCH   1  13
TORSDOF 9
ENDMDL
