MODEL 1
REMARK VINA RESULT: -7.921808452      0.000      0.000
REMARK  11 active torsions:
REMARK  status: ('A' for Active; 'I' for Inactive)
REMARK    1  A    between atoms: C1_2  and  C2_3 
REMARK       I    between atoms: C1_2  and  N3_22 
REMARK    2  A    between atoms: C2_3  and  C3_4 
REMARK    3  A    between atoms: N1_6  and  C4_7 
REMARK    4  A    between atoms: C4_7  and  C5_8 
REMARK    5  A    between atoms: C5_8  and  C6_9 
REMARK    6  A    between atoms: C6_9  and  C7_10 
REMARK    7  A    between atoms: C7_10  and  C8_11 
REMARK    8  A    between atoms: C8_11  and  C9_12 
REMARK    9  A    between atoms: C9_12  and  O2_13 
REMARK   10  A    between atoms: N2_15  and  O3_17 
REMARK   11  A    between atoms: C10_19  and  O4_20 
ROOT
HETATM    1  C3  UNL     1       5.781  15.160  24.019  1.00  0.00     0.060 A 
HETATM    2  S1  UNL     1       6.368  13.941  23.000  1.00  0.00    -0.010 SA
HETATM    3  N1  UNL     1       7.729  14.392  23.835  1.00  0.00    -0.297 N 
HETATM    4  C10 UNL     1       7.044  15.315  24.537  1.00  0.00     0.163 A 
ENDROOT
BRANCH   3   5
HETATM    5  C4  UNL     1       9.121  13.916  23.770  1.00  0.00     0.139 C 
BRANCH   5   6
HETATM    6  C5  UNL     1       9.250  12.575  24.413  1.00  0.00     0.021 C 
BRANCH   6   7
HETATM    7  C6  UNL     1      10.118  12.612  25.653  1.00  0.00     0.002 C 
BRANCH   7   8
HETATM    8  C7  UNL     1       9.530  13.495  26.721  1.00  0.00     0.008 C 
BRANCH   8   9
HETATM    9  C8  UNL     1      10.451  14.627  27.075  1.00  0.00     0.086 C 
BRANCH   9  10
HETATM   10  C9  UNL     1       9.886  15.535  28.093  1.00  0.00     0.135 C 
HETATM   11  N2  UNL     1      10.636  16.140  28.930  1.00  0.00    -0.251 N 
ATOM     12  H2  UNL     1      10.184  16.753  29.608  1.00  0.00     0.196 HD
BRANCH  10  13
HETATM   13  O2  UNL     1       8.523  15.728  28.136  1.00  0.00    -0.348 OA
ATOM     14  H2  UNL     1       8.125  16.036  28.942  1.00  0.00     0.219 HD
ENDBRANCH  10  13
BRANCH  11  15
HETATM   15  O3  UNL     1      12.003  16.030  28.991  1.00  0.00    -0.288 OA
ATOM     16  H3  UNL     1      12.513  15.972  29.791  1.00  0.00     0.244 HD
ENDBRANCH  11  15
ENDBRANCH   9  10
ENDBRANCH   8   9
ENDBRANCH   7   8
ENDBRANCH   6   7
ENDBRANCH   5   6
ENDBRANCH   3   5
BRANCH   4  17
HETATM   17  O4  UNL     1       7.541  16.187  25.533  1.00  0.00    -0.345 OA
ATOM     18  H4  UNL     1       8.296  16.117  26.107  1.00  0.00     0.219 HD
ENDBRANCH   4  17
BRANCH   1  19
HETATM   19  C2  UNL     1       4.439  15.755  24.207  1.00  0.00     0.155 C 
BRANCH  19  20
HETATM   20  C1  UNL     1       4.178  16.940  23.372  1.00  0.00     0.224 C 
HETATM   21  O1  UNL     1       4.745  17.046  22.264  1.00  0.00    -0.273 OA
HETATM   22  N3  UNL     1       3.305  17.938  23.816  1.00  0.00    -0.348 N 
HETATM   23  C11 UNL     1       2.626  17.843  25.088  1.00  0.00     0.152 C 
HETATM   24  C14 UNL     1       3.050  19.112  23.013  1.00  0.00     0.152 C 
HETATM   25  C12 UNL     1       2.587  19.145  25.818  1.00  0.00     0.187 C 
HETATM   26  O5  UNL     1       2.404  20.258  25.049  1.00  0.00    -0.388 OA
HETATM   27  C13 UNL     1       3.208  20.326  23.929  1.00  0.00     0.187 C 
ENDBRANCH  19  20
ENDBRANCH   1  19
TORSDOF 11
ENDMDL
MODEL 2
REMARK VINA RESULT: -7.771927667      1.418      1.920
REMARK  11 active torsions:
REMARK  status: ('A' for Active; 'I' for Inactive)
REMARK    1  A    between atoms: C1_2  and  C2_3 
REMARK       I    between atoms: C1_2  and  N3_22 
REMARK    2  A    between atoms: C2_3  and  C3_4 
REMARK    3  A    between atoms: N1_6  and  C4_7 
REMARK    4  A    between atoms: C4_7  and  C5_8 
REMARK    5  A    between atoms: C5_8  and  C6_9 
REMARK    6  A    between atoms: C6_9  and  C7_10 
REMARK    7  A    between atoms: C7_10  and  C8_11 
REMARK    8  A    between atoms: C8_11  and  C9_12 
REMARK    9  A    between atoms: C9_12  and  O2_13 
REMARK   10  A    between atoms: N2_15  and  O3_17 
REMARK   11  A    between atoms: C10_19  and  O4_20 
ROOT
HETATM    1  C3  UNL     1       5.850  15.221  23.835  1.00  0.00     0.060 A 
HETATM    2  S1  UNL     1       6.499  14.039  22.809  1.00  0.00    -0.010 SA
HETATM    3  N1  UNL     1       7.835  14.553  23.650  1.00  0.00    -0.297 N 
HETATM    4  C10 UNL     1       7.102  15.436  24.356  1.00  0.00     0.163 A 
ENDROOT
BRANCH   3   5
HETATM    5  C4  UNL     1       9.249  14.148  23.585  1.00  0.00     0.139 C 
BRANCH   5   6
HETATM    6  C5  UNL     1       9.463  12.864  24.316  1.00  0.00     0.021 C 
BRANCH   6   7
HETATM    7  C6  UNL     1      10.543  12.976  25.372  1.00  0.00     0.002 C 
BRANCH   7   8
HETATM    8  C7  UNL     1      10.090  13.800  26.548  1.00  0.00     0.008 C 
BRANCH   8   9
HETATM    9  C8  UNL     1       8.905  13.185  27.235  1.00  0.00     0.086 C 
BRANCH   9  10
HETATM   10  C9  UNL     1       7.882  14.176  27.621  1.00  0.00     0.135 C 
HETATM   11  N2  UNL     1       6.655  14.020  27.305  1.00  0.00    -0.251 N 
ATOM     12  H2  UNL     1       5.998  14.741  27.602  1.00  0.00     0.196 HD
BRANCH  10  13
HETATM   13  O2  UNL     1       8.265  15.290  28.336  1.00  0.00    -0.348 OA
ATOM     14  H2  UNL     1       7.608  15.933  28.575  1.00  0.00     0.219 HD
ENDBRANCH  10  13
BRANCH  11  15
HETATM   15  O3  UNL     1       6.150  12.958  26.597  1.00  0.00    -0.288 OA
ATOM     16  H3  UNL     1       5.681  13.022  25.773  1.00  0.00     0.244 HD
ENDBRANCH  11  15
ENDBRANCH   9  10
ENDBRANCH   8   9
ENDBRANCH   7   8
ENDBRANCH   6   7
ENDBRANCH   5   6
ENDBRANCH   3   5
BRANCH   4  17
HETATM   17  O4  UNL     1       7.553  16.325  25.359  1.00  0.00    -0.345 OA
ATOM     18  H4  UNL     1       7.848  16.168  26.249  1.00  0.00     0.219 HD
ENDBRANCH   4  17
BRANCH   1  19
HETATM   19  C2  UNL     1       4.479  15.746  24.023  1.00  0.00     0.155 C 
BRANCH  19  20
HETATM   20  C1  UNL     1       4.187  16.971  23.258  1.00  0.00     0.224 C 
HETATM   21  O1  UNL     1       4.734  17.144  22.148  1.00  0.00    -0.273 OA
HETATM   22  N3  UNL     1       3.309  17.930  23.769  1.00  0.00    -0.348 N 
HETATM   23  C11 UNL     1       2.653  17.757  25.045  1.00  0.00     0.152 C 
HETATM   24  C14 UNL     1       3.024  19.142  23.035  1.00  0.00     0.152 C 
HETATM   25  C12 UNL     1       2.609  19.017  25.845  1.00  0.00     0.187 C 
HETATM   26  O5  UNL     1       2.398  20.167  25.141  1.00  0.00    -0.388 OA
HETATM   27  C13 UNL     1       3.181  20.307  24.013  1.00  0.00     0.187 C 
ENDBRANCH  19  20
ENDBRANCH   1  19
TORSDOF 11
ENDMDL
MODEL 3
REMARK VINA RESULT: -7.528898794      2.323      7.992
REMARK  11 active torsions:
REMARK  status: ('A' for Active; 'I' for Inactive)
REMARK    1  A    between atoms: C1_2  and  C2_3 
REMARK       I    between atoms: C1_2  and  N3_22 
REMARK    2  A    between atoms: C2_3  and  C3_4 
REMARK    3  A    between atoms: N1_6  and  C4_7 
REMARK    4  A    between atoms: C4_7  and  C5_8 
REMARK    5  A    between atoms: C5_8  and  C6_9 
REMARK    6  A    between atoms: C6_9  and  C7_10 
REMARK    7  A    between atoms: C7_10  and  C8_11 
REMARK    8  A    between atoms: C8_11  and  C9_12 
REMARK    9  A    between atoms: C9_12  and  O2_13 
REMARK   10  A    between atoms: N2_15  and  O3_17 
REMARK   11  A    between atoms: C10_19  and  O4_20 
ROOT
HETATM    1  C3  UNL     1       7.657  14.181  26.185  1.00  0.00     0.060 A 
HETATM    2  S1  UNL     1       6.626  14.216  24.840  1.00  0.00    -0.010 SA
HETATM    3  N1  UNL     1       6.460  15.749  25.456  1.00  0.00    -0.297 N 
HETATM    4  C10 UNL     1       7.325  15.486  26.456  1.00  0.00     0.163 A 
ENDROOT
BRANCH   3   5
HETATM    5  C4  UNL     1       5.652  16.898  25.017  1.00  0.00     0.139 C 
BRANCH   5   6
HETATM    6  C5  UNL     1       4.440  16.438  24.277  1.00  0.00     0.021 C 
BRANCH   6   7
HETATM    7  C6  UNL     1       4.187  17.252  23.025  1.00  0.00     0.002 C 
BRANCH   7   8
HETATM    8  C7  UNL     1       3.391  18.496  23.319  1.00  0.00     0.008 C 
BRANCH   8   9
HETATM    9  C8  UNL     1       2.364  18.259  24.388  1.00  0.00     0.086 C 
BRANCH   9  10
HETATM   10  C9  UNL     1       2.483  19.196  25.523  1.00  0.00     0.135 C 
HETATM   11  N2  UNL     1       2.181  18.840  26.710  1.00  0.00    -0.251 N 
ATOM     12  H2  UNL     1       2.286  19.535  27.450  1.00  0.00     0.196 HD
BRANCH  10  13
HETATM   13  O2  UNL     1       2.927  20.479  25.288  1.00  0.00    -0.348 OA
ATOM     14  H2  UNL     1       3.808  20.718  25.552  1.00  0.00     0.219 HD
ENDBRANCH  10  13
BRANCH  11  15
HETATM   15  O3  UNL     1       1.728  17.596  27.072  1.00  0.00    -0.288 OA
ATOM     16  H3  UNL     1       2.197  16.781  26.936  1.00  0.00     0.244 HD
ENDBRANCH  11  15
ENDBRANCH   9  10
ENDBRANCH   8   9
ENDBRANCH   7   8
ENDBRANCH   6   7
ENDBRANCH   5   6
ENDBRANCH   3   5
BRANCH   4  17
HETATM   17  O4  UNL     1       7.744  16.359  27.485  1.00  0.00    -0.345 OA
ATOM     18  H4  UNL     1       7.335  17.133  27.856  1.00  0.00     0.219 HD
ENDBRANCH   4  17
BRANCH   1  19
HETATM   19  C2  UNL     1       8.522  13.129  26.762  1.00  0.00     0.155 C 
BRANCH  19  20
HETATM   20  C1  UNL     1       9.912  13.148  26.273  1.00  0.00     0.224 C 
HETATM   21  O1  UNL     1      10.765  13.828  26.881  1.00  0.00    -0.273 OA
HETATM   22  N3  UNL     1      10.271  12.415  25.139  1.00  0.00    -0.348 N 
HETATM   23  C11 UNL     1       9.311  11.611  24.417  1.00  0.00     0.152 C 
HETATM   24  C14 UNL     1      11.628  12.436  24.641  1.00  0.00     0.152 C 
HETATM   25  C12 UNL     1       9.467  11.719  22.937  1.00  0.00     0.187 C 
HETATM   26  O5  UNL     1      10.749  11.797  22.473  1.00  0.00    -0.388 OA
HETATM   27  C13 UNL     1      11.550  12.704  23.137  1.00  0.00     0.187 C 
ENDBRANCH  19  20
ENDBRANCH   1  19
TORSDOF 11
ENDMDL
MODEL 4
REMARK VINA RESULT: -7.440646423      2.619      8.458
REMARK  11 active torsions:
REMARK  status: ('A' for Active; 'I' for Inactive)
REMARK    1  A    between atoms: C1_2  and  C2_3 
REMARK       I    between atoms: C1_2  and  N3_22 
REMARK    2  A    between atoms: C2_3  and  C3_4 
REMARK    3  A    between atoms: N1_6  and  C4_7 
REMARK    4  A    between atoms: C4_7  and  C5_8 
REMARK    5  A    between atoms: C5_8  and  C6_9 
REMARK    6  A    between atoms: C6_9  and  C7_10 
REMARK    7  A    between atoms: C7_10  and  C8_11 
REMARK    8  A    between atoms: C8_11  and  C9_12 
REMARK    9  A    between atoms: C9_12  and  O2_13 
REMARK   10  A    between atoms: N2_15  and  O3_17 
REMARK   11  A    between atoms: C10_19  and  O4_20 
ROOT
HETATM    1  C3  UNL     1       8.496  14.677  24.783  1.00  0.00     0.060 A 
HETATM    2  S1  UNL     1       8.085  14.988  23.169  1.00  0.00    -0.010 SA
HETATM    3  N1  UNL     1       6.600  14.793  23.885  1.00  0.00    -0.297 N 
HETATM    4  C10 UNL     1       7.162  14.570  25.089  1.00  0.00     0.163 A 
ENDROOT
BRANCH   3   5
HETATM    5  C4  UNL     1       5.234  14.854  23.338  1.00  0.00     0.139 C 
BRANCH   5   6
HETATM    6  C5  UNL     1       4.514  16.058  23.851  1.00  0.00     0.021 C 
BRANCH   6   7
HETATM    7  C6  UNL     1       4.366  17.133  22.794  1.00  0.00     0.002 C 
BRANCH   7   8
HETATM    8  C7  UNL     1       3.408  18.211  23.225  1.00  0.00     0.008 C 
BRANCH   8   9
HETATM    9  C8  UNL     1       2.694  17.846  24.495  1.00  0.00     0.086 C 
BRANCH   9  10
HETATM   10  C9  UNL     1       2.304  19.022  25.298  1.00  0.00     0.135 C 
HETATM   11  N2  UNL     1       1.925  18.900  26.510  1.00  0.00    -0.251 N 
ATOM     12  H2  UNL     1       1.669  19.752  27.011  1.00  0.00     0.196 HD
BRANCH  10  13
HETATM   13  O2  UNL     1       2.351  20.273  24.721  1.00  0.00    -0.348 OA
ATOM     14  H2  UNL     1       1.539  20.742  24.569  1.00  0.00     0.219 HD
ENDBRANCH  10  13
BRANCH  11  15
HETATM   15  O3  UNL     1       1.835  17.714  27.195  1.00  0.00    -0.288 OA
ATOM     16  H3  UNL     1       1.025  17.296  27.462  1.00  0.00     0.244 HD
ENDBRANCH  11  15
ENDBRANCH   9  10
ENDBRANCH   8   9
ENDBRANCH   7   8
ENDBRANCH   6   7
ENDBRANCH   5   6
ENDBRANCH   3   5
BRANCH   4  17
HETATM   17  O4  UNL     1       6.504  14.302  26.311  1.00  0.00    -0.345 OA
ATOM     18  H4  UNL     1       6.580  13.572  26.916  1.00  0.00     0.219 HD
ENDBRANCH   4  17
BRANCH   1  19
HETATM   19  C2  UNL     1       9.793  14.576  25.489  1.00  0.00     0.155 C 
BRANCH  19  20
HETATM   20  C1  UNL     1      10.268  13.197  25.693  1.00  0.00     0.224 C 
HETATM   21  O1  UNL     1       9.890  12.561  26.700  1.00  0.00    -0.273 OA
HETATM   22  N3  UNL     1      11.136  12.605  24.771  1.00  0.00    -0.348 N 
HETATM   23  C11 UNL     1      11.587  13.309  23.592  1.00  0.00     0.152 C 
HETATM   24  C14 UNL     1      11.621  11.258  24.967  1.00  0.00     0.152 C 
HETATM   25  C12 UNL     1      13.034  13.081  23.304  1.00  0.00     0.187 C 
HETATM   26  O5  UNL     1      13.503  11.822  23.545  1.00  0.00    -0.388 OA
HETATM   27  C13 UNL     1      13.137  11.292  24.766  1.00  0.00     0.187 C 
ENDBRANCH  19  20
ENDBRANCH   1  19
TORSDOF 11
ENDMDL
MODEL 5
REMARK VINA RESULT: -7.412461938      2.764      8.224
REMARK  11 active torsions:
REMARK  status: ('A' for Active; 'I' for Inactive)
REMARK    1  A    between atoms: C1_2  and  C2_3 
REMARK       I    between atoms: C1_2  and  N3_22 
REMARK    2  A    between atoms: C2_3  and  C3_4 
REMARK    3  A    between atoms: N1_6  and  C4_7 
REMARK    4  A    between atoms: C4_7  and  C5_8 
REMARK    5  A    between atoms: C5_8  and  C6_9 
REMARK    6  A    between atoms: C6_9  and  C7_10 
REMARK    7  A    between atoms: C7_10  and  C8_11 
REMARK    8  A    between atoms: C8_11  and  C9_12 
REMARK    9  A    between atoms: C9_12  and  O2_13 
REMARK   10  A    between atoms: N2_15  and  O3_17 
REMARK   11  A    between atoms: C10_19  and  O4_20 
ROOT
HETATM    1  C3  UNL     1       8.022  13.392  24.634  1.00  0.00     0.060 A 
HETATM    2  S1  UNL     1       8.206  14.877  23.839  1.00  0.00    -0.010 SA
HETATM    3  N1  UNL     1       6.814  15.111  24.712  1.00  0.00    -0.297 N 
HETATM    4  C10 UNL     1       6.876  13.867  25.225  1.00  0.00     0.163 A 
ENDROOT
BRANCH   3   5
HETATM    5  C4  UNL     1       5.911  16.268  24.824  1.00  0.00     0.139 C 
BRANCH   5   6
HETATM    6  C5  UNL     1       4.630  16.010  24.101  1.00  0.00     0.021 C 
BRANCH   6   7
HETATM    7  C6  UNL     1       4.432  16.949  22.930  1.00  0.00     0.002 C 
BRANCH   7   8
HETATM    8  C7  UNL     1       3.548  18.114  23.290  1.00  0.00     0.008 C 
BRANCH   8   9
HETATM    9  C8  UNL     1       2.642  17.788  24.442  1.00  0.00     0.086 C 
BRANCH   9  10
HETATM   10  C9  UNL     1       2.309  18.966  25.267  1.00  0.00     0.135 C 
HETATM   11  N2  UNL     1       1.945  18.841  26.484  1.00  0.00    -0.251 N 
ATOM     12  H2  UNL     1       1.729  19.695  27.000  1.00  0.00     0.196 HD
BRANCH  10  13
HETATM   13  O2  UNL     1       2.395  20.222  24.707  1.00  0.00    -0.348 OA
ATOM     14  H2  UNL     1       2.836  20.913  25.187  1.00  0.00     0.219 HD
ENDBRANCH  10  13
BRANCH  11  15
HETATM   15  O3  UNL     1       1.821  17.650  27.154  1.00  0.00    -0.288 OA
ATOM     16  H3  UNL     1       1.832  17.549  28.099  1.00  0.00     0.244 HD
ENDBRANCH  11  15
ENDBRANCH   9  10
ENDBRANCH   8   9
ENDBRANCH   7   8
ENDBRANCH   6   7
ENDBRANCH   5   6
ENDBRANCH   3   5
BRANCH   4  17
HETATM   17  O4  UNL     1       5.975  13.260  26.130  1.00  0.00    -0.345 OA
ATOM     18  H4  UNL     1       5.469  13.623  26.847  1.00  0.00     0.219 HD
ENDBRANCH   4  17
BRANCH   1  19
HETATM   19  C2  UNL     1       8.816  12.144  24.630  1.00  0.00     0.155 C 
BRANCH  19  20
HETATM   20  C1  UNL     1      10.261  12.342  24.842  1.00  0.00     0.224 C 
HETATM   21  O1  UNL     1      10.698  12.463  26.005  1.00  0.00    -0.273 OA
HETATM   22  N3  UNL     1      11.133  12.396  23.751  1.00  0.00    -0.348 N 
HETATM   23  C11 UNL     1      10.661  12.252  22.393  1.00  0.00     0.152 C 
HETATM   24  C14 UNL     1      12.550  12.604  23.944  1.00  0.00     0.152 C 
HETATM   25  C12 UNL     1      11.322  13.202  21.450  1.00  0.00     0.187 C 
HETATM   26  O5  UNL     1      12.648  13.441  21.670  1.00  0.00    -0.388 OA
HETATM   27  C13 UNL     1      12.976  13.715  22.983  1.00  0.00     0.187 C 
ENDBRANCH  19  20
ENDBRANCH   1  19
TORSDOF 11
ENDMDL
