MODEL 1
REMARK VINA RESULT: -6.411925331      0.000      0.000
REMARK  12 active torsions:
REMARK  status: ('A' for Active; 'I' for Inactive)
REMARK    1  A    between atoms: C2_2  and  C3_3 
REMARK    2  A    between atoms: C3_3  and  C4_4 
REMARK    3  A    between atoms: C4_4  and  O1_5 
REMARK    4  A    between atoms: O1_5  and  C5_6 
REMARK    5  A    between atoms: C5_6  and  C6_7 
REMARK    6  A    between atoms: C8_9  and  O2_10 
REMARK    7  A    between atoms: C9_12  and  O3_13 
REMARK    8  A    between atoms: C10_15  and  S1_16 
REMARK    9  A    between atoms: C12_19  and  C13_20 
REMARK   10  A    between atoms: C13_20  and  O5_21 
REMARK   11  A    between atoms: C14_23  and  N1_24 
REMARK   12  A    between atoms: N1_24  and  N2_26 
ROOT
HETATM    1  C5  UNL     1       7.905  14.379  24.687  1.00  0.00     0.131 C 
HETATM    2  C8  UNL     1       7.906  12.879  24.535  1.00  0.00     0.190 C 
HETATM    3  C9  UNL     1       9.141  12.192  24.211  1.00  0.00     0.189 C 
HETATM    4  C10 UNL     1      10.132  12.335  25.356  1.00  0.00     0.214 C 
HETATM    5  O4  UNL     1      10.650  13.573  25.283  1.00  0.00    -0.360 OA
HETATM    6  C12 UNL     1      10.114  14.609  25.938  1.00  0.00     0.197 C 
HETATM    7  C14 UNL     1       8.643  14.833  25.929  1.00  0.00     0.073 C 
ENDROOT
BRANCH   1   8
HETATM    8  O1  UNL     1       6.631  14.659  24.873  1.00  0.00    -0.371 OA
BRANCH   8   9
HETATM    9  C4  UNL     1       5.764  15.537  24.641  1.00  0.00     0.169 C 
BRANCH   9  10
HETATM   10  C3  UNL     1       4.563  15.486  23.778  1.00  0.00     0.026 C 
BRANCH  10  11
HETATM   11  C2  UNL     1       4.582  16.795  22.951  1.00  0.00    -0.002 C 
HETATM   12  C1  UNL     1       3.561  17.765  23.457  1.00  0.00     0.005 C 
ENDBRANCH  10  11
ENDBRANCH   9  10
ENDBRANCH   8   9
ENDBRANCH   1   8
BRANCH   1  13
HETATM   13  C6  UNL     1       8.572  15.084  23.531  1.00  0.00     0.043 C 
HETATM   14  C7  UNL     1       7.873  15.179  22.254  1.00  0.00     0.009 C 
ENDBRANCH   1  13
BRANCH   2  15
HETATM   15  O2  UNL     1       6.897  12.508  23.659  1.00  0.00    -0.389 OA
ATOM     16  H2  UNL     1       6.056  12.748  24.030  1.00  0.00     0.210 HD
ENDBRANCH   2  15
BRANCH   7  17
HETATM   17  N1  UNL     1       8.056  14.602  27.167  1.00  0.00    -0.289 N 
ATOM     18  H1  UNL     1       7.969  15.467  27.701  1.00  0.00     0.188 HD
BRANCH  17  19
HETATM   19  N2  UNL     1       7.630  13.679  27.774  1.00  0.00    -0.249 N 
HETATM   20  N3  UNL     1       7.541  12.562  28.227  1.00  0.00    -0.331 N 
ATOM     21  H32 UNL     1       8.390  12.190  27.800  1.00  0.00     0.178 HD
ATOM     22  H31 UNL     1       7.175  11.766  28.750  1.00  0.00     0.178 HD
ATOM     23  H2  UNL     1       6.793  14.101  28.176  1.00  0.00     0.207 HD
ENDBRANCH  17  19
ENDBRANCH   7  17
BRANCH   3  24
HETATM   24  O3  UNL     1       9.711  12.406  22.982  1.00  0.00    -0.389 OA
ATOM     25  H3  UNL     1       9.949  11.654  22.452  1.00  0.00     0.210 HD
ENDBRANCH   3  24
BRANCH   6  26
HETATM   26  C13 UNL     1      10.590  14.544  27.384  1.00  0.00     0.202 C 
BRANCH  26  27
HETATM   27  O5  UNL     1      10.987  15.808  27.810  1.00  0.00    -0.398 OA
ATOM     28  H5  UNL     1      10.234  16.383  27.863  1.00  0.00     0.209 HD
ENDBRANCH  26  27
ENDBRANCH   6  26
BRANCH   4  29
HETATM   29  S1  UNL     1      11.499  11.152  25.187  1.00  0.00    -0.139 SA
HETATM   30  C11 UNL     1      12.950  11.891  24.439  1.00  0.00     0.092 C 
ENDBRANCH   4  29
TORSDOF 12
ENDMDL
MODEL 2
REMARK VINA RESULT: -6.334569568      2.485      3.921
REMARK  12 active torsions:
REMARK  status: ('A' for Active; 'I' for Inactive)
REMARK    1  A    between atoms: C2_2  and  C3_3 
REMARK    2  A    between atoms: C3_3  and  C4_4 
REMARK    3  A    between atoms: C4_4  and  O1_5 
REMARK    4  A    between atoms: O1_5  and  C5_6 
REMARK    5  A    between atoms: C5_6  and  C6_7 
REMARK    6  A    between atoms: C8_9  and  O2_10 
REMARK    7  A    between atoms: C9_12  and  O3_13 
REMARK    8  A    between atoms: C10_15  and  S1_16 
REMARK    9  A    between atoms: C12_19  and  C13_20 
REMARK   10  A    between atoms: C13_20  and  O5_21 
REMARK   11  A    between atoms: C14_23  and  N1_24 
REMARK   12  A    between atoms: N1_24  and  N2_26 
ROOT
HETATM    1  C5  UNL     1       8.055  13.545  24.774  1.00  0.00     0.131 C 
HETATM    2  C8  UNL     1       9.400  14.170  25.046  1.00  0.00     0.190 C 
HETATM    3  C9  UNL     1      10.482  13.349  25.553  1.00  0.00     0.189 C 
HETATM    4  C10 UNL     1      10.885  12.316  24.512  1.00  0.00     0.214 C 
HETATM    5  O4  UNL     1       9.960  11.341  24.539  1.00  0.00    -0.360 OA
HETATM    6  C12 UNL     1       8.881  11.361  23.749  1.00  0.00     0.197 C 
HETATM    7  C14 UNL     1       8.085  12.608  23.585  1.00  0.00     0.073 C 
ENDROOT
BRANCH   1   8
HETATM    8  O1  UNL     1       7.310  14.577  24.432  1.00  0.00    -0.371 OA
BRANCH   8   9
HETATM    9  C4  UNL     1       6.118  14.970  24.393  1.00  0.00     0.169 C 
BRANCH   9  10
HETATM   10  C3  UNL     1       5.133  14.914  23.291  1.00  0.00     0.026 C 
BRANCH  10  11
HETATM   11  C2  UNL     1       4.951  16.375  22.812  1.00  0.00    -0.002 C 
HETATM   12  C1  UNL     1       3.878  17.067  23.592  1.00  0.00     0.005 C 
ENDBRANCH  10  11
ENDBRANCH   9  10
ENDBRANCH   8   9
ENDBRANCH   1   8
BRANCH   1  13
HETATM   13  C6  UNL     1       7.547  12.722  25.934  1.00  0.00     0.043 C 
HETATM   14  C7  UNL     1       7.025  13.399  27.115  1.00  0.00     0.009 C 
ENDBRANCH   1  13
BRANCH   2  15
HETATM   15  O2  UNL     1       9.228  15.296  25.838  1.00  0.00    -0.389 OA
ATOM     16  H2  UNL     1       9.904  15.315  26.505  1.00  0.00     0.210 HD
ENDBRANCH   2  15
BRANCH   7  17
HETATM   17  N1  UNL     1       8.204  13.158  22.314  1.00  0.00    -0.289 N 
ATOM     18  H1  UNL     1       8.045  12.455  21.591  1.00  0.00     0.188 HD
BRANCH  17  19
HETATM   19  N2  UNL     1       8.438  14.216  21.838  1.00  0.00    -0.249 N 
HETATM   20  N3  UNL     1       8.295  15.372  21.513  1.00  0.00    -0.331 N 
ATOM     21  H32 UNL     1       7.368  15.498  21.919  1.00  0.00     0.178 HD
ATOM     22  H31 UNL     1       8.497  16.284  21.103  1.00  0.00     0.178 HD
ATOM     23  H2  UNL     1       9.365  14.036  21.450  1.00  0.00     0.207 HD
ENDBRANCH  17  19
ENDBRANCH   7  17
BRANCH   3  24
HETATM   24  O3  UNL     1      10.373  12.821  26.815  1.00  0.00    -0.389 OA
ATOM     25  H3  UNL     1       9.528  12.843  27.247  1.00  0.00     0.210 HD
ENDBRANCH   3  24
BRANCH   6  26
HETATM   26  C13 UNL     1       9.301  10.864  22.371  1.00  0.00     0.202 C 
BRANCH  26  27
HETATM   27  O5  UNL     1       9.457   9.481  22.394  1.00  0.00    -0.398 OA
ATOM     28  H5  UNL     1       9.521   9.148  21.507  1.00  0.00     0.209 HD
ENDBRANCH  26  27
ENDBRANCH   6  26
BRANCH   4  29
HETATM   29  S1  UNL     1      12.490  11.570  24.919  1.00  0.00    -0.139 SA
HETATM   30  C11 UNL     1      12.661   9.917  24.250  1.00  0.00     0.092 C 
ENDBRANCH   4  29
TORSDOF 12
ENDMDL
MODEL 3
REMARK VINA RESULT: -6.270247942      2.569      3.976
REMARK  12 active torsions:
REMARK  status: ('A' for Active; 'I' for Inactive)
REMARK    1  A    between atoms: C2_2  and  C3_3 
REMARK    2  A    between atoms: C3_3  and  C4_4 
REMARK    3  A    between atoms: C4_4  and  O1_5 
REMARK    4  A    between atoms: O1_5  and  C5_6 
REMARK    5  A    between atoms: C5_6  and  C6_7 
REMARK    6  A    between atoms: C8_9  and  O2_10 
REMARK    7  A    between atoms: C9_12  and  O3_13 
REMARK    8  A    between atoms: C10_15  and  S1_16 
REMARK    9  A    between atoms: C12_19  and  C13_20 
REMARK   10  A    between atoms: C13_20  and  O5_21 
REMARK   11  A    between atoms: C14_23  and  N1_24 
REMARK   12  A    between atoms: N1_24  and  N2_26 
ROOT
HETATM    1  C5  UNL     1       8.256  14.071  24.518  1.00  0.00     0.131 C 
HETATM    2  C8  UNL     1       9.512  14.478  25.245  1.00  0.00     0.190 C 
HETATM    3  C9  UNL     1      10.517  13.479  25.555  1.00  0.00     0.189 C 
HETATM    4  C10 UNL     1      11.126  12.937  24.271  1.00  0.00     0.214 C 
HETATM    5  O4  UNL     1      10.242  12.073  23.743  1.00  0.00    -0.360 OA
HETATM    6  C12 UNL     1       9.315  12.453  22.857  1.00  0.00     0.197 C 
HETATM    7  C14 UNL     1       8.520  13.692  23.076  1.00  0.00     0.073 C 
ENDROOT
BRANCH   1   8
HETATM    8  O1  UNL     1       7.548  15.183  24.500  1.00  0.00    -0.371 OA
BRANCH   8   9
HETATM    9  C4  UNL     1       6.366  15.606  24.472  1.00  0.00     0.169 C 
BRANCH   9  10
HETATM   10  C3  UNL     1       5.228  15.199  23.620  1.00  0.00     0.026 C 
BRANCH  10  11
HETATM   11  C2  UNL     1       4.948  16.402  22.686  1.00  0.00    -0.002 C 
HETATM   12  C1  UNL     1       3.970  17.349  23.308  1.00  0.00     0.005 C 
ENDBRANCH  10  11
ENDBRANCH   9  10
ENDBRANCH   8   9
ENDBRANCH   1   8
BRANCH   1  13
HETATM   13  C6  UNL     1       7.582  12.872  25.142  1.00  0.00     0.043 C 
HETATM   14  C7  UNL     1       6.912  13.019  26.429  1.00  0.00     0.009 C 
ENDBRANCH   1  13
BRANCH   2  15
HETATM   15  O2  UNL     1       9.170  15.196  26.381  1.00  0.00    -0.389 OA
ATOM     16  H2  UNL     1       9.787  15.909  26.499  1.00  0.00     0.210 HD
ENDBRANCH   2  15
BRANCH   7  17
HETATM   17  N1  UNL     1       8.839  14.702  22.176  1.00  0.00    -0.289 N 
ATOM     18  H1  UNL     1       9.846  14.864  22.145  1.00  0.00     0.188 HD
BRANCH  17  19
HETATM   19  N2  UNL     1       8.265  15.425  21.435  1.00  0.00    -0.249 N 
HETATM   20  N3  UNL     1       8.074  16.306  20.630  1.00  0.00    -0.331 N 
ATOM     21  H32 UNL     1       9.044  16.611  20.550  1.00  0.00     0.178 HD
ATOM     22  H31 UNL     1       7.579  16.930  19.991  1.00  0.00     0.178 HD
ATOM     23  H2  UNL     1       7.312  15.081  21.553  1.00  0.00     0.207 HD
ENDBRANCH  17  19
ENDBRANCH   7  17
BRANCH   3  24
HETATM   24  O3  UNL     1      10.208  12.493  26.457  1.00  0.00    -0.389 OA
ATOM     25  H3  UNL     1      10.535  11.614  26.302  1.00  0.00     0.210 HD
ENDBRANCH   3  24
BRANCH   6  26
HETATM   26  C13 UNL     1       9.983  12.536  21.490  1.00  0.00     0.202 C 
BRANCH  26  27
HETATM   27  O5  UNL     1       9.019  12.477  20.488  1.00  0.00    -0.398 OA
ATOM     28  H5  UNL     1       8.392  11.790  20.682  1.00  0.00     0.209 HD
ENDBRANCH  26  27
ENDBRANCH   6  26
BRANCH   4  29
HETATM   29  S1  UNL     1      12.659  12.025  24.610  1.00  0.00    -0.139 SA
HETATM   30  C11 UNL     1      12.421  10.250  24.555  1.00  0.00     0.092 C 
ENDBRANCH   4  29
TORSDOF 12
ENDMDL
MODEL 4
REMARK VINA RESULT: -6.173340302      1.001      1.031
REMARK  12 active torsions:
REMARK  status: ('A' for Active; 'I' for Inactive)
REMARK    1  A    between atoms: C2_2  and  C3_3 
REMARK    2  A    between atoms: C3_3  and  C4_4 
REMARK    3  A    between atoms: C4_4  and  O1_5 
REMARK    4  A    between atoms: O1_5  and  C5_6 
REMARK    5  A    between atoms: C5_6  and  C6_7 
REMARK    6  A    between atoms: C8_9  and  O2_10 
REMARK    7  A    between atoms: C9_12  and  O3_13 
REMARK    8  A    between atoms: C10_15  and  S1_16 
REMARK    9  A    between atoms: C12_19  and  C13_20 
REMARK   10  A    between atoms: C13_20  and  O5_21 
REMARK   11  A    between atoms: C14_23  and  N1_24 
REMARK   12  A    between atoms: N1_24  and  N2_26 
ROOT
HETATM    1  C5  UNL     1       7.447  14.669  24.129  1.00  0.00     0.131 C 
HETATM    2  C8  UNL     1       7.224  13.228  23.748  1.00  0.00     0.190 C 
HETATM    3  C9  UNL     1       8.346  12.421  23.307  1.00  0.00     0.189 C 
HETATM    4  C10 UNL     1       9.333  12.236  24.449  1.00  0.00     0.214 C 
HETATM    5  O4  UNL     1      10.032  13.378  24.561  1.00  0.00    -0.360 OA
HETATM    6  C12 UNL     1       9.651  14.369  25.374  1.00  0.00     0.197 C 
HETATM    7  C14 UNL     1       8.230  14.811  25.417  1.00  0.00     0.073 C 
ENDROOT
BRANCH   1   8
HETATM    8  O1  UNL     1       6.227  15.106  24.371  1.00  0.00    -0.371 OA
BRANCH   8   9
HETATM    9  C4  UNL     1       5.553  16.160  24.469  1.00  0.00     0.169 C 
BRANCH   9  10
HETATM   10  C3  UNL     1       4.139  16.423  24.120  1.00  0.00     0.026 C 
BRANCH  10  11
HETATM   11  C2  UNL     1       4.176  17.328  22.864  1.00  0.00    -0.002 C 
HETATM   12  C1  UNL     1       3.366  18.570  23.073  1.00  0.00     0.005 C 
ENDBRANCH  10  11
ENDBRANCH   9  10
ENDBRANCH   8   9
ENDBRANCH   1   8
BRANCH   1  13
HETATM   13  C6  UNL     1       8.226  15.436  23.087  1.00  0.00     0.043 C 
HETATM   14  C7  UNL     1       7.565  15.831  21.848  1.00  0.00     0.009 C 
ENDBRANCH   1  13
BRANCH   2  15
HETATM   15  O2  UNL     1       6.181  13.153  22.836  1.00  0.00    -0.389 OA
ATOM     16  H2  UNL     1       5.566  12.486  23.118  1.00  0.00     0.210 HD
ENDBRANCH   2  15
BRANCH   7  17
HETATM   17  N1  UNL     1       7.601  14.483  26.612  1.00  0.00    -0.289 N 
ATOM     18  H1  UNL     1       7.834  15.151  27.347  1.00  0.00     0.188 HD
BRANCH  17  19
HETATM   19  N2  UNL     1       6.870  13.642  27.012  1.00  0.00    -0.249 N 
HETATM   20  N3  UNL     1       6.267  12.596  27.072  1.00  0.00    -0.331 N 
ATOM     21  H32 UNL     1       6.647  12.188  26.217  1.00  0.00     0.178 HD
ATOM     22  H31 UNL     1       5.637  11.871  27.417  1.00  0.00     0.178 HD
ATOM     23  H2  UNL     1       6.522  14.096  27.857  1.00  0.00     0.207 HD
ENDBRANCH  17  19
ENDBRANCH   7  17
BRANCH   3  24
HETATM   24  O3  UNL     1       8.955  12.734  22.119  1.00  0.00    -0.389 OA
ATOM     25  H3  UNL     1       8.761  13.570  21.712  1.00  0.00     0.210 HD
ENDBRANCH   3  24
BRANCH   6  26
HETATM   26  C13 UNL     1      10.094  14.011  26.787  1.00  0.00     0.202 C 
BRANCH  26  27
HETATM   27  O5  UNL     1      10.471  15.162  27.472  1.00  0.00    -0.398 OA
ATOM     28  H5  UNL     1       9.924  15.276  28.240  1.00  0.00     0.209 HD
ENDBRANCH  26  27
ENDBRANCH   6  26
BRANCH   4  29
HETATM   29  S1  UNL     1      10.509  10.900  24.084  1.00  0.00    -0.139 SA
HETATM   30  C11 UNL     1      12.106  11.172  24.848  1.00  0.00     0.092 C 
ENDBRANCH   4  29
TORSDOF 12
ENDMDL
MODEL 5
REMARK VINA RESULT: -6.065240219      1.646      1.818
REMARK  12 active torsions:
REMARK  status: ('A' for Active; 'I' for Inactive)
REMARK    1  A    between atoms: C2_2  and  C3_3 
REMARK    2  A    between atoms: C3_3  and  C4_4 
REMARK    3  A    between atoms: C4_4  and  O1_5 
REMARK    4  A    between atoms: O1_5  and  C5_6 
REMARK    5  A    between atoms: C5_6  and  C6_7 
REMARK    6  A    between atoms: C8_9  and  O2_10 
REMARK    7  A    between atoms: C9_12  and  O3_13 
REMARK    8  A    between atoms: C10_15  and  S1_16 
REMARK    9  A    between atoms: C12_19  and  C13_20 
REMARK   10  A    between atoms: C13_20  and  O5_21 
REMARK   11  A    between atoms: C14_23  and  N1_24 
REMARK   12  A    between atoms: N1_24  and  N2_26 
ROOT
HETATM    1  C5  UNL     1       8.371  13.865  23.270  1.00  0.00     0.131 C 
HETATM    2  C8  UNL     1       9.160  12.816  22.528  1.00  0.00     0.190 C 
HETATM    3  C9  UNL     1      10.607  12.905  22.485  1.00  0.00     0.189 C 
HETATM    4  C10 UNL     1      11.181  12.719  23.881  1.00  0.00     0.214 C 
HETATM    5  O4  UNL     1      11.002  13.875  24.543  1.00  0.00    -0.360 OA
HETATM    6  C12 UNL     1       9.914  14.109  25.285  1.00  0.00     0.197 C 
HETATM    7  C14 UNL     1       8.558  13.774  24.770  1.00  0.00     0.073 C 
ENDROOT
BRANCH   1   8
HETATM    8  O1  UNL     1       7.122  13.532  23.017  1.00  0.00    -0.371 OA
BRANCH   8   9
HETATM    9  C4  UNL     1       5.964  14.012  22.939  1.00  0.00     0.169 C 
BRANCH   9  10
HETATM   10  C3  UNL     1       5.277  14.990  23.812  1.00  0.00     0.026 C 
BRANCH  10  11
HETATM   11  C2  UNL     1       4.906  16.184  22.898  1.00  0.00    -0.002 C 
HETATM   12  C1  UNL     1       3.914  17.084  23.566  1.00  0.00     0.005 C 
ENDBRANCH  10  11
ENDBRANCH   9  10
ENDBRANCH   8   9
ENDBRANCH   1   8
BRANCH   1  13
HETATM   13  C6  UNL     1       8.768  15.272  22.891  1.00  0.00     0.043 C 
HETATM   14  C7  UNL     1       8.314  15.823  21.619  1.00  0.00     0.009 C 
ENDBRANCH   1  13
BRANCH   2  15
HETATM   15  O2  UNL     1       8.641  12.674  21.249  1.00  0.00    -0.389 OA
ATOM     16  H2  UNL     1       8.188  13.473  21.006  1.00  0.00     0.210 HD
ENDBRANCH   2  15
BRANCH   7  17
HETATM   17  N1  UNL     1       7.975  12.708  25.444  1.00  0.00    -0.289 N 
ATOM     18  H1  UNL     1       8.581  11.888  25.433  1.00  0.00     0.188 HD
BRANCH  17  19
HETATM   19  N2  UNL     1       6.968  12.489  26.028  1.00  0.00    -0.249 N 
HETATM   20  N3  UNL     1       6.176  12.418  26.938  1.00  0.00    -0.331 N 
ATOM     21  H32 UNL     1       6.789  12.795  27.662  1.00  0.00     0.178 HD
ATOM     22  H31 UNL     1       5.309  12.230  27.441  1.00  0.00     0.178 HD
ATOM     23  H2  UNL     1       6.398  12.118  25.267  1.00  0.00     0.207 HD
ENDBRANCH  17  19
ENDBRANCH   7  17
BRANCH   3  24
HETATM   24  O3  UNL     1      11.183  13.947  21.804  1.00  0.00    -0.389 OA
ATOM     25  H3  UNL     1      11.964  14.351  22.164  1.00  0.00     0.210 HD
ENDBRANCH   3  24
BRANCH   6  26
HETATM   26  C13 UNL     1      10.109  13.420  26.630  1.00  0.00     0.202 C 
BRANCH  26  27
HETATM   27  O5  UNL     1      10.943  14.187  27.439  1.00  0.00    -0.398 OA
ATOM     28  H5  UNL     1      10.436  14.854  27.885  1.00  0.00     0.209 HD
ENDBRANCH  26  27
ENDBRANCH   6  26
BRANCH   4  29
HETATM   29  S1  UNL     1      12.967  12.392  23.813  1.00  0.00    -0.139 SA
HETATM   30  C11 UNL     1      13.495  11.239  25.079  1.00  0.00     0.092 C 
ENDBRANCH   4  29
TORSDOF 12
ENDMDL
