MODEL 1
REMARK VINA RESULT: -7.412420452      0.000      0.000
REMARK  12 active torsions:
REMARK  status: ('A' for Active; 'I' for Inactive)
REMARK    1  A    between atoms: C2_2  and  C3_3 
REMARK    2  A    between atoms: C3_3  and  O1_4 
REMARK    3  A    between atoms: O1_4  and  C4_5 
REMARK    4  A    between atoms: C4_5  and  C5_7 
REMARK    5  A    between atoms: C6_8  and  C7_9 
REMARK       I    between atoms: C7_9  and  N1_11 
REMARK    6  A    between atoms: N1_11  and  N2_13 
REMARK    7  A    between atoms: C8_15  and  C9_16 
REMARK    8  A    between atoms: C12_19  and  C13_20 
REMARK    9  A    between atoms: C14_21  and  C15_22 
REMARK   10  A    between atoms: C15_22  and  O4_23 
REMARK   11  A    between atoms: C15_22  and  N3_25 
REMARK   12  A    between atoms: N3_25  and  O5_27 
ROOT
HETATM    1  N2  UNL     1       8.480  14.830  21.530  1.00  0.00    -0.308 N 
ATOM      2  H2  UNL     1       8.204  15.703  21.081  1.00  0.00     0.186 HD
HETATM    3  C8  UNL     1       7.873  14.428  22.564  1.00  0.00     0.126 C 
ENDROOT
BRANCH   3   4
HETATM    4  C9  UNL     1       6.763  15.217  23.127  1.00  0.00     0.022 A 
HETATM    5  C10 UNL     1       5.679  15.743  22.474  1.00  0.00     0.021 A 
HETATM    6  C11 UNL     1       4.797  16.429  23.210  1.00  0.00     0.020 A 
HETATM    7  C12 UNL     1       5.039  16.553  24.545  1.00  0.00     0.005 A 
HETATM    8  S1  UNL     1       6.514  15.695  24.741  1.00  0.00    -0.089 SA
BRANCH   7   9
HETATM    9  C13 UNL     1       4.229  17.252  25.568  1.00  0.00     0.023 C 
HETATM   10  C14 UNL     1       2.964  17.475  25.339  1.00  0.00     0.059 C 
BRANCH  10  11
HETATM   11  C15 UNL     1       2.191  18.159  26.352  1.00  0.00     0.159 C 
BRANCH  11  12
HETATM   12  O4  UNL     1       1.812  17.542  27.542  1.00  0.00    -0.345 OA
ATOM     13  H4  UNL     1       1.804  18.004  28.372  1.00  0.00     0.219 HD
ENDBRANCH  11  12
BRANCH  11  14
HETATM   14  N3  UNL     1       1.824  19.377  26.180  1.00  0.00    -0.248 N 
ATOM     15  H3  UNL     1       1.239  19.818  26.890  1.00  0.00     0.196 HD
BRANCH  14  16
HETATM   16  O5  UNL     1       2.190  20.110  25.078  1.00  0.00    -0.288 OA
ATOM     17  H5  UNL     1       1.897  21.002  24.938  1.00  0.00     0.244 HD
ENDBRANCH  14  16
ENDBRANCH  11  14
ENDBRANCH  10  11
ENDBRANCH   7   9
ENDBRANCH   3   4
BRANCH   1  18
HETATM   18  N1  UNL     1       9.530  14.072  21.005  1.00  0.00    -0.267 N 
HETATM   19  C7  UNL     1      10.363  14.576  19.995  1.00  0.00     0.259 C 
HETATM   20  O3  UNL     1      10.167  15.729  19.546  1.00  0.00    -0.267 OA
ATOM     21  H1  UNL     1       9.695  13.132  21.366  1.00  0.00     0.190 HD
BRANCH  19  22
HETATM   22  C6  UNL     1      11.447  13.755  19.474  1.00  0.00     0.082 C 
HETATM   23  C5  UNL     1      12.699  14.083  19.688  1.00  0.00     0.088 C 
BRANCH  23  24
HETATM   24  C4  UNL     1      13.756  13.239  19.153  1.00  0.00     0.283 C 
HETATM   25  O2  UNL     1      14.829  13.092  19.806  1.00  0.00    -0.260 OA
BRANCH  24  26
HETATM   26  O1  UNL     1      13.561  12.617  17.940  1.00  0.00    -0.314 OA
BRANCH  26  27
HETATM   27  C3  UNL     1      14.085  13.144  16.761  1.00  0.00     0.206 C 
BRANCH  27  28
HETATM   28  C2  UNL     1      13.024  13.833  15.989  1.00  0.00    -0.011 C 
HETATM   29  C1  UNL     1      12.980  15.146  15.961  1.00  0.00     0.009 C 
ENDBRANCH  27  28
ENDBRANCH  26  27
ENDBRANCH  24  26
ENDBRANCH  23  24
ENDBRANCH  19  22
ENDBRANCH   1  18
TORSDOF 12
ENDMDL
MODEL 2
REMARK VINA RESULT: -7.276928410      4.705      5.704
REMARK  12 active torsions:
REMARK  status: ('A' for Active; 'I' for Inactive)
REMARK    1  A    between atoms: C2_2  and  C3_3 
REMARK    2  A    between atoms: C3_3  and  O1_4 
REMARK    3  A    between atoms: O1_4  and  C4_5 
REMARK    4  A    between atoms: C4_5  and  C5_7 
REMARK    5  A    between atoms: C6_8  and  C7_9 
REMARK       I    between atoms: C7_9  and  N1_11 
REMARK    6  A    between atoms: N1_11  and  N2_13 
REMARK    7  A    between atoms: C8_15  and  C9_16 
REMARK    8  A    between atoms: C12_19  and  C13_20 
REMARK    9  A    between atoms: C14_21  and  C15_22 
REMARK   10  A    between atoms: C15_22  and  O4_23 
REMARK   11  A    between atoms: C15_22  and  N3_25 
REMARK   12  A    between atoms: N3_25  and  O5_27 
ROOT
HETATM    1  N2  UNL     1       8.525  13.204  24.646  1.00  0.00    -0.308 N 
ATOM      2  H2  UNL     1       8.436  13.708  25.528  1.00  0.00     0.186 HD
HETATM    3  C8  UNL     1       7.745  13.461  23.684  1.00  0.00     0.126 C 
ENDROOT
BRANCH   3   4
HETATM    4  C9  UNL     1       6.701  14.491  23.831  1.00  0.00     0.022 A 
HETATM    5  C10 UNL     1       5.586  14.685  23.059  1.00  0.00     0.021 A 
HETATM    6  C11 UNL     1       4.780  15.698  23.395  1.00  0.00     0.020 A 
HETATM    7  C12 UNL     1       5.124  16.458  24.473  1.00  0.00     0.005 A 
HETATM    8  S1  UNL     1       6.586  15.726  24.996  1.00  0.00    -0.089 SA
BRANCH   7   9
HETATM    9  C13 UNL     1       4.412  17.622  25.046  1.00  0.00     0.023 C 
HETATM   10  C14 UNL     1       3.124  17.734  24.868  1.00  0.00     0.059 C 
BRANCH  10  11
HETATM   11  C15 UNL     1       2.447  18.879  25.436  1.00  0.00     0.159 C 
BRANCH  11  12
HETATM   12  O4  UNL     1       2.437  20.124  24.810  1.00  0.00    -0.345 OA
ATOM     13  H4  UNL     1       2.854  20.887  25.193  1.00  0.00     0.219 HD
ENDBRANCH  11  12
BRANCH  11  14
HETATM   14  N3  UNL     1       1.825  18.781  26.555  1.00  0.00    -0.248 N 
ATOM     15  H3  UNL     1       1.296  19.583  26.894  1.00  0.00     0.196 HD
BRANCH  14  16
HETATM   16  O5  UNL     1       1.846  17.636  27.312  1.00  0.00    -0.288 OA
ATOM     17  H5  UNL     1       1.478  16.815  27.007  1.00  0.00     0.244 HD
ENDBRANCH  14  16
ENDBRANCH  11  14
ENDBRANCH  10  11
ENDBRANCH   7   9
ENDBRANCH   3   4
BRANCH   1  18
HETATM   18  N1  UNL     1       9.511  12.225  24.494  1.00  0.00    -0.267 N 
HETATM   19  C7  UNL     1      10.683  12.242  25.263  1.00  0.00     0.259 C 
HETATM   20  O3  UNL     1      10.860  13.150  26.108  1.00  0.00    -0.267 OA
ATOM     21  H1  UNL     1       9.374  11.482  23.809  1.00  0.00     0.190 HD
BRANCH  19  22
HETATM   22  C6  UNL     1      11.687  11.204  25.076  1.00  0.00     0.082 C 
HETATM   23  C5  UNL     1      12.949  11.515  24.892  1.00  0.00     0.088 C 
BRANCH  23  24
HETATM   24  C4  UNL     1      13.924  10.452  24.708  1.00  0.00     0.283 C 
HETATM   25  O2  UNL     1      14.948  10.660  23.995  1.00  0.00    -0.260 OA
BRANCH  24  26
HETATM   26  O1  UNL     1      13.707   9.237  25.319  1.00  0.00    -0.314 OA
BRANCH  26  27
HETATM   27  C3  UNL     1      14.760   8.373  25.611  1.00  0.00     0.206 C 
BRANCH  27  28
HETATM   28  C2  UNL     1      14.270   7.202  26.375  1.00  0.00    -0.011 C 
HETATM   29  C1  UNL     1      14.160   6.033  25.786  1.00  0.00     0.009 C 
ENDBRANCH  27  28
ENDBRANCH  26  27
ENDBRANCH  24  26
ENDBRANCH  23  24
ENDBRANCH  19  22
ENDBRANCH   1  18
TORSDOF 12
ENDMDL
MODEL 3
REMARK VINA RESULT: -7.271619291      0.886      1.493
REMARK  12 active torsions:
REMARK  status: ('A' for Active; 'I' for Inactive)
REMARK    1  A    between atoms: C2_2  and  C3_3 
REMARK    2  A    between atoms: C3_3  and  O1_4 
REMARK    3  A    between atoms: O1_4  and  C4_5 
REMARK    4  A    between atoms: C4_5  and  C5_7 
REMARK    5  A    between atoms: C6_8  and  C7_9 
REMARK       I    between atoms: C7_9  and  N1_11 
REMARK    6  A    between atoms: N1_11  and  N2_13 
REMARK    7  A    between atoms: C8_15  and  C9_16 
REMARK    8  A    between atoms: C12_19  and  C13_20 
REMARK    9  A    between atoms: C14_21  and  C15_22 
REMARK   10  A    between atoms: C15_22  and  O4_23 
REMARK   11  A    between atoms: C15_22  and  N3_25 
REMARK   12  A    between atoms: N3_25  and  O5_27 
ROOT
HETATM    1  N2  UNL     1       8.584  14.965  21.524  1.00  0.00    -0.308 N 
ATOM      2  H2  UNL     1       8.306  15.901  21.229  1.00  0.00     0.186 HD
HETATM    3  C8  UNL     1       8.058  14.440  22.548  1.00  0.00     0.126 C 
ENDROOT
BRANCH   3   4
HETATM    4  C9  UNL     1       7.041  15.176  23.321  1.00  0.00     0.022 A 
HETATM    5  C10 UNL     1       7.041  15.473  24.658  1.00  0.00     0.021 A 
HETATM    6  C11 UNL     1       5.995  16.158  25.132  1.00  0.00     0.020 A 
HETATM    7  C12 UNL     1       5.013  16.510  24.255  1.00  0.00     0.005 A 
HETATM    8  S1  UNL     1       5.585  15.864  22.771  1.00  0.00    -0.089 SA
BRANCH   7   9
HETATM    9  C13 UNL     1       3.766  17.262  24.521  1.00  0.00     0.023 C 
HETATM   10  C14 UNL     1       3.794  18.276  25.341  1.00  0.00     0.059 C 
BRANCH  10  11
HETATM   11  C15 UNL     1       2.564  18.997  25.587  1.00  0.00     0.159 C 
BRANCH  11  12
HETATM   12  O4  UNL     1       2.122  20.021  24.751  1.00  0.00    -0.345 OA
ATOM     13  H4  UNL     1       1.203  20.148  24.548  1.00  0.00     0.219 HD
ENDBRANCH  11  12
BRANCH  11  14
HETATM   14  N3  UNL     1       1.831  18.711  26.600  1.00  0.00    -0.248 N 
ATOM     15  H3  UNL     1       1.110  19.372  26.886  1.00  0.00     0.196 HD
BRANCH  14  16
HETATM   16  O5  UNL     1       1.980  17.547  27.313  1.00  0.00    -0.288 OA
ATOM     17  H5  UNL     1       1.393  17.302  28.019  1.00  0.00     0.244 HD
ENDBRANCH  14  16
ENDBRANCH  11  14
ENDBRANCH  10  11
ENDBRANCH   7   9
ENDBRANCH   3   4
BRANCH   1  18
HETATM   18  N1  UNL     1       9.546  14.257  20.801  1.00  0.00    -0.267 N 
HETATM   19  C7  UNL     1      10.274  14.861  19.765  1.00  0.00     0.259 C 
HETATM   20  O3  UNL     1      10.062  16.061  19.475  1.00  0.00    -0.267 OA
ATOM     21  H1  UNL     1       9.724  13.279  21.032  1.00  0.00     0.190 HD
BRANCH  19  22
HETATM   22  C6  UNL     1      11.269  14.089  19.034  1.00  0.00     0.082 C 
HETATM   23  C5  UNL     1      12.549  14.246  19.274  1.00  0.00     0.088 C 
BRANCH  23  24
HETATM   24  C4  UNL     1      13.515  13.459  18.525  1.00  0.00     0.283 C 
HETATM   25  O2  UNL     1      14.560  13.038  19.101  1.00  0.00    -0.260 OA
BRANCH  24  26
HETATM   26  O1  UNL     1      13.267  13.188  17.197  1.00  0.00    -0.314 OA
BRANCH  26  27
HETATM   27  C3  UNL     1      13.945  13.857  16.181  1.00  0.00     0.206 C 
BRANCH  27  28
HETATM   28  C2  UNL     1      13.091  14.924  15.606  1.00  0.00    -0.011 C 
HETATM   29  C1  UNL     1      13.193  16.156  16.050  1.00  0.00     0.009 C 
ENDBRANCH  27  28
ENDBRANCH  26  27
ENDBRANCH  24  26
ENDBRANCH  23  24
ENDBRANCH  19  22
ENDBRANCH   1  18
TORSDOF 12
ENDMDL
MODEL 4
REMARK VINA RESULT: -7.049534923      4.752      5.754
REMARK  12 active torsions:
REMARK  status: ('A' for Active; 'I' for Inactive)
REMARK    1  A    between atoms: C2_2  and  C3_3 
REMARK    2  A    between atoms: C3_3  and  O1_4 
REMARK    3  A    between atoms: O1_4  and  C4_5 
REMARK    4  A    between atoms: C4_5  and  C5_7 
REMARK    5  A    between atoms: C6_8  and  C7_9 
REMARK       I    between atoms: C7_9  and  N1_11 
REMARK    6  A    between atoms: N1_11  and  N2_13 
REMARK    7  A    between atoms: C8_15  and  C9_16 
REMARK    8  A    between atoms: C12_19  and  C13_20 
REMARK    9  A    between atoms: C14_21  and  C15_22 
REMARK   10  A    between atoms: C15_22  and  O4_23 
REMARK   11  A    between atoms: C15_22  and  N3_25 
REMARK   12  A    between atoms: N3_25  and  O5_27 
ROOT
HETATM    1  N2  UNL     1       8.367  13.233  23.482  1.00  0.00    -0.308 N 
ATOM      2  H2  UNL     1       7.645  12.844  22.876  1.00  0.00     0.186 HD
HETATM    3  C8  UNL     1       8.185  14.347  24.054  1.00  0.00     0.126 C 
ENDROOT
BRANCH   3   4
HETATM    4  C9  UNL     1       6.928  15.088  23.850  1.00  0.00     0.022 A 
HETATM    5  C10 UNL     1       6.178  15.190  22.708  1.00  0.00     0.021 A 
HETATM    6  C11 UNL     1       5.064  15.928  22.772  1.00  0.00     0.020 A 
HETATM    7  C12 UNL     1       4.759  16.521  23.961  1.00  0.00     0.005 A 
HETATM    8  S1  UNL     1       6.055  16.024  24.972  1.00  0.00    -0.089 SA
BRANCH   7   9
HETATM    9  C13 UNL     1       3.599  17.378  24.293  1.00  0.00     0.023 C 
HETATM   10  C14 UNL     1       3.696  18.235  25.272  1.00  0.00     0.059 C 
BRANCH  10  11
HETATM   11  C15 UNL     1       2.551  19.063  25.579  1.00  0.00     0.159 C 
BRANCH  11  12
HETATM   12  O4  UNL     1       2.185  20.150  24.788  1.00  0.00    -0.345 OA
ATOM     13  H4  UNL     1       2.141  20.096  23.841  1.00  0.00     0.219 HD
ENDBRANCH  11  12
BRANCH  11  14
HETATM   14  N3  UNL     1       1.824  18.816  26.608  1.00  0.00    -0.248 N 
ATOM     15  H3  UNL     1       1.204  19.546  26.957  1.00  0.00     0.196 HD
BRANCH  14  16
HETATM   16  O5  UNL     1       1.850  17.606  27.256  1.00  0.00    -0.288 OA
ATOM     17  H5  UNL     1       1.098  17.027  27.288  1.00  0.00     0.244 HD
ENDBRANCH  14  16
ENDBRANCH  11  14
ENDBRANCH  10  11
ENDBRANCH   7   9
ENDBRANCH   3   4
BRANCH   1  18
HETATM   18  N1  UNL     1       9.563  12.540  23.683  1.00  0.00    -0.267 N 
HETATM   19  C7  UNL     1       9.572  11.178  24.020  1.00  0.00     0.259 C 
HETATM   20  O3  UNL     1       8.488  10.562  24.144  1.00  0.00    -0.267 OA
ATOM     21  H1  UNL     1      10.450  13.035  23.584  1.00  0.00     0.190 HD
BRANCH  19  22
HETATM   22  C6  UNL     1      10.840  10.490  24.222  1.00  0.00     0.082 C 
HETATM   23  C5  UNL     1      11.688  10.901  25.134  1.00  0.00     0.088 C 
BRANCH  23  24
HETATM   24  C4  UNL     1      12.945  10.190  25.308  1.00  0.00     0.283 C 
HETATM   25  O2  UNL     1      14.038  10.814  25.187  1.00  0.00    -0.260 OA
BRANCH  24  26
HETATM   26  O1  UNL     1      12.913   8.845  25.602  1.00  0.00    -0.314 OA
BRANCH  26  27
HETATM   27  C3  UNL     1      13.863   7.966  25.087  1.00  0.00     0.206 C 
BRANCH  27  28
HETATM   28  C2  UNL     1      14.171   6.903  26.073  1.00  0.00    -0.011 C 
HETATM   29  C1  UNL     1      14.162   5.642  25.702  1.00  0.00     0.009 C 
ENDBRANCH  27  28
ENDBRANCH  26  27
ENDBRANCH  24  26
ENDBRANCH  23  24
ENDBRANCH  19  22
ENDBRANCH   1  18
TORSDOF 12
ENDMDL
MODEL 5
REMARK VINA RESULT: -7.014415193      4.790      5.679
REMARK  12 active torsions:
REMARK  status: ('A' for Active; 'I' for Inactive)
REMARK    1  A    between atoms: C2_2  and  C3_3 
REMARK    2  A    between atoms: C3_3  and  O1_4 
REMARK    3  A    between atoms: O1_4  and  C4_5 
REMARK    4  A    between atoms: C4_5  and  C5_7 
REMARK    5  A    between atoms: C6_8  and  C7_9 
REMARK       I    between atoms: C7_9  and  N1_11 
REMARK    6  A    between atoms: N1_11  and  N2_13 
REMARK    7  A    between atoms: C8_15  and  C9_16 
REMARK    8  A    between atoms: C12_19  and  C13_20 
REMARK    9  A    between atoms: C14_21  and  C15_22 
REMARK   10  A    between atoms: C15_22  and  O4_23 
REMARK   11  A    between atoms: C15_22  and  N3_25 
REMARK   12  A    between atoms: N3_25  and  O5_27 
ROOT
HETATM    1  N2  UNL     1       9.009  13.521  24.205  1.00  0.00    -0.308 N 
ATOM      2  H2  UNL     1       9.303  14.465  24.454  1.00  0.00     0.186 HD
HETATM    3  C8  UNL     1       7.794  13.281  23.949  1.00  0.00     0.126 C 
ENDROOT
BRANCH   3   4
HETATM    4  C9  UNL     1       6.795  14.363  24.008  1.00  0.00     0.022 A 
HETATM    5  C10 UNL     1       5.701  14.552  23.205  1.00  0.00     0.021 A 
HETATM    6  C11 UNL     1       4.935  15.620  23.458  1.00  0.00     0.020 A 
HETATM    7  C12 UNL     1       5.298  16.435  24.488  1.00  0.00     0.005 A 
HETATM    8  S1  UNL     1       6.718  15.678  25.085  1.00  0.00    -0.089 SA
BRANCH   7   9
HETATM    9  C13 UNL     1       4.629  17.665  24.969  1.00  0.00     0.023 C 
HETATM   10  C14 UNL     1       3.335  17.666  25.134  1.00  0.00     0.059 C 
BRANCH  10  11
HETATM   11  C15 UNL     1       2.702  18.879  25.605  1.00  0.00     0.159 C 
BRANCH  11  12
HETATM   12  O4  UNL     1       1.612  18.861  26.473  1.00  0.00    -0.345 OA
ATOM     13  H4  UNL     1       0.846  18.322  26.314  1.00  0.00     0.219 HD
ENDBRANCH  11  12
BRANCH  11  14
HETATM   14  N3  UNL     1       3.133  20.028  25.230  1.00  0.00    -0.248 N 
ATOM     15  H3  UNL     1       3.792  20.524  25.830  1.00  0.00     0.196 HD
BRANCH  14  16
HETATM   16  O5  UNL     1       2.741  20.615  24.053  1.00  0.00    -0.288 OA
ATOM     17  H5  UNL     1       3.361  20.980  23.433  1.00  0.00     0.244 HD
ENDBRANCH  14  16
ENDBRANCH  11  14
ENDBRANCH  10  11
ENDBRANCH   7   9
ENDBRANCH   3   4
BRANCH   1  18
HETATM   18  N1  UNL     1       9.946  12.487  24.146  1.00  0.00    -0.267 N 
HETATM   19  C7  UNL     1      10.888  12.293  25.167  1.00  0.00     0.259 C 
HETATM   20  O3  UNL     1      10.897  13.059  26.158  1.00  0.00    -0.267 OA
ATOM     21  H1  UNL     1       9.945  11.859  23.342  1.00  0.00     0.190 HD
BRANCH  19  22
HETATM   22  C6  UNL     1      11.849  11.203  25.068  1.00  0.00     0.082 C 
HETATM   23  C5  UNL     1      13.131  11.449  24.932  1.00  0.00     0.088 C 
BRANCH  23  24
HETATM   24  C4  UNL     1      14.061  10.335  24.837  1.00  0.00     0.283 C 
HETATM   25  O2  UNL     1      15.049  10.412  24.051  1.00  0.00    -0.260 OA
BRANCH  24  26
HETATM   26  O1  UNL     1      13.843   9.217  25.611  1.00  0.00    -0.314 OA
BRANCH  26  27
HETATM   27  C3  UNL     1      14.792   8.201  25.702  1.00  0.00     0.206 C 
BRANCH  27  28
HETATM   28  C2  UNL     1      14.200   6.999  26.338  1.00  0.00    -0.011 C 
HETATM   29  C1  UNL     1      14.153   5.864  25.678  1.00  0.00     0.009 C 
ENDBRANCH  27  28
ENDBRANCH  26  27
ENDBRANCH  24  26
ENDBRANCH  23  24
ENDBRANCH  19  22
ENDBRANCH   1  18
TORSDOF 12
ENDMDL
