MODEL 1
REMARK VINA RESULT: -7.970423144      0.000      0.000
REMARK  9 active torsions:
REMARK  status: ('A' for Active; 'I' for Inactive)
REMARK    1  A    between atoms: C2_2  and  O1_3 
REMARK    2  A    between atoms: O1_3  and  C3_4 
REMARK    3  A    between atoms: C3_4  and  C4_6 
REMARK    4  A    between atoms: C4_6  and  C5_7 
REMARK    5  A    between atoms: C5_7  and  C6_9 
REMARK    6  A    between atoms: C10_15  and  N1_16 
REMARK    7  A    between atoms: N1_16  and  C11_18 
REMARK    8  A    between atoms: C13_25  and  N4_26 
REMARK    9  A    between atoms: C14_32  and  O7_33 
ROOT
HETATM    1  C6  UNL     1      12.338  35.697 -18.978  1.00  0.00     0.075 A 
HETATM    2  C7  UNL     1      12.030  36.821 -19.701  1.00  0.00     0.070 A 
HETATM    3  C8  UNL     1      10.855  36.920 -20.585  1.00  0.00     0.078 C 
HETATM    4  O4  UNL     1      12.818  37.894 -19.623  1.00  0.00    -0.278 OA
HETATM    5  C9  UNL     1      13.886  37.930 -18.879  1.00  0.00     0.317 A 
HETATM    6  O5  UNL     1      14.607  38.982 -18.840  1.00  0.00    -0.257 OA
HETATM    7  C10 UNL     1      14.272  36.859 -18.125  1.00  0.00     0.142 A 
HETATM    8  C14 UNL     1      13.477  35.708 -18.177  1.00  0.00     0.117 A 
ENDROOT
BRANCH   7   9
HETATM    9  N1  UNL     1      15.397  36.863 -17.280  1.00  0.00    -0.345 N 
ATOM     10  H1  UNL     1      16.242  36.434 -17.658  1.00  0.00     0.163 HD
BRANCH   9  11
HETATM   11  C11 UNL     1      15.503  37.398 -15.947  1.00  0.00     0.291 C 
HETATM   12  N2  UNL     1      15.194  38.838 -15.951  1.00  0.00    -0.305 N 
HETATM   13  C12 UNL     1      15.539  39.564 -14.791  1.00  0.00     0.321 C 
ATOM     14  H2  UNL     1      14.754  39.288 -16.753  1.00  0.00     0.168 HD
HETATM   15  O6  UNL     1      15.094  40.722 -14.580  1.00  0.00    -0.247 OA
HETATM   16  N3  UNL     1      16.413  38.939 -13.862  1.00  0.00    -0.299 N 
HETATM   17  C13 UNL     1      17.253  37.878 -14.332  1.00  0.00     0.389 C 
ATOM     18  H3  UNL     1      16.441  39.237 -12.887  1.00  0.00     0.168 HD
HETATM   19  N5  UNL     1      16.919  37.335 -15.602  1.00  0.00    -0.343 N 
ATOM     20  H5  UNL     1      17.617  36.932 -16.226  1.00  0.00     0.160 HD
BRANCH  17  21
HETATM   21  N4  UNL     1      18.604  38.457 -14.440  1.00  0.00    -0.041 N 
ATOM     22  H43 UNL     1      18.791  39.190 -13.755  1.00  0.00     0.279 HD
ATOM     23  H42 UNL     1      19.347  37.823 -14.144  1.00  0.00     0.279 HD
ATOM     24  H41 UNL     1      18.695  38.768 -15.408  1.00  0.00     0.279 HD
ENDBRANCH  17  21
ENDBRANCH   9  11
ENDBRANCH   7   9
BRANCH   8  25
HETATM   25  O7  UNL     1      13.858  34.606 -17.431  1.00  0.00    -0.352 OA
HETATM   26  C15 UNL     1      14.430  33.426 -18.024  1.00  0.00     0.210 C 
ENDBRANCH   8  25
BRANCH   1  27
HETATM   27  C5  UNL     1      11.509  34.536 -18.960  1.00  0.00     0.174 C 
HETATM   28  O3  UNL     1      11.739  33.638 -19.856  1.00  0.00    -0.292 OA
BRANCH  27  29
HETATM   29  C4  UNL     1      10.415  34.190 -18.067  1.00  0.00     0.195 C 
BRANCH  29  30
HETATM   30  C3  UNL     1      10.731  33.022 -17.160  1.00  0.00     0.266 C 
HETATM   31  O2  UNL     1      11.510  33.087 -16.210  1.00  0.00    -0.265 OA
BRANCH  30  32
HETATM   32  O1  UNL     1      10.111  31.795 -17.407  1.00  0.00    -0.322 OA
BRANCH  32  33
HETATM   33  C2  UNL     1       9.117  31.677 -18.426  1.00  0.00     0.174 C 
HETATM   34  C1  UNL     1       9.697  30.811 -19.513  1.00  0.00     0.034 C 
ENDBRANCH  32  33
ENDBRANCH  30  32
ENDBRANCH  29  30
ENDBRANCH  27  29
ENDBRANCH   1  27
TORSDOF 9
ENDMDL
MODEL 2
REMARK VINA RESULT: -7.320269291      1.034      1.304
REMARK  9 active torsions:
REMARK  status: ('A' for Active; 'I' for Inactive)
REMARK    1  A    between atoms: C2_2  and  O1_3 
REMARK    2  A    between atoms: O1_3  and  C3_4 
REMARK    3  A    between atoms: C3_4  and  C4_6 
REMARK    4  A    between atoms: C4_6  and  C5_7 
REMARK    5  A    between atoms: C5_7  and  C6_9 
REMARK    6  A    between atoms: C10_15  and  N1_16 
REMARK    7  A    between atoms: N1_16  and  C11_18 
REMARK    8  A    between atoms: C13_25  and  N4_26 
REMARK    9  A    between atoms: C14_32  and  O7_33 
ROOT
HETATM    1  C6  UNL     1      12.669  36.432 -19.433  1.00  0.00     0.075 A 
HETATM    2  C7  UNL     1      12.786  37.593 -20.153  1.00  0.00     0.070 A 
HETATM    3  C8  UNL     1      11.853  37.979 -21.226  1.00  0.00     0.078 C 
HETATM    4  O4  UNL     1      13.787  38.435 -19.894  1.00  0.00    -0.278 OA
HETATM    5  C9  UNL     1      14.678  38.205 -18.972  1.00  0.00     0.317 A 
HETATM    6  O5  UNL     1      15.618  39.044 -18.763  1.00  0.00    -0.257 OA
HETATM    7  C10 UNL     1      14.643  37.076 -18.206  1.00  0.00     0.142 A 
HETATM    8  C14 UNL     1      13.611  36.161 -18.443  1.00  0.00     0.117 A 
ENDROOT
BRANCH   7   9
HETATM    9  N1  UNL     1      15.562  36.802 -17.175  1.00  0.00    -0.345 N 
ATOM     10  H1  UNL     1      16.275  36.104 -17.386  1.00  0.00     0.163 HD
BRANCH   9  11
HETATM   11  C11 UNL     1      15.619  37.387 -15.860  1.00  0.00     0.291 C 
HETATM   12  N2  UNL     1      15.268  38.815 -15.922  1.00  0.00    -0.305 N 
HETATM   13  C12 UNL     1      15.563  39.592 -14.781  1.00  0.00     0.321 C 
ATOM     14  H2  UNL     1      14.834  39.223 -16.750  1.00  0.00     0.168 HD
HETATM   15  O6  UNL     1      15.078  40.743 -14.622  1.00  0.00    -0.247 OA
HETATM   16  N3  UNL     1      16.432  39.027 -13.811  1.00  0.00    -0.299 N 
HETATM   17  C13 UNL     1      17.315  37.976 -14.223  1.00  0.00     0.389 C 
ATOM     18  H3  UNL     1      16.428  39.360 -12.847  1.00  0.00     0.168 HD
HETATM   19  N5  UNL     1      17.027  37.379 -15.480  1.00  0.00    -0.343 N 
ATOM     20  H5  UNL     1      17.752  36.976 -16.073  1.00  0.00     0.160 HD
BRANCH  17  21
HETATM   21  N4  UNL     1      18.650  38.592 -14.320  1.00  0.00    -0.041 N 
ATOM     22  H43 UNL     1      18.649  39.499 -14.788  1.00  0.00     0.279 HD
ATOM     23  H42 UNL     1      19.016  38.918 -13.426  1.00  0.00     0.279 HD
ATOM     24  H41 UNL     1      19.242  37.897 -14.776  1.00  0.00     0.279 HD
ENDBRANCH  17  21
ENDBRANCH   9  11
ENDBRANCH   7   9
BRANCH   8  25
HETATM   25  O7  UNL     1      13.565  35.003 -17.688  1.00  0.00    -0.352 OA
HETATM   26  C15 UNL     1      14.049  33.737 -18.174  1.00  0.00     0.210 C 
ENDBRANCH   8  25
BRANCH   1  27
HETATM   27  C5  UNL     1      11.590  35.516 -19.609  1.00  0.00     0.174 C 
HETATM   28  O3  UNL     1      11.702  34.655 -20.562  1.00  0.00    -0.292 OA
BRANCH  27  29
HETATM   29  C4  UNL     1      10.347  35.393 -18.866  1.00  0.00     0.195 C 
BRANCH  29  30
HETATM   30  C3  UNL     1       9.688  34.040 -19.027  1.00  0.00     0.266 C 
HETATM   31  O2  UNL     1       8.729  33.832 -19.768  1.00  0.00    -0.265 OA
BRANCH  30  32
HETATM   32  O1  UNL     1      10.190  32.960 -18.297  1.00  0.00    -0.322 OA
BRANCH  32  33
HETATM   33  C2  UNL     1      10.600  31.764 -18.960  1.00  0.00     0.174 C 
HETATM   34  C1  UNL     1       9.537  30.729 -18.706  1.00  0.00     0.034 C 
ENDBRANCH  32  33
ENDBRANCH  30  32
ENDBRANCH  29  30
ENDBRANCH  27  29
ENDBRANCH   1  27
TORSDOF 9
ENDMDL
MODEL 3
REMARK VINA RESULT: -7.265743438      2.460      5.532
REMARK  9 active torsions:
REMARK  status: ('A' for Active; 'I' for Inactive)
REMARK    1  A    between atoms: C2_2  and  O1_3 
REMARK    2  A    between atoms: O1_3  and  C3_4 
REMARK    3  A    between atoms: C3_4  and  C4_6 
REMARK    4  A    between atoms: C4_6  and  C5_7 
REMARK    5  A    between atoms: C5_7  and  C6_9 
REMARK    6  A    between atoms: C10_15  and  N1_16 
REMARK    7  A    between atoms: N1_16  and  C11_18 
REMARK    8  A    between atoms: C13_25  and  N4_26 
REMARK    9  A    between atoms: C14_32  and  O7_33 
ROOT
HETATM    1  C6  UNL     1      13.423  37.683 -19.975  1.00  0.00     0.075 A 
HETATM    2  C7  UNL     1      12.604  36.587 -19.881  1.00  0.00     0.070 A 
HETATM    3  C8  UNL     1      11.477  36.337 -20.796  1.00  0.00     0.078 C 
HETATM    4  O4  UNL     1      12.812  35.687 -18.920  1.00  0.00    -0.278 OA
HETATM    5  C9  UNL     1      13.773  35.797 -18.048  1.00  0.00     0.317 A 
HETATM    6  O5  UNL     1      13.929  34.907 -17.146  1.00  0.00    -0.257 OA
HETATM    7  C10 UNL     1      14.637  36.854 -18.063  1.00  0.00     0.142 A 
HETATM    8  C14 UNL     1      14.457  37.827 -19.053  1.00  0.00     0.117 A 
ENDROOT
BRANCH   7   9
HETATM    9  N1  UNL     1      15.711  36.998 -17.165  1.00  0.00    -0.345 N 
ATOM     10  H1  UNL     1      16.616  36.661 -17.492  1.00  0.00     0.163 HD
BRANCH   9  11
HETATM   11  C11 UNL     1      15.690  37.564 -15.840  1.00  0.00     0.291 C 
HETATM   12  N2  UNL     1      15.306  38.984 -15.899  1.00  0.00    -0.305 N 
HETATM   13  C12 UNL     1      15.525  39.751 -14.734  1.00  0.00     0.321 C 
ATOM     14  H2  UNL     1      14.902  39.394 -16.741  1.00  0.00     0.168 HD
HETATM   15  O6  UNL     1      15.004  40.886 -14.583  1.00  0.00    -0.247 OA
HETATM   16  N3  UNL     1      16.360  39.192 -13.731  1.00  0.00    -0.299 N 
HETATM   17  C13 UNL     1      17.288  38.170 -14.114  1.00  0.00     0.389 C 
ATOM     18  H3  UNL     1      16.300  39.510 -12.763  1.00  0.00     0.168 HD
HETATM   19  N5  UNL     1      17.077  37.586 -15.392  1.00  0.00    -0.343 N 
ATOM     20  H5  UNL     1      17.840  37.209 -15.954  1.00  0.00     0.160 HD
BRANCH  17  21
HETATM   21  N4  UNL     1      18.611  38.820 -14.137  1.00  0.00    -0.041 N 
ATOM     22  H43 UNL     1      18.567  39.838 -14.073  1.00  0.00     0.279 HD
ATOM     23  H42 UNL     1      19.156  38.670 -13.287  1.00  0.00     0.279 HD
ATOM     24  H41 UNL     1      19.070  38.482 -14.983  1.00  0.00     0.279 HD
ENDBRANCH  17  21
ENDBRANCH   9  11
ENDBRANCH   7   9
BRANCH   8  25
HETATM   25  O7  UNL     1      15.313  38.914 -19.077  1.00  0.00    -0.352 OA
HETATM   26  C15 UNL     1      16.496  38.954 -19.895  1.00  0.00     0.210 C 
ENDBRANCH   8  25
BRANCH   1  27
HETATM   27  C5  UNL     1      13.303  38.653 -21.014  1.00  0.00     0.174 C 
HETATM   28  O3  UNL     1      13.914  38.403 -22.121  1.00  0.00    -0.292 OA
BRANCH  27  29
HETATM   29  C4  UNL     1      12.582  39.915 -21.028  1.00  0.00     0.195 C 
BRANCH  29  30
HETATM   30  C3  UNL     1      13.476  41.110 -21.273  1.00  0.00     0.266 C 
HETATM   31  O2  UNL     1      14.164  41.638 -20.401  1.00  0.00    -0.265 OA
BRANCH  30  32
HETATM   32  O1  UNL     1      13.530  41.653 -22.559  1.00  0.00    -0.322 OA
BRANCH  32  33
HETATM   33  C2  UNL     1      12.450  41.461 -23.473  1.00  0.00     0.174 C 
HETATM   34  C1  UNL     1      11.620  42.717 -23.450  1.00  0.00     0.034 C 
ENDBRANCH  32  33
ENDBRANCH  30  32
ENDBRANCH  29  30
ENDBRANCH  27  29
ENDBRANCH   1  27
TORSDOF 9
ENDMDL
MODEL 4
REMARK VINA RESULT: -7.176459653      1.253      1.489
REMARK  9 active torsions:
REMARK  status: ('A' for Active; 'I' for Inactive)
REMARK    1  A    between atoms: C2_2  and  O1_3 
REMARK    2  A    between atoms: O1_3  and  C3_4 
REMARK    3  A    between atoms: C3_4  and  C4_6 
REMARK    4  A    between atoms: C4_6  and  C5_7 
REMARK    5  A    between atoms: C5_7  and  C6_9 
REMARK    6  A    between atoms: C10_15  and  N1_16 
REMARK    7  A    between atoms: N1_16  and  C11_18 
REMARK    8  A    between atoms: C13_25  and  N4_26 
REMARK    9  A    between atoms: C14_32  and  O7_33 
ROOT
HETATM    1  C6  UNL     1      12.993  37.028 -19.444  1.00  0.00     0.075 A 
HETATM    2  C7  UNL     1      13.170  38.209 -20.118  1.00  0.00     0.070 A 
HETATM    3  C8  UNL     1      12.317  38.637 -21.240  1.00  0.00     0.078 C 
HETATM    4  O4  UNL     1      14.158  39.031 -19.764  1.00  0.00    -0.278 OA
HETATM    5  C9  UNL     1      14.981  38.765 -18.791  1.00  0.00     0.317 A 
HETATM    6  O5  UNL     1      15.911  39.586 -18.492  1.00  0.00    -0.257 OA
HETATM    7  C10 UNL     1      14.883  37.613 -18.064  1.00  0.00     0.142 A 
HETATM    8  C14 UNL     1      13.862  36.717 -18.400  1.00  0.00     0.117 A 
ENDROOT
BRANCH   7   9
HETATM    9  N1  UNL     1      15.726  37.298 -16.982  1.00  0.00    -0.345 N 
ATOM     10  H1  UNL     1      16.450  36.605 -17.166  1.00  0.00     0.163 HD
BRANCH   9  11
HETATM   11  C11 UNL     1      15.690  37.835 -15.645  1.00  0.00     0.291 C 
HETATM   12  N2  UNL     1      15.242  39.237 -15.672  1.00  0.00    -0.305 N 
HETATM   13  C12 UNL     1      15.437  39.989 -14.493  1.00  0.00     0.321 C 
ATOM     14  H2  UNL     1      14.813  39.646 -16.502  1.00  0.00     0.168 HD
HETATM   15  O6  UNL     1      14.867  41.096 -14.313  1.00  0.00    -0.247 OA
HETATM   16  N3  UNL     1      16.305  39.448 -13.508  1.00  0.00    -0.299 N 
HETATM   17  C13 UNL     1      17.275  38.477 -13.920  1.00  0.00     0.389 C 
ATOM     18  H3  UNL     1      16.240  39.743 -12.533  1.00  0.00     0.168 HD
HETATM   19  N5  UNL     1      17.080  37.910 -15.208  1.00  0.00    -0.343 N 
ATOM     20  H5  UNL     1      17.853  37.580 -15.784  1.00  0.00     0.160 HD
BRANCH  17  21
HETATM   21  N4  UNL     1      18.567  39.187 -13.939  1.00  0.00    -0.041 N 
ATOM     22  H43 UNL     1      18.675  39.817 -14.735  1.00  0.00     0.279 HD
ATOM     23  H42 UNL     1      18.655  39.896 -13.211  1.00  0.00     0.279 HD
ATOM     24  H41 UNL     1      19.282  38.460 -13.892  1.00  0.00     0.279 HD
ENDBRANCH  17  21
ENDBRANCH   9  11
ENDBRANCH   7   9
BRANCH   8  25
HETATM   25  O7  UNL     1      13.754  35.537 -17.686  1.00  0.00    -0.352 OA
HETATM   26  C15 UNL     1      14.229  34.276 -18.190  1.00  0.00     0.210 C 
ENDBRANCH   8  25
BRANCH   1  27
HETATM   27  C5  UNL     1      11.921  36.130 -19.722  1.00  0.00     0.174 C 
HETATM   28  O3  UNL     1      12.122  35.242 -20.636  1.00  0.00    -0.292 OA
BRANCH  27  29
HETATM   29  C4  UNL     1      10.598  36.049 -19.124  1.00  0.00     0.195 C 
BRANCH  29  30
HETATM   30  C3  UNL     1      10.207  34.643 -18.729  1.00  0.00     0.266 C 
HETATM   31  O2  UNL     1      10.788  33.991 -17.862  1.00  0.00    -0.265 OA
BRANCH  30  32
HETATM   32  O1  UNL     1       9.126  34.041 -19.377  1.00  0.00    -0.322 OA
BRANCH  32  33
HETATM   33  C2  UNL     1       8.694  32.732 -19.004  1.00  0.00     0.174 C 
HETATM   34  C1  UNL     1       9.169  31.786 -20.074  1.00  0.00     0.034 C 
ENDBRANCH  32  33
ENDBRANCH  30  32
ENDBRANCH  29  30
ENDBRANCH  27  29
ENDBRANCH   1  27
TORSDOF 9
ENDMDL
MODEL 5
REMARK VINA RESULT: -7.129990211      1.113      1.585
REMARK  9 active torsions:
REMARK  status: ('A' for Active; 'I' for Inactive)
REMARK    1  A    between atoms: C2_2  and  O1_3 
REMARK    2  A    between atoms: O1_3  and  C3_4 
REMARK    3  A    between atoms: C3_4  and  C4_6 
REMARK    4  A    between atoms: C4_6  and  C5_7 
REMARK    5  A    between atoms: C5_7  and  C6_9 
REMARK    6  A    between atoms: C10_15  and  N1_16 
REMARK    7  A    between atoms: N1_16  and  C11_18 
REMARK    8  A    between atoms: C13_25  and  N4_26 
REMARK    9  A    between atoms: C14_32  and  O7_33 
ROOT
HETATM    1  C6  UNL     1      12.003  35.687 -19.052  1.00  0.00     0.075 A 
HETATM    2  C7  UNL     1      11.648  36.894 -19.597  1.00  0.00     0.070 A 
HETATM    3  C8  UNL     1      10.369  37.124 -20.291  1.00  0.00     0.078 C 
HETATM    4  O4  UNL     1      12.483  37.929 -19.513  1.00  0.00    -0.278 OA
HETATM    5  C9  UNL     1      13.644  37.851 -18.928  1.00  0.00     0.317 A 
HETATM    6  O5  UNL     1      14.408  38.873 -18.875  1.00  0.00    -0.257 OA
HETATM    7  C10 UNL     1      14.083  36.691 -18.357  1.00  0.00     0.142 A 
HETATM    8  C14 UNL     1      13.241  35.575 -18.422  1.00  0.00     0.117 A 
ENDROOT
BRANCH   7   9
HETATM    9  N1  UNL     1      15.313  36.568 -17.683  1.00  0.00    -0.345 N 
ATOM     10  H1  UNL     1      15.781  35.667 -17.768  1.00  0.00     0.163 HD
BRANCH   9  11
HETATM   11  C11 UNL     1      15.991  37.560 -16.888  1.00  0.00     0.291 C 
HETATM   12  N2  UNL     1      17.026  36.924 -16.056  1.00  0.00    -0.305 N 
HETATM   13  C12 UNL     1      17.571  37.704 -15.013  1.00  0.00     0.321 C 
ATOM     14  H2  UNL     1      17.334  35.966 -16.225  1.00  0.00     0.168 HD
HETATM   15  O6  UNL     1      18.626  37.365 -14.417  1.00  0.00    -0.247 OA
HETATM   16  N3  UNL     1      16.882  38.893 -14.657  1.00  0.00    -0.299 N 
HETATM   17  C13 UNL     1      15.493  38.999 -14.995  1.00  0.00     0.389 C 
ATOM     18  H3  UNL     1      17.363  39.652 -14.174  1.00  0.00     0.168 HD
HETATM   19  N5  UNL     1      15.006  38.044 -15.927  1.00  0.00    -0.343 N 
ATOM     20  H5  UNL     1      14.039  37.721 -15.925  1.00  0.00     0.160 HD
BRANCH  17  21
HETATM   21  N4  UNL     1      14.759  38.799 -13.732  1.00  0.00    -0.041 N 
ATOM     22  H43 UNL     1      15.162  38.077 -13.134  1.00  0.00     0.279 HD
ATOM     23  H42 UNL     1      14.861  39.571 -13.073  1.00  0.00     0.279 HD
ATOM     24  H41 UNL     1      13.792  38.615 -14.001  1.00  0.00     0.279 HD
ENDBRANCH  17  21
ENDBRANCH   9  11
ENDBRANCH   7   9
BRANCH   8  25
HETATM   25  O7  UNL     1      13.673  34.386 -17.863  1.00  0.00    -0.352 OA
HETATM   26  C15 UNL     1      14.318  33.354 -18.631  1.00  0.00     0.210 C 
ENDBRANCH   8  25
BRANCH   1  27
HETATM   27  C5  UNL     1      11.136  34.554 -19.044  1.00  0.00     0.174 C 
HETATM   28  O3  UNL     1      11.248  33.724 -20.025  1.00  0.00    -0.292 OA
BRANCH  27  29
HETATM   29  C4  UNL     1      10.117  34.171 -18.082  1.00  0.00     0.195 C 
BRANCH  29  30
HETATM   30  C3  UNL     1      10.524  33.000 -17.215  1.00  0.00     0.266 C 
HETATM   31  O2  UNL     1      11.486  33.021 -16.449  1.00  0.00    -0.265 OA
BRANCH  30  32
HETATM   32  O1  UNL     1       9.773  31.824 -17.282  1.00  0.00    -0.322 OA
BRANCH  32  33
HETATM   33  C2  UNL     1       8.951  31.553 -18.417  1.00  0.00     0.174 C 
HETATM   34  C1  UNL     1       9.752  30.682 -19.348  1.00  0.00     0.034 C 
ENDBRANCH  32  33
ENDBRANCH  30  32
ENDBRANCH  29  30
ENDBRANCH  27  29
ENDBRANCH   1  27
TORSDOF 9
ENDMDL
