MODEL 1
REMARK VINA RESULT: -5.457334931      0.000      0.000
REMARK  12 active torsions:
REMARK  status: ('A' for Active; 'I' for Inactive)
REMARK    1  A    between atoms: C2_2  and  O1_3 
REMARK    2  A    between atoms: O1_3  and  C3_4 
REMARK    3  A    between atoms: C3_4  and  C4_6 
REMARK    4  A    between atoms: C4_6  and  N1_7 
REMARK    5  A    between atoms: N1_7  and  O3_8 
REMARK    6  A    between atoms: N1_7  and  C6_13 
REMARK    7  A    between atoms: O3_8  and  S1_9 
REMARK    8  A    between atoms: C7_16  and  N3_17 
REMARK    9  A    between atoms: C8_22  and  N5_23 
REMARK   10  A    between atoms: C9_26  and  C10_27 
REMARK   11  A    between atoms: C10_27  and  O7_29 
REMARK   12  A    between atoms: O7_29  and  C11_30 
ROOT
HETATM    1  C6  UNL     1      13.287  36.644 -19.257  1.00  0.00     0.165 A 
HETATM    2  N2  UNL     1      14.215  37.531 -18.857  1.00  0.00    -0.174 N 
ATOM      3  H2  UNL     1      14.300  38.406 -19.375  1.00  0.00     0.186 HD
HETATM    4  C7  UNL     1      15.038  37.328 -17.813  1.00  0.00     0.679 A 
HETATM    5  N4  UNL     1      14.916  36.172 -17.139  1.00  0.00    -0.176 N 
ATOM      6  H4  UNL     1      15.526  35.989 -16.342  1.00  0.00     0.186 HD
HETATM    7  C8  UNL     1      14.002  35.253 -17.498  1.00  0.00     0.135 A 
HETATM    8  C9  UNL     1      13.150  35.441 -18.564  1.00  0.00     0.130 A 
ENDROOT
BRANCH   1   9
HETATM    9  N1  UNL     1      12.426  36.860 -20.365  1.00  0.00    -0.214 N 
BRANCH   9  10
HETATM   10  C4  UNL     1      13.010  36.514 -21.669  1.00  0.00     0.270 C 
BRANCH  10  11
HETATM   11  C3  UNL     1      11.978  36.042 -22.621  1.00  0.00     0.279 C 
HETATM   12  O2  UNL     1      11.581  36.837 -23.508  1.00  0.00    -0.263 OA
BRANCH  11  13
HETATM   13  O1  UNL     1      11.444  34.769 -22.569  1.00  0.00    -0.321 OA
BRANCH  13  14
HETATM   14  C2  UNL     1      10.056  34.604 -22.759  1.00  0.00     0.174 C 
HETATM   15  C1  UNL     1       9.503  33.861 -21.563  1.00  0.00     0.034 C 
ENDBRANCH  13  14
ENDBRANCH  11  13
ENDBRANCH  10  11
ENDBRANCH   9  10
BRANCH   9  16
HETATM   16  O3  UNL     1      11.188  37.315 -20.351  1.00  0.00    -0.147 OA
BRANCH  16  17
HETATM   17  S1  UNL     1      11.085  38.930 -20.064  1.00  0.00     0.282 S 
HETATM   18  C5  UNL     1       9.731  39.687 -20.950  1.00  0.00     0.196 C 
HETATM   19  O4  UNL     1      12.324  39.703 -20.414  1.00  0.00    -0.197 OA
HETATM   20  O5  UNL     1      10.799  39.168 -18.610  1.00  0.00    -0.197 OA
ENDBRANCH  16  17
ENDBRANCH   9  16
ENDBRANCH   1   9
BRANCH   8  21
HETATM   21  C10 UNL     1      12.173  34.419 -18.922  1.00  0.00     0.309 C 
HETATM   22  O6  UNL     1      12.491  33.520 -19.744  1.00  0.00    -0.258 OA
BRANCH  21  23
HETATM   23  O7  UNL     1      10.891  34.377 -18.403  1.00  0.00    -0.225 OA
BRANCH  23  24
HETATM   24  C11 UNL     1      10.405  33.300 -17.660  1.00  0.00     0.380 C 
HETATM   25  N6  UNL     1      11.162  32.695 -16.627  1.00  0.00    -0.032 NA
HETATM   26  O8  UNL     1       9.248  32.900 -17.968  1.00  0.00    -0.242 OA
ENDBRANCH  23  24
ENDBRANCH  21  23
ENDBRANCH   8  21
BRANCH   4  27
HETATM   27  N3  UNL     1      15.922  38.217 -17.465  1.00  0.00    -0.234 N 
ATOM     28  H32 UNL     1      16.742  38.397 -18.045  1.00  0.00     0.174 HD
ATOM     29  H31 UNL     1      15.822  38.758 -16.606  1.00  0.00     0.174 HD
ENDBRANCH   4  27
BRANCH   7  30
HETATM   30  N5  UNL     1      13.898  34.148 -16.840  1.00  0.00    -0.384 N 
ATOM     31  H52 UNL     1      14.264  34.130 -15.889  1.00  0.00     0.157 HD
ATOM     32  H51 UNL     1      13.462  33.333 -17.271  1.00  0.00     0.157 HD
ENDBRANCH   7  30
TORSDOF 12
ENDMDL
MODEL 2
REMARK VINA RESULT: -5.362091098      1.661      2.770
REMARK  12 active torsions:
REMARK  status: ('A' for Active; 'I' for Inactive)
REMARK    1  A    between atoms: C2_2  and  O1_3 
REMARK    2  A    between atoms: O1_3  and  C3_4 
REMARK    3  A    between atoms: C3_4  and  C4_6 
REMARK    4  A    between atoms: C4_6  and  N1_7 
REMARK    5  A    between atoms: N1_7  and  O3_8 
REMARK    6  A    between atoms: N1_7  and  C6_13 
REMARK    7  A    between atoms: O3_8  and  S1_9 
REMARK    8  A    between atoms: C7_16  and  N3_17 
REMARK    9  A    between atoms: C8_22  and  N5_23 
REMARK   10  A    between atoms: C9_26  and  C10_27 
REMARK   11  A    between atoms: C10_27  and  O7_29 
REMARK   12  A    between atoms: O7_29  and  C11_30 
ROOT
HETATM    1  C6  UNL     1      13.455  36.888 -19.303  1.00  0.00     0.165 A 
HETATM    2  N2  UNL     1      14.295  37.815 -18.810  1.00  0.00    -0.174 N 
ATOM      3  H2  UNL     1      14.381  38.700 -19.310  1.00  0.00     0.186 HD
HETATM    4  C7  UNL     1      15.027  37.640 -17.697  1.00  0.00     0.679 A 
HETATM    5  N4  UNL     1      14.905  36.471 -17.047  1.00  0.00    -0.176 N 
ATOM      6  H4  UNL     1      15.447  36.308 -16.198  1.00  0.00     0.186 HD
HETATM    7  C8  UNL     1      14.077  35.511 -17.497  1.00  0.00     0.135 A 
HETATM    8  C9  UNL     1      13.318  35.670 -18.637  1.00  0.00     0.130 A 
ENDROOT
BRANCH   1   9
HETATM    9  N1  UNL     1      12.690  37.075 -20.484  1.00  0.00    -0.214 N 
BRANCH   9  10
HETATM   10  C4  UNL     1      13.403  36.760 -21.730  1.00  0.00     0.270 C 
BRANCH  10  11
HETATM   11  C3  UNL     1      14.132  37.939 -22.254  1.00  0.00     0.279 C 
HETATM   12  O2  UNL     1      13.622  38.575 -23.209  1.00  0.00    -0.263 OA
BRANCH  11  13
HETATM   13  O1  UNL     1      15.340  38.360 -21.733  1.00  0.00    -0.321 OA
BRANCH  13  14
HETATM   14  C2  UNL     1      15.663  39.733 -21.780  1.00  0.00     0.174 C 
HETATM   15  C1  UNL     1      17.052  39.870 -22.360  1.00  0.00     0.034 C 
ENDBRANCH  13  14
ENDBRANCH  11  13
ENDBRANCH  10  11
ENDBRANCH   9  10
BRANCH   9  16
HETATM   16  O3  UNL     1      11.438  37.479 -20.582  1.00  0.00    -0.147 OA
BRANCH  16  17
HETATM   17  S1  UNL     1      11.214  39.039 -20.116  1.00  0.00     0.282 S 
HETATM   18  C5  UNL     1       9.840  39.804 -20.963  1.00  0.00     0.196 C 
HETATM   19  O4  UNL     1      12.407  39.927 -20.324  1.00  0.00    -0.197 OA
HETATM   20  O5  UNL     1      10.864  39.086 -18.657  1.00  0.00    -0.197 OA
ENDBRANCH  16  17
ENDBRANCH   9  16
ENDBRANCH   1   9
BRANCH   8  21
HETATM   21  C10 UNL     1      12.433  34.605 -19.092  1.00  0.00     0.309 C 
HETATM   22  O6  UNL     1      12.862  33.754 -19.915  1.00  0.00    -0.258 OA
BRANCH  21  23
HETATM   23  O7  UNL     1      11.122  34.470 -18.667  1.00  0.00    -0.225 OA
BRANCH  23  24
HETATM   24  C11 UNL     1      10.662  33.358 -17.961  1.00  0.00     0.380 C 
HETATM   25  N6  UNL     1      11.210  32.980 -16.711  1.00  0.00    -0.032 NA
HETATM   26  O8  UNL     1       9.725  32.711 -18.507  1.00  0.00    -0.242 OA
ENDBRANCH  23  24
ENDBRANCH  21  23
ENDBRANCH   8  21
BRANCH   4  27
HETATM   27  N3  UNL     1      15.828  38.569 -17.260  1.00  0.00    -0.234 N 
ATOM     28  H32 UNL     1      15.854  39.490 -17.699  1.00  0.00     0.174 HD
ATOM     29  H31 UNL     1      16.451  38.404 -16.470  1.00  0.00     0.174 HD
ENDBRANCH   4  27
BRANCH   7  30
HETATM   30  N5  UNL     1      13.970  34.393 -16.862  1.00  0.00    -0.384 N 
ATOM     31  H52 UNL     1      14.311  33.552 -17.328  1.00  0.00     0.157 HD
ATOM     32  H51 UNL     1      13.559  34.370 -15.929  1.00  0.00     0.157 HD
ENDBRANCH   7  30
TORSDOF 12
ENDMDL
MODEL 3
REMARK VINA RESULT: -5.306500903      1.884      3.438
REMARK  12 active torsions:
REMARK  status: ('A' for Active; 'I' for Inactive)
REMARK    1  A    between atoms: C2_2  and  O1_3 
REMARK    2  A    between atoms: O1_3  and  C3_4 
REMARK    3  A    between atoms: C3_4  and  C4_6 
REMARK    4  A    between atoms: C4_6  and  N1_7 
REMARK    5  A    between atoms: N1_7  and  O3_8 
REMARK    6  A    between atoms: N1_7  and  C6_13 
REMARK    7  A    between atoms: O3_8  and  S1_9 
REMARK    8  A    between atoms: C7_16  and  N3_17 
REMARK    9  A    between atoms: C8_22  and  N5_23 
REMARK   10  A    between atoms: C9_26  and  C10_27 
REMARK   11  A    between atoms: C10_27  and  O7_29 
REMARK   12  A    between atoms: O7_29  and  C11_30 
ROOT
HETATM    1  C6  UNL     1      12.906  36.432 -19.253  1.00  0.00     0.165 A 
HETATM    2  N2  UNL     1      13.844  37.351 -18.963  1.00  0.00    -0.174 N 
ATOM      3  H2  UNL     1      13.818  38.240 -19.463  1.00  0.00     0.186 HD
HETATM    4  C7  UNL     1      14.813  37.163 -18.051  1.00  0.00     0.679 A 
HETATM    5  N4  UNL     1      14.836  35.989 -17.398  1.00  0.00    -0.176 N 
ATOM      6  H4  UNL     1      15.560  35.816 -16.700  1.00  0.00     0.186 HD
HETATM    7  C8  UNL     1      13.920  35.037 -17.651  1.00  0.00     0.135 A 
HETATM    8  C9  UNL     1      12.918  35.209 -18.582  1.00  0.00     0.130 A 
ENDROOT
BRANCH   1   9
HETATM    9  N1  UNL     1      11.889  36.633 -20.223  1.00  0.00    -0.214 N 
BRANCH   9  10
HETATM   10  C4  UNL     1      10.965  37.735 -19.920  1.00  0.00     0.270 C 
BRANCH  10  11
HETATM   11  C3  UNL     1      11.323  38.967 -20.661  1.00  0.00     0.279 C 
HETATM   12  O2  UNL     1      10.701  39.224 -21.721  1.00  0.00    -0.263 OA
BRANCH  11  13
HETATM   13  O1  UNL     1      12.307  39.836 -20.230  1.00  0.00    -0.321 OA
BRANCH  13  14
HETATM   14  C2  UNL     1      13.155  40.434 -21.186  1.00  0.00     0.174 C 
HETATM   15  C1  UNL     1      14.542  40.527 -20.591  1.00  0.00     0.034 C 
ENDBRANCH  13  14
ENDBRANCH  11  13
ENDBRANCH  10  11
ENDBRANCH   9  10
BRANCH   9  16
HETATM   16  O3  UNL     1      11.695  35.963 -21.343  1.00  0.00    -0.147 OA
BRANCH  16  17
HETATM   17  S1  UNL     1      12.933  36.103 -22.415  1.00  0.00     0.282 S 
HETATM   18  C5  UNL     1      13.779  34.551 -22.673  1.00  0.00     0.196 C 
HETATM   19  O4  UNL     1      13.976  37.113 -22.030  1.00  0.00    -0.197 OA
HETATM   20  O5  UNL     1      12.395  36.498 -23.759  1.00  0.00    -0.197 OA
ENDBRANCH  16  17
ENDBRANCH   9  16
ENDBRANCH   1   9
BRANCH   8  21
HETATM   21  C10 UNL     1      11.945  34.153 -18.828  1.00  0.00     0.309 C 
HETATM   22  O6  UNL     1      12.175  33.295 -19.719  1.00  0.00    -0.258 OA
BRANCH  21  23
HETATM   23  O7  UNL     1      10.757  34.034 -18.126  1.00  0.00    -0.225 OA
BRANCH  23  24
HETATM   24  C11 UNL     1      10.439  32.917 -17.352  1.00  0.00     0.380 C 
HETATM   25  N6  UNL     1       9.258  32.165 -17.566  1.00  0.00    -0.032 NA
HETATM   26  O8  UNL     1      11.271  32.621 -16.450  1.00  0.00    -0.242 OA
ENDBRANCH  23  24
ENDBRANCH  21  23
ENDBRANCH   8  21
BRANCH   4  27
HETATM   27  N3  UNL     1      15.700  38.084 -17.805  1.00  0.00    -0.234 N 
ATOM     28  H32 UNL     1      15.443  38.945 -17.322  1.00  0.00     0.174 HD
ATOM     29  H31 UNL     1      16.673  37.972 -18.087  1.00  0.00     0.174 HD
ENDBRANCH   4  27
BRANCH   7  30
HETATM   30  N5  UNL     1      13.956  33.915 -17.016  1.00  0.00    -0.384 N 
ATOM     31  H52 UNL     1      14.842  33.410 -17.002  1.00  0.00     0.157 HD
ATOM     32  H51 UNL     1      13.120  33.561 -16.551  1.00  0.00     0.157 HD
ENDBRANCH   7  30
TORSDOF 12
ENDMDL
MODEL 4
REMARK VINA RESULT: -5.301426490      1.011      1.244
REMARK  12 active torsions:
REMARK  status: ('A' for Active; 'I' for Inactive)
REMARK    1  A    between atoms: C2_2  and  O1_3 
REMARK    2  A    between atoms: O1_3  and  C3_4 
REMARK    3  A    between atoms: C3_4  and  C4_6 
REMARK    4  A    between atoms: C4_6  and  N1_7 
REMARK    5  A    between atoms: N1_7  and  O3_8 
REMARK    6  A    between atoms: N1_7  and  C6_13 
REMARK    7  A    between atoms: O3_8  and  S1_9 
REMARK    8  A    between atoms: C7_16  and  N3_17 
REMARK    9  A    between atoms: C8_22  and  N5_23 
REMARK   10  A    between atoms: C9_26  and  C10_27 
REMARK   11  A    between atoms: C10_27  and  O7_29 
REMARK   12  A    between atoms: O7_29  and  C11_30 
ROOT
HETATM    1  C6  UNL     1      13.422  36.724 -19.177  1.00  0.00     0.165 A 
HETATM    2  N2  UNL     1      14.282  37.604 -18.635  1.00  0.00    -0.174 N 
ATOM      3  H2  UNL     1      14.401  38.506 -19.095  1.00  0.00     0.186 HD
HETATM    4  C7  UNL     1      14.993  37.360 -17.520  1.00  0.00     0.679 A 
HETATM    5  N4  UNL     1      14.827  36.169 -16.922  1.00  0.00    -0.176 N 
ATOM      6  H4  UNL     1      15.352  35.954 -16.074  1.00  0.00     0.186 HD
HETATM    7  C8  UNL     1      13.977  35.254 -17.424  1.00  0.00     0.135 A 
HETATM    8  C9  UNL     1      13.240  35.483 -18.565  1.00  0.00     0.130 A 
ENDROOT
BRANCH   1   9
HETATM    9  N1  UNL     1      12.679  36.983 -20.359  1.00  0.00    -0.214 N 
BRANCH   9  10
HETATM   10  C4  UNL     1      13.426  36.774 -21.607  1.00  0.00     0.270 C 
BRANCH  10  11
HETATM   11  C3  UNL     1      12.558  36.231 -22.678  1.00  0.00     0.279 C 
HETATM   12  O2  UNL     1      11.884  37.039 -23.363  1.00  0.00    -0.263 OA
BRANCH  11  13
HETATM   13  O1  UNL     1      12.467  34.879 -22.948  1.00  0.00    -0.321 OA
BRANCH  13  14
HETATM   14  C2  UNL     1      13.566  34.227 -23.545  1.00  0.00     0.174 C 
HETATM   15  C1  UNL     1      13.076  33.526 -24.792  1.00  0.00     0.034 C 
ENDBRANCH  13  14
ENDBRANCH  11  13
ENDBRANCH  10  11
ENDBRANCH   9  10
BRANCH   9  16
HETATM   16  O3  UNL     1      11.422  37.371 -20.456  1.00  0.00    -0.147 OA
BRANCH  16  17
HETATM   17  S1  UNL     1      11.198  38.963 -20.114  1.00  0.00     0.282 S 
HETATM   18  C5  UNL     1       9.863  39.674 -21.064  1.00  0.00     0.196 C 
HETATM   19  O4  UNL     1      12.407  39.824 -20.344  1.00  0.00    -0.197 OA
HETATM   20  O5  UNL     1      10.799  39.120 -18.676  1.00  0.00    -0.197 OA
ENDBRANCH  16  17
ENDBRANCH   9  16
ENDBRANCH   1   9
BRANCH   8  21
HETATM   21  C10 UNL     1      12.330  34.465 -19.077  1.00  0.00     0.309 C 
HETATM   22  O6  UNL     1      12.738  33.655 -19.949  1.00  0.00    -0.258 OA
BRANCH  21  23
HETATM   23  O7  UNL     1      11.019  34.334 -18.654  1.00  0.00    -0.225 OA
BRANCH  23  24
HETATM   24  C11 UNL     1      10.523  33.172 -18.062  1.00  0.00     0.380 C 
HETATM   25  N6  UNL     1      11.041  32.667 -16.844  1.00  0.00    -0.032 NA
HETATM   26  O8  UNL     1       9.583  32.599 -18.682  1.00  0.00    -0.242 OA
ENDBRANCH  23  24
ENDBRANCH  21  23
ENDBRANCH   8  21
BRANCH   4  27
HETATM   27  N3  UNL     1      15.815  38.245 -17.034  1.00  0.00    -0.234 N 
ATOM     28  H32 UNL     1      15.641  39.244 -17.152  1.00  0.00     0.174 HD
ATOM     29  H31 UNL     1      16.652  37.968 -16.523  1.00  0.00     0.174 HD
ENDBRANCH   4  27
BRANCH   7  30
HETATM   30  N5  UNL     1      13.829  34.114 -16.838  1.00  0.00    -0.384 N 
ATOM     31  H52 UNL     1      13.753  33.287 -17.430  1.00  0.00     0.157 HD
ATOM     32  H51 UNL     1      13.793  34.061 -15.820  1.00  0.00     0.157 HD
ENDBRANCH   7  30
TORSDOF 12
ENDMDL
MODEL 5
REMARK VINA RESULT: -5.281274812      2.221      4.934
REMARK  12 active torsions:
REMARK  status: ('A' for Active; 'I' for Inactive)
REMARK    1  A    between atoms: C2_2  and  O1_3 
REMARK    2  A    between atoms: O1_3  and  C3_4 
REMARK    3  A    between atoms: C3_4  and  C4_6 
REMARK    4  A    between atoms: C4_6  and  N1_7 
REMARK    5  A    between atoms: N1_7  and  O3_8 
REMARK    6  A    between atoms: N1_7  and  C6_13 
REMARK    7  A    between atoms: O3_8  and  S1_9 
REMARK    8  A    between atoms: C7_16  and  N3_17 
REMARK    9  A    between atoms: C8_22  and  N5_23 
REMARK   10  A    between atoms: C9_26  and  C10_27 
REMARK   11  A    between atoms: C10_27  and  O7_29 
REMARK   12  A    between atoms: O7_29  and  C11_30 
ROOT
HETATM    1  C6  UNL     1      12.579  35.668 -19.307  1.00  0.00     0.165 A 
HETATM    2  N2  UNL     1      12.908  34.479 -18.772  1.00  0.00    -0.174 N 
ATOM      3  H2  UNL     1      12.440  33.645 -19.127  1.00  0.00     0.186 HD
HETATM    4  C7  UNL     1      13.820  34.329 -17.795  1.00  0.00     0.679 A 
HETATM    5  N4  UNL     1      14.430  35.435 -17.337  1.00  0.00    -0.176 N 
ATOM      6  H4  UNL     1      15.127  35.354 -16.596  1.00  0.00     0.186 HD
HETATM    7  C8  UNL     1      14.137  36.648 -17.840  1.00  0.00     0.135 A 
HETATM    8  C9  UNL     1      13.206  36.823 -18.841  1.00  0.00     0.130 A 
ENDROOT
BRANCH   1   9
HETATM    9  N1  UNL     1      11.609  35.821 -20.333  1.00  0.00    -0.214 N 
BRANCH   9  10
HETATM   10  C4  UNL     1      10.247  35.425 -19.950  1.00  0.00     0.270 C 
BRANCH  10  11
HETATM   11  C3  UNL     1      10.054  33.960 -20.055  1.00  0.00     0.279 C 
HETATM   12  O2  UNL     1       9.811  33.473 -21.187  1.00  0.00    -0.263 OA
BRANCH  11  13
HETATM   13  O1  UNL     1      10.132  33.119 -18.962  1.00  0.00    -0.321 OA
BRANCH  13  14
HETATM   14  C2  UNL     1      10.588  31.797 -19.150  1.00  0.00     0.174 C 
HETATM   15  C1  UNL     1       9.494  30.854 -18.702  1.00  0.00     0.034 C 
ENDBRANCH  13  14
ENDBRANCH  11  13
ENDBRANCH  10  11
ENDBRANCH   9  10
BRANCH   9  16
HETATM   16  O3  UNL     1      11.792  36.279 -21.557  1.00  0.00    -0.147 OA
BRANCH  16  17
HETATM   17  S1  UNL     1      12.849  35.383 -22.441  1.00  0.00     0.282 S 
HETATM   18  C5  UNL     1      12.084  34.678 -23.893  1.00  0.00     0.196 C 
HETATM   19  O4  UNL     1      13.486  34.251 -21.688  1.00  0.00    -0.197 OA
HETATM   20  O5  UNL     1      13.952  36.263 -22.953  1.00  0.00    -0.197 OA
ENDBRANCH  16  17
ENDBRANCH   9  16
ENDBRANCH   1   9
BRANCH   8  21
HETATM   21  C10 UNL     1      12.916  38.155 -19.359  1.00  0.00     0.309 C 
HETATM   22  O6  UNL     1      11.939  38.799 -18.896  1.00  0.00    -0.258 OA
BRANCH  21  23
HETATM   23  O7  UNL     1      13.666  38.766 -20.349  1.00  0.00    -0.225 OA
BRANCH  23  24
HETATM   24  C11 UNL     1      14.393  39.939 -20.139  1.00  0.00     0.380 C 
HETATM   25  N6  UNL     1      13.990  41.182 -20.685  1.00  0.00    -0.032 NA
HETATM   26  O8  UNL     1      15.432  39.821 -19.431  1.00  0.00    -0.242 OA
ENDBRANCH  23  24
ENDBRANCH  21  23
ENDBRANCH   8  21
BRANCH   4  27
HETATM   27  N3  UNL     1      14.104  33.156 -17.308  1.00  0.00    -0.234 N 
ATOM     28  H32 UNL     1      13.366  32.526 -16.991  1.00  0.00     0.174 HD
ATOM     29  H31 UNL     1      15.068  32.833 -17.230  1.00  0.00     0.174 HD
ENDBRANCH   4  27
BRANCH   7  30
HETATM   30  N5  UNL     1      14.732  37.700 -17.389  1.00  0.00    -0.384 N 
ATOM     31  H52 UNL     1      14.278  38.600 -17.541  1.00  0.00     0.157 HD
ATOM     32  H51 UNL     1      15.623  37.616 -16.900  1.00  0.00     0.157 HD
ENDBRANCH   7  30
TORSDOF 12
ENDMDL
