MODEL 1
REMARK VINA RESULT: -7.038029892      0.000      0.000
REMARK  11 active torsions:
REMARK  status: ('A' for Active; 'I' for Inactive)
REMARK    1  A    between atoms: O1_2  and  C2_3 
REMARK    2  A    between atoms: C2_3  and  C3_5 
REMARK    3  A    between atoms: N2_7  and  N3_9 
REMARK    4  A    between atoms: N3_9  and  C4_11 
REMARK    5  A    between atoms: C5_12  and  O3_13 
REMARK    6  A    between atoms: C6_16  and  C7_17 
REMARK    7  A    between atoms: C7_17  and  C8_19 
REMARK    8  A    between atoms: C8_19  and  O6_21 
REMARK    9  A    between atoms: C8_19  and  C10_23 
REMARK   10  A    between atoms: C10_23  and  O8_25 
REMARK   11  A    between atoms: C12_27  and  N4_28 
REMARK       I    between atoms: N4_28  and  C13_30 
ROOT
HETATM    1  C4  UNL     1      15.103  37.526 -16.875  1.00  0.00     0.136 A 
HETATM    2  C5  UNL     1      14.812  36.573 -15.938  1.00  0.00     0.215 A 
HETATM    3  O4  UNL     1      14.208  35.567 -16.527  1.00  0.00    -0.280 OA
HETATM    4  C6  UNL     1      14.086  35.805 -17.810  1.00  0.00     0.157 A 
HETATM    5  C12 UNL     1      14.635  37.037 -18.088  1.00  0.00     0.106 A 
ENDROOT
BRANCH   1   6
HETATM    6  N3  UNL     1      15.753  38.771 -16.671  1.00  0.00    -0.293 N 
ATOM      7  H3  UNL     1      16.620  38.946 -17.180  1.00  0.00     0.187 HD
BRANCH   6   8
HETATM    8  N2  UNL     1      15.283  39.771 -15.821  1.00  0.00    -0.282 N 
HETATM    9  C3  UNL     1      15.759  39.900 -14.634  1.00  0.00     0.206 C 
HETATM   10  N1  UNL     1      16.786  38.975 -14.224  1.00  0.00    -0.075 NA
ATOM     11  H2  UNL     1      14.554  40.407 -16.145  1.00  0.00     0.188 HD
BRANCH   9  12
HETATM   12  C2  UNL     1      15.345  40.899 -13.670  1.00  0.00     0.325 C 
HETATM   13  O2  UNL     1      16.205  41.549 -13.015  1.00  0.00    -0.256 OA
BRANCH  12  14
HETATM   14  O1  UNL     1      14.003  41.179 -13.428  1.00  0.00    -0.321 OA
HETATM   15  C1  UNL     1      13.083  40.259 -12.878  1.00  0.00     0.213 C 
ENDBRANCH  12  14
ENDBRANCH   9  12
ENDBRANCH   6   8
ENDBRANCH   1   6
BRANCH   2  16
HETATM   16  O3  UNL     1      15.080  36.596 -14.559  1.00  0.00    -0.339 OA
ATOM     17  H3  UNL     1      14.722  36.037 -13.880  1.00  0.00     0.220 HD
ENDBRANCH   2  16
BRANCH   5  18
HETATM   18  N4  UNL     1      14.688  37.685 -19.329  1.00  0.00    -0.323 N 
HETATM   19  C13 UNL     1      13.782  38.635 -19.842  1.00  0.00     0.218 C 
HETATM   20  C14 UNL     1      13.988  39.234 -21.203  1.00  0.00     0.117 C 
HETATM   21  O9  UNL     1      12.786  38.976 -19.137  1.00  0.00    -0.274 OA
ATOM     22  H4  UNL     1      15.474  37.442 -19.932  1.00  0.00     0.169 HD
ENDBRANCH   5  18
BRANCH   4  23
HETATM   23  C7  UNL     1      13.460  34.878 -18.768  1.00  0.00     0.229 C 
HETATM   24  O5  UNL     1      12.992  35.389 -19.837  1.00  0.00    -0.286 OA
BRANCH  23  25
HETATM   25  C8  UNL     1      13.343  33.430 -18.575  1.00  0.00     0.209 C 
HETATM   26  C9  UNL     1      13.873  32.753 -19.835  1.00  0.00     0.066 C 
BRANCH  25  27
HETATM   27  O6  UNL     1      14.196  33.086 -17.521  1.00  0.00    -0.372 OA
ATOM     28  H6  UNL     1      15.079  33.304 -17.794  1.00  0.00     0.211 HD
ENDBRANCH  25  27
BRANCH  25  29
HETATM   29  C10 UNL     1      11.989  32.982 -18.246  1.00  0.00     0.301 C 
HETATM   30  O7  UNL     1      11.426  33.245 -17.129  1.00  0.00    -0.261 OA
BRANCH  29  31
HETATM   31  O8  UNL     1      11.252  32.252 -19.127  1.00  0.00    -0.324 OA
HETATM   32  C11 UNL     1      10.160  31.425 -18.829  1.00  0.00     0.213 C 
ENDBRANCH  29  31
ENDBRANCH  25  29
ENDBRANCH  23  25
ENDBRANCH   4  23
TORSDOF 11
ENDMDL
MODEL 2
REMARK VINA RESULT: -7.008233893      2.358      7.123
REMARK  11 active torsions:
REMARK  status: ('A' for Active; 'I' for Inactive)
REMARK    1  A    between atoms: O1_2  and  C2_3 
REMARK    2  A    between atoms: C2_3  and  C3_5 
REMARK    3  A    between atoms: N2_7  and  N3_9 
REMARK    4  A    between atoms: N3_9  and  C4_11 
REMARK    5  A    between atoms: C5_12  and  O3_13 
REMARK    6  A    between atoms: C6_16  and  C7_17 
REMARK    7  A    between atoms: C7_17  and  C8_19 
REMARK    8  A    between atoms: C8_19  and  O6_21 
REMARK    9  A    between atoms: C8_19  and  C10_23 
REMARK   10  A    between atoms: C10_23  and  O8_25 
REMARK   11  A    between atoms: C12_27  and  N4_28 
REMARK       I    between atoms: N4_28  and  C13_30 
ROOT
HETATM    1  C4  UNL     1      15.048  38.091 -18.747  1.00  0.00     0.136 A 
HETATM    2  C5  UNL     1      15.370  39.380 -18.419  1.00  0.00     0.215 A 
HETATM    3  O4  UNL     1      15.509  39.464 -17.117  1.00  0.00    -0.280 OA
HETATM    4  C6  UNL     1      15.298  38.295 -16.564  1.00  0.00     0.157 A 
HETATM    5  C12 UNL     1      14.998  37.384 -17.553  1.00  0.00     0.106 A 
ENDROOT
BRANCH   1   6
HETATM    6  N3  UNL     1      14.810  37.560 -20.043  1.00  0.00    -0.293 N 
ATOM      7  H3  UNL     1      15.320  36.720 -20.314  1.00  0.00     0.187 HD
BRANCH   6   8
HETATM    8  N2  UNL     1      13.925  38.114 -20.966  1.00  0.00    -0.282 N 
HETATM    9  C3  UNL     1      14.361  38.780 -21.975  1.00  0.00     0.206 C 
HETATM   10  N1  UNL     1      15.789  38.930 -22.107  1.00  0.00    -0.075 NA
ATOM     11  H2  UNL     1      12.921  37.989 -20.839  1.00  0.00     0.188 HD
BRANCH   9  12
HETATM   12  C2  UNL     1      13.533  39.398 -22.991  1.00  0.00     0.325 C 
HETATM   13  O2  UNL     1      12.913  38.686 -23.827  1.00  0.00    -0.256 OA
BRANCH  12  14
HETATM   14  O1  UNL     1      13.393  40.779 -23.089  1.00  0.00    -0.321 OA
HETATM   15  C1  UNL     1      13.360  41.658 -21.984  1.00  0.00     0.213 C 
ENDBRANCH  12  14
ENDBRANCH   9  12
ENDBRANCH   6   8
ENDBRANCH   1   6
BRANCH   2  16
HETATM   16  O3  UNL     1      15.539  40.480 -19.275  1.00  0.00    -0.339 OA
ATOM     17  H3  UNL     1      16.179  41.180 -19.215  1.00  0.00     0.220 HD
ENDBRANCH   2  16
BRANCH   5  18
HETATM   18  N4  UNL     1      14.677  36.029 -17.394  1.00  0.00    -0.323 N 
HETATM   19  C13 UNL     1      13.592  35.331 -17.960  1.00  0.00     0.218 C 
HETATM   20  C14 UNL     1      13.393  33.869 -17.682  1.00  0.00     0.117 C 
HETATM   21  O9  UNL     1      12.784  35.956 -18.710  1.00  0.00    -0.274 OA
ATOM     22  H4  UNL     1      15.301  35.485 -16.798  1.00  0.00     0.169 HD
ENDBRANCH   5  18
BRANCH   4  23
HETATM   23  C7  UNL     1      15.380  38.036 -15.117  1.00  0.00     0.229 C 
HETATM   24  O5  UNL     1      14.964  36.902 -14.714  1.00  0.00    -0.286 OA
BRANCH  23  25
HETATM   25  C8  UNL     1      15.901  38.983 -14.127  1.00  0.00     0.209 C 
HETATM   26  C9  UNL     1      16.412  38.174 -12.940  1.00  0.00     0.066 C 
BRANCH  25  27
HETATM   27  O6  UNL     1      17.002  39.621 -14.709  1.00  0.00    -0.372 OA
ATOM     28  H6  UNL     1      17.441  40.103 -14.019  1.00  0.00     0.211 HD
ENDBRANCH  25  27
BRANCH  25  29
HETATM   29  C10 UNL     1      14.935  40.002 -13.714  1.00  0.00     0.301 C 
HETATM   30  O7  UNL     1      14.976  41.206 -14.141  1.00  0.00    -0.261 OA
BRANCH  29  31
HETATM   31  O8  UNL     1      13.931  39.714 -12.842  1.00  0.00    -0.324 OA
HETATM   32  C11 UNL     1      12.623  40.216 -12.869  1.00  0.00     0.213 C 
ENDBRANCH  29  31
ENDBRANCH  25  29
ENDBRANCH  23  25
ENDBRANCH   4  23
TORSDOF 11
ENDMDL
MODEL 3
REMARK VINA RESULT: -6.895393031      2.124      3.212
REMARK  11 active torsions:
REMARK  status: ('A' for Active; 'I' for Inactive)
REMARK    1  A    between atoms: O1_2  and  C2_3 
REMARK    2  A    between atoms: C2_3  and  C3_5 
REMARK    3  A    between atoms: N2_7  and  N3_9 
REMARK    4  A    between atoms: N3_9  and  C4_11 
REMARK    5  A    between atoms: C5_12  and  O3_13 
REMARK    6  A    between atoms: C6_16  and  C7_17 
REMARK    7  A    between atoms: C7_17  and  C8_19 
REMARK    8  A    between atoms: C8_19  and  O6_21 
REMARK    9  A    between atoms: C8_19  and  C10_23 
REMARK   10  A    between atoms: C10_23  and  O8_25 
REMARK   11  A    between atoms: C12_27  and  N4_28 
REMARK       I    between atoms: N4_28  and  C13_30 
ROOT
HETATM    1  C4  UNL     1      13.838  35.383 -18.082  1.00  0.00     0.136 A 
HETATM    2  C5  UNL     1      13.495  34.070 -17.907  1.00  0.00     0.215 A 
HETATM    3  O4  UNL     1      12.314  33.865 -18.444  1.00  0.00    -0.280 OA
HETATM    4  C6  UNL     1      11.858  34.976 -18.969  1.00  0.00     0.157 A 
HETATM    5  C12 UNL     1      12.785  35.976 -18.767  1.00  0.00     0.106 A 
ENDROOT
BRANCH   1   6
HETATM    6  N3  UNL     1      15.028  36.031 -17.659  1.00  0.00    -0.293 N 
ATOM      7  H3  UNL     1      15.807  36.075 -18.316  1.00  0.00     0.187 HD
BRANCH   6   8
HETATM    8  N2  UNL     1      15.201  36.609 -16.403  1.00  0.00    -0.282 N 
HETATM    9  C3  UNL     1      15.269  37.886 -16.271  1.00  0.00     0.206 C 
HETATM   10  N1  UNL     1      15.163  38.684 -17.468  1.00  0.00    -0.075 NA
ATOM     11  H2  UNL     1      15.274  36.013 -15.578  1.00  0.00     0.188 HD
BRANCH   9  12
HETATM   12  C2  UNL     1      15.448  38.591 -15.019  1.00  0.00     0.325 C 
HETATM   13  O2  UNL     1      15.459  39.852 -14.993  1.00  0.00    -0.256 OA
BRANCH  12  14
HETATM   14  O1  UNL     1      15.615  37.919 -13.811  1.00  0.00    -0.321 OA
HETATM   15  C1  UNL     1      16.559  38.276 -12.824  1.00  0.00     0.213 C 
ENDBRANCH  12  14
ENDBRANCH   9  12
ENDBRANCH   6   8
ENDBRANCH   1   6
BRANCH   2  16
HETATM   16  O3  UNL     1      14.227  33.055 -17.271  1.00  0.00    -0.339 OA
ATOM     17  H3  UNL     1      14.046  32.630 -16.441  1.00  0.00     0.220 HD
ENDBRANCH   2  16
BRANCH   5  18
HETATM   18  N4  UNL     1      12.680  37.321 -19.142  1.00  0.00    -0.323 N 
HETATM   19  C13 UNL     1      13.172  37.927 -20.316  1.00  0.00     0.218 C 
HETATM   20  C14 UNL     1      12.973  39.394 -20.561  1.00  0.00     0.117 C 
HETATM   21  O9  UNL     1      13.787  37.214 -21.163  1.00  0.00    -0.274 OA
ATOM     22  H4  UNL     1      12.192  37.935 -18.489  1.00  0.00     0.169 HD
ENDBRANCH   5  18
BRANCH   4  23
HETATM   23  C7  UNL     1      10.562  35.096 -19.658  1.00  0.00     0.229 C 
HETATM   24  O5  UNL     1      10.215  36.264 -20.026  1.00  0.00    -0.286 OA
BRANCH  23  25
HETATM   25  C8  UNL     1       9.662  33.976 -19.944  1.00  0.00     0.209 C 
HETATM   26  C9  UNL     1       8.778  34.383 -21.118  1.00  0.00     0.066 C 
BRANCH  25  27
HETATM   27  O6  UNL     1      10.459  32.906 -20.367  1.00  0.00    -0.372 OA
ATOM     28  H6  UNL     1      10.677  32.399 -19.595  1.00  0.00     0.211 HD
ENDBRANCH  25  27
BRANCH  25  29
HETATM   29  C10 UNL     1       8.869  33.542 -18.793  1.00  0.00     0.301 C 
HETATM   30  O7  UNL     1       8.635  34.299 -17.790  1.00  0.00    -0.261 OA
BRANCH  29  31
HETATM   31  O8  UNL     1       8.332  32.293 -18.733  1.00  0.00    -0.324 OA
HETATM   32  C11 UNL     1       8.597  31.308 -17.772  1.00  0.00     0.213 C 
ENDBRANCH  29  31
ENDBRANCH  25  29
ENDBRANCH  23  25
ENDBRANCH   4  23
TORSDOF 11
ENDMDL
MODEL 4
REMARK VINA RESULT: -6.878799570      2.177      7.291
REMARK  11 active torsions:
REMARK  status: ('A' for Active; 'I' for Inactive)
REMARK    1  A    between atoms: O1_2  and  C2_3 
REMARK    2  A    between atoms: C2_3  and  C3_5 
REMARK    3  A    between atoms: N2_7  and  N3_9 
REMARK    4  A    between atoms: N3_9  and  C4_11 
REMARK    5  A    between atoms: C5_12  and  O3_13 
REMARK    6  A    between atoms: C6_16  and  C7_17 
REMARK    7  A    between atoms: C7_17  and  C8_19 
REMARK    8  A    between atoms: C8_19  and  O6_21 
REMARK    9  A    between atoms: C8_19  and  C10_23 
REMARK   10  A    between atoms: C10_23  and  O8_25 
REMARK   11  A    between atoms: C12_27  and  N4_28 
REMARK       I    between atoms: N4_28  and  C13_30 
ROOT
HETATM    1  C4  UNL     1      14.027  36.388 -17.884  1.00  0.00     0.136 A 
HETATM    2  C5  UNL     1      14.311  35.657 -16.764  1.00  0.00     0.215 A 
HETATM    3  O4  UNL     1      14.797  36.459 -15.845  1.00  0.00    -0.280 OA
HETATM    4  C6  UNL     1      14.847  37.687 -16.299  1.00  0.00     0.157 A 
HETATM    5  C12 UNL     1      14.373  37.702 -17.592  1.00  0.00     0.106 A 
ENDROOT
BRANCH   1   6
HETATM    6  N3  UNL     1      13.487  35.920 -19.111  1.00  0.00    -0.293 N 
ATOM      7  H3  UNL     1      14.029  36.075 -19.961  1.00  0.00     0.187 HD
BRANCH   6   8
HETATM    8  N2  UNL     1      12.263  35.262 -19.227  1.00  0.00    -0.282 N 
HETATM    9  C3  UNL     1      12.215  33.985 -19.362  1.00  0.00     0.206 C 
HETATM   10  N1  UNL     1      13.467  33.271 -19.390  1.00  0.00    -0.075 NA
ATOM     11  H2  UNL     1      11.397  35.801 -19.205  1.00  0.00     0.188 HD
BRANCH   9  12
HETATM   12  C2  UNL     1      11.003  33.202 -19.493  1.00  0.00     0.325 C 
HETATM   13  O2  UNL     1       9.954  33.723 -19.961  1.00  0.00    -0.256 OA
BRANCH  12  14
HETATM   14  O1  UNL     1      10.945  31.865 -19.112  1.00  0.00    -0.321 OA
HETATM   15  C1  UNL     1       9.809  31.040 -19.266  1.00  0.00     0.213 C 
ENDBRANCH  12  14
ENDBRANCH   9  12
ENDBRANCH   6   8
ENDBRANCH   1   6
BRANCH   2  16
HETATM   16  O3  UNL     1      14.141  34.279 -16.556  1.00  0.00    -0.339 OA
ATOM     17  H3  UNL     1      14.370  33.765 -15.790  1.00  0.00     0.220 HD
ENDBRANCH   2  16
BRANCH   5  18
HETATM   18  N4  UNL     1      14.282  38.804 -18.454  1.00  0.00    -0.323 N 
HETATM   19  C13 UNL     1      15.220  39.218 -19.421  1.00  0.00     0.218 C 
HETATM   20  C14 UNL     1      14.964  40.432 -20.264  1.00  0.00     0.117 C 
HETATM   21  O9  UNL     1      16.286  38.549 -19.568  1.00  0.00    -0.274 OA
ATOM     22  H4  UNL     1      13.440  39.372 -18.371  1.00  0.00     0.169 HD
ENDBRANCH   5  18
BRANCH   4  23
HETATM   23  C7  UNL     1      15.335  38.839 -15.522  1.00  0.00     0.229 C 
HETATM   24  O5  UNL     1      15.888  39.780 -16.178  1.00  0.00    -0.286 OA
BRANCH  23  25
HETATM   25  C8  UNL     1      15.227  38.971 -14.067  1.00  0.00     0.209 C 
HETATM   26  C9  UNL     1      15.103  40.456 -13.746  1.00  0.00     0.066 C 
BRANCH  25  27
HETATM   27  O6  UNL     1      14.029  38.356 -13.687  1.00  0.00    -0.372 OA
ATOM     28  H6  UNL     1      13.981  37.528 -14.149  1.00  0.00     0.211 HD
ENDBRANCH  25  27
BRANCH  25  29
HETATM   29  C10 UNL     1      16.327  38.347 -13.330  1.00  0.00     0.301 C 
HETATM   30  O7  UNL     1      16.205  37.933 -12.126  1.00  0.00    -0.261 OA
BRANCH  29  31
HETATM   31  O8  UNL     1      17.551  38.174 -13.897  1.00  0.00    -0.324 OA
HETATM   32  C11 UNL     1      18.635  39.061 -13.849  1.00  0.00     0.213 C 
ENDBRANCH  29  31
ENDBRANCH  25  29
ENDBRANCH  23  25
ENDBRANCH   4  23
TORSDOF 11
ENDMDL
MODEL 5
REMARK VINA RESULT: -6.849810004      2.709      4.698
REMARK  11 active torsions:
REMARK  status: ('A' for Active; 'I' for Inactive)
REMARK    1  A    between atoms: O1_2  and  C2_3 
REMARK    2  A    between atoms: C2_3  and  C3_5 
REMARK    3  A    between atoms: N2_7  and  N3_9 
REMARK    4  A    between atoms: N3_9  and  C4_11 
REMARK    5  A    between atoms: C5_12  and  O3_13 
REMARK    6  A    between atoms: C6_16  and  C7_17 
REMARK    7  A    between atoms: C7_17  and  C8_19 
REMARK    8  A    between atoms: C8_19  and  O6_21 
REMARK    9  A    between atoms: C8_19  and  C10_23 
REMARK   10  A    between atoms: C10_23  and  O8_25 
REMARK   11  A    between atoms: C12_27  and  N4_28 
REMARK       I    between atoms: N4_28  and  C13_30 
ROOT
HETATM    1  C4  UNL     1      15.172  38.062 -18.499  1.00  0.00     0.136 A 
HETATM    2  C5  UNL     1      15.449  37.434 -17.316  1.00  0.00     0.215 A 
HETATM    3  O4  UNL     1      14.656  36.396 -17.190  1.00  0.00    -0.280 OA
HETATM    4  C6  UNL     1      13.866  36.303 -18.232  1.00  0.00     0.157 A 
HETATM    5  C12 UNL     1      14.148  37.338 -19.097  1.00  0.00     0.106 A 
ENDROOT
BRANCH   1   6
HETATM    6  N3  UNL     1      15.793  39.223 -19.031  1.00  0.00    -0.293 N 
ATOM      7  H3  UNL     1      15.406  40.131 -18.774  1.00  0.00     0.187 HD
BRANCH   6   8
HETATM    8  N2  UNL     1      16.898  39.201 -19.881  1.00  0.00    -0.282 N 
HETATM    9  C3  UNL     1      16.775  39.496 -21.125  1.00  0.00     0.206 C 
HETATM   10  N1  UNL     1      15.458  39.843 -21.600  1.00  0.00    -0.075 NA
ATOM     11  H2  UNL     1      17.814  38.948 -19.510  1.00  0.00     0.188 HD
BRANCH   9  12
HETATM   12  C2  UNL     1      17.851  39.504 -22.095  1.00  0.00     0.325 C 
HETATM   13  O2  UNL     1      18.461  40.575 -22.361  1.00  0.00    -0.256 OA
BRANCH  12  14
HETATM   14  O1  UNL     1      18.250  38.351 -22.764  1.00  0.00    -0.321 OA
HETATM   15  C1  UNL     1      19.577  38.077 -23.162  1.00  0.00     0.213 C 
ENDBRANCH  12  14
ENDBRANCH   9  12
ENDBRANCH   6   8
ENDBRANCH   1   6
BRANCH   2  16
HETATM   16  O3  UNL     1      16.405  37.782 -16.348  1.00  0.00    -0.339 OA
ATOM     17  H3  UNL     1      16.909  38.585 -16.279  1.00  0.00     0.220 HD
ENDBRANCH   2  16
BRANCH   5  18
HETATM   18  N4  UNL     1      13.517  37.626 -20.314  1.00  0.00    -0.323 N 
HETATM   19  C13 UNL     1      12.451  38.521 -20.539  1.00  0.00     0.218 C 
HETATM   20  C14 UNL     1      11.888  38.710 -21.917  1.00  0.00     0.117 C 
HETATM   21  O9  UNL     1      11.973  39.165 -19.558  1.00  0.00    -0.274 OA
ATOM     22  H4  UNL     1      13.869  37.130 -21.133  1.00  0.00     0.169 HD
ENDBRANCH   5  18
BRANCH   4  23
HETATM   23  C7  UNL     1      12.856  35.246 -18.414  1.00  0.00     0.229 C 
HETATM   24  O5  UNL     1      11.741  35.601 -18.915  1.00  0.00    -0.286 OA
BRANCH  23  25
HETATM   25  C8  UNL     1      13.050  33.837 -18.064  1.00  0.00     0.209 C 
HETATM   26  C9  UNL     1      13.892  33.200 -19.164  1.00  0.00     0.066 C 
BRANCH  25  27
HETATM   27  O6  UNL     1      13.804  33.806 -16.885  1.00  0.00    -0.372 OA
ATOM     28  H6  UNL     1      13.865  32.897 -16.617  1.00  0.00     0.211 HD
ENDBRANCH  25  27
BRANCH  25  29
HETATM   29  C10 UNL     1      11.803  33.103 -17.841  1.00  0.00     0.301 C 
HETATM   30  O7  UNL     1      11.181  33.122 -16.725  1.00  0.00    -0.261 OA
BRANCH  29  31
HETATM   31  O8  UNL     1      11.236  32.355 -18.826  1.00  0.00    -0.324 OA
HETATM   32  C11 UNL     1      10.196  31.427 -18.685  1.00  0.00     0.213 C 
ENDBRANCH  29  31
ENDBRANCH  25  29
ENDBRANCH  23  25
ENDBRANCH   4  23
TORSDOF 11
ENDMDL
