MODEL 1
REMARK VINA RESULT: -10.077679480      0.000      0.000
REMARK  9 active torsions:
REMARK  status: ('A' for Active; 'I' for Inactive)
REMARK    1  A    between atoms: O1_1  and  C1_3 
REMARK    2  A    between atoms: C4_6  and  N1_7 
REMARK    3  A    between atoms: N1_7  and  C5_9 
REMARK    4  A    between atoms: C11_15  and  N2_16 
REMARK    5  A    between atoms: N2_16  and  C12_18 
REMARK    6  A    between atoms: C15_23  and  N4_24 
REMARK    7  A    between atoms: N4_24  and  C16_26 
REMARK    8  A    between atoms: C16_26  and  C17_27 
REMARK    9  A    between atoms: C20_30  and  C21_31 
ROOT
HETATM    1  C12 UNL     1      -8.883  19.164  -6.401  1.00  0.00     0.680 A 
HETATM    2  N3  UNL     1      -8.192  18.848  -5.310  1.00  0.00    -0.195 N 
ATOM      3  H3  UNL     1      -7.178  18.951  -5.344  1.00  0.00     0.184 HD
HETATM    4  C13 UNL     1      -8.746  18.394  -4.148  1.00  0.00     0.036 A 
HETATM    5  C14 UNL     1     -10.104  18.245  -4.080  1.00  0.00     0.009 A 
HETATM    6  C15 UNL     1     -10.858  18.566  -5.202  1.00  0.00     0.125 A 
HETATM    7  N5  UNL     1     -10.255  19.007  -6.309  1.00  0.00    -0.176 N 
ATOM      8  H5  UNL     1     -10.828  19.237  -7.120  1.00  0.00     0.186 HD
HETATM    9  C24 UNL     1     -10.798  17.767  -2.888  1.00  0.00     0.044 C 
HETATM   10  C25 UNL     1      -9.954  17.269  -1.774  1.00  0.00     0.005 C 
HETATM   11  C26 UNL     1      -8.524  16.980  -2.146  1.00  0.00     0.006 C 
HETATM   12  C27 UNL     1      -7.912  18.064  -2.975  1.00  0.00     0.058 C 
ENDROOT
BRANCH   1  13
HETATM   13  N2  UNL     1      -8.453  19.591  -7.511  1.00  0.00    -0.221 N 
ATOM     14  H2  UNL     1      -8.923  20.417  -7.882  1.00  0.00     0.178 HD
BRANCH  13  15
HETATM   15  C11 UNL     1      -7.420  19.078  -8.296  1.00  0.00     0.099 C 
HETATM   16  C10 UNL     1      -6.036  19.577  -8.089  1.00  0.00     0.026 C 
HETATM   17  C9  UNL     1      -4.982  18.534  -8.121  1.00  0.00     0.011 C 
HETATM   18  C8  UNL     1      -5.084  17.604  -9.313  1.00  0.00    -0.040 C 
HETATM   19  C7  UNL     1      -4.442  18.279 -10.465  1.00  0.00     0.011 C 
HETATM   20  C29 UNL     1      -6.496  17.143  -9.537  1.00  0.00     0.011 C 
HETATM   21  C30 UNL     1      -4.229  16.393  -8.963  1.00  0.00     0.011 C 
HETATM   22  C6  UNL     1      -4.196  17.402 -11.675  1.00  0.00     0.025 C 
HETATM   23  C5  UNL     1      -3.705  16.036 -11.392  1.00  0.00     0.077 C 
HETATM   24  C31 UNL     1      -4.219  15.435 -10.079  1.00  0.00     0.025 C 
HETATM   25  C28 UNL     1      -7.373  17.553  -8.350  1.00  0.00     0.026 C 
BRANCH  23  26
HETATM   26  N1  UNL     1      -3.955  15.112 -12.411  1.00  0.00    -0.413 N 
ATOM     27  H1  UNL     1      -4.923  14.812 -12.520  1.00  0.00     0.154 HD
BRANCH  26  28
HETATM   28  C4  UNL     1      -3.046  14.564 -13.281  1.00  0.00     0.077 C 
HETATM   29  C3  UNL     1      -3.445  13.920 -14.545  1.00  0.00     0.027 C 
HETATM   30  C2  UNL     1      -4.200  12.620 -14.440  1.00  0.00     0.034 C 
HETATM   31  C1  UNL     1      -3.777  11.708 -13.355  1.00  0.00     0.118 C 
HETATM   32  C33 UNL     1      -3.230  12.418 -12.140  1.00  0.00     0.034 C 
HETATM   33  C32 UNL     1      -2.249  13.487 -12.487  1.00  0.00     0.027 C 
BRANCH  31  34
HETATM   34  O1  UNL     1      -4.910  10.987 -12.923  1.00  0.00    -0.396 OA
ATOM     35  H1  UNL     1      -4.610  10.191 -12.502  1.00  0.00     0.210 HD
ENDBRANCH  31  34
ENDBRANCH  26  28
ENDBRANCH  23  26
ENDBRANCH  13  15
ENDBRANCH   1  13
BRANCH   6  36
HETATM   36  N4  UNL     1     -12.138  18.417  -5.130  1.00  0.00    -0.375 N 
ATOM     37  H4  UNL     1     -12.620  18.340  -4.234  1.00  0.00     0.161 HD
BRANCH  36  38
HETATM   38  C16 UNL     1     -12.862  18.365  -6.404  1.00  0.00     0.126 C 
BRANCH  38  39
HETATM   39  C17 UNL     1     -13.544  17.025  -6.591  1.00  0.00     0.003 C 
HETATM   40  C18 UNL     1     -12.517  15.929  -6.771  1.00  0.00     0.007 C 
HETATM   41  C19 UNL     1     -13.098  14.658  -6.189  1.00  0.00     0.014 C 
HETATM   42  C20 UNL     1     -13.257  14.806  -4.685  1.00  0.00     0.093 C 
HETATM   43  C22 UNL     1     -14.081  16.019  -4.343  1.00  0.00     0.014 C 
HETATM   44  C23 UNL     1     -14.591  16.721  -5.575  1.00  0.00     0.007 C 
BRANCH  42  45
HETATM   45  C21 UNL     1     -13.897  13.532  -4.130  1.00  0.00     0.391 C 
HETATM   46  F1  UNL     1     -14.668  13.896  -3.040  1.00  0.00    -0.171 F 
HETATM   47  F2  UNL     1     -14.615  12.874  -5.093  1.00  0.00    -0.171 F 
HETATM   48  F3  UNL     1     -12.853  12.686  -3.753  1.00  0.00    -0.171 F 
ENDBRANCH  42  45
ENDBRANCH  38  39
ENDBRANCH  36  38
ENDBRANCH   6  36
TORSDOF 9
ENDMDL
MODEL 2
REMARK VINA RESULT: -9.392336638      1.797      3.575
REMARK  9 active torsions:
REMARK  status: ('A' for Active; 'I' for Inactive)
REMARK    1  A    between atoms: O1_1  and  C1_3 
REMARK    2  A    between atoms: C4_6  and  N1_7 
REMARK    3  A    between atoms: N1_7  and  C5_9 
REMARK    4  A    between atoms: C11_15  and  N2_16 
REMARK    5  A    between atoms: N2_16  and  C12_18 
REMARK    6  A    between atoms: C15_23  and  N4_24 
REMARK    7  A    between atoms: N4_24  and  C16_26 
REMARK    8  A    between atoms: C16_26  and  C17_27 
REMARK    9  A    between atoms: C20_30  and  C21_31 
ROOT
HETATM    1  C12 UNL     1     -10.320  18.914  -8.494  1.00  0.00     0.680 A 
HETATM    2  N3  UNL     1     -10.894  18.631  -9.660  1.00  0.00    -0.195 N 
ATOM      3  H3  UNL     1     -10.302  18.617 -10.490  1.00  0.00     0.184 HD
HETATM    4  C13 UNL     1     -12.222  18.360  -9.823  1.00  0.00     0.036 A 
HETATM    5  C14 UNL     1     -13.037  18.377  -8.724  1.00  0.00     0.009 A 
HETATM    6  C15 UNL     1     -12.471  18.669  -7.489  1.00  0.00     0.125 A 
HETATM    7  N5  UNL     1     -11.163  18.924  -7.398  1.00  0.00    -0.176 N 
ATOM      8  H5  UNL     1     -10.770  19.136  -6.481  1.00  0.00     0.186 HD
HETATM    9  C24 UNL     1     -14.470  18.102  -8.786  1.00  0.00     0.044 C 
HETATM   10  C25 UNL     1     -15.070  17.968 -10.136  1.00  0.00     0.005 C 
HETATM   11  C26 UNL     1     -14.215  18.487 -11.262  1.00  0.00     0.006 C 
HETATM   12  C27 UNL     1     -12.788  18.052 -11.151  1.00  0.00     0.058 C 
ENDROOT
BRANCH   1  13
HETATM   13  N2  UNL     1      -9.106  19.174  -8.256  1.00  0.00    -0.221 N 
ATOM     14  H2  UNL     1      -8.932  19.800  -7.470  1.00  0.00     0.178 HD
BRANCH  13  15
HETATM   15  C11 UNL     1      -7.972  18.715  -8.928  1.00  0.00     0.099 C 
HETATM   16  C10 UNL     1      -6.706  19.484  -8.824  1.00  0.00     0.026 C 
HETATM   17  C9  UNL     1      -5.484  18.659  -8.655  1.00  0.00     0.011 C 
HETATM   18  C8  UNL     1      -5.382  17.517  -9.646  1.00  0.00    -0.040 C 
HETATM   19  C7  UNL     1      -4.830  18.065 -10.907  1.00  0.00     0.011 C 
HETATM   20  C29 UNL     1      -6.682  16.777  -9.775  1.00  0.00     0.011 C 
HETATM   21  C30 UNL     1      -4.339  16.568  -9.070  1.00  0.00     0.011 C 
HETATM   22  C6  UNL     1      -4.395  17.032 -11.926  1.00  0.00     0.025 C 
HETATM   23  C5  UNL     1      -3.681  15.855 -11.385  1.00  0.00     0.077 C 
HETATM   24  C31 UNL     1      -4.123  15.432  -9.980  1.00  0.00     0.025 C 
HETATM   25  C28 UNL     1      -7.656  17.241  -8.688  1.00  0.00     0.026 C 
BRANCH  23  26
HETATM   26  N1  UNL     1      -3.730  14.726 -12.207  1.00  0.00    -0.413 N 
ATOM     27  H1  UNL     1      -4.433  14.026 -11.970  1.00  0.00     0.154 HD
BRANCH  26  28
HETATM   28  C4  UNL     1      -2.941  14.450 -13.296  1.00  0.00     0.077 C 
HETATM   29  C3  UNL     1      -3.498  14.182 -14.633  1.00  0.00     0.027 C 
HETATM   30  C2  UNL     1      -4.268  12.898 -14.807  1.00  0.00     0.034 C 
HETATM   31  C1  UNL     1      -3.746  11.723 -14.076  1.00  0.00     0.118 C 
HETATM   32  C33 UNL     1      -3.046  12.069 -12.784  1.00  0.00     0.034 C 
HETATM   33  C32 UNL     1      -2.085  13.200 -12.932  1.00  0.00     0.027 C 
BRANCH  31  34
HETATM   34  O1  UNL     1      -4.840  10.901 -13.732  1.00  0.00    -0.396 OA
ATOM     35  H1  UNL     1      -4.519  10.014 -13.623  1.00  0.00     0.210 HD
ENDBRANCH  31  34
ENDBRANCH  26  28
ENDBRANCH  23  26
ENDBRANCH  13  15
ENDBRANCH   1  13
BRANCH   6  36
HETATM   36  N4  UNL     1     -13.248  18.688  -6.460  1.00  0.00    -0.375 N 
ATOM     37  H4  UNL     1     -14.260  18.596  -6.549  1.00  0.00     0.161 HD
BRANCH  36  38
HETATM   38  C16 UNL     1     -12.600  18.849  -5.154  1.00  0.00     0.126 C 
BRANCH  38  39
HETATM   39  C17 UNL     1     -12.995  17.735  -4.206  1.00  0.00     0.003 C 
HETATM   40  C18 UNL     1     -14.382  17.229  -4.534  1.00  0.00     0.007 C 
HETATM   41  C19 UNL     1     -14.426  15.757  -4.181  1.00  0.00     0.014 C 
HETATM   42  C20 UNL     1     -13.496  14.980  -5.098  1.00  0.00     0.093 C 
HETATM   43  C22 UNL     1     -12.097  15.536  -5.051  1.00  0.00     0.014 C 
HETATM   44  C23 UNL     1     -11.971  16.663  -4.057  1.00  0.00     0.007 C 
BRANCH  42  45
HETATM   45  C21 UNL     1     -13.516  13.506  -4.685  1.00  0.00     0.391 C 
HETATM   46  F1  UNL     1     -14.338  12.838  -5.576  1.00  0.00    -0.171 F 
HETATM   47  F2  UNL     1     -12.251  12.985  -4.636  1.00  0.00    -0.171 F 
HETATM   48  F3  UNL     1     -14.027  13.456  -3.388  1.00  0.00    -0.171 F 
ENDBRANCH  42  45
ENDBRANCH  38  39
ENDBRANCH  36  38
ENDBRANCH   6  36
TORSDOF 9
ENDMDL
MODEL 3
REMARK VINA RESULT: -9.378349152      5.888      9.288
REMARK  9 active torsions:
REMARK  status: ('A' for Active; 'I' for Inactive)
REMARK    1  A    between atoms: O1_1  and  C1_3 
REMARK    2  A    between atoms: C4_6  and  N1_7 
REMARK    3  A    between atoms: N1_7  and  C5_9 
REMARK    4  A    between atoms: C11_15  and  N2_16 
REMARK    5  A    between atoms: N2_16  and  C12_18 
REMARK    6  A    between atoms: C15_23  and  N4_24 
REMARK    7  A    between atoms: N4_24  and  C16_26 
REMARK    8  A    between atoms: C16_26  and  C17_27 
REMARK    9  A    between atoms: C20_30  and  C21_31 
ROOT
HETATM    1  C12 UNL     1      -9.155  17.019  -9.738  1.00  0.00     0.680 A 
HETATM    2  N3  UNL     1      -7.829  17.019  -9.634  1.00  0.00    -0.195 N 
ATOM      3  H3  UNL     1      -7.286  16.906 -10.490  1.00  0.00     0.184 HD
HETATM    4  C13 UNL     1      -7.145  17.158  -8.461  1.00  0.00     0.036 A 
HETATM    5  C14 UNL     1      -7.852  17.308  -7.300  1.00  0.00     0.009 A 
HETATM    6  C15 UNL     1      -9.240  17.313  -7.371  1.00  0.00     0.125 A 
HETATM    7  N5  UNL     1      -9.849  17.172  -8.551  1.00  0.00    -0.176 N 
ATOM      8  H5  UNL     1     -10.868  17.179  -8.579  1.00  0.00     0.186 HD
HETATM    9  C24 UNL     1      -7.221  17.464  -5.992  1.00  0.00     0.044 C 
HETATM   10  C25 UNL     1      -5.751  17.279  -5.930  1.00  0.00     0.005 C 
HETATM   11  C26 UNL     1      -5.148  16.604  -7.134  1.00  0.00     0.006 C 
HETATM   12  C27 UNL     1      -5.669  17.151  -8.425  1.00  0.00     0.058 C 
ENDROOT
BRANCH   1  13
HETATM   13  N2  UNL     1      -9.865  16.898 -10.778  1.00  0.00    -0.221 N 
ATOM     14  H2  UNL     1      -9.783  16.009 -11.271  1.00  0.00     0.178 HD
BRANCH  13  15
HETATM   15  C11 UNL     1     -10.746  17.823 -11.338  1.00  0.00     0.099 C 
HETATM   16  C10 UNL     1     -11.559  17.429 -12.517  1.00  0.00     0.026 C 
HETATM   17  C9  UNL     1     -12.970  17.887 -12.487  1.00  0.00     0.011 C 
HETATM   18  C8  UNL     1     -13.124  19.356 -12.149  1.00  0.00    -0.040 C 
HETATM   19  C7  UNL     1     -12.907  20.128 -13.395  1.00  0.00     0.011 C 
HETATM   20  C29 UNL     1     -12.262  19.751 -10.984  1.00  0.00     0.011 C 
HETATM   21  C30 UNL     1     -14.584  19.535 -11.754  1.00  0.00     0.011 C 
HETATM   22  C6  UNL     1     -13.289  21.592 -13.325  1.00  0.00     0.025 C 
HETATM   23  C5  UNL     1     -14.546  21.895 -12.607  1.00  0.00     0.077 C 
HETATM   24  C31 UNL     1     -14.861  20.946 -11.446  1.00  0.00     0.025 C 
HETATM   25  C28 UNL     1     -11.668  18.500 -10.328  1.00  0.00     0.026 C 
BRANCH  23  26
HETATM   26  N1  UNL     1     -14.631  23.204 -12.124  1.00  0.00    -0.413 N 
ATOM     27  H1  UNL     1     -15.543  23.654 -12.198  1.00  0.00     0.154 HD
BRANCH  26  28
HETATM   28  C4  UNL     1     -13.628  23.953 -11.560  1.00  0.00     0.077 C 
HETATM   29  C3  UNL     1     -13.311  23.903 -10.122  1.00  0.00     0.027 C 
HETATM   30  C2  UNL     1     -14.335  24.478  -9.178  1.00  0.00     0.034 C 
HETATM   31  C1  UNL     1     -15.040  25.692  -9.643  1.00  0.00     0.118 C 
HETATM   32  C33 UNL     1     -15.201  25.767 -11.142  1.00  0.00     0.034 C 
HETATM   33  C32 UNL     1     -13.943  25.445 -11.876  1.00  0.00     0.027 C 
BRANCH  31  34
HETATM   34  O1  UNL     1     -16.342  25.677  -9.099  1.00  0.00    -0.396 OA
ATOM     35  H1  UNL     1     -16.578  24.773  -8.924  1.00  0.00     0.210 HD
ENDBRANCH  31  34
ENDBRANCH  26  28
ENDBRANCH  23  26
ENDBRANCH  13  15
ENDBRANCH   1  13
BRANCH   6  36
HETATM   36  N4  UNL     1      -9.899  17.448  -6.270  1.00  0.00    -0.375 N 
ATOM     37  H4  UNL     1      -9.576  18.064  -5.523  1.00  0.00     0.161 HD
BRANCH  36  38
HETATM   38  C16 UNL     1     -11.137  16.671  -6.149  1.00  0.00     0.126 C 
BRANCH  38  39
HETATM   39  C17 UNL     1     -12.326  17.573  -5.887  1.00  0.00     0.003 C 
HETATM   40  C18 UNL     1     -12.226  18.833  -6.716  1.00  0.00     0.007 C 
HETATM   41  C19 UNL     1     -13.636  19.277  -7.044  1.00  0.00     0.014 C 
HETATM   42  C20 UNL     1     -14.299  18.256  -7.955  1.00  0.00     0.093 C 
HETATM   43  C22 UNL     1     -14.261  16.879  -7.347  1.00  0.00     0.014 C 
HETATM   44  C23 UNL     1     -13.647  16.887  -5.970  1.00  0.00     0.007 C 
BRANCH  42  45
HETATM   45  C21 UNL     1     -15.739  18.699  -8.225  1.00  0.00     0.391 C 
HETATM   46  F1  UNL     1     -15.783  20.074  -8.082  1.00  0.00    -0.171 F 
HETATM   47  F2  UNL     1     -16.166  18.278  -9.456  1.00  0.00    -0.171 F 
HETATM   48  F3  UNL     1     -16.541  18.064  -7.278  1.00  0.00    -0.171 F 
ENDBRANCH  42  45
ENDBRANCH  38  39
ENDBRANCH  36  38
ENDBRANCH   6  36
TORSDOF 9
ENDMDL
MODEL 4
REMARK VINA RESULT: -9.107021674      5.539      9.426
REMARK  9 active torsions:
REMARK  status: ('A' for Active; 'I' for Inactive)
REMARK    1  A    between atoms: O1_1  and  C1_3 
REMARK    2  A    between atoms: C4_6  and  N1_7 
REMARK    3  A    between atoms: N1_7  and  C5_9 
REMARK    4  A    between atoms: C11_15  and  N2_16 
REMARK    5  A    between atoms: N2_16  and  C12_18 
REMARK    6  A    between atoms: C15_23  and  N4_24 
REMARK    7  A    between atoms: N4_24  and  C16_26 
REMARK    8  A    between atoms: C16_26  and  C17_27 
REMARK    9  A    between atoms: C20_30  and  C21_31 
ROOT
HETATM    1  C12 UNL     1      -9.249  17.027  -8.753  1.00  0.00     0.680 A 
HETATM    2  N3  UNL     1      -7.958  16.940  -9.061  1.00  0.00    -0.195 N 
ATOM      3  H3  UNL     1      -7.714  16.734 -10.030  1.00  0.00     0.184 HD
HETATM    4  C13 UNL     1      -6.937  17.107  -8.171  1.00  0.00     0.036 A 
HETATM    5  C14 UNL     1      -7.240  17.383  -6.865  1.00  0.00     0.009 A 
HETATM    6  C15 UNL     1      -8.579  17.481  -6.507  1.00  0.00     0.125 A 
HETATM    7  N5  UNL     1      -9.531  17.307  -7.428  1.00  0.00    -0.176 N 
ATOM      8  H5  UNL     1     -10.507  17.384  -7.142  1.00  0.00     0.186 HD
HETATM    9  C24 UNL     1      -6.227  17.579  -5.832  1.00  0.00     0.044 C 
HETATM   10  C25 UNL     1      -4.820  17.295  -6.209  1.00  0.00     0.005 C 
HETATM   11  C26 UNL     1      -4.654  16.501  -7.478  1.00  0.00     0.006 C 
HETATM   12  C27 UNL     1      -5.526  16.998  -8.588  1.00  0.00     0.058 C 
ENDROOT
BRANCH   1  13
HETATM   13  N2  UNL     1     -10.252  16.889  -9.510  1.00  0.00    -0.221 N 
ATOM     14  H2  UNL     1     -10.528  15.928  -9.710  1.00  0.00     0.178 HD
BRANCH  13  15
HETATM   15  C11 UNL     1     -11.029  17.881 -10.109  1.00  0.00     0.099 C 
HETATM   16  C10 UNL     1     -11.474  17.705 -11.515  1.00  0.00     0.026 C 
HETATM   17  C9  UNL     1     -12.877  18.106 -11.783  1.00  0.00     0.011 C 
HETATM   18  C8  UNL     1     -13.232  19.475 -11.237  1.00  0.00    -0.040 C 
HETATM   19  C7  UNL     1     -12.762  20.484 -12.215  1.00  0.00     0.011 C 
HETATM   20  C29 UNL     1     -12.736  19.655  -9.831  1.00  0.00     0.011 C 
HETATM   21  C30 UNL     1     -14.754  19.529 -11.225  1.00  0.00     0.011 C 
HETATM   22  C6  UNL     1     -13.267  21.893 -11.984  1.00  0.00     0.025 C 
HETATM   23  C5  UNL     1     -14.688  22.012 -11.589  1.00  0.00     0.077 C 
HETATM   24  C31 UNL     1     -15.215  20.843 -10.750  1.00  0.00     0.025 C 
HETATM   25  C28 UNL     1     -12.234  18.318  -9.279  1.00  0.00     0.026 C 
BRANCH  23  26
HETATM   26  N1  UNL     1     -15.001  23.196 -10.916  1.00  0.00    -0.413 N 
ATOM     27  H1  UNL     1     -15.936  23.253 -10.515  1.00  0.00     0.154 HD
BRANCH  26  28
HETATM   28  C4  UNL     1     -14.193  24.291 -10.732  1.00  0.00     0.077 C 
HETATM   29  C3  UNL     1     -13.888  24.838  -9.399  1.00  0.00     0.027 C 
HETATM   30  C2  UNL     1     -15.024  25.493  -8.654  1.00  0.00     0.034 C 
HETATM   31  C1  UNL     1     -15.973  26.275  -9.474  1.00  0.00     0.118 C 
HETATM   32  C33 UNL     1     -16.131  25.760 -10.884  1.00  0.00     0.034 C 
HETATM   33  C32 UNL     1     -14.825  25.462 -11.540  1.00  0.00     0.027 C 
BRANCH  31  34
HETATM   34  O1  UNL     1     -17.246  26.190  -8.870  1.00  0.00    -0.396 OA
ATOM     35  H1  UNL     1     -17.867  26.645  -9.426  1.00  0.00     0.210 HD
ENDBRANCH  31  34
ENDBRANCH  26  28
ENDBRANCH  23  26
ENDBRANCH  13  15
ENDBRANCH   1  13
BRANCH   6  36
HETATM   36  N4  UNL     1      -8.855  17.735  -5.273  1.00  0.00    -0.375 N 
ATOM     37  H4  UNL     1      -8.826  17.009  -4.556  1.00  0.00     0.161 HD
BRANCH  36  38
HETATM   38  C16 UNL     1      -9.214  19.121  -4.955  1.00  0.00     0.126 C 
BRANCH  38  39
HETATM   39  C17 UNL     1     -10.666  19.228  -4.534  1.00  0.00     0.003 C 
HETATM   40  C18 UNL     1     -11.533  19.595  -5.718  1.00  0.00     0.007 C 
HETATM   41  C19 UNL     1     -12.889  18.957  -5.505  1.00  0.00     0.014 C 
HETATM   42  C20 UNL     1     -12.763  17.444  -5.564  1.00  0.00     0.093 C 
HETATM   43  C22 UNL     1     -11.737  16.946  -4.579  1.00  0.00     0.014 C 
HETATM   44  C23 UNL     1     -11.164  18.064  -3.747  1.00  0.00     0.007 C 
BRANCH  42  45
HETATM   45  C21 UNL     1     -14.134  16.823  -5.291  1.00  0.00     0.391 C 
HETATM   46  F1  UNL     1     -14.981  17.227  -6.309  1.00  0.00    -0.171 F 
HETATM   47  F2  UNL     1     -14.051  15.461  -5.177  1.00  0.00    -0.171 F 
HETATM   48  F3  UNL     1     -14.560  17.309  -4.055  1.00  0.00    -0.171 F 
ENDBRANCH  42  45
ENDBRANCH  38  39
ENDBRANCH  36  38
ENDBRANCH   6  36
TORSDOF 9
ENDMDL
MODEL 5
REMARK VINA RESULT: -9.082868066      4.630      6.406
REMARK  9 active torsions:
REMARK  status: ('A' for Active; 'I' for Inactive)
REMARK    1  A    between atoms: O1_1  and  C1_3 
REMARK    2  A    between atoms: C4_6  and  N1_7 
REMARK    3  A    between atoms: N1_7  and  C5_9 
REMARK    4  A    between atoms: C11_15  and  N2_16 
REMARK    5  A    between atoms: N2_16  and  C12_18 
REMARK    6  A    between atoms: C15_23  and  N4_24 
REMARK    7  A    between atoms: N4_24  and  C16_26 
REMARK    8  A    between atoms: C16_26  and  C17_27 
REMARK    9  A    between atoms: C20_30  and  C21_31 
ROOT
HETATM    1  C12 UNL     1      -8.946  18.875  -6.139  1.00  0.00     0.680 A 
HETATM    2  N3  UNL     1      -8.269  18.546  -5.043  1.00  0.00    -0.195 N 
ATOM      3  H3  UNL     1      -7.250  18.575  -5.088  1.00  0.00     0.184 HD
HETATM    4  C13 UNL     1      -8.842  18.171  -3.862  1.00  0.00     0.036 A 
HETATM    5  C14 UNL     1     -10.207  18.122  -3.779  1.00  0.00     0.009 A 
HETATM    6  C15 UNL     1     -10.947  18.459  -4.905  1.00  0.00     0.125 A 
HETATM    7  N5  UNL     1     -10.324  18.819  -6.031  1.00  0.00    -0.176 N 
ATOM      8  H5  UNL     1     -10.888  19.062  -6.845  1.00  0.00     0.186 HD
HETATM    9  C24 UNL     1     -10.922  17.734  -2.567  1.00  0.00     0.044 C 
HETATM   10  C25 UNL     1     -10.104  17.214  -1.443  1.00  0.00     0.005 C 
HETATM   11  C26 UNL     1      -8.702  16.811  -1.815  1.00  0.00     0.006 C 
HETATM   12  C27 UNL     1      -8.023  17.821  -2.685  1.00  0.00     0.058 C 
ENDROOT
BRANCH   1  13
HETATM   13  N2  UNL     1      -8.498  19.233  -7.266  1.00  0.00    -0.221 N 
ATOM     14  H2  UNL     1      -7.664  19.820  -7.246  1.00  0.00     0.178 HD
BRANCH  13  15
HETATM   15  C11 UNL     1      -8.996  18.930  -8.533  1.00  0.00     0.099 C 
HETATM   16  C10 UNL     1      -9.102  17.508  -8.949  1.00  0.00     0.026 C 
HETATM   17  C9  UNL     1     -10.346  17.159  -9.678  1.00  0.00     0.011 C 
HETATM   18  C8  UNL     1     -10.675  18.114 -10.808  1.00  0.00    -0.040 C 
HETATM   19  C7  UNL     1      -9.877  17.704 -11.988  1.00  0.00     0.011 C 
HETATM   20  C29 UNL     1     -10.519  19.547 -10.387  1.00  0.00     0.011 C 
HETATM   21  C30 UNL     1     -12.140  17.864 -11.143  1.00  0.00     0.011 C 
HETATM   22  C6  UNL     1     -10.269  18.361 -13.295  1.00  0.00     0.025 C 
HETATM   23  C5  UNL     1     -11.722  18.501 -13.535  1.00  0.00     0.077 C 
HETATM   24  C31 UNL     1     -12.559  18.713 -12.269  1.00  0.00     0.025 C 
HETATM   25  C28 UNL     1     -10.312  19.625  -8.871  1.00  0.00     0.026 C 
BRANCH  23  26
HETATM   26  N1  UNL     1     -12.060  19.507 -14.444  1.00  0.00    -0.413 N 
ATOM     27  H1  UNL     1     -12.903  19.351 -14.997  1.00  0.00     0.154 HD
BRANCH  26  28
HETATM   28  C4  UNL     1     -11.389  20.682 -14.678  1.00  0.00     0.077 C 
HETATM   29  C3  UNL     1     -10.932  21.565 -13.591  1.00  0.00     0.027 C 
HETATM   30  C2  UNL     1     -11.997  22.277 -12.797  1.00  0.00     0.034 C 
HETATM   31  C1  UNL     1     -13.174  22.746 -13.560  1.00  0.00     0.118 C 
HETATM   32  C33 UNL     1     -13.506  21.888 -14.757  1.00  0.00     0.034 C 
HETATM   33  C32 UNL     1     -12.308  21.557 -15.582  1.00  0.00     0.027 C 
BRANCH  31  34
HETATM   34  O1  UNL     1     -14.296  22.696 -12.706  1.00  0.00    -0.396 OA
ATOM     35  H1  UNL     1     -14.875  22.012 -13.020  1.00  0.00     0.210 HD
ENDBRANCH  31  34
ENDBRANCH  26  28
ENDBRANCH  23  26
ENDBRANCH  13  15
ENDBRANCH   1  13
BRANCH   6  36
HETATM   36  N4  UNL     1     -12.233  18.404  -4.820  1.00  0.00    -0.375 N 
ATOM     37  H4  UNL     1     -12.709  18.347  -3.919  1.00  0.00     0.161 HD
BRANCH  36  38
HETATM   38  C16 UNL     1     -12.974  18.428  -6.085  1.00  0.00     0.126 C 
BRANCH  38  39
HETATM   39  C17 UNL     1     -13.664  17.103  -6.340  1.00  0.00     0.003 C 
HETATM   40  C18 UNL     1     -12.650  16.038  -6.692  1.00  0.00     0.007 C 
HETATM   41  C19 UNL     1     -13.182  14.715  -6.185  1.00  0.00     0.014 C 
HETATM   42  C20 UNL     1     -13.229  14.727  -4.665  1.00  0.00     0.093 C 
HETATM   43  C22 UNL     1     -14.029  15.897  -4.156  1.00  0.00     0.014 C 
HETATM   44  C23 UNL     1     -14.632  16.701  -5.280  1.00  0.00     0.007 C 
BRANCH  42  45
HETATM   45  C21 UNL     1     -13.822  13.402  -4.180  1.00  0.00     0.391 C 
HETATM   46  F1  UNL     1     -14.520  12.848  -5.239  1.00  0.00    -0.171 F 
HETATM   47  F2  UNL     1     -12.850  12.571  -3.691  1.00  0.00    -0.171 F 
HETATM   48  F3  UNL     1     -14.671  13.705  -3.116  1.00  0.00    -0.171 F 
ENDBRANCH  42  45
ENDBRANCH  38  39
ENDBRANCH  36  38
ENDBRANCH   6  36
TORSDOF 9
ENDMDL
