MODEL 1
REMARK VINA RESULT: -7.674274371      0.000      0.000
REMARK  8 active torsions:
REMARK  status: ('A' for Active; 'I' for Inactive)
REMARK    1  A    between atoms: C3_3  and  C4_4 
REMARK    2  A    between atoms: C3_3  and  C28_32 
REMARK    3  A    between atoms: C15_15  and  O1_16 
REMARK    4  A    between atoms: C16_18  and  O2_19 
REMARK       I    between atoms: C28_32  and  N1_34 
REMARK    5  A    between atoms: N1_34  and  C29_36 
REMARK    6  A    between atoms: C29_36  and  C30_37 
REMARK    7  A    between atoms: C29_36  and  C33_42 
REMARK    8  A    between atoms: C30_37  and  O4_40 
ROOT
HETATM    1  C1  UNL     1     -15.535  18.260  -8.869  1.00  0.00     0.013 C 
HETATM    2  C2  UNL     1     -14.340  18.204  -9.004  1.00  0.00    -0.099 C 
HETATM    3  C3  UNL     1     -12.861  18.129  -9.196  1.00  0.00     0.179 C 
ENDROOT
BRANCH   3   4
HETATM    4  C4  UNL     1     -12.389  19.490  -9.481  1.00  0.00     0.003 C 
HETATM    5  C5  UNL     1     -12.450  20.186 -10.585  1.00  0.00    -0.073 C 
HETATM    6  C6  UNL     1     -11.872  21.606 -10.615  1.00  0.00     0.040 C 
HETATM    7  C25 UNL     1     -12.948  20.016 -11.943  1.00  0.00    -0.017 C 
HETATM    8  C7  UNL     1     -12.467  22.279 -11.775  1.00  0.00     0.003 C 
HETATM    9  C8  UNL     1     -12.872  23.711 -11.575  1.00  0.00    -0.005 C 
HETATM   10  C23 UNL     1     -13.602  21.390 -12.175  1.00  0.00    -0.029 C 
HETATM   11  C9  UNL     1     -11.744  24.479 -10.932  1.00  0.00     0.006 C 
HETATM   12  C20 UNL     1     -14.200  23.908 -10.936  1.00  0.00    -0.001 C 
HETATM   13  C10 UNL     1     -12.084  25.916 -10.707  1.00  0.00     0.007 C 
HETATM   14  C11 UNL     1     -13.432  26.172 -10.129  1.00  0.00     0.004 C 
HETATM   15  C12 UNL     1     -14.104  27.286 -10.891  1.00  0.00    -0.015 C 
HETATM   16  C18 UNL     1     -14.267  24.968  -9.884  1.00  0.00    -0.033 C 
HETATM   17  C13 UNL     1     -14.395  27.019 -12.319  1.00  0.00     0.018 C 
HETATM   18  C14 UNL     1     -13.117  28.465 -10.853  1.00  0.00     0.018 C 
HETATM   19  C15 UNL     1     -15.361  27.786 -10.215  1.00  0.00     0.155 C 
HETATM   20  C16 UNL     1     -15.881  26.777  -9.249  1.00  0.00     0.148 C 
HETATM   21  C17 UNL     1     -15.745  25.382  -9.783  1.00  0.00     0.044 C 
HETATM   22  C19 UNL     1     -13.960  24.417  -8.490  1.00  0.00     0.016 C 
HETATM   23  C21 UNL     1     -14.772  22.638 -10.331  1.00  0.00     0.006 C 
HETATM   24  C22 UNL     1     -14.794  21.492 -11.291  1.00  0.00     0.011 C 
HETATM   25  C24 UNL     1     -13.980  21.612 -13.606  1.00  0.00     0.016 C 
HETATM   26  C26 UNL     1     -13.858  18.908 -12.252  1.00  0.00     0.020 C 
HETATM   27  C27 UNL     1     -11.729  19.858 -12.868  1.00  0.00     0.020 C 
BRANCH  19  28
HETATM   28  O1  UNL     1     -16.349  28.086 -11.177  1.00  0.00    -0.392 OA
ATOM     29  H1  UNL     1     -16.938  28.755 -10.848  1.00  0.00     0.210 HD
ENDBRANCH  19  28
BRANCH  20  30
HETATM   30  O2  UNL     1     -17.230  27.017  -9.030  1.00  0.00    -0.393 OA
ATOM     31  H2  UNL     1     -17.497  26.574  -8.232  1.00  0.00     0.210 HD
ENDBRANCH  20  30
ENDBRANCH   3   4
BRANCH   3  32
HETATM   32  C28 UNL     1     -12.272  17.583  -7.940  1.00  0.00     0.237 C 
HETATM   33  O3  UNL     1     -11.389  16.708  -8.006  1.00  0.00    -0.272 OA
HETATM   34  N1  UNL     1     -12.710  18.052  -6.701  1.00  0.00    -0.344 N 
ATOM     35  H1  UNL     1     -13.434  18.771  -6.699  1.00  0.00     0.163 HD
BRANCH  34  36
HETATM   36  C29 UNL     1     -12.217  17.601  -5.422  1.00  0.00     0.225 C 
BRANCH  36  37
HETATM   37  C30 UNL     1     -11.566  18.751  -4.700  1.00  0.00     0.079 C 
HETATM   38  C31 UNL     1     -10.050  18.518  -4.783  1.00  0.00     0.048 C 
HETATM   39  C32 UNL     1     -11.840  20.084  -5.311  1.00  0.00     0.048 C 
BRANCH  37  40
HETATM   40  O4  UNL     1     -11.872  18.783  -3.356  1.00  0.00    -0.388 OA
ATOM     41  H4  UNL     1     -12.660  19.278  -3.168  1.00  0.00     0.210 HD
ENDBRANCH  37  40
ENDBRANCH  36  37
BRANCH  36  42
HETATM   42  C33 UNL     1     -13.220  16.858  -4.606  1.00  0.00     0.410 C 
HETATM   43  F1  UNL     1     -13.867  15.962  -5.468  1.00  0.00    -0.169 F 
HETATM   44  F2  UNL     1     -12.553  16.086  -3.689  1.00  0.00    -0.169 F 
HETATM   45  F3  UNL     1     -14.191  17.632  -4.051  1.00  0.00    -0.169 F 
ENDBRANCH  36  42
ENDBRANCH  34  36
ENDBRANCH   3  32
TORSDOF 8
ENDMDL
MODEL 2
REMARK VINA RESULT: -7.658379855      1.122      1.299
REMARK  8 active torsions:
REMARK  status: ('A' for Active; 'I' for Inactive)
REMARK    1  A    between atoms: C3_3  and  C4_4 
REMARK    2  A    between atoms: C3_3  and  C28_32 
REMARK    3  A    between atoms: C15_15  and  O1_16 
REMARK    4  A    between atoms: C16_18  and  O2_19 
REMARK       I    between atoms: C28_32  and  N1_34 
REMARK    5  A    between atoms: N1_34  and  C29_36 
REMARK    6  A    between atoms: C29_36  and  C30_37 
REMARK    7  A    between atoms: C29_36  and  C33_42 
REMARK    8  A    between atoms: C30_37  and  O4_40 
ROOT
HETATM    1  C1  UNL     1     -15.874  18.198  -7.828  1.00  0.00     0.013 C 
HETATM    2  C2  UNL     1     -14.710  18.005  -8.066  1.00  0.00    -0.099 C 
HETATM    3  C3  UNL     1     -13.273  17.759  -8.387  1.00  0.00     0.179 C 
ENDROOT
BRANCH   3   4
HETATM    4  C4  UNL     1     -12.679  19.053  -8.745  1.00  0.00     0.003 C 
HETATM    5  C5  UNL     1     -12.553  19.625  -9.912  1.00  0.00    -0.073 C 
HETATM    6  C6  UNL     1     -11.882  21.001 -10.011  1.00  0.00     0.040 C 
HETATM    7  C25 UNL     1     -12.886  19.333 -11.300  1.00  0.00    -0.017 C 
HETATM    8  C7  UNL     1     -12.280  21.573 -11.302  1.00  0.00     0.003 C 
HETATM    9  C8  UNL     1     -12.610  23.037 -11.306  1.00  0.00    -0.005 C 
HETATM   10  C23 UNL     1     -13.412  20.707 -11.756  1.00  0.00    -0.029 C 
HETATM   11  C9  UNL     1     -11.523  23.811 -10.600  1.00  0.00     0.006 C 
HETATM   12  C20 UNL     1     -13.992  23.374 -10.871  1.00  0.00    -0.001 C 
HETATM   13  C10 UNL     1     -11.792  25.279 -10.571  1.00  0.00     0.007 C 
HETATM   14  C11 UNL     1     -13.183  25.669 -10.206  1.00  0.00     0.004 C 
HETATM   15  C12 UNL     1     -13.677  26.726 -11.160  1.00  0.00    -0.015 C 
HETATM   16  C18 UNL     1     -14.120  24.545  -9.952  1.00  0.00    -0.033 C 
HETATM   17  C13 UNL     1     -13.802  26.319 -12.579  1.00  0.00     0.018 C 
HETATM   18  C14 UNL     1     -12.626  27.849 -11.113  1.00  0.00     0.018 C 
HETATM   19  C15 UNL     1     -14.972  27.363 -10.712  1.00  0.00     0.155 C 
HETATM   20  C16 UNL     1     -15.677  26.496  -9.725  1.00  0.00     0.148 C 
HETATM   21  C17 UNL     1     -15.568  25.045 -10.090  1.00  0.00     0.044 C 
HETATM   22  C19 UNL     1     -14.029  24.136  -8.480  1.00  0.00     0.016 C 
HETATM   23  C21 UNL     1     -14.719  22.210 -10.221  1.00  0.00     0.006 C 
HETATM   24  C22 UNL     1     -14.697  20.968 -11.053  1.00  0.00     0.011 C 
HETATM   25  C24 UNL     1     -13.590  20.789 -13.239  1.00  0.00     0.016 C 
HETATM   26  C26 UNL     1     -13.822  18.248 -11.612  1.00  0.00     0.020 C 
HETATM   27  C27 UNL     1     -11.573  19.010 -12.034  1.00  0.00     0.020 C 
BRANCH  19  28
HETATM   28  O1  UNL     1     -15.809  27.608 -11.822  1.00  0.00    -0.392 OA
ATOM     29  H1  UNL     1     -16.721  27.614 -11.554  1.00  0.00     0.210 HD
ENDBRANCH  19  28
BRANCH  20  30
HETATM   30  O2  UNL     1     -17.024  26.830  -9.712  1.00  0.00    -0.393 OA
ATOM     31  H2  UNL     1     -17.362  26.713  -8.832  1.00  0.00     0.210 HD
ENDBRANCH  20  30
ENDBRANCH   3   4
BRANCH   3  32
HETATM   32  C28 UNL     1     -12.638  17.166  -7.176  1.00  0.00     0.237 C 
HETATM   33  O3  UNL     1     -12.889  15.987  -6.864  1.00  0.00    -0.272 OA
HETATM   34  N1  UNL     1     -11.766  17.930  -6.398  1.00  0.00    -0.344 N 
ATOM     35  H1  UNL     1     -11.590  18.890  -6.695  1.00  0.00     0.163 HD
BRANCH  34  36
HETATM   36  C29 UNL     1     -11.094  17.468  -5.208  1.00  0.00     0.225 C 
BRANCH  36  37
HETATM   37  C30 UNL     1      -9.749  18.135  -5.099  1.00  0.00     0.079 C 
HETATM   38  C31 UNL     1      -8.912  17.626  -6.283  1.00  0.00     0.048 C 
HETATM   39  C32 UNL     1      -9.799  19.622  -5.202  1.00  0.00     0.048 C 
BRANCH  37  40
HETATM   40  O4  UNL     1      -9.059  17.769  -3.962  1.00  0.00    -0.388 OA
ATOM     41  H4  UNL     1      -8.671  18.509  -3.511  1.00  0.00     0.210 HD
ENDBRANCH  37  40
ENDBRANCH  36  37
BRANCH  36  42
HETATM   42  C33 UNL     1     -11.918  17.550  -3.968  1.00  0.00     0.410 C 
HETATM   43  F1  UNL     1     -12.993  18.404  -4.245  1.00  0.00    -0.169 F 
HETATM   44  F2  UNL     1     -12.466  16.317  -3.723  1.00  0.00    -0.169 F 
HETATM   45  F3  UNL     1     -11.275  18.074  -2.889  1.00  0.00    -0.169 F 
ENDBRANCH  36  42
ENDBRANCH  34  36
ENDBRANCH   3  32
TORSDOF 8
ENDMDL
MODEL 3
REMARK VINA RESULT: -7.218817199      2.559      3.782
REMARK  8 active torsions:
REMARK  status: ('A' for Active; 'I' for Inactive)
REMARK    1  A    between atoms: C3_3  and  C4_4 
REMARK    2  A    between atoms: C3_3  and  C28_32 
REMARK    3  A    between atoms: C15_15  and  O1_16 
REMARK    4  A    between atoms: C16_18  and  O2_19 
REMARK       I    between atoms: C28_32  and  N1_34 
REMARK    5  A    between atoms: N1_34  and  C29_36 
REMARK    6  A    between atoms: C29_36  and  C30_37 
REMARK    7  A    between atoms: C29_36  and  C33_42 
REMARK    8  A    between atoms: C30_37  and  O4_40 
ROOT
HETATM    1  C1  UNL     1     -16.124  18.680  -8.290  1.00  0.00     0.013 C 
HETATM    2  C2  UNL     1     -15.091  19.260  -8.074  1.00  0.00    -0.099 C 
HETATM    3  C3  UNL     1     -13.807  19.982  -7.833  1.00  0.00     0.179 C 
ENDROOT
BRANCH   3   4
HETATM    4  C4  UNL     1     -14.132  21.401  -7.649  1.00  0.00     0.003 C 
HETATM    5  C5  UNL     1     -13.347  22.444  -7.609  1.00  0.00    -0.073 C 
HETATM    6  C6  UNL     1     -13.952  23.838  -7.402  1.00  0.00     0.040 C 
HETATM    7  C25 UNL     1     -11.921  22.728  -7.710  1.00  0.00    -0.017 C 
HETATM    8  C7  UNL     1     -12.943  24.806  -7.845  1.00  0.00     0.003 C 
HETATM    9  C8  UNL     1     -13.452  25.987  -8.620  1.00  0.00    -0.005 C 
HETATM   10  C23 UNL     1     -11.948  23.983  -8.601  1.00  0.00    -0.029 C 
HETATM   11  C9  UNL     1     -14.624  26.608  -7.900  1.00  0.00     0.006 C 
HETATM   12  C20 UNL     1     -13.675  25.743 -10.070  1.00  0.00    -0.001 C 
HETATM   13  C10 UNL     1     -15.177  27.793  -8.621  1.00  0.00     0.007 C 
HETATM   14  C11 UNL     1     -15.357  27.622 -10.090  1.00  0.00     0.004 C 
HETATM   15  C12 UNL     1     -14.821  28.835 -10.808  1.00  0.00    -0.015 C 
HETATM   16  C18 UNL     1     -14.933  26.310 -10.642  1.00  0.00    -0.033 C 
HETATM   17  C13 UNL     1     -13.367  29.084 -10.672  1.00  0.00     0.018 C 
HETATM   18  C14 UNL     1     -15.538  30.040 -10.173  1.00  0.00     0.018 C 
HETATM   19  C15 UNL     1     -15.194  28.864 -12.272  1.00  0.00     0.155 C 
HETATM   20  C16 UNL     1     -15.576  27.505 -12.749  1.00  0.00     0.148 C 
HETATM   21  C17 UNL     1     -14.696  26.445 -12.156  1.00  0.00     0.044 C 
HETATM   22  C19 UNL     1     -16.101  25.326 -10.555  1.00  0.00     0.016 C 
HETATM   23  C21 UNL     1     -13.633  24.271 -10.446  1.00  0.00     0.006 C 
HETATM   24  C22 UNL     1     -12.401  23.578  -9.959  1.00  0.00     0.011 C 
HETATM   25  C24 UNL     1     -10.620  24.669  -8.665  1.00  0.00     0.016 C 
HETATM   26  C26 UNL     1     -11.009  21.701  -8.223  1.00  0.00     0.020 C 
HETATM   27  C27 UNL     1     -11.423  23.100  -6.303  1.00  0.00     0.020 C 
BRANCH  19  28
HETATM   28  O1  UNL     1     -14.121  29.362 -13.042  1.00  0.00    -0.392 OA
ATOM     29  H1  UNL     1     -14.287  29.224 -13.967  1.00  0.00     0.210 HD
ENDBRANCH  19  28
BRANCH  20  30
HETATM   30  O2  UNL     1     -15.430  27.454 -14.128  1.00  0.00    -0.393 OA
ATOM     31  H2  UNL     1     -15.911  26.706 -14.463  1.00  0.00     0.210 HD
ENDBRANCH  20  30
ENDBRANCH   3   4
BRANCH   3  32
HETATM   32  C28 UNL     1     -13.180  19.388  -6.617  1.00  0.00     0.237 C 
HETATM   33  O3  UNL     1     -12.934  20.114  -5.635  1.00  0.00    -0.272 OA
HETATM   34  N1  UNL     1     -12.874  18.027  -6.581  1.00  0.00    -0.344 N 
ATOM     35  H1  UNL     1     -13.096  17.474  -7.409  1.00  0.00     0.163 HD
BRANCH  34  36
HETATM   36  C29 UNL     1     -12.268  17.342  -5.466  1.00  0.00     0.225 C 
BRANCH  36  37
HETATM   37  C30 UNL     1     -13.004  16.054  -5.208  1.00  0.00     0.079 C 
HETATM   38  C31 UNL     1     -14.431  16.440  -4.792  1.00  0.00     0.048 C 
HETATM   39  C32 UNL     1     -13.118  15.171  -6.404  1.00  0.00     0.048 C 
BRANCH  37  40
HETATM   40  O4  UNL     1     -12.481  15.340  -4.150  1.00  0.00    -0.388 OA
ATOM     41  H4  UNL     1     -12.026  14.553  -4.425  1.00  0.00     0.210 HD
ENDBRANCH  37  40
ENDBRANCH  36  37
BRANCH  36  42
HETATM   42  C33 UNL     1     -10.788  17.189  -5.570  1.00  0.00     0.410 C 
HETATM   43  F1  UNL     1     -10.310  18.303  -6.273  1.00  0.00    -0.169 F 
HETATM   44  F2  UNL     1     -10.250  17.275  -4.311  1.00  0.00    -0.169 F 
HETATM   45  F3  UNL     1     -10.375  16.090  -6.256  1.00  0.00    -0.169 F 
ENDBRANCH  36  42
ENDBRANCH  34  36
ENDBRANCH   3  32
TORSDOF 8
ENDMDL
MODEL 4
REMARK VINA RESULT: -7.149324832      5.455     10.048
REMARK  8 active torsions:
REMARK  status: ('A' for Active; 'I' for Inactive)
REMARK    1  A    between atoms: C3_3  and  C4_4 
REMARK    2  A    between atoms: C3_3  and  C28_32 
REMARK    3  A    between atoms: C15_15  and  O1_16 
REMARK    4  A    between atoms: C16_18  and  O2_19 
REMARK       I    between atoms: C28_32  and  N1_34 
REMARK    5  A    between atoms: N1_34  and  C29_36 
REMARK    6  A    between atoms: C29_36  and  C30_37 
REMARK    7  A    between atoms: C29_36  and  C33_42 
REMARK    8  A    between atoms: C30_37  and  O4_40 
ROOT
HETATM    1  C1  UNL     1     -11.295  16.271  -6.392  1.00  0.00     0.013 C 
HETATM    2  C2  UNL     1     -11.335  17.472  -6.450  1.00  0.00    -0.099 C 
HETATM    3  C3  UNL     1     -11.372  18.964  -6.498  1.00  0.00     0.179 C 
ENDROOT
BRANCH   3   4
HETATM    4  C4  UNL     1     -10.176  19.407  -7.224  1.00  0.00     0.003 C 
HETATM    5  C5  UNL     1      -8.968  19.641  -6.788  1.00  0.00    -0.073 C 
HETATM    6  C6  UNL     1      -7.885  20.103  -7.772  1.00  0.00     0.040 C 
HETATM    7  C25 UNL     1      -8.249  19.598  -5.521  1.00  0.00    -0.017 C 
HETATM    8  C7  UNL     1      -6.592  19.849  -7.126  1.00  0.00     0.003 C 
HETATM    9  C8  UNL     1      -5.506  19.305  -8.008  1.00  0.00    -0.005 C 
HETATM   10  C23 UNL     1      -6.925  18.955  -5.973  1.00  0.00    -0.029 C 
HETATM   11  C9  UNL     1      -5.411  20.126  -9.272  1.00  0.00     0.006 C 
HETATM   12  C20 UNL     1      -5.546  17.835  -8.227  1.00  0.00    -0.001 C 
HETATM   13  C10 UNL     1      -4.344  19.637 -10.194  1.00  0.00     0.007 C 
HETATM   14  C11 UNL     1      -4.298  18.162 -10.396  1.00  0.00     0.004 C 
HETATM   15  C12 UNL     1      -2.873  17.682 -10.289  1.00  0.00    -0.015 C 
HETATM   16  C18 UNL     1      -5.298  17.376  -9.628  1.00  0.00    -0.033 C 
HETATM   17  C13 UNL     1      -2.219  17.864  -8.972  1.00  0.00     0.018 C 
HETATM   18  C14 UNL     1      -2.077  18.528 -11.299  1.00  0.00     0.018 C 
HETATM   19  C15 UNL     1      -2.700  16.248 -10.734  1.00  0.00     0.155 C 
HETATM   20  C16 UNL     1      -4.004  15.526 -10.716  1.00  0.00     0.148 C 
HETATM   21  C17 UNL     1      -4.832  15.914  -9.526  1.00  0.00     0.044 C 
HETATM   22  C19 UNL     1      -6.592  17.277 -10.439  1.00  0.00     0.016 C 
HETATM   23  C21 UNL     1      -6.843  17.193  -7.767  1.00  0.00     0.006 C 
HETATM   24  C22 UNL     1      -7.201  17.544  -6.358  1.00  0.00     0.011 C 
HETATM   25  C24 UNL     1      -5.865  19.021  -4.919  1.00  0.00     0.016 C 
HETATM   26  C26 UNL     1      -8.840  18.904  -4.372  1.00  0.00     0.020 C 
HETATM   27  C27 UNL     1      -7.997  21.050  -5.081  1.00  0.00     0.020 C 
BRANCH  19  28
HETATM   28  O1  UNL     1      -1.770  15.586  -9.905  1.00  0.00    -0.392 OA
ATOM     29  H1  UNL     1      -1.975  15.740  -8.990  1.00  0.00     0.210 HD
ENDBRANCH  19  28
BRANCH  20  30
HETATM   30  O2  UNL     1      -3.763  14.162 -10.637  1.00  0.00    -0.393 OA
ATOM     31  H2  UNL     1      -3.672  13.813 -11.516  1.00  0.00     0.210 HD
ENDBRANCH  20  30
ENDBRANCH   3   4
BRANCH   3  32
HETATM   32  C28 UNL     1     -12.630  19.359  -7.194  1.00  0.00     0.237 C 
HETATM   33  O3  UNL     1     -13.276  20.343  -6.786  1.00  0.00    -0.272 OA
HETATM   34  N1  UNL     1     -13.077  18.631  -8.297  1.00  0.00    -0.344 N 
ATOM     35  H1  UNL     1     -12.513  17.835  -8.595  1.00  0.00     0.163 HD
BRANCH  34  36
HETATM   36  C29 UNL     1     -14.275  18.915  -9.049  1.00  0.00     0.225 C 
BRANCH  36  37
HETATM   37  C30 UNL     1     -13.940  18.994 -10.516  1.00  0.00     0.079 C 
HETATM   38  C31 UNL     1     -14.712  20.198 -11.076  1.00  0.00     0.048 C 
HETATM   39  C32 UNL     1     -12.494  19.229 -10.796  1.00  0.00     0.048 C 
BRANCH  37  40
HETATM   40  O4  UNL     1     -14.381  17.897 -11.226  1.00  0.00    -0.388 OA
ATOM     41  H4  UNL     1     -13.744  17.586 -11.858  1.00  0.00     0.210 HD
ENDBRANCH  37  40
ENDBRANCH  36  37
BRANCH  36  42
HETATM   42  C33 UNL     1     -15.425  18.021  -8.733  1.00  0.00     0.410 C 
HETATM   43  F1  UNL     1     -15.644  18.108  -7.352  1.00  0.00    -0.169 F 
HETATM   44  F2  UNL     1     -16.551  18.529  -9.328  1.00  0.00    -0.169 F 
HETATM   45  F3  UNL     1     -15.218  16.705  -9.011  1.00  0.00    -0.169 F 
ENDBRANCH  36  42
ENDBRANCH  34  36
ENDBRANCH   3  32
TORSDOF 8
ENDMDL
MODEL 5
REMARK VINA RESULT: -7.124853877      4.932      8.219
REMARK  8 active torsions:
REMARK  status: ('A' for Active; 'I' for Inactive)
REMARK    1  A    between atoms: C3_3  and  C4_4 
REMARK    2  A    between atoms: C3_3  and  C28_32 
REMARK    3  A    between atoms: C15_15  and  O1_16 
REMARK    4  A    between atoms: C16_18  and  O2_19 
REMARK       I    between atoms: C28_32  and  N1_34 
REMARK    5  A    between atoms: N1_34  and  C29_36 
REMARK    6  A    between atoms: C29_36  and  C30_37 
REMARK    7  A    between atoms: C29_36  and  C33_42 
REMARK    8  A    between atoms: C30_37  and  O4_40 
ROOT
HETATM    1  C1  UNL     1     -12.529  20.699  -7.763  1.00  0.00     0.013 C 
HETATM    2  C2  UNL     1     -12.604  19.581  -8.201  1.00  0.00    -0.099 C 
HETATM    3  C3  UNL     1     -12.695  18.203  -8.770  1.00  0.00     0.179 C 
ENDROOT
BRANCH   3   4
HETATM    4  C4  UNL     1     -11.334  17.655  -8.806  1.00  0.00     0.003 C 
HETATM    5  C5  UNL     1     -10.469  17.617  -9.784  1.00  0.00    -0.073 C 
HETATM    6  C6  UNL     1      -9.095  16.976  -9.553  1.00  0.00     0.040 C 
HETATM    7  C25 UNL     1     -10.395  18.037 -11.177  1.00  0.00    -0.017 C 
HETATM    8  C7  UNL     1      -8.216  17.468 -10.620  1.00  0.00     0.003 C 
HETATM    9  C8  UNL     1      -6.814  17.821 -10.213  1.00  0.00    -0.005 C 
HETATM   10  C23 UNL     1      -8.968  18.614 -11.219  1.00  0.00    -0.029 C 
HETATM   11  C9  UNL     1      -6.219  16.702  -9.394  1.00  0.00     0.006 C 
HETATM   12  C20 UNL     1      -6.650  19.176  -9.623  1.00  0.00    -0.001 C 
HETATM   13  C10 UNL     1      -4.820  16.991  -8.959  1.00  0.00     0.007 C 
HETATM   14  C11 UNL     1      -4.587  18.360  -8.420  1.00  0.00     0.004 C 
HETATM   15  C12 UNL     1      -3.332  18.934  -9.027  1.00  0.00    -0.015 C 
HETATM   16  C18 UNL     1      -5.769  19.261  -8.419  1.00  0.00    -0.033 C 
HETATM   17  C13 UNL     1      -3.354  19.148 -10.493  1.00  0.00     0.018 C 
HETATM   18  C14 UNL     1      -2.228  17.900  -8.746  1.00  0.00     0.018 C 
HETATM   19  C15 UNL     1      -2.880  20.207  -8.348  1.00  0.00     0.155 C 
HETATM   20  C16 UNL     1      -3.999  20.830  -7.588  1.00  0.00     0.148 C 
HETATM   21  C17 UNL     1      -5.298  20.723  -8.332  1.00  0.00     0.044 C 
HETATM   22  C19 UNL     1      -6.550  19.065  -7.118  1.00  0.00     0.016 C 
HETATM   23  C21 UNL     1      -7.968  19.840  -9.263  1.00  0.00     0.006 C 
HETATM   24  C22 UNL     1      -8.944  19.853 -10.395  1.00  0.00     0.011 C 
HETATM   25  C24 UNL     1      -8.502  18.893 -12.613  1.00  0.00     0.016 C 
HETATM   26  C26 UNL     1     -11.389  18.975 -11.709  1.00  0.00     0.020 C 
HETATM   27  C27 UNL     1     -10.469  16.772 -12.048  1.00  0.00     0.020 C 
BRANCH  19  28
HETATM   28  O1  UNL     1      -2.378  21.119  -9.301  1.00  0.00    -0.392 OA
ATOM     29  H1  UNL     1      -1.438  21.017  -9.394  1.00  0.00     0.210 HD
ENDBRANCH  19  28
BRANCH  20  30
HETATM   30  O2  UNL     1      -3.726  22.178  -7.405  1.00  0.00    -0.393 OA
ATOM     31  H2  UNL     1      -3.477  22.558  -8.239  1.00  0.00     0.210 HD
ENDBRANCH  20  30
ENDBRANCH   3   4
BRANCH   3  32
HETATM   32  C28 UNL     1     -13.596  17.411  -7.885  1.00  0.00     0.237 C 
HETATM   33  O3  UNL     1     -14.822  17.406  -8.103  1.00  0.00    -0.272 OA
HETATM   34  N1  UNL     1     -13.065  16.680  -6.821  1.00  0.00    -0.344 N 
ATOM     35  H1  UNL     1     -12.055  16.715  -6.685  1.00  0.00     0.163 HD
BRANCH  34  36
HETATM   36  C29 UNL     1     -13.834  15.880  -5.900  1.00  0.00     0.225 C 
BRANCH  36  37
HETATM   37  C30 UNL     1     -13.019  14.688  -5.470  1.00  0.00     0.079 C 
HETATM   38  C31 UNL     1     -11.979  15.208  -4.466  1.00  0.00     0.048 C 
HETATM   39  C32 UNL     1     -13.811  13.631  -4.776  1.00  0.00     0.048 C 
BRANCH  37  40
HETATM   40  O4  UNL     1     -12.301  14.128  -6.505  1.00  0.00    -0.388 OA
ATOM     41  H4  UNL     1     -11.362  14.220  -6.396  1.00  0.00     0.210 HD
ENDBRANCH  37  40
ENDBRANCH  36  37
BRANCH  36  42
HETATM   42  C33 UNL     1     -14.433  16.648  -4.771  1.00  0.00     0.410 C 
HETATM   43  F1  UNL     1     -13.747  17.867  -4.695  1.00  0.00    -0.169 F 
HETATM   44  F2  UNL     1     -15.728  16.962  -5.094  1.00  0.00    -0.169 F 
HETATM   45  F3  UNL     1     -14.312  16.058  -3.551  1.00  0.00    -0.169 F 
ENDBRANCH  36  42
ENDBRANCH  34  36
ENDBRANCH   3  32
TORSDOF 8
ENDMDL
