MODEL 1
REMARK VINA RESULT: -8.152501531      0.000      0.000
REMARK  8 active torsions:
REMARK  status: ('A' for Active; 'I' for Inactive)
REMARK    1  A    between atoms: C2_2  and  C3_3 
REMARK    2  A    between atoms: C2_2  and  C8_19 
REMARK    3  A    between atoms: C3_3  and  C4_4 
REMARK    4  A    between atoms: C4_4  and  N1_5 
REMARK       I    between atoms: N1_5  and  C5_7 
REMARK       I    between atoms: C5_7  and  N3_9 
REMARK    5  A    between atoms: N3_9  and  C6_10 
REMARK    6  A    between atoms: C6_10  and  N4_11 
REMARK    7  A    between atoms: C6_10  and  C7_15 
REMARK    8  A    between atoms: C19_31  and  O2_32 
ROOT
HETATM    1  C8  UNL     1      -8.958  18.435  -3.554  1.00  0.00    -0.002 C 
HETATM    2  C9  UNL     1      -7.561  17.902  -3.163  1.00  0.00     0.006 C 
HETATM    3  C10 UNL     1      -6.810  19.118  -3.715  1.00  0.00     0.006 C 
HETATM    4  C11 UNL     1      -7.195  19.076  -5.132  1.00  0.00     0.006 C 
HETATM    5  C12 UNL     1      -6.381  18.421  -6.112  1.00  0.00     0.065 C 
HETATM    6  C13 UNL     1      -5.201  17.604  -5.769  1.00  0.00     0.132 C 
HETATM    7  O1  UNL     1      -4.687  17.468  -4.685  1.00  0.00    -0.298 OA
HETATM    8  C14 UNL     1      -4.530  16.837  -6.839  1.00  0.00     0.085 C 
HETATM    9  C15 UNL     1      -4.926  17.044  -8.246  1.00  0.00     0.011 C 
HETATM   10  C16 UNL     1      -3.855  17.746  -9.049  1.00  0.00    -0.017 C 
HETATM   11  C17 UNL     1      -2.750  16.693  -9.309  1.00  0.00     0.018 C 
HETATM   12  C18 UNL     1      -3.152  18.857  -8.350  1.00  0.00     0.018 C 
HETATM   13  C19 UNL     1      -4.290  18.177 -10.410  1.00  0.00     0.126 C 
HETATM   14  C20 UNL     1      -5.695  18.646 -10.535  1.00  0.00     0.033 C 
HETATM   15  C21 UNL     1      -6.375  18.879  -9.201  1.00  0.00     0.012 C 
HETATM   16  C22 UNL     1      -6.320  17.560  -8.472  1.00  0.00    -0.035 C 
HETATM   17  C23 UNL     1      -7.149  16.611  -9.370  1.00  0.00     0.016 C 
HETATM   18  C24 UNL     1      -7.073  17.554  -7.163  1.00  0.00     0.006 C 
HETATM   19  C25 UNL     1      -8.531  17.818  -7.271  1.00  0.00     0.007 C 
HETATM   20  C26 UNL     1      -9.022  17.502  -5.837  1.00  0.00     0.010 C 
HETATM   21  C27 UNL     1      -8.681  18.675  -5.019  1.00  0.00    -0.036 C 
HETATM   22  C28 UNL     1      -9.564  19.828  -5.449  1.00  0.00     0.016 C 
ENDROOT
BRANCH   1  23
HETATM   23  C2  UNL     1     -10.045  17.455  -3.234  1.00  0.00    -0.012 C 
HETATM   24  C1  UNL     1      -9.817  17.063  -1.766  1.00  0.00     0.010 C 
BRANCH  23  25
HETATM   25  C3  UNL     1     -11.365  18.178  -3.369  1.00  0.00     0.024 C 
BRANCH  25  26
HETATM   26  C4  UNL     1     -12.388  17.584  -4.261  1.00  0.00     0.123 C 
BRANCH  26  27
HETATM   27  N1  UNL     1     -11.995  16.589  -5.192  1.00  0.00    -0.353 N 
HETATM   28  C5  UNL     1     -12.762  16.491  -6.449  1.00  0.00     0.259 C 
HETATM   29  N2  UNL     1     -13.284  15.156  -6.737  1.00  0.00    -0.050 NA
HETATM   30  N3  UNL     1     -12.962  17.376  -7.193  1.00  0.00    -0.380 NA
ATOM     31  H1  UNL     1     -11.212  15.965  -5.000  1.00  0.00     0.163 HD
BRANCH  30  32
HETATM   32  C6  UNL     1     -13.190  18.376  -8.038  1.00  0.00     0.415 C 
BRANCH  32  33
HETATM   33  N4  UNL     1     -12.492  18.138  -9.326  1.00  0.00    -0.042 N 
ATOM     34  H43 UNL     1     -12.197  19.010  -9.763  1.00  0.00     0.278 HD
ATOM     35  H42 UNL     1     -11.573  17.718  -9.187  1.00  0.00     0.278 HD
ATOM     36  H41 UNL     1     -13.074  17.580  -9.950  1.00  0.00     0.278 HD
ENDBRANCH  32  33
BRANCH  32  37
HETATM   37  C7  UNL     1     -14.668  18.640  -8.407  1.00  0.00     0.245 C 
HETATM   38 CL1  UNL     1     -15.766  17.672  -7.432  1.00  0.00    -0.078 Cl
HETATM   39 CL2  UNL     1     -14.838  18.145 -10.114  1.00  0.00    -0.078 Cl
HETATM   40 CL3  UNL     1     -15.010  20.365  -8.282  1.00  0.00    -0.078 Cl
ENDBRANCH  32  37
ENDBRANCH  30  32
ENDBRANCH  26  27
ENDBRANCH  25  26
ENDBRANCH  23  25
ENDBRANCH   1  23
BRANCH  13  41
HETATM   41  O2  UNL     1      -3.961  17.225 -11.409  1.00  0.00    -0.395 OA
ATOM     42  H2  UNL     1      -4.653  17.119 -12.051  1.00  0.00     0.210 HD
ENDBRANCH  13  41
TORSDOF 8
ENDMDL
MODEL 2
REMARK VINA RESULT: -8.089698682      2.784      4.528
REMARK  8 active torsions:
REMARK  status: ('A' for Active; 'I' for Inactive)
REMARK    1  A    between atoms: C2_2  and  C3_3 
REMARK    2  A    between atoms: C2_2  and  C8_19 
REMARK    3  A    between atoms: C3_3  and  C4_4 
REMARK    4  A    between atoms: C4_4  and  N1_5 
REMARK       I    between atoms: N1_5  and  C5_7 
REMARK       I    between atoms: C5_7  and  N3_9 
REMARK    5  A    between atoms: N3_9  and  C6_10 
REMARK    6  A    between atoms: C6_10  and  N4_11 
REMARK    7  A    between atoms: C6_10  and  C7_15 
REMARK    8  A    between atoms: C19_31  and  O2_32 
ROOT
HETATM    1  C8  UNL     1     -13.249  18.373  -5.916  1.00  0.00    -0.002 C 
HETATM    2  C9  UNL     1     -12.637  18.089  -4.525  1.00  0.00     0.006 C 
HETATM    3  C10 UNL     1     -11.902  19.430  -4.442  1.00  0.00     0.006 C 
HETATM    4  C11 UNL     1     -11.021  19.351  -5.615  1.00  0.00     0.006 C 
HETATM    5  C12 UNL     1      -9.675  18.872  -5.512  1.00  0.00     0.065 C 
HETATM    6  C13 UNL     1      -9.121  18.271  -4.284  1.00  0.00     0.132 C 
HETATM    7  O1  UNL     1      -9.640  18.205  -3.195  1.00  0.00    -0.298 OA
HETATM    8  C14 UNL     1      -7.777  17.659  -4.332  1.00  0.00     0.085 C 
HETATM    9  C15 UNL     1      -6.943  17.822  -5.540  1.00  0.00     0.011 C 
HETATM   10  C16 UNL     1      -5.751  18.720  -5.299  1.00  0.00    -0.017 C 
HETATM   11  C17 UNL     1      -4.742  17.886  -4.474  1.00  0.00     0.018 C 
HETATM   12  C18 UNL     1      -6.012  19.923  -4.461  1.00  0.00     0.018 C 
HETATM   13  C19 UNL     1      -5.005  19.096  -6.536  1.00  0.00     0.126 C 
HETATM   14  C20 UNL     1      -5.822  19.311  -7.759  1.00  0.00     0.033 C 
HETATM   15  C21 UNL     1      -7.311  19.391  -7.485  1.00  0.00     0.012 C 
HETATM   16  C22 UNL     1      -7.681  18.086  -6.822  1.00  0.00    -0.035 C 
HETATM   17  C23 UNL     1      -7.362  17.025  -7.902  1.00  0.00     0.016 C 
HETATM   18  C24 UNL     1      -9.163  17.919  -6.591  1.00  0.00     0.006 C 
HETATM   19  C25 UNL     1     -10.000  17.922  -7.818  1.00  0.00     0.007 C 
HETATM   20  C26 UNL     1     -11.382  17.493  -7.266  1.00  0.00     0.010 C 
HETATM   21  C27 UNL     1     -11.963  18.690  -6.642  1.00  0.00    -0.036 C 
HETATM   22  C28 UNL     1     -12.311  19.677  -7.738  1.00  0.00     0.016 C 
ENDROOT
BRANCH   1  23
HETATM   23  C2  UNL     1     -14.037  17.209  -6.434  1.00  0.00    -0.012 C 
HETATM   24  C1  UNL     1     -14.666  16.562  -5.191  1.00  0.00     0.010 C 
BRANCH  23  25
HETATM   25  C3  UNL     1     -15.124  17.756  -7.329  1.00  0.00     0.024 C 
BRANCH  25  26
HETATM   26  C4  UNL     1     -15.046  17.447  -8.776  1.00  0.00     0.123 C 
BRANCH  26  27
HETATM   27  N1  UNL     1     -15.536  18.394  -9.710  1.00  0.00    -0.353 N 
HETATM   28  C5  UNL     1     -14.558  19.033 -10.611  1.00  0.00     0.259 C 
HETATM   29  N2  UNL     1     -14.588  20.494 -10.601  1.00  0.00    -0.050 NA
HETATM   30  N3  UNL     1     -13.799  18.463 -11.302  1.00  0.00    -0.380 NA
ATOM     31  H1  UNL     1     -16.528  18.626  -9.756  1.00  0.00     0.163 HD
BRANCH  30  32
HETATM   32  C6  UNL     1     -12.939  17.821 -12.086  1.00  0.00     0.415 C 
BRANCH  32  33
HETATM   33  N4  UNL     1     -13.172  18.171 -13.509  1.00  0.00    -0.042 N 
ATOM     34  H43 UNL     1     -13.983  18.778 -13.623  1.00  0.00     0.278 HD
ATOM     35  H42 UNL     1     -12.456  18.805 -13.865  1.00  0.00     0.278 HD
ATOM     36  H41 UNL     1     -13.247  17.327 -14.077  1.00  0.00     0.278 HD
ENDBRANCH  32  33
BRANCH  32  37
HETATM   37  C7  UNL     1     -11.439  18.094 -11.829  1.00  0.00     0.245 C 
HETATM   38 CL1  UNL     1     -11.194  19.578 -10.916  1.00  0.00    -0.078 Cl
HETATM   39 CL2  UNL     1     -10.698  18.292 -13.442  1.00  0.00    -0.078 Cl
HETATM   40 CL3  UNL     1     -10.711  16.697 -11.039  1.00  0.00    -0.078 Cl
ENDBRANCH  32  37
ENDBRANCH  30  32
ENDBRANCH  26  27
ENDBRANCH  25  26
ENDBRANCH  23  25
ENDBRANCH   1  23
BRANCH  13  41
HETATM   41  O2  UNL     1      -3.902  18.240  -6.782  1.00  0.00    -0.395 OA
ATOM     42  H2  UNL     1      -3.715  18.146  -7.709  1.00  0.00     0.210 HD
ENDBRANCH  13  41
TORSDOF 8
ENDMDL
MODEL 3
REMARK VINA RESULT: -8.087667673      5.968      9.388
REMARK  8 active torsions:
REMARK  status: ('A' for Active; 'I' for Inactive)
REMARK    1  A    between atoms: C2_2  and  C3_3 
REMARK    2  A    between atoms: C2_2  and  C8_19 
REMARK    3  A    between atoms: C3_3  and  C4_4 
REMARK    4  A    between atoms: C4_4  and  N1_5 
REMARK       I    between atoms: N1_5  and  C5_7 
REMARK       I    between atoms: C5_7  and  N3_9 
REMARK    5  A    between atoms: N3_9  and  C6_10 
REMARK    6  A    between atoms: C6_10  and  N4_11 
REMARK    7  A    between atoms: C6_10  and  C7_15 
REMARK    8  A    between atoms: C19_31  and  O2_32 
ROOT
HETATM    1  C8  UNL     1     -14.054  19.252  -8.715  1.00  0.00    -0.002 C 
HETATM    2  C9  UNL     1     -14.959  19.575  -9.925  1.00  0.00     0.006 C 
HETATM    3  C10 UNL     1     -13.822  20.153 -10.773  1.00  0.00     0.006 C 
HETATM    4  C11 UNL     1     -13.369  21.268  -9.930  1.00  0.00     0.006 C 
HETATM    5  C12 UNL     1     -13.868  22.598 -10.112  1.00  0.00     0.065 C 
HETATM    6  C13 UNL     1     -14.979  22.928 -11.026  1.00  0.00     0.132 C 
HETATM    7  O1  UNL     1     -15.528  22.196 -11.815  1.00  0.00    -0.298 OA
HETATM    8  C14 UNL     1     -15.526  24.300 -11.017  1.00  0.00     0.085 C 
HETATM    9  C15 UNL     1     -14.843  25.355 -10.242  1.00  0.00     0.011 C 
HETATM   10  C16 UNL     1     -14.180  26.384 -11.130  1.00  0.00    -0.017 C 
HETATM   11  C17 UNL     1     -15.320  27.264 -11.697  1.00  0.00     0.018 C 
HETATM   12  C18 UNL     1     -13.493  25.844 -12.336  1.00  0.00     0.018 C 
HETATM   13  C19 UNL     1     -13.292  27.340 -10.406  1.00  0.00     0.126 C 
HETATM   14  C20 UNL     1     -12.522  26.787  -9.261  1.00  0.00     0.033 C 
HETATM   15  C21 UNL     1     -12.547  25.273  -9.191  1.00  0.00     0.012 C 
HETATM   16  C22 UNL     1     -14.003  24.888  -9.087  1.00  0.00    -0.035 C 
HETATM   17  C23 UNL     1     -14.454  25.523  -7.750  1.00  0.00     0.016 C 
HETATM   18  C24 UNL     1     -14.228  23.410  -8.869  1.00  0.00     0.006 C 
HETATM   19  C25 UNL     1     -13.643  22.859  -7.620  1.00  0.00     0.007 C 
HETATM   20  C26 UNL     1     -14.251  21.434  -7.583  1.00  0.00     0.010 C 
HETATM   21  C27 UNL     1     -13.464  20.629  -8.528  1.00  0.00    -0.036 C 
HETATM   22  C28 UNL     1     -12.077  20.437  -7.950  1.00  0.00     0.016 C 
ENDROOT
BRANCH   1  23
HETATM   23  C2  UNL     1     -14.833  18.698  -7.561  1.00  0.00    -0.012 C 
HETATM   24  C1  UNL     1     -16.190  18.284  -8.149  1.00  0.00     0.010 C 
BRANCH  23  25
HETATM   25  C3  UNL     1     -14.100  17.476  -7.060  1.00  0.00     0.024 C 
BRANCH  25  26
HETATM   26  C4  UNL     1     -13.667  17.464  -5.643  1.00  0.00     0.123 C 
BRANCH  26  27
HETATM   27  N1  UNL     1     -12.777  18.469  -5.187  1.00  0.00    -0.353 N 
HETATM   28  C5  UNL     1     -11.361  18.095  -5.004  1.00  0.00     0.259 C 
HETATM   29  N2  UNL     1     -10.821  18.399  -3.681  1.00  0.00    -0.050 NA
HETATM   30  N3  UNL     1     -10.680  17.596  -5.820  1.00  0.00    -0.380 NA
ATOM     31  H1  UNL     1     -13.103  19.416  -4.993  1.00  0.00     0.163 HD
BRANCH  30  32
HETATM   32  C6  UNL     1      -9.905  17.032  -6.740  1.00  0.00     0.415 C 
BRANCH  32  33
HETATM   33  N4  UNL     1     -10.603  16.983  -8.048  1.00  0.00    -0.042 N 
ATOM     34  H43 UNL     1     -11.023  16.070  -8.220  1.00  0.00     0.278 HD
ATOM     35  H42 UNL     1     -11.455  17.544  -8.044  1.00  0.00     0.278 HD
ATOM     36  H41 UNL     1      -9.972  17.258  -8.801  1.00  0.00     0.278 HD
ENDBRANCH  32  33
BRANCH  32  37
HETATM   37  C7  UNL     1      -8.550  17.724  -7.016  1.00  0.00     0.245 C 
HETATM   38 CL1  UNL     1      -8.766  19.329  -7.703  1.00  0.00    -0.078 Cl
HETATM   39 CL2  UNL     1      -7.718  16.699  -8.217  1.00  0.00    -0.078 Cl
HETATM   40 CL3  UNL     1      -7.591  17.756  -5.537  1.00  0.00    -0.078 Cl
ENDBRANCH  32  37
ENDBRANCH  30  32
ENDBRANCH  26  27
ENDBRANCH  25  26
ENDBRANCH  23  25
ENDBRANCH   1  23
BRANCH  13  41
HETATM   41  O2  UNL     1     -13.961  28.542 -10.061  1.00  0.00    -0.395 OA
ATOM     42  H2  UNL     1     -13.590  28.954  -9.289  1.00  0.00     0.210 HD
ENDBRANCH  13  41
TORSDOF 8
ENDMDL
MODEL 4
REMARK VINA RESULT: -7.836790367      4.560      7.681
REMARK  8 active torsions:
REMARK  status: ('A' for Active; 'I' for Inactive)
REMARK    1  A    between atoms: C2_2  and  C3_3 
REMARK    2  A    between atoms: C2_2  and  C8_19 
REMARK    3  A    between atoms: C3_3  and  C4_4 
REMARK    4  A    between atoms: C4_4  and  N1_5 
REMARK       I    between atoms: N1_5  and  C5_7 
REMARK       I    between atoms: C5_7  and  N3_9 
REMARK    5  A    between atoms: N3_9  and  C6_10 
REMARK    6  A    between atoms: C6_10  and  N4_11 
REMARK    7  A    between atoms: C6_10  and  C7_15 
REMARK    8  A    between atoms: C19_31  and  O2_32 
ROOT
HETATM    1  C8  UNL     1     -12.096  17.614  -6.472  1.00  0.00    -0.002 C 
HETATM    2  C9  UNL     1     -11.542  16.794  -7.659  1.00  0.00     0.006 C 
HETATM    3  C10 UNL     1     -10.666  17.932  -8.192  1.00  0.00     0.006 C 
HETATM    4  C11 UNL     1     -11.673  18.964  -8.474  1.00  0.00     0.006 C 
HETATM    5  C12 UNL     1     -12.253  19.112  -9.776  1.00  0.00     0.065 C 
HETATM    6  C13 UNL     1     -12.022  18.158 -10.877  1.00  0.00     0.132 C 
HETATM    7  O1  UNL     1     -11.255  17.225 -10.898  1.00  0.00    -0.298 OA
HETATM    8  C14 UNL     1     -12.796  18.310 -12.126  1.00  0.00     0.085 C 
HETATM    9  C15 UNL     1     -13.638  19.507 -12.324  1.00  0.00     0.011 C 
HETATM   10  C16 UNL     1     -13.087  20.431 -13.385  1.00  0.00    -0.017 C 
HETATM   11  C17 UNL     1     -13.386  19.754 -14.745  1.00  0.00     0.018 C 
HETATM   12  C18 UNL     1     -11.608  20.609 -13.377  1.00  0.00     0.018 C 
HETATM   13  C19 UNL     1     -13.772  21.754 -13.465  1.00  0.00     0.126 C 
HETATM   14  C20 UNL     1     -14.224  22.342 -12.177  1.00  0.00     0.033 C 
HETATM   15  C21 UNL     1     -13.663  21.634 -10.960  1.00  0.00     0.012 C 
HETATM   16  C22 UNL     1     -14.110  20.197 -11.074  1.00  0.00    -0.035 C 
HETATM   17  C23 UNL     1     -15.653  20.289 -11.012  1.00  0.00     0.016 C 
HETATM   18  C24 UNL     1     -13.758  19.352  -9.873  1.00  0.00     0.006 C 
HETATM   19  C25 UNL     1     -14.364  19.792  -8.590  1.00  0.00     0.007 C 
HETATM   20  C26 UNL     1     -14.020  18.611  -7.650  1.00  0.00     0.010 C 
HETATM   21  C27 UNL     1     -12.613  18.792  -7.263  1.00  0.00    -0.036 C 
HETATM   22  C28 UNL     1     -12.521  20.003  -6.358  1.00  0.00     0.016 C 
ENDROOT
BRANCH   1  23
HETATM   23  C2  UNL     1     -13.109  16.846  -5.680  1.00  0.00    -0.012 C 
HETATM   24  C1  UNL     1     -13.061  15.417  -6.238  1.00  0.00     0.010 C 
BRANCH  23  25
HETATM   25  C3  UNL     1     -12.657  16.846  -4.238  1.00  0.00     0.024 C 
BRANCH  25  26
HETATM   26  C4  UNL     1     -11.256  17.235  -3.954  1.00  0.00     0.123 C 
BRANCH  26  27
HETATM   27  N1  UNL     1     -10.892  17.575  -2.627  1.00  0.00    -0.353 N 
HETATM   28  C5  UNL     1      -9.459  17.520  -2.278  1.00  0.00     0.259 C 
HETATM   29  N2  UNL     1      -9.152  16.703  -1.106  1.00  0.00    -0.050 NA
HETATM   30  N3  UNL     1      -8.598  18.071  -2.856  1.00  0.00    -0.380 NA
ATOM     31  H1  UNL     1     -11.594  17.846  -1.939  1.00  0.00     0.163 HD
BRANCH  30  32
HETATM   32  C6  UNL     1      -7.621  18.693  -3.507  1.00  0.00     0.415 C 
BRANCH  32  33
HETATM   33  N4  UNL     1      -6.345  17.951  -3.364  1.00  0.00    -0.042 N 
ATOM     34  H43 UNL     1      -5.858  18.197  -2.503  1.00  0.00     0.278 HD
ATOM     35  H42 UNL     1      -6.502  16.961  -3.172  1.00  0.00     0.278 HD
ATOM     36  H41 UNL     1      -5.757  18.089  -4.185  1.00  0.00     0.278 HD
ENDBRANCH  32  33
BRANCH  32  37
HETATM   37  C7  UNL     1      -7.823  18.886  -5.028  1.00  0.00     0.245 C 
HETATM   38 CL1  UNL     1      -8.065  17.352  -5.853  1.00  0.00    -0.078 Cl
HETATM   39 CL2  UNL     1      -6.312  19.622  -5.629  1.00  0.00    -0.078 Cl
HETATM   40 CL3  UNL     1      -9.151  20.011  -5.309  1.00  0.00    -0.078 Cl
ENDBRANCH  32  37
ENDBRANCH  30  32
ENDBRANCH  26  27
ENDBRANCH  25  26
ENDBRANCH  23  25
ENDBRANCH   1  23
BRANCH  13  41
HETATM   41  O2  UNL     1     -14.800  21.772 -14.443  1.00  0.00    -0.395 OA
ATOM     42  H2  UNL     1     -14.837  22.596 -14.914  1.00  0.00     0.210 HD
ENDBRANCH  13  41
TORSDOF 8
ENDMDL
MODEL 5
REMARK VINA RESULT: -7.806998404      6.931     10.325
REMARK  8 active torsions:
REMARK  status: ('A' for Active; 'I' for Inactive)
REMARK    1  A    between atoms: C2_2  and  C3_3 
REMARK    2  A    between atoms: C2_2  and  C8_19 
REMARK    3  A    between atoms: C3_3  and  C4_4 
REMARK    4  A    between atoms: C4_4  and  N1_5 
REMARK       I    between atoms: N1_5  and  C5_7 
REMARK       I    between atoms: C5_7  and  N3_9 
REMARK    5  A    between atoms: N3_9  and  C6_10 
REMARK    6  A    between atoms: C6_10  and  N4_11 
REMARK    7  A    between atoms: C6_10  and  C7_15 
REMARK    8  A    between atoms: C19_31  and  O2_32 
ROOT
HETATM    1  C8  UNL     1     -13.694  21.277  -8.957  1.00  0.00    -0.002 C 
HETATM    2  C9  UNL     1     -14.887  21.719  -9.834  1.00  0.00     0.006 C 
HETATM    3  C10 UNL     1     -14.039  22.609 -10.749  1.00  0.00     0.006 C 
HETATM    4  C11 UNL     1     -13.492  23.575  -9.786  1.00  0.00     0.006 C 
HETATM    5  C12 UNL     1     -14.129  24.834  -9.541  1.00  0.00     0.065 C 
HETATM    6  C13 UNL     1     -15.451  25.193 -10.091  1.00  0.00     0.132 C 
HETATM    7  O1  UNL     1     -16.111  24.573 -10.891  1.00  0.00    -0.298 OA
HETATM    8  C14 UNL     1     -16.092  26.446  -9.644  1.00  0.00     0.085 C 
HETATM    9  C15 UNL     1     -15.333  27.400  -8.811  1.00  0.00     0.011 C 
HETATM   10  C16 UNL     1     -14.991  28.670  -9.556  1.00  0.00    -0.017 C 
HETATM   11  C17 UNL     1     -16.304  29.487  -9.643  1.00  0.00     0.018 C 
HETATM   12  C18 UNL     1     -14.572  28.491 -10.974  1.00  0.00     0.018 C 
HETATM   13  C19 UNL     1     -14.038  29.567  -8.839  1.00  0.00     0.126 C 
HETATM   14  C20 UNL     1     -12.972  28.898  -8.048  1.00  0.00     0.033 C 
HETATM   15  C21 UNL     1     -12.853  27.413  -8.329  1.00  0.00     0.012 C 
HETATM   16  C22 UNL     1     -14.203  26.821  -8.006  1.00  0.00    -0.035 C 
HETATM   17  C23 UNL     1     -14.371  27.098  -6.493  1.00  0.00     0.016 C 
HETATM   18  C24 UNL     1     -14.246  25.314  -8.096  1.00  0.00     0.006 C 
HETATM   19  C25 UNL     1     -13.334  24.600  -7.166  1.00  0.00     0.007 C 
HETATM   20  C26 UNL     1     -13.793  23.130  -7.333  1.00  0.00     0.010 C 
HETATM   21  C27 UNL     1     -13.193  22.652  -8.586  1.00  0.00    -0.036 C 
HETATM   22  C28 UNL     1     -11.697  22.534  -8.382  1.00  0.00     0.016 C 
ENDROOT
BRANCH   1  23
HETATM   23  C2  UNL     1     -14.123  20.396  -7.824  1.00  0.00    -0.012 C 
HETATM   24  C1  UNL     1     -15.423  19.730  -8.298  1.00  0.00     0.010 C 
BRANCH  23  25
HETATM   25  C3  UNL     1     -13.053  19.346  -7.631  1.00  0.00     0.024 C 
BRANCH  25  26
HETATM   26  C4  UNL     1     -12.789  18.417  -8.754  1.00  0.00     0.123 C 
BRANCH  26  27
HETATM   27  N1  UNL     1     -11.612  17.626  -8.730  1.00  0.00    -0.353 N 
HETATM   28  C5  UNL     1     -11.308  16.893  -7.485  1.00  0.00     0.259 C 
HETATM   29  N2  UNL     1      -9.972  17.140  -6.948  1.00  0.00    -0.050 NA
HETATM   30  N3  UNL     1     -12.040  16.159  -6.934  1.00  0.00    -0.380 NA
ATOM     31  H1  UNL     1     -10.999  17.566  -9.542  1.00  0.00     0.163 HD
BRANCH  30  32
HETATM   32  C6  UNL     1     -12.864  15.326  -6.308  1.00  0.00     0.415 C 
BRANCH  32  33
HETATM   33  N4  UNL     1     -12.174  14.054  -5.985  1.00  0.00    -0.042 N 
ATOM     34  H43 UNL     1     -11.349  13.912  -6.567  1.00  0.00     0.278 HD
ATOM     35  H42 UNL     1     -11.713  14.093  -5.075  1.00  0.00     0.278 HD
ATOM     36  H41 UNL     1     -12.822  13.269  -6.048  1.00  0.00     0.278 HD
ENDBRANCH  32  33
BRANCH  32  37
HETATM   37  C7  UNL     1     -13.463  15.827  -4.973  1.00  0.00     0.245 C 
HETATM   38 CL1  UNL     1     -14.260  14.531  -4.090  1.00  0.00    -0.078 Cl
HETATM   39 CL2  UNL     1     -14.687  17.047  -5.417  1.00  0.00    -0.078 Cl
HETATM   40 CL3  UNL     1     -12.205  16.608  -4.017  1.00  0.00    -0.078 Cl
ENDBRANCH  32  37
ENDBRANCH  30  32
ENDBRANCH  26  27
ENDBRANCH  25  26
ENDBRANCH  23  25
ENDBRANCH   1  23
BRANCH  13  41
HETATM   41  O2  UNL     1     -14.702  30.570  -8.087  1.00  0.00    -0.395 OA
ATOM     42  H2  UNL     1     -14.101  31.088  -7.565  1.00  0.00     0.210 HD
ENDBRANCH  13  41
TORSDOF 8
ENDMDL
