MODEL 1
REMARK VINA RESULT: -7.893439564      0.000      0.000
REMARK  6 active torsions:
REMARK  status: ('A' for Active; 'I' for Inactive)
REMARK    1  A    between atoms: C3_3  and  O1_4 
REMARK    2  A    between atoms: C4_6  and  C5_7 
REMARK    3  A    between atoms: C8_10  and  C10_12 
REMARK    4  A    between atoms: C13_16  and  O2_18 
REMARK    5  A    between atoms: C17_22  and  C18_23 
REMARK    6  A    between atoms: C20_27  and  O5_28 
ROOT
HETATM    1  C1  UNL     1     -13.484  16.465  -5.884  1.00  0.00     0.013 C 
HETATM    2  C2  UNL     1     -12.836  17.427  -6.936  1.00  0.00     0.018 C 
HETATM    3  C3  UNL     1     -11.438  17.369  -6.587  1.00  0.00     0.130 C 
HETATM    4  C4  UNL     1     -10.244  17.995  -7.228  1.00  0.00     0.037 C 
HETATM    5  C15 UNL     1     -10.272  18.224  -8.673  1.00  0.00     0.012 C 
HETATM    6  C16 UNL     1     -10.294  19.596  -9.295  1.00  0.00     0.022 C 
HETATM    7  C17 UNL     1     -11.584  19.872 -10.043  1.00  0.00     0.056 C 
HETATM    8  C19 UNL     1     -11.964  21.062 -10.702  1.00  0.00     0.059 C 
HETATM    9  C20 UNL     1     -13.347  20.791 -11.317  1.00  0.00     0.178 C 
HETATM   10  C21 UNL     1     -14.383  20.096 -10.516  1.00  0.00     0.112 C 
HETATM   11  F1  UNL     1     -15.035  19.030 -11.114  1.00  0.00    -0.212 F 
HETATM   12  C22 UNL     1     -14.064  20.029  -9.128  1.00  0.00     0.050 C 
HETATM   13  C23 UNL     1     -14.653  21.343  -8.574  1.00  0.00     0.026 C 
HETATM   14  C24 UNL     1     -12.593  19.853  -8.958  1.00  0.00     0.023 C 
HETATM   15  C25 UNL     1     -12.301  20.641  -7.773  1.00  0.00     0.007 C 
HETATM   16  C26 UNL     1     -12.866  19.889  -6.567  1.00  0.00     0.009 C 
HETATM   17  C27 UNL     1     -13.640  18.683  -7.003  1.00  0.00     0.032 C 
HETATM   18  C28 UNL     1     -14.576  18.938  -8.178  1.00  0.00     0.117 C 
HETATM   19  C29 UNL     1     -14.917  17.654  -8.880  1.00  0.00     0.053 C 
HETATM   20  F2  UNL     1     -15.826  19.403  -7.731  1.00  0.00    -0.242 F 
ENDROOT
BRANCH   4  21
HETATM   21  C5  UNL     1      -9.064  17.207  -6.698  1.00  0.00    -0.014 C 
HETATM   22  C6  UNL     1      -7.721  17.731  -6.598  1.00  0.00    -0.049 C 
HETATM   23  C7  UNL     1      -7.523  18.973  -5.781  1.00  0.00     0.046 C 
HETATM   24  C13 UNL     1      -6.719  17.629  -7.698  1.00  0.00     0.077 C 
HETATM   25  C8  UNL     1      -6.164  19.002  -5.152  1.00  0.00    -0.031 C 
HETATM   26  C9  UNL     1      -5.902  20.422  -4.648  1.00  0.00     0.016 C 
HETATM   27  C11 UNL     1      -5.088  18.651  -6.121  1.00  0.00     0.013 C 
HETATM   28  C12 UNL     1      -5.340  17.445  -6.960  1.00  0.00     0.043 C 
HETATM   29  C14 UNL     1      -6.817  16.405  -8.553  1.00  0.00     0.051 C 
BRANCH  25  30
HETATM   30  C10 UNL     1      -6.023  18.117  -3.935  1.00  0.00     0.094 C 
HETATM   31 BR1  UNL     1      -7.773  18.081  -3.061  1.00  0.00    -0.096 Br
ENDBRANCH  25  30
BRANCH  24  32
HETATM   32  O2  UNL     1      -6.453  18.805  -8.394  1.00  0.00    -0.386 OA
ATOM     33  H2  UNL     1      -6.596  18.775  -9.333  1.00  0.00     0.211 HD
ENDBRANCH  24  32
ENDBRANCH   4  21
BRANCH   3  34
HETATM   34  O1  UNL     1     -11.171  15.965  -6.608  1.00  0.00    -0.395 OA
ATOM     35  H1  UNL     1     -11.083  15.785  -7.537  1.00  0.00     0.210 HD
ENDBRANCH   3  34
BRANCH   7  36
HETATM   36  C18 UNL     1     -11.494  18.859 -11.077  1.00  0.00     0.182 C 
HETATM   37  O3  UNL     1     -12.023  17.816 -11.382  1.00  0.00    -0.647 OA
HETATM   38  O4  UNL     1     -10.479  19.160 -12.033  1.00  0.00    -0.647 OA
ENDBRANCH   7  36
BRANCH   9  39
HETATM   39  O5  UNL     1     -13.208  20.130 -12.558  1.00  0.00    -0.389 OA
ATOM     40  H5  UNL     1     -14.056  20.033 -12.974  1.00  0.00     0.210 HD
ENDBRANCH   9  39
TORSDOF 6
ENDMDL
MODEL 2
REMARK VINA RESULT: -7.658148611      3.122      5.414
REMARK  6 active torsions:
REMARK  status: ('A' for Active; 'I' for Inactive)
REMARK    1  A    between atoms: C3_3  and  O1_4 
REMARK    2  A    between atoms: C4_6  and  C5_7 
REMARK    3  A    between atoms: C8_10  and  C10_12 
REMARK    4  A    between atoms: C13_16  and  O2_18 
REMARK    5  A    between atoms: C17_22  and  C18_23 
REMARK    6  A    between atoms: C20_27  and  O5_28 
ROOT
HETATM    1  C1  UNL     1      -8.872  18.398 -11.826  1.00  0.00     0.013 C 
HETATM    2  C2  UNL     1     -10.318  18.770 -11.354  1.00  0.00     0.018 C 
HETATM    3  C3  UNL     1     -10.497  17.917 -10.206  1.00  0.00     0.130 C 
HETATM    4  C4  UNL     1     -11.625  17.807  -9.236  1.00  0.00     0.037 C 
HETATM    5  C15 UNL     1     -12.416  19.006  -8.952  1.00  0.00     0.012 C 
HETATM    6  C16 UNL     1     -13.862  19.158  -9.349  1.00  0.00     0.022 C 
HETATM    7  C17 UNL     1     -14.068  20.250 -10.380  1.00  0.00     0.056 C 
HETATM    8  C19 UNL     1     -15.275  20.633 -11.006  1.00  0.00     0.059 C 
HETATM    9  C20 UNL     1     -14.924  21.805 -11.938  1.00  0.00     0.178 C 
HETATM   10  C21 UNL     1     -13.711  21.732 -12.786  1.00  0.00     0.112 C 
HETATM   11  F1  UNL     1     -12.858  22.822 -12.765  1.00  0.00    -0.212 F 
HETATM   12  C22 UNL     1     -13.163  20.418 -12.864  1.00  0.00     0.050 C 
HETATM   13  C23 UNL     1     -13.919  19.797 -14.056  1.00  0.00     0.026 C 
HETATM   14  C24 UNL     1     -13.331  19.724 -11.554  1.00  0.00     0.023 C 
HETATM   15  C25 UNL     1     -13.604  18.351 -11.941  1.00  0.00     0.007 C 
HETATM   16  C26 UNL     1     -12.299  17.752 -12.467  1.00  0.00     0.009 C 
HETATM   17  C27 UNL     1     -11.223  18.792 -12.541  1.00  0.00     0.032 C 
HETATM   18  C28 UNL     1     -11.682  20.116 -13.137  1.00  0.00     0.117 C 
HETATM   19  C29 UNL     1     -10.765  21.234 -12.728  1.00  0.00     0.053 C 
HETATM   20  F2  UNL     1     -11.568  20.101 -14.538  1.00  0.00    -0.242 F 
ENDROOT
BRANCH   4  21
HETATM   21  C5  UNL     1     -11.036  17.097  -8.035  1.00  0.00    -0.014 C 
HETATM   22  C6  UNL     1     -11.540  17.232  -6.687  1.00  0.00    -0.049 C 
HETATM   23  C7  UNL     1     -12.978  16.881  -6.449  1.00  0.00     0.046 C 
HETATM   24  C13 UNL     1     -11.062  18.276  -5.736  1.00  0.00     0.077 C 
HETATM   25  C8  UNL     1     -13.189  16.354  -5.063  1.00  0.00    -0.031 C 
HETATM   26  C9  UNL     1     -14.691  16.359  -4.774  1.00  0.00     0.016 C 
HETATM   27  C11 UNL     1     -12.518  17.196  -4.033  1.00  0.00     0.013 C 
HETATM   28  C12 UNL     1     -11.108  17.577  -4.326  1.00  0.00     0.043 C 
HETATM   29  C14 UNL     1      -9.627  18.674  -5.877  1.00  0.00     0.051 C 
BRANCH  25  30
HETATM   30  C10 UNL     1     -12.753  14.920  -4.869  1.00  0.00     0.094 C 
HETATM   31 BR1  UNL     1     -14.270  13.975  -4.070  1.00  0.00    -0.096 Br
ENDBRANCH  25  30
BRANCH  24  32
HETATM   32  O2  UNL     1     -11.937  19.332  -5.498  1.00  0.00    -0.386 OA
ATOM     33  H2  UNL     1     -11.804  20.112  -6.026  1.00  0.00     0.211 HD
ENDBRANCH  24  32
ENDBRANCH   4  21
BRANCH   3  34
HETATM   34  O1  UNL     1      -9.355  18.232  -9.404  1.00  0.00    -0.395 OA
ATOM     35  H1  UNL     1      -8.840  17.436  -9.455  1.00  0.00     0.210 HD
ENDBRANCH   3  34
BRANCH   7  36
HETATM   36  C18 UNL     1     -13.639  21.403  -9.612  1.00  0.00     0.182 C 
HETATM   37  O3  UNL     1     -12.720  22.187  -9.576  1.00  0.00    -0.647 OA
HETATM   38  O4  UNL     1     -14.564  21.729  -8.575  1.00  0.00    -0.647 OA
ENDBRANCH   7  36
BRANCH   9  39
HETATM   39  O5  UNL     1     -14.901  23.016 -11.209  1.00  0.00    -0.389 OA
ATOM     40  H5  UNL     1     -14.458  23.691 -11.711  1.00  0.00     0.210 HD
ENDBRANCH   9  39
TORSDOF 6
ENDMDL
MODEL 3
REMARK VINA RESULT: -7.548003033      4.103      7.502
REMARK  6 active torsions:
REMARK  status: ('A' for Active; 'I' for Inactive)
REMARK    1  A    between atoms: C3_3  and  O1_4 
REMARK    2  A    between atoms: C4_6  and  C5_7 
REMARK    3  A    between atoms: C8_10  and  C10_12 
REMARK    4  A    between atoms: C13_16  and  O2_18 
REMARK    5  A    between atoms: C17_22  and  C18_23 
REMARK    6  A    between atoms: C20_27  and  O5_28 
ROOT
HETATM    1  C1  UNL     1      -5.097  18.753  -4.131  1.00  0.00     0.013 C 
HETATM    2  C2  UNL     1      -5.795  18.482  -5.507  1.00  0.00     0.018 C 
HETATM    3  C3  UNL     1      -7.117  18.070  -5.107  1.00  0.00     0.130 C 
HETATM    4  C4  UNL     1      -8.322  17.728  -5.918  1.00  0.00     0.037 C 
HETATM    5  C15 UNL     1      -8.500  18.392  -7.211  1.00  0.00     0.012 C 
HETATM    6  C16 UNL     1      -8.426  17.669  -8.531  1.00  0.00     0.022 C 
HETATM    7  C17 UNL     1      -7.249  18.120  -9.374  1.00  0.00     0.056 C 
HETATM    8  C19 UNL     1      -6.851  17.630 -10.637  1.00  0.00     0.059 C 
HETATM    9  C20 UNL     1      -5.621  18.455 -11.051  1.00  0.00     0.178 C 
HETATM   10  C21 UNL     1      -4.553  18.730 -10.060  1.00  0.00     0.112 C 
HETATM   11  F1  UNL     1      -4.126  20.041  -9.939  1.00  0.00    -0.212 F 
HETATM   12  C22 UNL     1      -4.653  17.918  -8.893  1.00  0.00     0.050 C 
HETATM   13  C23 UNL     1      -3.843  16.661  -9.275  1.00  0.00     0.026 C 
HETATM   14  C24 UNL     1      -6.089  17.690  -8.559  1.00  0.00     0.023 C 
HETATM   15  C25 UNL     1      -6.101  16.323  -8.068  1.00  0.00     0.007 C 
HETATM   16  C26 UNL     1      -5.436  16.322  -6.690  1.00  0.00     0.009 C 
HETATM   17  C27 UNL     1      -4.879  17.673  -6.363  1.00  0.00     0.032 C 
HETATM   18  C28 UNL     1      -4.119  18.325  -7.512  1.00  0.00     0.117 C 
HETATM   19  C29 UNL     1      -4.037  19.813  -7.324  1.00  0.00     0.053 C 
HETATM   20  F2  UNL     1      -2.771  17.924  -7.512  1.00  0.00    -0.242 F 
ENDROOT
BRANCH   4  21
HETATM   21  C5  UNL     1      -9.482  17.829  -4.950  1.00  0.00    -0.014 C 
HETATM   22  C6  UNL     1     -10.865  17.639  -5.323  1.00  0.00    -0.049 C 
HETATM   23  C7  UNL     1     -11.238  16.331  -5.954  1.00  0.00     0.046 C 
HETATM   24  C13 UNL     1     -11.746  18.748  -5.790  1.00  0.00     0.077 C 
HETATM   25  C8  UNL     1     -12.648  15.949  -5.628  1.00  0.00    -0.031 C 
HETATM   26  C9  UNL     1     -13.068  14.822  -6.574  1.00  0.00     0.016 C 
HETATM   27  C11 UNL     1     -13.595  17.084  -5.814  1.00  0.00     0.013 C 
HETATM   28  C12 UNL     1     -13.171  18.385  -5.226  1.00  0.00     0.043 C 
HETATM   29  C14 UNL     1     -11.470  20.091  -5.193  1.00  0.00     0.051 C 
BRANCH  25  30
HETATM   30  C10 UNL     1     -12.836  15.389  -4.237  1.00  0.00     0.094 C 
HETATM   31 BR1  UNL     1     -13.756  13.674  -4.441  1.00  0.00    -0.096 Br
ENDBRANCH  25  30
BRANCH  24  32
HETATM   32  O2  UNL     1     -12.035  18.765  -7.152  1.00  0.00    -0.386 OA
ATOM     33  H2  UNL     1     -12.733  19.352  -7.422  1.00  0.00     0.211 HD
ENDBRANCH  24  32
ENDBRANCH   4  21
BRANCH   3  34
HETATM   34  O1  UNL     1      -7.537  19.147  -4.265  1.00  0.00    -0.395 OA
ATOM     35  H1  UNL     1      -7.531  19.888  -4.859  1.00  0.00     0.210 HD
ENDBRANCH   3  34
BRANCH   7  36
HETATM   36  C18 UNL     1      -7.613  19.508  -9.587  1.00  0.00     0.182 C 
HETATM   37  O3  UNL     1      -7.274  20.608  -9.218  1.00  0.00    -0.647 OA
HETATM   38  O4  UNL     1      -8.700  19.642 -10.501  1.00  0.00    -0.647 OA
ENDBRANCH   7  36
BRANCH   9  39
HETATM   39  O5  UNL     1      -6.028  19.674 -11.637  1.00  0.00    -0.389 OA
ATOM     40  H5  UNL     1      -6.918  19.882 -11.376  1.00  0.00     0.210 HD
ENDBRANCH   9  39
TORSDOF 6
ENDMDL
MODEL 4
REMARK VINA RESULT: -7.440543121      3.154      5.290
REMARK  6 active torsions:
REMARK  status: ('A' for Active; 'I' for Inactive)
REMARK    1  A    between atoms: C3_3  and  O1_4 
REMARK    2  A    between atoms: C4_6  and  C5_7 
REMARK    3  A    between atoms: C8_10  and  C10_12 
REMARK    4  A    between atoms: C13_16  and  O2_18 
REMARK    5  A    between atoms: C17_22  and  C18_23 
REMARK    6  A    between atoms: C20_27  and  O5_28 
ROOT
HETATM    1  C1  UNL     1     -10.507  17.457 -12.443  1.00  0.00     0.013 C 
HETATM    2  C2  UNL     1     -11.388  18.435 -11.595  1.00  0.00     0.018 C 
HETATM    3  C3  UNL     1     -11.421  17.786 -10.308  1.00  0.00     0.130 C 
HETATM    4  C4  UNL     1     -12.029  18.211  -9.014  1.00  0.00     0.037 C 
HETATM    5  C15 UNL     1     -12.114  19.644  -8.724  1.00  0.00     0.012 C 
HETATM    6  C16 UNL     1     -13.418  20.394  -8.632  1.00  0.00     0.022 C 
HETATM    7  C17 UNL     1     -13.568  21.431  -9.729  1.00  0.00     0.056 C 
HETATM    8  C19 UNL     1     -14.671  22.277  -9.975  1.00  0.00     0.059 C 
HETATM    9  C20 UNL     1     -14.287  23.147 -11.183  1.00  0.00     0.178 C 
HETATM   10  C21 UNL     1     -13.631  22.524 -12.358  1.00  0.00     0.112 C 
HETATM   11  F1  UNL     1     -12.488  23.136 -12.842  1.00  0.00    -0.212 F 
HETATM   12  C22 UNL     1     -13.713  21.101 -12.353  1.00  0.00     0.050 C 
HETATM   13  C23 UNL     1     -15.050  20.828 -13.073  1.00  0.00     0.026 C 
HETATM   14  C24 UNL     1     -13.613  20.596 -10.954  1.00  0.00     0.023 C 
HETATM   15  C25 UNL     1     -14.524  19.464 -10.945  1.00  0.00     0.007 C 
HETATM   16  C26 UNL     1     -13.871  18.340 -11.750  1.00  0.00     0.009 C 
HETATM   17  C27 UNL     1     -12.598  18.806 -12.386  1.00  0.00     0.032 C 
HETATM   18  C28 UNL     1     -12.699  20.177 -13.044  1.00  0.00     0.117 C 
HETATM   19  C29 UNL     1     -11.341  20.800 -13.198  1.00  0.00     0.053 C 
HETATM   20  F2  UNL     1     -13.156  20.065 -14.369  1.00  0.00    -0.242 F 
ENDROOT
BRANCH   4  21
HETATM   21  C5  UNL     1     -11.344  17.358  -7.966  1.00  0.00    -0.014 C 
HETATM   22  C6  UNL     1     -11.705  17.352  -6.566  1.00  0.00    -0.049 C 
HETATM   23  C7  UNL     1     -13.122  17.007  -6.219  1.00  0.00     0.046 C 
HETATM   24  C13 UNL     1     -11.099  18.273  -5.562  1.00  0.00     0.077 C 
HETATM   25  C8  UNL     1     -13.209  16.332  -4.885  1.00  0.00    -0.031 C 
HETATM   26  C9  UNL     1     -14.673  16.337  -4.442  1.00  0.00     0.016 C 
HETATM   27  C11 UNL     1     -12.410  17.039  -3.844  1.00  0.00     0.013 C 
HETATM   28  C12 UNL     1     -11.025  17.421  -4.239  1.00  0.00     0.043 C 
HETATM   29  C14 UNL     1      -9.673  18.652  -5.807  1.00  0.00     0.051 C 
BRANCH  25  30
HETATM   30  C10 UNL     1     -12.803  14.876  -4.896  1.00  0.00     0.094 C 
HETATM   31 BR1  UNL     1     -14.279  13.876  -4.089  1.00  0.00    -0.096 Br
ENDBRANCH  25  30
BRANCH  24  32
HETATM   32  O2  UNL     1     -11.911  19.314  -5.120  1.00  0.00    -0.386 OA
ATOM     33  H2  UNL     1     -12.829  19.257  -5.359  1.00  0.00     0.211 HD
ENDBRANCH  24  32
ENDBRANCH   4  21
BRANCH   3  34
HETATM   34  O1  UNL     1     -10.033  17.602 -10.018  1.00  0.00    -0.395 OA
ATOM     35  H1  UNL     1      -9.633  17.654 -10.878  1.00  0.00     0.210 HD
ENDBRANCH   3  34
BRANCH   7  36
HETATM   36  C18 UNL     1     -12.464  22.310  -9.395  1.00  0.00     0.182 C 
HETATM   37  O3  UNL     1     -11.367  22.599  -9.814  1.00  0.00    -0.647 OA
HETATM   38  O4  UNL     1     -12.724  23.071  -8.217  1.00  0.00    -0.647 OA
ENDBRANCH   7  36
BRANCH   9  39
HETATM   39  O5  UNL     1     -13.514  24.252 -10.761  1.00  0.00    -0.389 OA
ATOM     40  H5  UNL     1     -13.923  25.063 -11.042  1.00  0.00     0.210 HD
ENDBRANCH   9  39
TORSDOF 6
ENDMDL
MODEL 5
REMARK VINA RESULT: -7.290373006      3.821      7.508
REMARK  6 active torsions:
REMARK  status: ('A' for Active; 'I' for Inactive)
REMARK    1  A    between atoms: C3_3  and  O1_4 
REMARK    2  A    between atoms: C4_6  and  C5_7 
REMARK    3  A    between atoms: C8_10  and  C10_12 
REMARK    4  A    between atoms: C13_16  and  O2_18 
REMARK    5  A    between atoms: C17_22  and  C18_23 
REMARK    6  A    between atoms: C20_27  and  O5_28 
ROOT
HETATM    1  C1  UNL     1      -6.380  21.039  -4.501  1.00  0.00     0.013 C 
HETATM    2  C2  UNL     1      -6.640  19.960  -5.606  1.00  0.00     0.018 C 
HETATM    3  C3  UNL     1      -7.885  19.372  -5.177  1.00  0.00     0.130 C 
HETATM    4  C4  UNL     1      -8.742  18.327  -5.809  1.00  0.00     0.037 C 
HETATM    5  C15 UNL     1      -8.752  18.228  -7.270  1.00  0.00     0.012 C 
HETATM    6  C16 UNL     1      -8.193  17.049  -8.024  1.00  0.00     0.022 C 
HETATM    7  C17 UNL     1      -6.987  17.420  -8.866  1.00  0.00     0.056 C 
HETATM    8  C19 UNL     1      -6.191  16.565  -9.660  1.00  0.00     0.059 C 
HETATM    9  C20 UNL     1      -5.127  17.458 -10.319  1.00  0.00     0.178 C 
HETATM   10  C21 UNL     1      -4.427  18.486  -9.513  1.00  0.00     0.112 C 
HETATM   11  F1  UNL     1      -4.362  19.765 -10.037  1.00  0.00    -0.212 F 
HETATM   12  C22 UNL     1      -4.612  18.315  -8.109  1.00  0.00     0.050 C 
HETATM   13  C23 UNL     1      -3.462  17.362  -7.721  1.00  0.00     0.026 C 
HETATM   14  C24 UNL     1      -5.991  17.813  -7.842  1.00  0.00     0.023 C 
HETATM   15  C25 UNL     1      -5.800  16.901  -6.726  1.00  0.00     0.007 C 
HETATM   16  C26 UNL     1      -5.508  17.746  -5.485  1.00  0.00     0.009 C 
HETATM   17  C27 UNL     1      -5.380  19.195  -5.841  1.00  0.00     0.032 C 
HETATM   18  C28 UNL     1      -4.540  19.456  -7.085  1.00  0.00     0.117 C 
HETATM   19  C29 UNL     1      -4.859  20.801  -7.674  1.00  0.00     0.053 C 
HETATM   20  F2  UNL     1      -3.177  19.562  -6.756  1.00  0.00    -0.242 F 
ENDROOT
BRANCH   4  21
HETATM   21  C5  UNL     1     -10.092  18.477  -5.140  1.00  0.00    -0.014 C 
HETATM   22  C6  UNL     1     -11.319  17.920  -5.661  1.00  0.00    -0.049 C 
HETATM   23  C7  UNL     1     -11.365  16.438  -5.887  1.00  0.00     0.046 C 
HETATM   24  C13 UNL     1     -12.211  18.649  -6.608  1.00  0.00     0.077 C 
HETATM   25  C8  UNL     1     -12.749  15.899  -5.701  1.00  0.00    -0.031 C 
HETATM   26  C9  UNL     1     -12.795  14.486  -6.285  1.00  0.00     0.016 C 
HETATM   27  C11 UNL     1     -13.772  16.722  -6.405  1.00  0.00     0.013 C 
HETATM   28  C12 UNL     1     -13.666  18.195  -6.209  1.00  0.00     0.043 C 
HETATM   29  C14 UNL     1     -12.257  20.135  -6.442  1.00  0.00     0.051 C 
BRANCH  25  30
HETATM   30  C10 UNL     1     -13.168  15.744  -4.257  1.00  0.00     0.094 C 
HETATM   31 BR1  UNL     1     -14.155  14.058  -4.137  1.00  0.00    -0.096 Br
ENDBRANCH  25  30
BRANCH  24  32
HETATM   32  O2  UNL     1     -12.189  18.212  -7.929  1.00  0.00    -0.386 OA
ATOM     33  H2  UNL     1     -11.613  18.688  -8.516  1.00  0.00     0.211 HD
ENDBRANCH  24  32
ENDBRANCH   4  21
BRANCH   3  34
HETATM   34  O1  UNL     1      -8.737  20.513  -5.044  1.00  0.00    -0.395 OA
ATOM     35  H1  UNL     1      -9.596  20.152  -5.232  1.00  0.00     0.210 HD
ENDBRANCH   3  34
BRANCH   7  36
HETATM   36  C18 UNL     1      -7.605  18.354  -9.788  1.00  0.00     0.182 C 
HETATM   37  O3  UNL     1      -7.617  19.541 -10.013  1.00  0.00    -0.647 OA
HETATM   38  O4  UNL     1      -8.464  17.697 -10.719  1.00  0.00    -0.647 OA
ENDBRANCH   7  36
BRANCH   9  39
HETATM   39  O5  UNL     1      -5.655  18.068 -11.480  1.00  0.00    -0.389 OA
ATOM     40  H5  UNL     1      -5.172  18.862 -11.680  1.00  0.00     0.210 HD
ENDBRANCH   9  39
TORSDOF 6
ENDMDL
