MODEL 1
REMARK VINA RESULT: -6.363224298      0.000      0.000
REMARK  10 active torsions:
REMARK  status: ('A' for Active; 'I' for Inactive)
REMARK    1  A    between atoms: C2_2  and  C5_6 
REMARK    2  A    between atoms: C3_3  and  C4_4 
REMARK    3  A    between atoms: C5_6  and  C6_7 
REMARK    4  A    between atoms: C7_8  and  C8_9 
REMARK    5  A    between atoms: C10_11  and  O2_12 
REMARK    6  A    between atoms: C12_15  and  C13_16 
REMARK    7  A    between atoms: C13_16  and  C14_17 
REMARK    8  A    between atoms: C14_17  and  O3_18 
REMARK    9  A    between atoms: C14_17  and  C15_20 
REMARK   10  A    between atoms: C15_20  and  O4_21 
ROOT
HETATM    1  C8  UNL     1      27.133 -13.386  -0.689  1.00  0.00     0.014 C 
HETATM    2  C9  UNL     1      28.602 -13.219  -0.362  1.00  0.00     0.040 C 
HETATM    3  C10 UNL     1      28.682 -11.699  -0.228  1.00  0.00     0.119 C 
HETATM    4  C11 UNL     1      27.873 -11.265  -1.434  1.00  0.00     0.037 C 
HETATM    5  C12 UNL     1      26.990 -12.392  -1.825  1.00  0.00    -0.002 C 
ENDROOT
BRANCH   1   6
HETATM    6  C7  UNL     1      26.829 -14.755  -1.186  1.00  0.00    -0.025 C 
HETATM    7  C6  UNL     1      25.709 -15.375  -0.891  1.00  0.00    -0.026 C 
BRANCH   7   8
HETATM    8  C5  UNL     1      25.474 -16.750  -1.428  1.00  0.00     0.060 C 
BRANCH   8   9
HETATM    9  C2  UNL     1      25.390 -17.750  -0.354  1.00  0.00    -0.077 C 
HETATM   10  C1  UNL     1      26.644 -18.084   0.362  1.00  0.00     0.044 C 
HETATM   11  C3  UNL     1      24.267 -18.328  -0.033  1.00  0.00     0.044 C 
BRANCH  11  12
HETATM   12  C4  UNL     1      22.981 -18.090  -0.653  1.00  0.00     0.259 C 
HETATM   13  O1  UNL     1      22.475 -18.981  -1.387  1.00  0.00    -0.302 OA
ENDBRANCH  11  12
ENDBRANCH   8   9
ENDBRANCH   7   8
ENDBRANCH   1   6
BRANCH   5  14
HETATM   14  C13 UNL     1      27.369 -13.094  -3.087  1.00  0.00     0.039 C 
BRANCH  14  15
HETATM   15  C14 UNL     1      26.438 -12.839  -4.238  1.00  0.00     0.142 C 
BRANCH  15  16
HETATM   16  O3  UNL     1      25.614 -11.777  -3.969  1.00  0.00    -0.393 OA
ATOM     17  H3  UNL     1      26.059 -10.955  -4.140  1.00  0.00     0.210 HD
ENDBRANCH  15  16
BRANCH  15  18
HETATM   18  C15 UNL     1      25.626 -14.127  -4.433  1.00  0.00     0.195 C 
BRANCH  18  19
HETATM   19  O4  UNL     1      24.311 -13.945  -4.070  1.00  0.00    -0.398 OA
ATOM     20  H4  UNL     1      23.938 -13.184  -4.499  1.00  0.00     0.209 HD
ENDBRANCH  18  19
ENDBRANCH  15  18
ENDBRANCH  14  15
ENDBRANCH   5  14
BRANCH   3  21
HETATM   21  O2  UNL     1      28.056 -11.340   0.964  1.00  0.00    -0.396 OA
ATOM     22  H2  UNL     1      27.974 -10.393   0.978  1.00  0.00     0.210 HD
ENDBRANCH   3  21
TORSDOF 10
ENDMDL
MODEL 2
REMARK VINA RESULT: -6.269941348      1.575      1.849
REMARK  10 active torsions:
REMARK  status: ('A' for Active; 'I' for Inactive)
REMARK    1  A    between atoms: C2_2  and  C5_6 
REMARK    2  A    between atoms: C3_3  and  C4_4 
REMARK    3  A    between atoms: C5_6  and  C6_7 
REMARK    4  A    between atoms: C7_8  and  C8_9 
REMARK    5  A    between atoms: C10_11  and  O2_12 
REMARK    6  A    between atoms: C12_15  and  C13_16 
REMARK    7  A    between atoms: C13_16  and  C14_17 
REMARK    8  A    between atoms: C14_17  and  O3_18 
REMARK    9  A    between atoms: C14_17  and  C15_20 
REMARK   10  A    between atoms: C15_20  and  O4_21 
ROOT
HETATM    1  C8  UNL     1      27.945 -14.462  -1.347  1.00  0.00     0.014 C 
HETATM    2  C9  UNL     1      28.350 -15.099  -2.659  1.00  0.00     0.040 C 
HETATM    3  C10 UNL     1      29.501 -14.178  -3.066  1.00  0.00     0.119 C 
HETATM    4  C11 UNL     1      28.900 -12.821  -2.760  1.00  0.00     0.037 C 
HETATM    5  C12 UNL     1      27.806 -13.014  -1.776  1.00  0.00    -0.002 C 
ENDROOT
BRANCH   1   6
HETATM    6  C7  UNL     1      26.628 -14.966  -0.870  1.00  0.00    -0.025 C 
HETATM    7  C6  UNL     1      26.039 -16.007  -1.414  1.00  0.00    -0.026 C 
BRANCH   7   8
HETATM    8  C5  UNL     1      24.716 -16.456  -0.881  1.00  0.00     0.060 C 
BRANCH   8   9
HETATM    9  C2  UNL     1      24.796 -17.794  -0.276  1.00  0.00    -0.077 C 
HETATM   10  C1  UNL     1      26.118 -18.232   0.232  1.00  0.00     0.044 C 
HETATM   11  C3  UNL     1      23.756 -18.572  -0.181  1.00  0.00     0.044 C 
BRANCH  11  12
HETATM   12  C4  UNL     1      22.417 -18.263  -0.636  1.00  0.00     0.259 C 
HETATM   13  O1  UNL     1      21.773 -19.124  -1.293  1.00  0.00    -0.302 OA
ENDBRANCH  11  12
ENDBRANCH   8   9
ENDBRANCH   7   8
ENDBRANCH   1   6
BRANCH   5  14
HETATM   14  C13 UNL     1      26.423 -12.834  -2.311  1.00  0.00     0.039 C 
BRANCH  14  15
HETATM   15  C14 UNL     1      26.370 -12.439  -3.760  1.00  0.00     0.142 C 
BRANCH  15  16
HETATM   16  O3  UNL     1      25.632 -11.295  -3.923  1.00  0.00    -0.393 OA
ATOM     17  H3  UNL     1      26.101 -10.667  -4.460  1.00  0.00     0.210 HD
ENDBRANCH  15  16
BRANCH  15  18
HETATM   18  C15 UNL     1      25.728 -13.617  -4.507  1.00  0.00     0.195 C 
BRANCH  18  19
HETATM   19  O4  UNL     1      24.418 -13.794  -4.124  1.00  0.00    -0.398 OA
ATOM     20  H4  UNL     1      24.114 -14.670  -4.333  1.00  0.00     0.209 HD
ENDBRANCH  18  19
ENDBRANCH  15  18
ENDBRANCH  14  15
ENDBRANCH   5  14
BRANCH   3  21
HETATM   21  O2  UNL     1      30.586 -14.456  -2.238  1.00  0.00    -0.396 OA
ATOM     22  H2  UNL     1      31.338 -14.633  -2.791  1.00  0.00     0.210 HD
ENDBRANCH   3  21
TORSDOF 10
ENDMDL
MODEL 3
REMARK VINA RESULT: -6.258952271      1.748      3.263
REMARK  10 active torsions:
REMARK  status: ('A' for Active; 'I' for Inactive)
REMARK    1  A    between atoms: C2_2  and  C5_6 
REMARK    2  A    between atoms: C3_3  and  C4_4 
REMARK    3  A    between atoms: C5_6  and  C6_7 
REMARK    4  A    between atoms: C7_8  and  C8_9 
REMARK    5  A    between atoms: C10_11  and  O2_12 
REMARK    6  A    between atoms: C12_15  and  C13_16 
REMARK    7  A    between atoms: C13_16  and  C14_17 
REMARK    8  A    between atoms: C14_17  and  O3_18 
REMARK    9  A    between atoms: C14_17  and  C15_20 
REMARK   10  A    between atoms: C15_20  and  O4_21 
ROOT
HETATM    1  C8  UNL     1      27.438 -15.030  -3.393  1.00  0.00     0.014 C 
HETATM    2  C9  UNL     1      26.655 -14.818  -4.671  1.00  0.00     0.040 C 
HETATM    3  C10 UNL     1      27.765 -14.308  -5.590  1.00  0.00     0.119 C 
HETATM    4  C11 UNL     1      28.463 -13.324  -4.672  1.00  0.00     0.037 C 
HETATM    5  C12 UNL     1      28.136 -13.690  -3.272  1.00  0.00    -0.002 C 
ENDROOT
BRANCH   1   6
HETATM    6  C7  UNL     1      26.541 -15.230  -2.222  1.00  0.00    -0.025 C 
HETATM    7  C6  UNL     1      25.617 -16.163  -2.200  1.00  0.00    -0.026 C 
BRANCH   7   8
HETATM    8  C5  UNL     1      24.753 -16.304  -0.988  1.00  0.00     0.060 C 
BRANCH   8   9
HETATM    9  C2  UNL     1      24.928 -17.612  -0.339  1.00  0.00    -0.077 C 
HETATM   10  C1  UNL     1      26.294 -17.966   0.117  1.00  0.00     0.044 C 
HETATM   11  C3  UNL     1      23.935 -18.436  -0.165  1.00  0.00     0.044 C 
BRANCH  11  12
HETATM   12  C4  UNL     1      22.562 -18.209  -0.564  1.00  0.00     0.259 C 
HETATM   13  O1  UNL     1      21.984 -19.056  -1.297  1.00  0.00    -0.302 OA
ENDBRANCH  11  12
ENDBRANCH   8   9
ENDBRANCH   7   8
ENDBRANCH   1   6
BRANCH   5  14
HETATM   14  C13 UNL     1      27.203 -12.759  -2.568  1.00  0.00     0.039 C 
BRANCH  14  15
HETATM   15  C14 UNL     1      27.584 -11.310  -2.673  1.00  0.00     0.142 C 
BRANCH  15  16
HETATM   16  O3  UNL     1      27.851 -10.788  -1.434  1.00  0.00    -0.393 OA
ATOM     17  H3  UNL     1      28.287  -9.947  -1.510  1.00  0.00     0.210 HD
ENDBRANCH  15  16
BRANCH  15  18
HETATM   18  C15 UNL     1      26.390 -10.594  -3.322  1.00  0.00     0.195 C 
BRANCH  18  19
HETATM   19  O4  UNL     1      25.640 -11.465  -4.079  1.00  0.00    -0.398 OA
ATOM     20  H4  UNL     1      24.965 -11.881  -3.556  1.00  0.00     0.209 HD
ENDBRANCH  18  19
ENDBRANCH  15  18
ENDBRANCH  14  15
ENDBRANCH   5  14
BRANCH   3  21
HETATM   21  O2  UNL     1      28.590 -15.385  -5.906  1.00  0.00    -0.396 OA
ATOM     22  H2  UNL     1      29.072 -15.163  -6.694  1.00  0.00     0.210 HD
ENDBRANCH   3  21
TORSDOF 10
ENDMDL
MODEL 4
REMARK VINA RESULT: -6.227737767      1.914      2.961
REMARK  10 active torsions:
REMARK  status: ('A' for Active; 'I' for Inactive)
REMARK    1  A    between atoms: C2_2  and  C5_6 
REMARK    2  A    between atoms: C3_3  and  C4_4 
REMARK    3  A    between atoms: C5_6  and  C6_7 
REMARK    4  A    between atoms: C7_8  and  C8_9 
REMARK    5  A    between atoms: C10_11  and  O2_12 
REMARK    6  A    between atoms: C12_15  and  C13_16 
REMARK    7  A    between atoms: C13_16  and  C14_17 
REMARK    8  A    between atoms: C14_17  and  O3_18 
REMARK    9  A    between atoms: C14_17  and  C15_20 
REMARK   10  A    between atoms: C15_20  and  O4_21 
ROOT
HETATM    1  C8  UNL     1      27.046 -16.493  -0.358  1.00  0.00     0.014 C 
HETATM    2  C9  UNL     1      28.238 -16.984  -1.153  1.00  0.00     0.040 C 
HETATM    3  C10 UNL     1      29.260 -15.900  -0.810  1.00  0.00     0.119 C 
HETATM    4  C11 UNL     1      28.410 -14.654  -0.955  1.00  0.00     0.037 C 
HETATM    5  C12 UNL     1      26.987 -15.049  -0.817  1.00  0.00    -0.002 C 
ENDROOT
BRANCH   1   6
HETATM    6  C7  UNL     1      25.793 -17.192  -0.753  1.00  0.00    -0.025 C 
HETATM    7  C6  UNL     1      25.084 -17.895   0.100  1.00  0.00    -0.026 C 
BRANCH   7   8
HETATM    8  C5  UNL     1      23.835 -18.569  -0.370  1.00  0.00     0.060 C 
BRANCH   8   9
HETATM    9  C2  UNL     1      22.730 -17.616  -0.541  1.00  0.00    -0.077 C 
HETATM   10  C1  UNL     1      23.076 -16.175  -0.583  1.00  0.00     0.044 C 
HETATM   11  C3  UNL     1      21.492 -18.005  -0.654  1.00  0.00     0.044 C 
BRANCH  11  12
HETATM   12  C4  UNL     1      21.026 -19.375  -0.628  1.00  0.00     0.259 C 
HETATM   13  O1  UNL     1      20.209 -19.766  -1.505  1.00  0.00    -0.302 OA
ENDBRANCH  11  12
ENDBRANCH   8   9
ENDBRANCH   7   8
ENDBRANCH   1   6
BRANCH   5  14
HETATM   14  C13 UNL     1      26.186 -15.010  -2.077  1.00  0.00     0.039 C 
BRANCH  14  15
HETATM   15  C14 UNL     1      26.511 -13.854  -2.978  1.00  0.00     0.142 C 
BRANCH  15  16
HETATM   16  O3  UNL     1      26.121 -12.669  -2.408  1.00  0.00    -0.393 OA
ATOM     17  H3  UNL     1      26.129 -11.969  -3.050  1.00  0.00     0.210 HD
ENDBRANCH  15  16
BRANCH  15  18
HETATM   18  C15 UNL     1      25.758 -14.103  -4.293  1.00  0.00     0.195 C 
BRANCH  18  19
HETATM   19  O4  UNL     1      24.401 -13.938  -4.128  1.00  0.00    -0.398 OA
ATOM     20  H4  UNL     1      23.984 -13.689  -4.944  1.00  0.00     0.209 HD
ENDBRANCH  18  19
ENDBRANCH  15  18
ENDBRANCH  14  15
ENDBRANCH   5  14
BRANCH   3  21
HETATM   21  O2  UNL     1      29.665 -16.093   0.509  1.00  0.00    -0.396 OA
ATOM     22  H2  UNL     1      28.905 -16.362   1.012  1.00  0.00     0.210 HD
ENDBRANCH   3  21
TORSDOF 10
ENDMDL
MODEL 5
REMARK VINA RESULT: -6.194582363      2.368      2.733
REMARK  10 active torsions:
REMARK  status: ('A' for Active; 'I' for Inactive)
REMARK    1  A    between atoms: C2_2  and  C5_6 
REMARK    2  A    between atoms: C3_3  and  C4_4 
REMARK    3  A    between atoms: C5_6  and  C6_7 
REMARK    4  A    between atoms: C7_8  and  C8_9 
REMARK    5  A    between atoms: C10_11  and  O2_12 
REMARK    6  A    between atoms: C12_15  and  C13_16 
REMARK    7  A    between atoms: C13_16  and  C14_17 
REMARK    8  A    between atoms: C14_17  and  O3_18 
REMARK    9  A    between atoms: C14_17  and  C15_20 
REMARK   10  A    between atoms: C15_20  and  O4_21 
ROOT
HETATM    1  C8  UNL     1      26.158 -13.387  -2.914  1.00  0.00     0.014 C 
HETATM    2  C9  UNL     1      27.427 -13.356  -2.089  1.00  0.00     0.040 C 
HETATM    3  C10 UNL     1      28.062 -12.067  -2.610  1.00  0.00     0.119 C 
HETATM    4  C11 UNL     1      27.846 -12.228  -4.101  1.00  0.00     0.037 C 
HETATM    5  C12 UNL     1      26.730 -13.184  -4.304  1.00  0.00    -0.002 C 
ENDROOT
BRANCH   1   6
HETATM    6  C7  UNL     1      25.483 -14.711  -2.842  1.00  0.00    -0.025 C 
HETATM    7  C6  UNL     1      25.631 -15.517  -1.816  1.00  0.00    -0.026 C 
BRANCH   7   8
HETATM    8  C5  UNL     1      24.920 -16.833  -1.814  1.00  0.00     0.060 C 
BRANCH   8   9
HETATM    9  C2  UNL     1      25.122 -17.563  -0.554  1.00  0.00    -0.077 C 
HETATM   10  C1  UNL     1      26.486 -17.552   0.026  1.00  0.00     0.044 C 
HETATM   11  C3  UNL     1      24.152 -18.197   0.040  1.00  0.00     0.044 C 
BRANCH  11  12
HETATM   12  C4  UNL     1      22.783 -18.283  -0.422  1.00  0.00     0.259 C 
HETATM   13  O1  UNL     1      22.499 -19.060  -1.373  1.00  0.00    -0.302 OA
ENDBRANCH  11  12
ENDBRANCH   8   9
ENDBRANCH   7   8
ENDBRANCH   1   6
BRANCH   5  14
HETATM   14  C13 UNL     1      27.123 -14.527  -4.827  1.00  0.00     0.039 C 
BRANCH  14  15
HETATM   15  C14 UNL     1      28.542 -14.606  -5.315  1.00  0.00     0.142 C 
BRANCH  15  16
HETATM   16  O3  UNL     1      28.580 -14.927  -6.647  1.00  0.00    -0.393 OA
ATOM     17  H3  UNL     1      29.476 -14.954  -6.961  1.00  0.00     0.210 HD
ENDBRANCH  15  16
BRANCH  15  18
HETATM   18  C15 UNL     1      29.231 -15.688  -4.472  1.00  0.00     0.195 C 
BRANCH  18  19
HETATM   19  O4  UNL     1      29.776 -16.669  -5.269  1.00  0.00    -0.398 OA
ATOM     20  H4  UNL     1      30.456 -17.147  -4.809  1.00  0.00     0.209 HD
ENDBRANCH  18  19
ENDBRANCH  15  18
ENDBRANCH  14  15
ENDBRANCH   5  14
BRANCH   3  21
HETATM   21  O2  UNL     1      27.334 -10.994  -2.100  1.00  0.00    -0.396 OA
ATOM     22  H2  UNL     1      26.874 -10.583  -2.822  1.00  0.00     0.210 HD
ENDBRANCH   3  21
TORSDOF 10
ENDMDL
