MODEL 1
REMARK VINA RESULT: -5.405605324      0.000      0.000
REMARK  11 active torsions:
REMARK  status: ('A' for Active; 'I' for Inactive)
REMARK    1  A    between atoms: C2_2  and  C3_3 
REMARK    2  A    between atoms: C3_3  and  C4_4 
REMARK    3  A    between atoms: C4_4  and  C6_6 
REMARK    4  A    between atoms: C4_4  and  C10_14 
REMARK    5  A    between atoms: C6_6  and  C7_7 
REMARK    6  A    between atoms: C9_9  and  N1_10 
REMARK    7  A    between atoms: C10_14  and  O1_16 
REMARK    8  A    between atoms: C10_14  and  C12_18 
REMARK    9  A    between atoms: C12_18  and  O2_19 
REMARK   10  A    between atoms: C12_18  and  C13_21 
REMARK   11  A    between atoms: C13_21  and  C15_23 
ROOT
HETATM    1  C4  UNL     1      27.442 -15.436  -0.916  1.00  0.00    -0.010 C 
HETATM    2  C5  UNL     1      28.059 -15.949   0.340  1.00  0.00     0.018 C 
ENDROOT
BRANCH   1   3
HETATM    3  C3  UNL     1      26.657 -14.177  -0.560  1.00  0.00     0.012 C 
BRANCH   3   4
HETATM    4  C2  UNL     1      27.013 -13.632   0.811  1.00  0.00    -0.004 C 
HETATM    5  C1  UNL     1      27.493 -12.195   0.524  1.00  0.00     0.005 C 
ENDBRANCH   3   4
ENDBRANCH   1   3
BRANCH   1   6
HETATM    6  C6  UNL     1      26.428 -16.443  -1.350  1.00  0.00     0.019 C 
BRANCH   6   7
HETATM    7  C7  UNL     1      25.168 -16.539  -0.565  1.00  0.00     0.019 A 
HETATM    8  C8  UNL     1      24.955 -18.004  -0.048  1.00  0.00     0.039 A 
HETATM    9  C9  UNL     1      24.001 -17.342  -1.041  1.00  0.00     0.188 A 
BRANCH   9  10
HETATM   10  N1  UNL     1      22.697 -17.090  -0.483  1.00  0.00    -0.075 N 
ATOM     11  H13 UNL     1      22.375 -17.936  -0.011  1.00  0.00     0.274 HD
ATOM     12  H12 UNL     1      22.796 -16.448   0.303  1.00  0.00     0.274 HD
ATOM     13  H11 UNL     1      21.950 -16.751  -1.090  1.00  0.00     0.274 HD
ENDBRANCH   9  10
ENDBRANCH   6   7
ENDBRANCH   1   6
BRANCH   1  14
HETATM   14  C10 UNL     1      28.434 -15.030  -1.998  1.00  0.00     0.087 C 
HETATM   15  C11 UNL     1      28.862 -16.257  -2.731  1.00  0.00     0.049 C 
BRANCH  14  16
HETATM   16  O1  UNL     1      29.519 -14.379  -1.451  1.00  0.00    -0.387 OA
ATOM     17  H1  UNL     1      29.822 -13.685  -2.024  1.00  0.00     0.210 HD
ENDBRANCH  14  16
BRANCH  14  18
HETATM   18  C12 UNL     1      27.725 -14.112  -2.972  1.00  0.00     0.156 C 
BRANCH  18  19
HETATM   19  O2  UNL     1      28.604 -13.027  -3.312  1.00  0.00    -0.392 OA
ATOM     20  H2  UNL     1      28.525 -12.846  -4.241  1.00  0.00     0.210 HD
ENDBRANCH  18  19
BRANCH  18  21
HETATM   21  C13 UNL     1      27.456 -14.717  -4.320  1.00  0.00     0.013 C 
HETATM   22  C14 UNL     1      27.996 -13.766  -5.419  1.00  0.00     0.012 C 
BRANCH  21  23
HETATM   23  C15 UNL     1      26.044 -14.971  -4.718  1.00  0.00     0.002 C 
HETATM   24  C16 UNL     1      25.209 -13.901  -3.952  1.00  0.00     0.005 C 
ENDBRANCH  21  23
ENDBRANCH  18  21
ENDBRANCH  14  18
ENDBRANCH   1  14
TORSDOF 11
ENDMDL
MODEL 2
REMARK VINA RESULT: -5.323890586      1.620      2.467
REMARK  11 active torsions:
REMARK  status: ('A' for Active; 'I' for Inactive)
REMARK    1  A    between atoms: C2_2  and  C3_3 
REMARK    2  A    between atoms: C3_3  and  C4_4 
REMARK    3  A    between atoms: C4_4  and  C6_6 
REMARK    4  A    between atoms: C4_4  and  C10_14 
REMARK    5  A    between atoms: C6_6  and  C7_7 
REMARK    6  A    between atoms: C9_9  and  N1_10 
REMARK    7  A    between atoms: C10_14  and  O1_16 
REMARK    8  A    between atoms: C10_14  and  C12_18 
REMARK    9  A    between atoms: C12_18  and  O2_19 
REMARK   10  A    between atoms: C12_18  and  C13_21 
REMARK   11  A    between atoms: C13_21  and  C15_23 
ROOT
HETATM    1  C4  UNL     1      26.564 -15.547  -2.071  1.00  0.00    -0.010 C 
HETATM    2  C5  UNL     1      27.972 -15.991  -1.872  1.00  0.00     0.018 C 
ENDROOT
BRANCH   1   3
HETATM    3  C3  UNL     1      26.190 -14.661  -0.885  1.00  0.00     0.012 C 
BRANCH   3   4
HETATM    4  C2  UNL     1      27.273 -14.617   0.178  1.00  0.00    -0.004 C 
HETATM    5  C1  UNL     1      26.962 -13.330   0.968  1.00  0.00     0.005 C 
ENDBRANCH   3   4
ENDBRANCH   1   3
BRANCH   1   6
HETATM    6  C6  UNL     1      25.701 -16.762  -1.963  1.00  0.00     0.019 C 
BRANCH   6   7
HETATM    7  C7  UNL     1      24.598 -16.740  -0.965  1.00  0.00     0.019 A 
HETATM    8  C8  UNL     1      24.696 -17.982  -0.013  1.00  0.00     0.039 A 
HETATM    9  C9  UNL     1      23.516 -17.772  -0.961  1.00  0.00     0.188 A 
BRANCH   9  10
HETATM   10  N1  UNL     1      22.283 -17.498  -0.269  1.00  0.00    -0.075 N 
ATOM     11  H13 UNL     1      22.436 -16.724   0.377  1.00  0.00     0.274 HD
ATOM     12  H12 UNL     1      21.624 -17.082  -0.927  1.00  0.00     0.274 HD
ATOM     13  H11 UNL     1      21.812 -18.253   0.231  1.00  0.00     0.274 HD
ENDBRANCH   9  10
ENDBRANCH   6   7
ENDBRANCH   1   6
BRANCH   1  14
HETATM   14  C10 UNL     1      26.324 -14.711  -3.322  1.00  0.00     0.087 C 
HETATM   15  C11 UNL     1      25.892 -13.347  -2.901  1.00  0.00     0.049 C 
BRANCH  14  16
HETATM   16  O1  UNL     1      25.377 -15.300  -4.133  1.00  0.00    -0.387 OA
ATOM     17  H1  UNL     1      24.627 -15.584  -3.625  1.00  0.00     0.210 HD
ENDBRANCH  14  16
BRANCH  14  18
HETATM   18  C12 UNL     1      27.635 -14.591  -4.070  1.00  0.00     0.156 C 
BRANCH  18  19
HETATM   19  O2  UNL     1      27.467 -15.131  -5.392  1.00  0.00    -0.392 OA
ATOM     20  H2  UNL     1      27.228 -16.048  -5.322  1.00  0.00     0.210 HD
ENDBRANCH  18  19
BRANCH  18  21
HETATM   21  C13 UNL     1      28.057 -13.181  -4.371  1.00  0.00     0.013 C 
HETATM   22  C14 UNL     1      27.985 -12.946  -5.902  1.00  0.00     0.012 C 
BRANCH  21  23
HETATM   23  C15 UNL     1      29.435 -12.755  -4.000  1.00  0.00     0.002 C 
HETATM   24  C16 UNL     1      29.415 -12.633  -2.447  1.00  0.00     0.005 C 
ENDBRANCH  21  23
ENDBRANCH  18  21
ENDBRANCH  14  18
ENDBRANCH   1  14
TORSDOF 11
ENDMDL
MODEL 3
REMARK VINA RESULT: -5.235497156      2.370      4.852
REMARK  11 active torsions:
REMARK  status: ('A' for Active; 'I' for Inactive)
REMARK    1  A    between atoms: C2_2  and  C3_3 
REMARK    2  A    between atoms: C3_3  and  C4_4 
REMARK    3  A    between atoms: C4_4  and  C6_6 
REMARK    4  A    between atoms: C4_4  and  C10_14 
REMARK    5  A    between atoms: C6_6  and  C7_7 
REMARK    6  A    between atoms: C9_9  and  N1_10 
REMARK    7  A    between atoms: C10_14  and  O1_16 
REMARK    8  A    between atoms: C10_14  and  C12_18 
REMARK    9  A    between atoms: C12_18  and  O2_19 
REMARK   10  A    between atoms: C12_18  and  C13_21 
REMARK   11  A    between atoms: C13_21  and  C15_23 
ROOT
HETATM    1  C4  UNL     1      28.245 -14.351  -1.657  1.00  0.00    -0.010 C 
HETATM    2  C5  UNL     1      28.335 -12.886  -1.400  1.00  0.00     0.018 C 
ENDROOT
BRANCH   1   3
HETATM    3  C3  UNL     1      29.560 -14.785  -2.301  1.00  0.00     0.012 C 
BRANCH   3   4
HETATM    4  C2  UNL     1      29.368 -15.381  -3.683  1.00  0.00    -0.004 C 
HETATM    5  C1  UNL     1      30.087 -16.743  -3.601  1.00  0.00     0.005 C 
ENDBRANCH   3   4
ENDBRANCH   1   3
BRANCH   1   6
HETATM    6  C6  UNL     1      27.193 -14.551  -2.698  1.00  0.00     0.019 C 
BRANCH   6   7
HETATM    7  C7  UNL     1      26.354 -13.380  -3.068  1.00  0.00     0.019 A 
HETATM    8  C8  UNL     1      25.121 -13.838  -3.922  1.00  0.00     0.039 A 
HETATM    9  C9  UNL     1      26.211 -12.927  -4.485  1.00  0.00     0.188 A 
BRANCH   9  10
HETATM   10  N1  UNL     1      25.742 -11.591  -4.755  1.00  0.00    -0.075 N 
ATOM     11  H13 UNL     1      25.594 -11.112  -3.867  1.00  0.00     0.274 HD
ATOM     12  H12 UNL     1      26.510 -11.049  -5.149  1.00  0.00     0.274 HD
ATOM     13  H11 UNL     1      24.915 -11.461  -5.339  1.00  0.00     0.274 HD
ENDBRANCH   9  10
ENDBRANCH   6   7
ENDBRANCH   1   6
BRANCH   1  14
HETATM   14  C10 UNL     1      28.075 -15.213  -0.412  1.00  0.00     0.087 C 
HETATM   15  C11 UNL     1      27.057 -14.571   0.469  1.00  0.00     0.049 C 
BRANCH  14  16
HETATM   16  O1  UNL     1      29.275 -15.363   0.249  1.00  0.00    -0.387 OA
ATOM     17  H1  UNL     1      29.133 -15.577   1.164  1.00  0.00     0.210 HD
ENDBRANCH  14  16
BRANCH  14  18
HETATM   18  C12 UNL     1      27.554 -16.569  -0.841  1.00  0.00     0.156 C 
BRANCH  18  19
HETATM   19  O2  UNL     1      28.461 -17.583  -0.378  1.00  0.00    -0.392 OA
ATOM     20  H2  UNL     1      28.600 -18.213  -1.075  1.00  0.00     0.210 HD
ENDBRANCH  18  19
BRANCH  18  21
HETATM   21  C13 UNL     1      26.271 -16.985  -0.178  1.00  0.00     0.013 C 
HETATM   22  C14 UNL     1      26.473 -18.368   0.492  1.00  0.00     0.012 C 
BRANCH  21  23
HETATM   23  C15 UNL     1      25.058 -17.160  -1.023  1.00  0.00     0.002 C 
HETATM   24  C16 UNL     1      24.118 -18.085  -0.193  1.00  0.00     0.005 C 
ENDBRANCH  21  23
ENDBRANCH  18  21
ENDBRANCH  14  18
ENDBRANCH   1  14
TORSDOF 11
ENDMDL
MODEL 4
REMARK VINA RESULT: -5.096015926      1.808      3.377
REMARK  11 active torsions:
REMARK  status: ('A' for Active; 'I' for Inactive)
REMARK    1  A    between atoms: C2_2  and  C3_3 
REMARK    2  A    between atoms: C3_3  and  C4_4 
REMARK    3  A    between atoms: C4_4  and  C6_6 
REMARK    4  A    between atoms: C4_4  and  C10_14 
REMARK    5  A    between atoms: C6_6  and  C7_7 
REMARK    6  A    between atoms: C9_9  and  N1_10 
REMARK    7  A    between atoms: C10_14  and  O1_16 
REMARK    8  A    between atoms: C10_14  and  C12_18 
REMARK    9  A    between atoms: C12_18  and  O2_19 
REMARK   10  A    between atoms: C12_18  and  C13_21 
REMARK   11  A    between atoms: C13_21  and  C15_23 
ROOT
HETATM    1  C4  UNL     1      27.133 -15.671  -1.303  1.00  0.00    -0.010 C 
HETATM    2  C5  UNL     1      26.614 -14.796  -0.214  1.00  0.00     0.018 C 
ENDROOT
BRANCH   1   3
HETATM    3  C3  UNL     1      27.124 -14.853  -2.592  1.00  0.00     0.012 C 
BRANCH   3   4
HETATM    4  C2  UNL     1      26.226 -13.632  -2.505  1.00  0.00    -0.004 C 
HETATM    5  C1  UNL     1      25.240 -13.815  -3.676  1.00  0.00     0.005 C 
ENDBRANCH   3   4
ENDBRANCH   1   3
BRANCH   1   6
HETATM    6  C6  UNL     1      26.135 -16.764  -1.503  1.00  0.00     0.019 C 
BRANCH   6   7
HETATM    7  C7  UNL     1      24.913 -16.748  -0.655  1.00  0.00     0.019 A 
HETATM    8  C8  UNL     1      24.734 -18.126   0.072  1.00  0.00     0.039 A 
HETATM    9  C9  UNL     1      23.731 -17.611  -0.959  1.00  0.00     0.188 A 
BRANCH   9  10
HETATM   10  N1  UNL     1      22.452 -17.283  -0.382  1.00  0.00    -0.075 N 
ATOM     11  H13 UNL     1      22.595 -16.993   0.586  1.00  0.00     0.274 HD
ATOM     12  H12 UNL     1      22.115 -16.417  -0.803  1.00  0.00     0.274 HD
ATOM     13  H11 UNL     1      21.700 -17.973  -0.409  1.00  0.00     0.274 HD
ENDBRANCH   9  10
ENDBRANCH   6   7
ENDBRANCH   1   6
BRANCH   1  14
HETATM   14  C10 UNL     1      28.567 -16.151  -1.112  1.00  0.00     0.087 C 
HETATM   15  C11 UNL     1      29.180 -16.352  -2.457  1.00  0.00     0.049 C 
BRANCH  14  16
HETATM   16  O1  UNL     1      28.601 -17.316  -0.376  1.00  0.00    -0.387 OA
ATOM     17  H1  UNL     1      28.811 -17.136   0.533  1.00  0.00     0.210 HD
ENDBRANCH  14  16
BRANCH  14  18
HETATM   18  C12 UNL     1      29.338 -15.066  -0.389  1.00  0.00     0.156 C 
BRANCH  18  19
HETATM   19  O2  UNL     1      30.086 -15.664   0.684  1.00  0.00    -0.392 OA
ATOM     20  H2  UNL     1      31.013 -15.591   0.491  1.00  0.00     0.210 HD
ENDBRANCH  18  19
BRANCH  18  21
HETATM   21  C13 UNL     1      30.430 -14.428  -1.200  1.00  0.00     0.013 C 
HETATM   22  C14 UNL     1      31.758 -14.498  -0.404  1.00  0.00     0.012 C 
BRANCH  21  23
HETATM   23  C15 UNL     1      30.298 -12.991  -1.566  1.00  0.00     0.002 C 
HETATM   24  C16 UNL     1      29.364 -12.381  -0.479  1.00  0.00     0.005 C 
ENDBRANCH  21  23
ENDBRANCH  18  21
ENDBRANCH  14  18
ENDBRANCH   1  14
TORSDOF 11
ENDMDL
MODEL 5
REMARK VINA RESULT: -5.046609570      1.802      2.626
REMARK  11 active torsions:
REMARK  status: ('A' for Active; 'I' for Inactive)
REMARK    1  A    between atoms: C2_2  and  C3_3 
REMARK    2  A    between atoms: C3_3  and  C4_4 
REMARK    3  A    between atoms: C4_4  and  C6_6 
REMARK    4  A    between atoms: C4_4  and  C10_14 
REMARK    5  A    between atoms: C6_6  and  C7_7 
REMARK    6  A    between atoms: C9_9  and  N1_10 
REMARK    7  A    between atoms: C10_14  and  O1_16 
REMARK    8  A    between atoms: C10_14  and  C12_18 
REMARK    9  A    between atoms: C12_18  and  O2_19 
REMARK   10  A    between atoms: C12_18  and  C13_21 
REMARK   11  A    between atoms: C13_21  and  C15_23 
ROOT
HETATM    1  C4  UNL     1      26.597 -15.226  -2.598  1.00  0.00    -0.010 C 
HETATM    2  C5  UNL     1      28.047 -15.528  -2.433  1.00  0.00     0.018 C 
ENDROOT
BRANCH   1   3
HETATM    3  C3  UNL     1      26.208 -14.238  -1.501  1.00  0.00     0.012 C 
BRANCH   3   4
HETATM    4  C2  UNL     1      27.406 -13.712  -0.733  1.00  0.00    -0.004 C 
HETATM    5  C1  UNL     1      26.968 -13.803   0.743  1.00  0.00     0.005 C 
ENDBRANCH   3   4
ENDBRANCH   1   3
BRANCH   1   6
HETATM    6  C6  UNL     1      25.850 -16.485  -2.301  1.00  0.00     0.019 C 
BRANCH   6   7
HETATM    7  C7  UNL     1      24.827 -16.443  -1.222  1.00  0.00     0.019 A 
HETATM    8  C8  UNL     1      25.039 -17.631  -0.220  1.00  0.00     0.039 A 
HETATM    9  C9  UNL     1      23.784 -17.505  -1.082  1.00  0.00     0.188 A 
BRANCH   9  10
HETATM   10  N1  UNL     1      22.598 -17.232  -0.310  1.00  0.00    -0.075 N 
ATOM     11  H13 UNL     1      22.180 -16.366  -0.649  1.00  0.00     0.274 HD
ATOM     12  H12 UNL     1      21.881 -17.912  -0.560  1.00  0.00     0.274 HD
ATOM     13  H11 UNL     1      22.665 -17.186   0.708  1.00  0.00     0.274 HD
ENDBRANCH   9  10
ENDBRANCH   6   7
ENDBRANCH   1   6
BRANCH   1  14
HETATM   14  C10 UNL     1      26.225 -14.566  -3.919  1.00  0.00     0.087 C 
HETATM   15  C11 UNL     1      25.124 -13.591  -3.666  1.00  0.00     0.049 C 
BRANCH  14  16
HETATM   16  O1  UNL     1      25.842 -15.510  -4.849  1.00  0.00    -0.387 OA
ATOM     17  H1  UNL     1      25.372 -15.105  -5.568  1.00  0.00     0.210 HD
ENDBRANCH  14  16
BRANCH  14  18
HETATM   18  C12 UNL     1      27.432 -13.807  -4.428  1.00  0.00     0.156 C 
BRANCH  18  19
HETATM   19  O2  UNL     1      27.676 -14.183  -5.794  1.00  0.00    -0.392 OA
ATOM     20  H2  UNL     1      28.192 -13.504  -6.212  1.00  0.00     0.210 HD
ENDBRANCH  18  19
BRANCH  18  21
HETATM   21  C13 UNL     1      27.232 -12.324  -4.554  1.00  0.00     0.013 C 
HETATM   22  C14 UNL     1      27.517 -11.896  -6.016  1.00  0.00     0.012 C 
BRANCH  21  23
HETATM   23  C15 UNL     1      28.084 -11.418  -3.734  1.00  0.00     0.002 C 
HETATM   24  C16 UNL     1      27.086 -10.628  -2.836  1.00  0.00     0.005 C 
ENDBRANCH  21  23
ENDBRANCH  18  21
ENDBRANCH  14  18
ENDBRANCH   1  14
TORSDOF 11
ENDMDL
