MODEL 1
REMARK VINA RESULT: -5.788281342      0.000      0.000
REMARK  10 active torsions:
REMARK  status: ('A' for Active; 'I' for Inactive)
REMARK    1  A    between atoms: C2_2  and  C4_4 
REMARK    2  A    between atoms: C4_4  and  C5_5 
REMARK    3  A    between atoms: C5_5  and  C7_7 
REMARK    4  A    between atoms: C7_7  and  C8_8 
REMARK    5  A    between atoms: C8_8  and  N1_9 
REMARK    6  A    between atoms: C8_8  and  C9_13 
REMARK    7  A    between atoms: C9_13  and  N2_14 
REMARK    8  A    between atoms: N2_14  and  C10_17 
REMARK    9  A    between atoms: C10_17  and  C11_18 
REMARK   10  A    between atoms: C11_18  and  O1_19 
ROOT
HETATM    1  C8  UNL     1      27.882 -15.056  -0.153  1.00  0.00     0.209 C 
ENDROOT
BRANCH   1   2
HETATM    2  C7  UNL     1      26.574 -15.702  -0.204  1.00  0.00     0.038 C 
BRANCH   2   3
HETATM    3  C5  UNL     1      26.372 -17.012  -0.860  1.00  0.00    -0.016 C 
HETATM    4  C6  UNL     1      26.541 -18.049   0.271  1.00  0.00     0.010 C 
BRANCH   3   5
HETATM    5  C4  UNL     1      25.042 -17.160  -1.461  1.00  0.00     0.008 C 
BRANCH   5   6
HETATM    6  C2  UNL     1      23.878 -17.479  -0.599  1.00  0.00    -0.023 C 
HETATM    7  C1  UNL     1      23.186 -18.770  -0.767  1.00  0.00     0.009 C 
HETATM    8  C3  UNL     1      22.817 -16.390  -0.615  1.00  0.00     0.009 C 
ENDBRANCH   5   6
ENDBRANCH   3   5
ENDBRANCH   2   3
ENDBRANCH   1   2
BRANCH   1   9
HETATM    9  N1  UNL     1      28.478 -14.788   1.110  1.00  0.00    -0.073 N 
ATOM     10  H13 UNL     1      28.420 -13.786   1.292  1.00  0.00     0.274 HD
ATOM     11  H12 UNL     1      27.872 -15.160   1.841  1.00  0.00     0.274 HD
ATOM     12  H11 UNL     1      29.433 -15.097   1.287  1.00  0.00     0.274 HD
ENDBRANCH   1   9
BRANCH   1  13
HETATM   13  C9  UNL     1      27.960 -13.764  -0.973  1.00  0.00     0.266 C 
BRANCH  13  14
HETATM   14  N2  UNL     1      26.664 -13.455  -1.484  1.00  0.00    -0.062 N 
ATOM     15  H22 UNL     1      25.990 -14.182  -1.246  1.00  0.00     0.278 HD
ATOM     16  H21 UNL     1      26.244 -12.675  -0.979  1.00  0.00     0.278 HD
BRANCH  14  17
HETATM   17  C10 UNL     1      26.690 -13.205  -2.923  1.00  0.00     0.146 C 
HETATM   18  C12 UNL     1      25.397 -13.753  -3.477  1.00  0.00     0.041 C 
HETATM   19  C13 UNL     1      25.839 -14.908  -4.353  1.00  0.00     0.003 C 
HETATM   20  C14 UNL     1      27.192 -14.409  -4.879  1.00  0.00     0.003 C 
HETATM   21  C15 UNL     1      27.822 -13.904  -3.598  1.00  0.00     0.041 C 
BRANCH  17  22
HETATM   22  C11 UNL     1      26.737 -11.736  -3.236  1.00  0.00     0.203 C 
BRANCH  22  23
HETATM   23  O1  UNL     1      25.653 -11.300  -3.960  1.00  0.00    -0.398 OA
ATOM     24  H1  UNL     1      25.390 -10.412  -3.747  1.00  0.00     0.209 HD
ENDBRANCH  22  23
ENDBRANCH  17  22
ENDBRANCH  14  17
ENDBRANCH  13  14
ENDBRANCH   1  13
TORSDOF 10
ENDMDL
MODEL 2
REMARK VINA RESULT: -5.601406125      0.833      1.157
REMARK  10 active torsions:
REMARK  status: ('A' for Active; 'I' for Inactive)
REMARK    1  A    between atoms: C2_2  and  C4_4 
REMARK    2  A    between atoms: C4_4  and  C5_5 
REMARK    3  A    between atoms: C5_5  and  C7_7 
REMARK    4  A    between atoms: C7_7  and  C8_8 
REMARK    5  A    between atoms: C8_8  and  N1_9 
REMARK    6  A    between atoms: C8_8  and  C9_13 
REMARK    7  A    between atoms: C9_13  and  N2_14 
REMARK    8  A    between atoms: N2_14  and  C10_17 
REMARK    9  A    between atoms: C10_17  and  C11_18 
REMARK   10  A    between atoms: C11_18  and  O1_19 
ROOT
HETATM    1  C8  UNL     1      27.278 -14.523  -0.344  1.00  0.00     0.209 C 
ENDROOT
BRANCH   1   2
HETATM    2  C7  UNL     1      26.136 -15.359  -0.701  1.00  0.00     0.038 C 
BRANCH   2   3
HETATM    3  C5  UNL     1      26.266 -16.818  -0.910  1.00  0.00    -0.016 C 
HETATM    4  C6  UNL     1      27.604 -17.195  -0.238  1.00  0.00     0.010 C 
BRANCH   3   5
HETATM    5  C4  UNL     1      25.180 -17.591  -0.298  1.00  0.00     0.008 C 
BRANCH   5   6
HETATM    6  C2  UNL     1      23.843 -17.613  -0.939  1.00  0.00    -0.023 C 
HETATM    7  C1  UNL     1      22.896 -16.514  -0.674  1.00  0.00     0.009 C 
HETATM    8  C3  UNL     1      23.100 -18.919  -0.707  1.00  0.00     0.009 C 
ENDBRANCH   5   6
ENDBRANCH   3   5
ENDBRANCH   2   3
ENDBRANCH   1   2
BRANCH   1   9
HETATM    9  N1  UNL     1      27.215 -13.722   0.829  1.00  0.00    -0.073 N 
ATOM     10  H13 UNL     1      26.905 -12.786   0.568  1.00  0.00     0.274 HD
ATOM     11  H12 UNL     1      26.432 -14.041   1.399  1.00  0.00     0.274 HD
ATOM     12  H11 UNL     1      28.040 -13.639   1.422  1.00  0.00     0.274 HD
ENDBRANCH   1   9
BRANCH   1  13
HETATM   13  C9  UNL     1      27.756 -13.619  -1.485  1.00  0.00     0.266 C 
BRANCH  13  14
HETATM   14  N2  UNL     1      26.624 -13.024  -2.116  1.00  0.00    -0.062 N 
ATOM     15  H22 UNL     1      25.752 -13.409  -1.752  1.00  0.00     0.278 HD
ATOM     16  H21 UNL     1      26.506 -12.054  -1.825  1.00  0.00     0.278 HD
BRANCH  14  17
HETATM   17  C10 UNL     1      26.687 -13.139  -3.571  1.00  0.00     0.146 C 
HETATM   18  C12 UNL     1      25.415 -13.827  -4.004  1.00  0.00     0.041 C 
HETATM   19  C13 UNL     1      25.890 -15.156  -4.554  1.00  0.00     0.003 C 
HETATM   20  C14 UNL     1      27.253 -14.783  -5.154  1.00  0.00     0.003 C 
HETATM   21  C15 UNL     1      27.844 -13.967  -4.023  1.00  0.00     0.041 C 
BRANCH  17  22
HETATM   22  C11 UNL     1      26.731 -11.793  -4.238  1.00  0.00     0.203 C 
BRANCH  22  23
HETATM   23  O1  UNL     1      25.684 -11.581  -5.103  1.00  0.00    -0.398 OA
ATOM     24  H1  UNL     1      25.827 -10.852  -5.695  1.00  0.00     0.209 HD
ENDBRANCH  22  23
ENDBRANCH  17  22
ENDBRANCH  14  17
ENDBRANCH  13  14
ENDBRANCH   1  13
TORSDOF 10
ENDMDL
MODEL 3
REMARK VINA RESULT: -5.526767795      3.329      5.028
REMARK  10 active torsions:
REMARK  status: ('A' for Active; 'I' for Inactive)
REMARK    1  A    between atoms: C2_2  and  C4_4 
REMARK    2  A    between atoms: C4_4  and  C5_5 
REMARK    3  A    between atoms: C5_5  and  C7_7 
REMARK    4  A    between atoms: C7_7  and  C8_8 
REMARK    5  A    between atoms: C8_8  and  N1_9 
REMARK    6  A    between atoms: C8_8  and  C9_13 
REMARK    7  A    between atoms: C9_13  and  N2_14 
REMARK    8  A    between atoms: N2_14  and  C10_17 
REMARK    9  A    between atoms: C10_17  and  C11_18 
REMARK   10  A    between atoms: C11_18  and  O1_19 
ROOT
HETATM    1  C8  UNL     1      28.528 -15.349  -0.378  1.00  0.00     0.209 C 
ENDROOT
BRANCH   1   2
HETATM    2  C7  UNL     1      27.658 -15.516  -1.538  1.00  0.00     0.038 C 
BRANCH   2   3
HETATM    3  C5  UNL     1      26.186 -15.403  -1.437  1.00  0.00    -0.016 C 
HETATM    4  C6  UNL     1      25.770 -14.569  -2.668  1.00  0.00     0.010 C 
BRANCH   3   5
HETATM    5  C4  UNL     1      25.501 -16.699  -1.475  1.00  0.00     0.008 C 
BRANCH   5   6
HETATM    6  C2  UNL     1      25.264 -17.441  -0.212  1.00  0.00    -0.023 C 
HETATM    7  C1  UNL     1      26.327 -18.310   0.326  1.00  0.00     0.009 C 
HETATM    8  C3  UNL     1      23.982 -18.257  -0.240  1.00  0.00     0.009 C 
ENDBRANCH   5   6
ENDBRANCH   3   5
ENDBRANCH   2   3
ENDBRANCH   1   2
BRANCH   1   9
HETATM    9  N1  UNL     1      29.408 -16.403  -0.010  1.00  0.00    -0.073 N 
ATOM     10  H13 UNL     1      29.468 -17.064  -0.785  1.00  0.00     0.274 HD
ATOM     11  H12 UNL     1      30.360 -16.038   0.016  1.00  0.00     0.274 HD
ATOM     12  H11 UNL     1      29.233 -16.923   0.849  1.00  0.00     0.274 HD
ENDBRANCH   1   9
BRANCH   1  13
HETATM   13  C9  UNL     1      27.783 -14.920   0.890  1.00  0.00     0.266 C 
BRANCH  13  14
HETATM   14  N2  UNL     1      28.727 -14.471   1.859  1.00  0.00    -0.062 N 
ATOM     15  H22 UNL     1      29.060 -15.243   2.437  1.00  0.00     0.278 HD
ATOM     16  H21 UNL     1      29.610 -14.206   1.421  1.00  0.00     0.278 HD
BRANCH  14  17
HETATM   17  C10 UNL     1      28.195 -13.385   2.679  1.00  0.00     0.146 C 
HETATM   18  C12 UNL     1      26.956 -12.883   1.977  1.00  0.00     0.041 C 
HETATM   19  C13 UNL     1      27.326 -11.476   1.552  1.00  0.00     0.003 C 
HETATM   20  C14 UNL     1      28.256 -11.035   2.690  1.00  0.00     0.003 C 
HETATM   21  C15 UNL     1      29.154 -12.249   2.806  1.00  0.00     0.041 C 
BRANCH  17  22
HETATM   22  C11 UNL     1      27.786 -13.863   4.044  1.00  0.00     0.203 C 
BRANCH  22  23
HETATM   23  O1  UNL     1      28.543 -14.916   4.500  1.00  0.00    -0.398 OA
ATOM     24  H1  UNL     1      28.028 -15.688   4.705  1.00  0.00     0.209 HD
ENDBRANCH  22  23
ENDBRANCH  17  22
ENDBRANCH  14  17
ENDBRANCH  13  14
ENDBRANCH   1  13
TORSDOF 10
ENDMDL
MODEL 4
REMARK VINA RESULT: -5.502284137      1.565      2.183
REMARK  10 active torsions:
REMARK  status: ('A' for Active; 'I' for Inactive)
REMARK    1  A    between atoms: C2_2  and  C4_4 
REMARK    2  A    between atoms: C4_4  and  C5_5 
REMARK    3  A    between atoms: C5_5  and  C7_7 
REMARK    4  A    between atoms: C7_7  and  C8_8 
REMARK    5  A    between atoms: C8_8  and  N1_9 
REMARK    6  A    between atoms: C8_8  and  C9_13 
REMARK    7  A    between atoms: C9_13  and  N2_14 
REMARK    8  A    between atoms: N2_14  and  C10_17 
REMARK    9  A    between atoms: C10_17  and  C11_18 
REMARK   10  A    between atoms: C11_18  and  O1_19 
ROOT
HETATM    1  C8  UNL     1      27.658 -15.720  -0.144  1.00  0.00     0.209 C 
ENDROOT
BRANCH   1   2
HETATM    2  C7  UNL     1      26.285 -16.175  -0.338  1.00  0.00     0.038 C 
BRANCH   2   3
HETATM    3  C5  UNL     1      25.941 -17.609  -0.451  1.00  0.00    -0.016 C 
HETATM    4  C6  UNL     1      26.993 -18.336   0.415  1.00  0.00     0.010 C 
BRANCH   3   5
HETATM    5  C4  UNL     1      24.599 -17.925   0.047  1.00  0.00     0.008 C 
BRANCH   5   6
HETATM    6  C2  UNL     1      23.421 -17.709  -0.828  1.00  0.00    -0.023 C 
HETATM    7  C1  UNL     1      22.743 -16.399  -0.818  1.00  0.00     0.009 C 
HETATM    8  C3  UNL     1      22.351 -18.775  -0.652  1.00  0.00     0.009 C 
ENDBRANCH   5   6
ENDBRANCH   3   5
ENDBRANCH   2   3
ENDBRANCH   1   2
BRANCH   1   9
HETATM    9  N1  UNL     1      28.008 -15.057   1.064  1.00  0.00    -0.073 N 
ATOM     10  H13 UNL     1      28.885 -14.557   0.920  1.00  0.00     0.274 HD
ATOM     11  H12 UNL     1      27.359 -14.285   1.212  1.00  0.00     0.274 HD
ATOM     12  H11 UNL     1      28.078 -15.596   1.927  1.00  0.00     0.274 HD
ENDBRANCH   1   9
BRANCH   1  13
HETATM   13  C9  UNL     1      28.190 -14.866  -1.299  1.00  0.00     0.266 C 
BRANCH  13  14
HETATM   14  N2  UNL     1      27.964 -15.550  -2.530  1.00  0.00    -0.062 N 
ATOM     15  H22 UNL     1      28.811 -16.018  -2.854  1.00  0.00     0.278 HD
ATOM     16  H21 UNL     1      27.370 -16.369  -2.395  1.00  0.00     0.278 HD
BRANCH  14  17
HETATM   17  C10 UNL     1      27.421 -14.664  -3.556  1.00  0.00     0.146 C 
HETATM   18  C12 UNL     1      27.346 -13.288  -2.940  1.00  0.00     0.041 C 
HETATM   19  C13 UNL     1      25.859 -13.004  -2.866  1.00  0.00     0.003 C 
HETATM   20  C14 UNL     1      25.334 -13.733  -4.111  1.00  0.00     0.003 C 
HETATM   21  C15 UNL     1      26.047 -15.063  -3.978  1.00  0.00     0.041 C 
BRANCH  17  22
HETATM   22  C11 UNL     1      28.321 -14.581  -4.758  1.00  0.00     0.203 C 
BRANCH  22  23
HETATM   23  O1  UNL     1      27.881 -15.336  -5.819  1.00  0.00    -0.398 OA
ATOM     24  H1  UNL     1      28.479 -16.034  -6.056  1.00  0.00     0.209 HD
ENDBRANCH  22  23
ENDBRANCH  17  22
ENDBRANCH  14  17
ENDBRANCH  13  14
ENDBRANCH   1  13
TORSDOF 10
ENDMDL
MODEL 5
REMARK VINA RESULT: -5.488416182      1.322      1.802
REMARK  10 active torsions:
REMARK  status: ('A' for Active; 'I' for Inactive)
REMARK    1  A    between atoms: C2_2  and  C4_4 
REMARK    2  A    between atoms: C4_4  and  C5_5 
REMARK    3  A    between atoms: C5_5  and  C7_7 
REMARK    4  A    between atoms: C7_7  and  C8_8 
REMARK    5  A    between atoms: C8_8  and  N1_9 
REMARK    6  A    between atoms: C8_8  and  C9_13 
REMARK    7  A    between atoms: C9_13  and  N2_14 
REMARK    8  A    between atoms: N2_14  and  C10_17 
REMARK    9  A    between atoms: C10_17  and  C11_18 
REMARK   10  A    between atoms: C11_18  and  O1_19 
ROOT
HETATM    1  C8  UNL     1      27.077 -15.315  -0.415  1.00  0.00     0.209 C 
ENDROOT
BRANCH   1   2
HETATM    2  C7  UNL     1      25.831 -16.058  -0.578  1.00  0.00     0.038 C 
BRANCH   2   3
HETATM    3  C5  UNL     1      25.790 -17.537  -0.552  1.00  0.00    -0.016 C 
HETATM    4  C6  UNL     1      26.941 -17.946   0.392  1.00  0.00     0.010 C 
BRANCH   3   5
HETATM    5  C4  UNL     1      24.525 -18.073  -0.039  1.00  0.00     0.008 C 
BRANCH   5   6
HETATM    6  C2  UNL     1      23.270 -17.841  -0.793  1.00  0.00    -0.023 C 
HETATM    7  C1  UNL     1      22.656 -16.500  -0.779  1.00  0.00     0.009 C 
HETATM    8  C3  UNL     1      22.179 -18.842  -0.444  1.00  0.00     0.009 C 
ENDBRANCH   5   6
ENDBRANCH   3   5
ENDBRANCH   2   3
ENDBRANCH   1   2
BRANCH   1   9
HETATM    9  N1  UNL     1      27.120 -14.217   0.486  1.00  0.00    -0.073 N 
ATOM     10  H13 UNL     1      26.666 -14.490   1.357  1.00  0.00     0.274 HD
ATOM     11  H12 UNL     1      28.083 -14.086   0.794  1.00  0.00     0.274 HD
ATOM     12  H11 UNL     1      26.746 -13.315   0.192  1.00  0.00     0.274 HD
ENDBRANCH   1   9
BRANCH   1  13
HETATM   13  C9  UNL     1      27.682 -14.838  -1.740  1.00  0.00     0.266 C 
BRANCH  13  14
HETATM   14  N2  UNL     1      26.803 -15.185  -2.808  1.00  0.00    -0.062 N 
ATOM     15  H22 UNL     1      27.029 -16.103  -3.190  1.00  0.00     0.278 HD
ATOM     16  H21 UNL     1      25.863 -15.382  -2.464  1.00  0.00     0.278 HD
BRANCH  14  17
HETATM   17  C10 UNL     1      26.784 -14.165  -3.853  1.00  0.00     0.146 C 
HETATM   18  C12 UNL     1      26.739 -14.901  -5.171  1.00  0.00     0.041 C 
HETATM   19  C13 UNL     1      28.071 -14.572  -5.815  1.00  0.00     0.003 C 
HETATM   20  C14 UNL     1      28.328 -13.147  -5.306  1.00  0.00     0.003 C 
HETATM   21  C15 UNL     1      28.009 -13.313  -3.835  1.00  0.00     0.041 C 
BRANCH  17  22
HETATM   22  C11 UNL     1      25.558 -13.299  -3.769  1.00  0.00     0.203 C 
BRANCH  22  23
HETATM   23  O1  UNL     1      24.405 -13.954  -4.133  1.00  0.00    -0.398 OA
ATOM     24  H1  UNL     1      24.253 -13.954  -5.070  1.00  0.00     0.209 HD
ENDBRANCH  22  23
ENDBRANCH  17  22
ENDBRANCH  14  17
ENDBRANCH  13  14
ENDBRANCH   1  13
TORSDOF 10
ENDMDL
