MODEL 1
REMARK VINA RESULT: -6.414262822      0.000      0.000
REMARK  11 active torsions:
REMARK  status: ('A' for Active; 'I' for Inactive)
REMARK    1  A    between atoms: C2_2  and  C3_3 
REMARK    2  A    between atoms: C3_3  and  C4_4 
REMARK    3  A    between atoms: C6_6  and  C7_7 
REMARK    4  A    between atoms: C7_7  and  O1_8 
REMARK    5  A    between atoms: C7_7  and  C8_10 
REMARK    6  A    between atoms: C8_10  and  O2_11 
REMARK    7  A    between atoms: C8_10  and  C9_13 
REMARK    8  A    between atoms: C9_13  and  C10_14 
REMARK    9  A    between atoms: C11_15  and  C12_16 
REMARK   10  A    between atoms: C12_16  and  C13_17 
REMARK   11  A    between atoms: C16_20  and  O3_21 
ROOT
HETATM    1  C7  UNL     1      28.687 -16.906  -0.982  1.00  0.00     0.151 C 
ENDROOT
BRANCH   1   2
HETATM    2  C6  UNL     1      28.726 -15.777  -1.937  1.00  0.00     0.020 C 
HETATM    3  C5  UNL     1      27.342 -15.449  -2.479  1.00  0.00     0.014 C 
HETATM    4  C4  UNL     1      27.712 -14.542  -3.633  1.00  0.00     0.018 C 
HETATM    5  C16 UNL     1      28.973 -15.075  -4.193  1.00  0.00     0.123 C 
HETATM    6  C15 UNL     1      29.523 -16.018  -3.160  1.00  0.00     0.039 C 
BRANCH   4   7
HETATM    7  C3  UNL     1      26.626 -14.479  -4.660  1.00  0.00     0.033 C 
BRANCH   7   8
HETATM    8  C2  UNL     1      25.588 -13.479  -4.240  1.00  0.00    -0.036 C 
HETATM    9  C1  UNL     1      25.937 -12.315  -3.696  1.00  0.00     0.007 C 
ENDBRANCH   7   8
ENDBRANCH   4   7
BRANCH   5  10
HETATM   10  O3  UNL     1      28.799 -15.812  -5.365  1.00  0.00    -0.395 OA
ATOM     11  H3  UNL     1      29.604 -16.182  -5.706  1.00  0.00     0.210 HD
ENDBRANCH   5  10
ENDBRANCH   1   2
BRANCH   1  12
HETATM   12  O1  UNL     1      29.866 -17.129  -0.296  1.00  0.00    -0.393 OA
ATOM     13  H1  UNL     1      29.986 -16.590   0.477  1.00  0.00     0.210 HD
ENDBRANCH   1  12
BRANCH   1  14
HETATM   14  C8  UNL     1      27.534 -16.794  -0.031  1.00  0.00     0.150 C 
BRANCH  14  15
HETATM   15  O2  UNL     1      27.701 -15.858   0.979  1.00  0.00    -0.393 OA
ATOM     16  H2  UNL     1      27.106 -15.119   0.940  1.00  0.00     0.210 HD
ENDBRANCH  14  15
BRANCH  14  17
HETATM   17  C9  UNL     1      26.974 -18.047   0.510  1.00  0.00     0.061 C 
BRANCH  17  18
HETATM   18  C10 UNL     1      25.532 -18.230   0.118  1.00  0.00    -0.028 C 
HETATM   19  C11 UNL     1      24.821 -17.265  -0.393  1.00  0.00    -0.031 C 
BRANCH  19  20
HETATM   20  C12 UNL     1      23.418 -17.335  -0.806  1.00  0.00     0.026 C 
BRANCH  20  21
HETATM   21  C13 UNL     1      22.859 -18.701  -0.953  1.00  0.00    -0.001 C 
HETATM   22  C14 UNL     1      21.414 -18.814  -0.578  1.00  0.00     0.005 C 
ENDBRANCH  20  21
ENDBRANCH  19  20
ENDBRANCH  17  18
ENDBRANCH  14  17
ENDBRANCH   1  14
TORSDOF 11
ENDMDL
MODEL 2
REMARK VINA RESULT: -6.339526913      1.817      2.688
REMARK  11 active torsions:
REMARK  status: ('A' for Active; 'I' for Inactive)
REMARK    1  A    between atoms: C2_2  and  C3_3 
REMARK    2  A    between atoms: C3_3  and  C4_4 
REMARK    3  A    between atoms: C6_6  and  C7_7 
REMARK    4  A    between atoms: C7_7  and  O1_8 
REMARK    5  A    between atoms: C7_7  and  C8_10 
REMARK    6  A    between atoms: C8_10  and  O2_11 
REMARK    7  A    between atoms: C8_10  and  C9_13 
REMARK    8  A    between atoms: C9_13  and  C10_14 
REMARK    9  A    between atoms: C11_15  and  C12_16 
REMARK   10  A    between atoms: C12_16  and  C13_17 
REMARK   11  A    between atoms: C16_20  and  O3_21 
ROOT
HETATM    1  C7  UNL     1      27.580 -14.332  -0.726  1.00  0.00     0.151 C 
ENDROOT
BRANCH   1   2
HETATM    2  C6  UNL     1      27.237 -14.727  -2.109  1.00  0.00     0.020 C 
HETATM    3  C5  UNL     1      27.967 -13.873  -3.136  1.00  0.00     0.014 C 
HETATM    4  C4  UNL     1      27.200 -14.242  -4.388  1.00  0.00     0.018 C 
HETATM    5  C16 UNL     1      25.793 -14.434  -3.973  1.00  0.00     0.123 C 
HETATM    6  C15 UNL     1      25.813 -14.559  -2.476  1.00  0.00     0.039 C 
BRANCH   4   7
HETATM    7  C3  UNL     1      27.332 -13.196  -5.450  1.00  0.00     0.033 C 
BRANCH   7   8
HETATM    8  C2  UNL     1      28.534 -13.486  -6.301  1.00  0.00    -0.036 C 
HETATM    9  C1  UNL     1      28.935 -14.737  -6.520  1.00  0.00     0.007 C 
ENDBRANCH   7   8
ENDBRANCH   4   7
BRANCH   5  10
HETATM   10  O3  UNL     1      24.965 -13.353  -4.280  1.00  0.00    -0.395 OA
ATOM     11  H3  UNL     1      24.397 -13.508  -5.025  1.00  0.00     0.210 HD
ENDBRANCH   5  10
ENDBRANCH   1   2
BRANCH   1  12
HETATM   12  O1  UNL     1      26.902 -13.223  -0.254  1.00  0.00    -0.393 OA
ATOM     13  H1  UNL     1      26.022 -13.118  -0.596  1.00  0.00     0.210 HD
ENDBRANCH   1  12
BRANCH   1  14
HETATM   14  C8  UNL     1      27.453 -15.477   0.232  1.00  0.00     0.150 C 
BRANCH  14  15
HETATM   15  O2  UNL     1      28.066 -15.279   1.461  1.00  0.00    -0.393 OA
ATOM     16  H2  UNL     1      27.863 -15.935   2.117  1.00  0.00     0.210 HD
ENDBRANCH  14  15
BRANCH  14  17
HETATM   17  C9  UNL     1      27.744 -16.829  -0.281  1.00  0.00     0.061 C 
BRANCH  17  18
HETATM   18  C10 UNL     1      26.609 -17.783  -0.018  1.00  0.00    -0.028 C 
HETATM   19  C11 UNL     1      25.373 -17.494  -0.314  1.00  0.00    -0.031 C 
BRANCH  19  20
HETATM   20  C12 UNL     1      24.200 -18.343  -0.100  1.00  0.00     0.026 C 
BRANCH  20  21
HETATM   21  C13 UNL     1      22.895 -17.741  -0.467  1.00  0.00    -0.001 C 
HETATM   22  C14 UNL     1      21.792 -18.736  -0.651  1.00  0.00     0.005 C 
ENDBRANCH  20  21
ENDBRANCH  19  20
ENDBRANCH  17  18
ENDBRANCH  14  17
ENDBRANCH   1  14
TORSDOF 11
ENDMDL
MODEL 3
REMARK VINA RESULT: -6.136456777      2.442      6.706
REMARK  11 active torsions:
REMARK  status: ('A' for Active; 'I' for Inactive)
REMARK    1  A    between atoms: C2_2  and  C3_3 
REMARK    2  A    between atoms: C3_3  and  C4_4 
REMARK    3  A    between atoms: C6_6  and  C7_7 
REMARK    4  A    between atoms: C7_7  and  O1_8 
REMARK    5  A    between atoms: C7_7  and  C8_10 
REMARK    6  A    between atoms: C8_10  and  O2_11 
REMARK    7  A    between atoms: C8_10  and  C9_13 
REMARK    8  A    between atoms: C9_13  and  C10_14 
REMARK    9  A    between atoms: C11_15  and  C12_16 
REMARK   10  A    between atoms: C12_16  and  C13_17 
REMARK   11  A    between atoms: C16_20  and  O3_21 
ROOT
HETATM    1  C7  UNL     1      26.077 -14.115  -2.489  1.00  0.00     0.151 C 
ENDROOT
BRANCH   1   2
HETATM    2  C6  UNL     1      26.402 -15.517  -2.147  1.00  0.00     0.020 C 
HETATM    3  C5  UNL     1      25.227 -16.220  -1.479  1.00  0.00     0.014 C 
HETATM    4  C4  UNL     1      25.920 -17.457  -0.949  1.00  0.00     0.018 C 
HETATM    5  C16 UNL     1      27.276 -17.032  -0.539  1.00  0.00     0.123 C 
HETATM    6  C15 UNL     1      27.500 -15.688  -1.171  1.00  0.00     0.039 C 
BRANCH   4   7
HETATM    7  C3  UNL     1      25.161 -18.076   0.183  1.00  0.00     0.033 C 
BRANCH   7   8
HETATM    8  C2  UNL     1      23.686 -17.933  -0.058  1.00  0.00    -0.036 C 
HETATM    9  C1  UNL     1      23.010 -18.853  -0.743  1.00  0.00     0.007 C 
ENDBRANCH   7   8
ENDBRANCH   4   7
BRANCH   5  10
HETATM   10  O3  UNL     1      27.417 -16.863   0.839  1.00  0.00    -0.395 OA
ATOM     11  H3  UNL     1      28.197 -17.272   1.195  1.00  0.00     0.210 HD
ENDBRANCH   5  10
ENDBRANCH   1   2
BRANCH   1  12
HETATM   12  O1  UNL     1      27.043 -13.192  -2.133  1.00  0.00    -0.393 OA
ATOM     13  H1  UNL     1      26.717 -12.437  -1.658  1.00  0.00     0.210 HD
ENDBRANCH   1  12
BRANCH   1  14
HETATM   14  C8  UNL     1      25.706 -13.963  -3.932  1.00  0.00     0.150 C 
BRANCH  14  15
HETATM   15  O2  UNL     1      24.351 -13.779  -4.169  1.00  0.00    -0.393 OA
ATOM     16  H2  UNL     1      23.968 -14.391  -4.785  1.00  0.00     0.210 HD
ENDBRANCH  14  15
BRANCH  14  17
HETATM   17  C9  UNL     1      26.272 -14.934  -4.888  1.00  0.00     0.061 C 
BRANCH  17  18
HETATM   18  C10 UNL     1      27.598 -14.473  -5.434  1.00  0.00    -0.028 C 
HETATM   19  C11 UNL     1      27.858 -13.218  -5.666  1.00  0.00    -0.031 C 
BRANCH  19  20
HETATM   20  C12 UNL     1      29.106 -12.666  -6.195  1.00  0.00     0.026 C 
BRANCH  20  21
HETATM   21  C13 UNL     1      29.142 -12.448  -7.662  1.00  0.00    -0.001 C 
HETATM   22  C14 UNL     1      28.028 -11.594  -8.181  1.00  0.00     0.005 C 
ENDBRANCH  20  21
ENDBRANCH  19  20
ENDBRANCH  17  18
ENDBRANCH  14  17
ENDBRANCH   1  14
TORSDOF 11
ENDMDL
MODEL 4
REMARK VINA RESULT: -6.074450294      2.091      6.340
REMARK  11 active torsions:
REMARK  status: ('A' for Active; 'I' for Inactive)
REMARK    1  A    between atoms: C2_2  and  C3_3 
REMARK    2  A    between atoms: C3_3  and  C4_4 
REMARK    3  A    between atoms: C6_6  and  C7_7 
REMARK    4  A    between atoms: C7_7  and  O1_8 
REMARK    5  A    between atoms: C7_7  and  C8_10 
REMARK    6  A    between atoms: C8_10  and  O2_11 
REMARK    7  A    between atoms: C8_10  and  C9_13 
REMARK    8  A    between atoms: C9_13  and  C10_14 
REMARK    9  A    between atoms: C11_15  and  C12_16 
REMARK   10  A    between atoms: C12_16  and  C13_17 
REMARK   11  A    between atoms: C16_20  and  O3_21 
ROOT
HETATM    1  C7  UNL     1      26.433 -14.020  -2.580  1.00  0.00     0.151 C 
ENDROOT
BRANCH   1   2
HETATM    2  C6  UNL     1      26.653 -15.438  -2.223  1.00  0.00     0.020 C 
HETATM    3  C5  UNL     1      25.418 -16.056  -1.583  1.00  0.00     0.014 C 
HETATM    4  C4  UNL     1      26.012 -17.334  -1.030  1.00  0.00     0.018 C 
HETATM    5  C16 UNL     1      27.382 -16.998  -0.587  1.00  0.00     0.123 C 
HETATM    6  C15 UNL     1      27.712 -15.676  -1.219  1.00  0.00     0.039 C 
BRANCH   4   7
HETATM    7  C3  UNL     1      25.184 -17.894   0.085  1.00  0.00     0.033 C 
BRANCH   7   8
HETATM    8  C2  UNL     1      23.727 -17.735  -0.237  1.00  0.00    -0.036 C 
HETATM    9  C1  UNL     1      23.015 -18.752  -0.717  1.00  0.00     0.007 C 
ENDBRANCH   7   8
ENDBRANCH   4   7
BRANCH   5  10
HETATM   10  O3  UNL     1      27.500 -16.830   0.794  1.00  0.00    -0.395 OA
ATOM     11  H3  UNL     1      26.877 -16.212   1.157  1.00  0.00     0.210 HD
ENDBRANCH   5  10
ENDBRANCH   1   2
BRANCH   1  12
HETATM   12  O1  UNL     1      27.481 -13.173  -2.272  1.00  0.00    -0.393 OA
ATOM     13  H1  UNL     1      28.226 -13.232  -2.859  1.00  0.00     0.210 HD
ENDBRANCH   1  12
BRANCH   1  14
HETATM   14  C8  UNL     1      26.027 -13.860  -4.014  1.00  0.00     0.150 C 
BRANCH  14  15
HETATM   15  O2  UNL     1      24.700 -13.500  -4.207  1.00  0.00    -0.393 OA
ATOM     16  H2  UNL     1      24.558 -12.576  -4.373  1.00  0.00     0.210 HD
ENDBRANCH  14  15
BRANCH  14  17
HETATM   17  C9  UNL     1      26.417 -14.926  -4.955  1.00  0.00     0.061 C 
BRANCH  17  18
HETATM   18  C10 UNL     1      27.734 -14.629  -5.622  1.00  0.00    -0.028 C 
HETATM   19  C11 UNL     1      28.824 -15.282  -5.332  1.00  0.00    -0.031 C 
BRANCH  19  20
HETATM   20  C12 UNL     1      30.150 -15.073  -5.916  1.00  0.00     0.026 C 
BRANCH  20  21
HETATM   21  C13 UNL     1      30.745 -16.249  -6.596  1.00  0.00    -0.001 C 
HETATM   22  C14 UNL     1      30.759 -17.495  -5.765  1.00  0.00     0.005 C 
ENDBRANCH  20  21
ENDBRANCH  19  20
ENDBRANCH  17  18
ENDBRANCH  14  17
ENDBRANCH   1  14
TORSDOF 11
ENDMDL
MODEL 5
REMARK VINA RESULT: -5.904260064      1.696      2.284
REMARK  11 active torsions:
REMARK  status: ('A' for Active; 'I' for Inactive)
REMARK    1  A    between atoms: C2_2  and  C3_3 
REMARK    2  A    between atoms: C3_3  and  C4_4 
REMARK    3  A    between atoms: C6_6  and  C7_7 
REMARK    4  A    between atoms: C7_7  and  O1_8 
REMARK    5  A    between atoms: C7_7  and  C8_10 
REMARK    6  A    between atoms: C8_10  and  O2_11 
REMARK    7  A    between atoms: C8_10  and  C9_13 
REMARK    8  A    between atoms: C9_13  and  C10_14 
REMARK    9  A    between atoms: C11_15  and  C12_16 
REMARK   10  A    between atoms: C12_16  and  C13_17 
REMARK   11  A    between atoms: C16_20  and  O3_21 
ROOT
HETATM    1  C7  UNL     1      28.307 -15.156  -1.816  1.00  0.00     0.151 C 
ENDROOT
BRANCH   1   2
HETATM    2  C6  UNL     1      27.686 -14.959  -3.144  1.00  0.00     0.020 C 
HETATM    3  C5  UNL     1      27.768 -13.507  -3.595  1.00  0.00     0.014 C 
HETATM    4  C4  UNL     1      26.799 -13.531  -4.757  1.00  0.00     0.018 C 
HETATM    5  C16 UNL     1      25.717 -14.466  -4.378  1.00  0.00     0.123 C 
HETATM    6  C15 UNL     1      26.239 -15.256  -3.211  1.00  0.00     0.039 C 
BRANCH   4   7
HETATM    7  C3  UNL     1      26.273 -12.165  -5.070  1.00  0.00     0.033 C 
BRANCH   7   8
HETATM    8  C2  UNL     1      26.787 -11.181  -4.059  1.00  0.00    -0.036 C 
HETATM    9  C1  UNL     1      25.993 -10.239  -3.554  1.00  0.00     0.007 C 
ENDBRANCH   7   8
ENDBRANCH   4   7
BRANCH   5  10
HETATM   10  O3  UNL     1      24.551 -13.831  -3.950  1.00  0.00    -0.395 OA
ATOM     11  H3  UNL     1      24.007 -14.369  -3.387  1.00  0.00     0.210 HD
ENDBRANCH   5  10
ENDBRANCH   1   2
BRANCH   1  12
HETATM   12  O1  UNL     1      28.894 -14.026  -1.276  1.00  0.00    -0.393 OA
ATOM     13  H1  UNL     1      28.362 -13.567  -0.637  1.00  0.00     0.210 HD
ENDBRANCH   1  12
BRANCH   1  14
HETATM   14  C8  UNL     1      27.355 -15.776  -0.839  1.00  0.00     0.150 C 
BRANCH  14  15
HETATM   15  O2  UNL     1      26.969 -14.947   0.204  1.00  0.00    -0.393 OA
ATOM     16  H2  UNL     1      26.285 -14.325  -0.013  1.00  0.00     0.210 HD
ENDBRANCH  14  15
BRANCH  14  17
HETATM   17  C9  UNL     1      27.676 -17.125  -0.338  1.00  0.00     0.061 C 
BRANCH  17  18
HETATM   18  C10 UNL     1      26.445 -17.855   0.131  1.00  0.00    -0.028 C 
HETATM   19  C11 UNL     1      25.257 -17.589  -0.335  1.00  0.00    -0.031 C 
BRANCH  19  20
HETATM   20  C12 UNL     1      24.001 -18.234   0.051  1.00  0.00     0.026 C 
BRANCH  20  21
HETATM   21  C13 UNL     1      23.098 -18.602  -1.066  1.00  0.00    -0.001 C 
HETATM   22  C14 UNL     1      21.667 -18.777  -0.664  1.00  0.00     0.005 C 
ENDBRANCH  20  21
ENDBRANCH  19  20
ENDBRANCH  17  18
ENDBRANCH  14  17
ENDBRANCH   1  14
TORSDOF 11
ENDMDL
