MODEL 1
REMARK VINA RESULT: -7.304703886      0.000      0.000
REMARK  6 active torsions:
REMARK  status: ('A' for Active; 'I' for Inactive)
REMARK    1  A    between atoms: C7_7  and  O1_8 
REMARK    2  A    between atoms: C12_14  and  C13_15 
REMARK    3  A    between atoms: C14_16  and  C15_17 
REMARK    4  A    between atoms: C16_18  and  C17_19 
REMARK    5  A    between atoms: C18_20  and  C19_21 
REMARK    6  A    between atoms: C21_26  and  O5_27 
ROOT
HETATM    1  C1  UNL     1      25.963 -17.702  -0.221  1.00  0.00     0.015 C 
HETATM    2  C2  UNL     1      25.949 -16.437  -0.627  1.00  0.00    -0.081 C 
HETATM    3  C3  UNL     1      24.678 -15.774  -1.053  1.00  0.00     0.034 C 
HETATM    4  C4  UNL     1      24.859 -15.022  -2.350  1.00  0.00     0.010 C 
HETATM    5  C5  UNL     1      26.225 -15.416  -2.897  1.00  0.00    -0.003 C 
HETATM    6  C6  UNL     1      26.318 -15.063  -4.344  1.00  0.00     0.037 C 
HETATM    7  C7  UNL     1      27.659 -14.702  -4.839  1.00  0.00     0.118 C 
HETATM    8  C8  UNL     1      28.815 -15.231  -4.080  1.00  0.00     0.032 C 
HETATM    9  C9  UNL     1      28.640 -15.412  -2.631  1.00  0.00     0.013 C 
HETATM   10  C10 UNL     1      27.353 -14.941  -2.053  1.00  0.00    -0.030 C 
HETATM   11  C11 UNL     1      27.348 -13.454  -1.808  1.00  0.00     0.016 C 
HETATM   12  C12 UNL     1      27.197 -15.604  -0.683  1.00  0.00     0.044 C 
ENDROOT
BRANCH  12  13
HETATM   13  C13 UNL     1      27.105 -14.636   0.403  1.00  0.00    -0.017 C 
HETATM   14  C14 UNL     1      27.954 -14.717   1.410  1.00  0.00    -0.003 C 
BRANCH  14  15
HETATM   15  C15 UNL     1      27.926 -13.786   2.533  1.00  0.00     0.001 C 
HETATM   16  C16 UNL     1      28.423 -12.592   2.409  1.00  0.00     0.017 C 
BRANCH  16  17
HETATM   17  C17 UNL     1      28.456 -11.571   3.455  1.00  0.00     0.041 A 
HETATM   18  C18 UNL     1      27.819 -10.350   3.426  1.00  0.00     0.078 A 
HETATM   19  C20 UNL     1      28.132  -9.726   4.623  1.00  0.00     0.164 A 
HETATM   20  O4  UNL     1      28.900 -10.507   5.321  1.00  0.00    -0.299 OA
HETATM   21  C21 UNL     1      29.125 -11.633   4.660  1.00  0.00     0.194 A 
BRANCH  18  22
HETATM   22  C19 UNL     1      26.976  -9.756   2.406  1.00  0.00     0.212 C 
HETATM   23  O2  UNL     1      25.815  -9.318   2.748  1.00  0.00    -0.644 OA
HETATM   24  O3  UNL     1      27.380  -9.650   1.102  1.00  0.00    -0.644 OA
ENDBRANCH  18  22
BRANCH  21  25
HETATM   25  O5  UNL     1      29.911 -12.665   5.154  1.00  0.00    -0.340 OA
ATOM     26  H5  UNL     1      30.515 -12.645   5.887  1.00  0.00     0.220 HD
ENDBRANCH  21  25
ENDBRANCH  16  17
ENDBRANCH  14  15
ENDBRANCH  12  13
BRANCH   7  27
HETATM   27  O1  UNL     1      27.775 -15.192  -6.164  1.00  0.00    -0.396 OA
ATOM     28  H1  UNL     1      28.698 -15.215  -6.383  1.00  0.00     0.210 HD
ENDBRANCH   7  27
TORSDOF 6
ENDMDL
MODEL 2
REMARK VINA RESULT: -7.211569656      1.119      2.593
REMARK  6 active torsions:
REMARK  status: ('A' for Active; 'I' for Inactive)
REMARK    1  A    between atoms: C7_7  and  O1_8 
REMARK    2  A    between atoms: C12_14  and  C13_15 
REMARK    3  A    between atoms: C14_16  and  C15_17 
REMARK    4  A    between atoms: C16_18  and  C17_19 
REMARK    5  A    between atoms: C18_20  and  C19_21 
REMARK    6  A    between atoms: C21_26  and  O5_27 
ROOT
HETATM    1  C1  UNL     1      26.124 -17.656  -0.184  1.00  0.00     0.015 C 
HETATM    2  C2  UNL     1      26.010 -16.406  -0.618  1.00  0.00    -0.081 C 
HETATM    3  C3  UNL     1      24.695 -15.862  -1.076  1.00  0.00     0.034 C 
HETATM    4  C4  UNL     1      24.831 -15.124  -2.386  1.00  0.00     0.010 C 
HETATM    5  C5  UNL     1      26.234 -15.411  -2.905  1.00  0.00    -0.003 C 
HETATM    6  C6  UNL     1      26.320 -15.081  -4.358  1.00  0.00     0.037 C 
HETATM    7  C7  UNL     1      27.632 -14.617  -4.842  1.00  0.00     0.118 C 
HETATM    8  C8  UNL     1      28.817 -15.030  -4.056  1.00  0.00     0.032 C 
HETATM    9  C9  UNL     1      28.635 -15.196  -2.606  1.00  0.00     0.013 C 
HETATM   10  C10 UNL     1      27.304 -14.825  -2.056  1.00  0.00    -0.030 C 
HETATM   11  C11 UNL     1      27.169 -13.339  -1.844  1.00  0.00     0.016 C 
HETATM   12  C12 UNL     1      27.183 -15.470  -0.674  1.00  0.00     0.044 C 
ENDROOT
BRANCH  12  13
HETATM   13  C13 UNL     1      26.992 -14.492   0.389  1.00  0.00    -0.017 C 
HETATM   14  C14 UNL     1      27.811 -14.500   1.425  1.00  0.00    -0.003 C 
BRANCH  14  15
HETATM   15  C15 UNL     1      27.685 -13.554   2.527  1.00  0.00     0.001 C 
HETATM   16  C16 UNL     1      28.745 -13.090   3.120  1.00  0.00     0.017 C 
BRANCH  16  17
HETATM   17  C17 UNL     1      28.752 -12.141   4.232  1.00  0.00     0.041 A 
HETATM   18  C18 UNL     1      28.881 -12.450   5.568  1.00  0.00     0.078 A 
HETATM   19  C20 UNL     1      28.833 -11.243   6.247  1.00  0.00     0.164 A 
HETATM   20  O4  UNL     1      28.686 -10.279   5.389  1.00  0.00    -0.299 OA
HETATM   21  C21 UNL     1      28.631 -10.769   4.159  1.00  0.00     0.194 A 
BRANCH  18  22
HETATM   22  C19 UNL     1      29.040 -13.734   6.223  1.00  0.00     0.212 C 
HETATM   23  O2  UNL     1      29.914 -13.840   7.163  1.00  0.00    -0.644 OA
HETATM   24  O3  UNL     1      28.292 -14.827   5.872  1.00  0.00    -0.644 OA
ENDBRANCH  18  22
BRANCH  21  25
HETATM   25  O5  UNL     1      28.478  -9.980   3.028  1.00  0.00    -0.340 OA
ATOM     26  H5  UNL     1      27.890  -9.245   2.899  1.00  0.00     0.220 HD
ENDBRANCH  21  25
ENDBRANCH  16  17
ENDBRANCH  14  15
ENDBRANCH  12  13
BRANCH   7  27
HETATM   27  O1  UNL     1      27.810 -15.122  -6.154  1.00  0.00    -0.396 OA
ATOM     28  H1  UNL     1      28.727 -15.023  -6.380  1.00  0.00     0.210 HD
ENDBRANCH   7  27
TORSDOF 6
ENDMDL
MODEL 3
REMARK VINA RESULT: -7.155748045      1.041      1.324
REMARK  6 active torsions:
REMARK  status: ('A' for Active; 'I' for Inactive)
REMARK    1  A    between atoms: C7_7  and  O1_8 
REMARK    2  A    between atoms: C12_14  and  C13_15 
REMARK    3  A    between atoms: C14_16  and  C15_17 
REMARK    4  A    between atoms: C16_18  and  C17_19 
REMARK    5  A    between atoms: C18_20  and  C19_21 
REMARK    6  A    between atoms: C21_26  and  O5_27 
ROOT
HETATM    1  C1  UNL     1      26.048 -17.728  -0.261  1.00  0.00     0.015 C 
HETATM    2  C2  UNL     1      25.962 -16.467  -0.671  1.00  0.00    -0.081 C 
HETATM    3  C3  UNL     1      24.660 -15.887  -1.123  1.00  0.00     0.034 C 
HETATM    4  C4  UNL     1      24.818 -15.126  -2.417  1.00  0.00     0.010 C 
HETATM    5  C5  UNL     1      26.216 -15.434  -2.936  1.00  0.00    -0.003 C 
HETATM    6  C6  UNL     1      26.316 -15.077  -4.383  1.00  0.00     0.037 C 
HETATM    7  C7  UNL     1      27.640 -14.632  -4.853  1.00  0.00     0.118 C 
HETATM    8  C8  UNL     1      28.812 -15.086  -4.070  1.00  0.00     0.032 C 
HETATM    9  C9  UNL     1      28.621 -15.276  -2.625  1.00  0.00     0.013 C 
HETATM   10  C10 UNL     1      27.296 -14.887  -2.073  1.00  0.00    -0.030 C 
HETATM   11  C11 UNL     1      27.192 -13.403  -1.832  1.00  0.00     0.016 C 
HETATM   12  C12 UNL     1      27.155 -15.557  -0.704  1.00  0.00     0.044 C 
ENDROOT
BRANCH  12  13
HETATM   13  C13 UNL     1      26.981 -14.595   0.377  1.00  0.00    -0.017 C 
HETATM   14  C14 UNL     1      27.844 -14.587   1.376  1.00  0.00    -0.003 C 
BRANCH  14  15
HETATM   15  C15 UNL     1      27.738 -13.656   2.494  1.00  0.00     0.001 C 
HETATM   16  C16 UNL     1      28.629 -13.661   3.440  1.00  0.00     0.017 C 
BRANCH  16  17
HETATM   17  C17 UNL     1      28.633 -12.783   4.609  1.00  0.00     0.041 A 
HETATM   18  C18 UNL     1      28.465 -11.415   4.603  1.00  0.00     0.078 A 
HETATM   19  C20 UNL     1      28.543 -11.015   5.927  1.00  0.00     0.164 A 
HETATM   20  O4  UNL     1      28.744 -12.057   6.675  1.00  0.00    -0.299 OA
HETATM   21  C21 UNL     1      28.805 -13.149   5.927  1.00  0.00     0.194 A 
BRANCH  18  22
HETATM   22  C19 UNL     1      28.246 -10.502   3.499  1.00  0.00     0.212 C 
HETATM   23  O2  UNL     1      29.270  -9.967   2.932  1.00  0.00    -0.644 OA
HETATM   24  O3  UNL     1      26.989 -10.197   3.047  1.00  0.00    -0.644 OA
ENDBRANCH  18  22
BRANCH  21  25
HETATM   25  O5  UNL     1      29.011 -14.420   6.445  1.00  0.00    -0.340 OA
ATOM     26  H5  UNL     1      28.960 -15.255   5.993  1.00  0.00     0.220 HD
ENDBRANCH  21  25
ENDBRANCH  16  17
ENDBRANCH  14  15
ENDBRANCH  12  13
BRANCH   7  27
HETATM   27  O1  UNL     1      27.812 -15.115  -6.174  1.00  0.00    -0.396 OA
ATOM     28  H1  UNL     1      26.962 -15.107  -6.598  1.00  0.00     0.210 HD
ENDBRANCH   7  27
TORSDOF 6
ENDMDL
MODEL 4
REMARK VINA RESULT: -7.070043818      1.228      2.659
REMARK  6 active torsions:
REMARK  status: ('A' for Active; 'I' for Inactive)
REMARK    1  A    between atoms: C7_7  and  O1_8 
REMARK    2  A    between atoms: C12_14  and  C13_15 
REMARK    3  A    between atoms: C14_16  and  C15_17 
REMARK    4  A    between atoms: C16_18  and  C17_19 
REMARK    5  A    between atoms: C18_20  and  C19_21 
REMARK    6  A    between atoms: C21_26  and  O5_27 
ROOT
HETATM    1  C1  UNL     1      24.825 -16.604  -1.512  1.00  0.00     0.015 C 
HETATM    2  C2  UNL     1      25.385 -15.462  -1.899  1.00  0.00    -0.081 C 
HETATM    3  C3  UNL     1      24.626 -14.464  -2.714  1.00  0.00     0.034 C 
HETATM    4  C4  UNL     1      25.447 -13.969  -3.880  1.00  0.00     0.010 C 
HETATM    5  C5  UNL     1      26.682 -14.858  -3.953  1.00  0.00    -0.003 C 
HETATM    6  C6  UNL     1      27.331 -14.723  -5.291  1.00  0.00     0.037 C 
HETATM    7  C7  UNL     1      28.795 -14.892  -5.323  1.00  0.00     0.118 C 
HETATM    8  C8  UNL     1      29.398 -15.689  -4.230  1.00  0.00     0.032 C 
HETATM    9  C9  UNL     1      28.738 -15.635  -2.917  1.00  0.00     0.013 C 
HETATM   10  C10 UNL     1      27.591 -14.696  -2.788  1.00  0.00    -0.030 C 
HETATM   11  C11 UNL     1      28.038 -13.277  -2.556  1.00  0.00     0.016 C 
HETATM   12  C12 UNL     1      26.800 -15.108  -1.544  1.00  0.00     0.044 C 
ENDROOT
BRANCH  12  13
HETATM   13  C13 UNL     1      26.731 -14.049  -0.546  1.00  0.00    -0.017 C 
HETATM   14  C14 UNL     1      27.136 -14.298   0.686  1.00  0.00    -0.003 C 
BRANCH  14  15
HETATM   15  C15 UNL     1      27.099 -13.291   1.740  1.00  0.00     0.001 C 
HETATM   16  C16 UNL     1      28.127 -13.112   2.515  1.00  0.00     0.017 C 
BRANCH  16  17
HETATM   17  C17 UNL     1      28.213 -12.139   3.603  1.00  0.00     0.041 A 
HETATM   18  C18 UNL     1      28.402 -12.422   4.938  1.00  0.00     0.078 A 
HETATM   19  C20 UNL     1      28.417 -11.199   5.590  1.00  0.00     0.164 A 
HETATM   20  O4  UNL     1      28.250 -10.251   4.718  1.00  0.00    -0.299 OA
HETATM   21  C21 UNL     1      28.121 -10.766   3.504  1.00  0.00     0.194 A 
BRANCH  18  22
HETATM   22  C19 UNL     1      28.563 -13.695   5.613  1.00  0.00     0.212 C 
HETATM   23  O2  UNL     1      29.383 -13.764   6.604  1.00  0.00    -0.644 OA
HETATM   24  O3  UNL     1      27.872 -14.813   5.230  1.00  0.00    -0.644 OA
ENDBRANCH  18  22
BRANCH  21  25
HETATM   25  O5  UNL     1      27.930  -9.999   2.364  1.00  0.00    -0.340 OA
ATOM     26  H5  UNL     1      27.577  -9.119   2.300  1.00  0.00     0.220 HD
ENDBRANCH  21  25
ENDBRANCH  16  17
ENDBRANCH  14  15
ENDBRANCH  12  13
BRANCH   7  27
HETATM   27  O1  UNL     1      29.127 -15.540  -6.538  1.00  0.00    -0.396 OA
ATOM     28  H1  UNL     1      28.318 -15.716  -7.003  1.00  0.00     0.210 HD
ENDBRANCH   7  27
TORSDOF 6
ENDMDL
MODEL 5
REMARK VINA RESULT: -6.861863164      1.879      2.613
REMARK  6 active torsions:
REMARK  status: ('A' for Active; 'I' for Inactive)
REMARK    1  A    between atoms: C7_7  and  O1_8 
REMARK    2  A    between atoms: C12_14  and  C13_15 
REMARK    3  A    between atoms: C14_16  and  C15_17 
REMARK    4  A    between atoms: C16_18  and  C17_19 
REMARK    5  A    between atoms: C18_20  and  C19_21 
REMARK    6  A    between atoms: C21_26  and  O5_27 
ROOT
HETATM    1  C1  UNL     1      29.346 -17.007  -1.339  1.00  0.00     0.015 C 
HETATM    2  C2  UNL     1      28.275 -16.463  -0.771  1.00  0.00    -0.081 C 
HETATM    3  C3  UNL     1      27.135 -17.309  -0.301  1.00  0.00     0.034 C 
HETATM    4  C4  UNL     1      25.809 -16.740  -0.746  1.00  0.00     0.010 C 
HETATM    5  C5  UNL     1      26.122 -15.628  -1.738  1.00  0.00    -0.003 C 
HETATM    6  C6  UNL     1      24.904 -15.294  -2.534  1.00  0.00     0.037 C 
HETATM    7  C7  UNL     1      24.782 -13.894  -2.978  1.00  0.00     0.118 C 
HETATM    8  C8  UNL     1      26.039 -13.119  -3.097  1.00  0.00     0.032 C 
HETATM    9  C9  UNL     1      27.125 -13.456  -2.164  1.00  0.00     0.013 C 
HETATM   10  C10 UNL     1      26.813 -14.467  -1.118  1.00  0.00    -0.030 C 
HETATM   11  C11 UNL     1      26.073 -13.870   0.051  1.00  0.00     0.016 C 
HETATM   12  C12 UNL     1      28.145 -14.981  -0.567  1.00  0.00     0.044 C 
ENDROOT
BRANCH  12  13
HETATM   13  C13 UNL     1      28.294 -14.738   0.862  1.00  0.00    -0.017 C 
HETATM   14  C14 UNL     1      29.151 -13.822   1.273  1.00  0.00    -0.003 C 
BRANCH  14  15
HETATM   15  C15 UNL     1      29.357 -13.521   2.684  1.00  0.00     0.001 C 
HETATM   16  C16 UNL     1      28.387 -13.038   3.402  1.00  0.00     0.017 C 
BRANCH  16  17
HETATM   17  C17 UNL     1      28.467 -12.696   4.821  1.00  0.00     0.041 A 
HETATM   18  C18 UNL     1      28.474 -11.427   5.356  1.00  0.00     0.078 A 
HETATM   19  C20 UNL     1      28.561 -11.590   6.729  1.00  0.00     0.164 A 
HETATM   20  O4  UNL     1      28.604 -12.859   7.004  1.00  0.00    -0.299 OA
HETATM   21  C21 UNL     1      28.550 -13.569   5.886  1.00  0.00     0.194 A 
BRANCH  18  22
HETATM   22  C19 UNL     1      28.407 -10.133   4.704  1.00  0.00     0.212 C 
HETATM   23  O2  UNL     1      29.453  -9.384   4.717  1.00  0.00    -0.644 OA
HETATM   24  O3  UNL     1      27.270  -9.693   4.079  1.00  0.00    -0.644 OA
ENDBRANCH  18  22
BRANCH  21  25
HETATM   25  O5  UNL     1      28.576 -14.956   5.859  1.00  0.00    -0.340 OA
ATOM     26  H5  UNL     1      28.551 -15.559   6.593  1.00  0.00     0.220 HD
ENDBRANCH  21  25
ENDBRANCH  16  17
ENDBRANCH  14  15
ENDBRANCH  12  13
BRANCH   7  27
HETATM   27  O1  UNL     1      24.177 -13.899  -4.259  1.00  0.00    -0.396 OA
ATOM     28  H1  UNL     1      23.299 -13.551  -4.165  1.00  0.00     0.210 HD
ENDBRANCH   7  27
TORSDOF 6
ENDMDL
