MODEL 1
REMARK VINA RESULT: -6.911998111      0.000      0.000
REMARK  7 active torsions:
REMARK  status: ('A' for Active; 'I' for Inactive)
REMARK    1  A    between atoms: C4_5  and  C5_6 
REMARK    2  A    between atoms: C5_6  and  C20_23 
REMARK    3  A    between atoms: C6_7  and  C7_8 
REMARK    4  A    between atoms: C7_8  and  C8_9 
REMARK    5  A    between atoms: C16_17  and  O2_18 
REMARK    6  A    between atoms: C20_23  and  O3_24 
REMARK    7  A    between atoms: C21_26  and  O4_27 
ROOT
HETATM    1  C8  UNL     1      24.602 -15.382  -1.524  1.00  0.00     0.061 C 
HETATM    2  C9  UNL     1      24.410 -14.426  -2.683  1.00  0.00     0.018 C 
HETATM    3  C10 UNL     1      25.771 -14.245  -3.276  1.00  0.00     0.011 C 
HETATM    4  C11 UNL     1      26.614 -14.174  -1.994  1.00  0.00    -0.030 C 
HETATM    5  C12 UNL     1      26.213 -12.852  -1.332  1.00  0.00     0.016 C 
HETATM    6  C13 UNL     1      26.040 -15.267  -1.205  1.00  0.00     0.010 C 
HETATM    7  C14 UNL     1      26.687 -16.608  -1.524  1.00  0.00     0.009 C 
HETATM    8  C15 UNL     1      28.130 -16.432  -1.095  1.00  0.00     0.033 C 
HETATM    9  C16 UNL     1      28.841 -15.376  -1.876  1.00  0.00     0.126 C 
HETATM   10  C17 UNL     1      28.038 -14.215  -2.308  1.00  0.00    -0.014 C 
HETATM   11  C18 UNL     1      28.213 -14.054  -3.827  1.00  0.00     0.018 C 
HETATM   12  C19 UNL     1      28.701 -12.946  -1.739  1.00  0.00     0.018 C 
ENDROOT
BRANCH   1  13
HETATM   13  C7  UNL     1      23.630 -16.068  -1.037  1.00  0.00    -0.150 C 
BRANCH  13  14
HETATM   14  C6  UNL     1      22.606 -16.792  -0.525  1.00  0.00     0.063 C 
HETATM   15  C5  UNL     1      22.650 -18.106  -0.220  1.00  0.00     0.009 C 
BRANCH  15  16
HETATM   16  C4  UNL     1      21.440 -18.735   0.333  1.00  0.00     0.117 A 
HETATM   17  O1  UNL     1      21.119 -18.762   1.622  1.00  0.00    -0.319 OA
HETATM   18  C3  UNL     1      19.988 -19.389   1.795  1.00  0.00     0.152 A 
HETATM   19  C2  UNL     1      19.524 -19.804   0.588  1.00  0.00    -0.004 A 
HETATM   20  C1  UNL     1      18.269 -20.558   0.316  1.00  0.00     0.053 C 
HETATM   21  C21 UNL     1      20.469 -19.376  -0.355  1.00  0.00     0.107 A 
BRANCH  21  22
HETATM   22  O4  UNL     1      20.325 -19.620  -1.693  1.00  0.00    -0.357 OA
ATOM     23  H4  UNL     1      19.859 -20.380  -2.021  1.00  0.00     0.217 HD
ENDBRANCH  21  22
ENDBRANCH  15  16
BRANCH  15  24
HETATM   24  C20 UNL     1      23.835 -18.923  -0.437  1.00  0.00     0.206 C 
BRANCH  24  25
HETATM   25  O3  UNL     1      24.887 -18.548   0.421  1.00  0.00    -0.396 OA
ATOM     26  H3  UNL     1      25.256 -19.299   0.871  1.00  0.00     0.209 HD
ENDBRANCH  24  25
ENDBRANCH  15  24
ENDBRANCH  13  14
ENDBRANCH   1  13
BRANCH   9  27
HETATM   27  O2  UNL     1      29.956 -14.983  -1.101  1.00  0.00    -0.395 OA
ATOM     28  H2  UNL     1      30.404 -14.306  -1.595  1.00  0.00     0.210 HD
ENDBRANCH   9  27
TORSDOF 7
ENDMDL
MODEL 2
REMARK VINA RESULT: -6.834324264      1.492      2.909
REMARK  7 active torsions:
REMARK  status: ('A' for Active; 'I' for Inactive)
REMARK    1  A    between atoms: C4_5  and  C5_6 
REMARK    2  A    between atoms: C5_6  and  C20_23 
REMARK    3  A    between atoms: C6_7  and  C7_8 
REMARK    4  A    between atoms: C7_8  and  C8_9 
REMARK    5  A    between atoms: C16_17  and  O2_18 
REMARK    6  A    between atoms: C20_23  and  O3_24 
REMARK    7  A    between atoms: C21_26  and  O4_27 
ROOT
HETATM    1  C8  UNL     1      25.837 -17.202  -0.532  1.00  0.00     0.061 C 
HETATM    2  C9  UNL     1      26.956 -17.356   0.476  1.00  0.00     0.018 C 
HETATM    3  C10 UNL     1      27.794 -16.127   0.328  1.00  0.00     0.011 C 
HETATM    4  C11 UNL     1      27.781 -15.977  -1.200  1.00  0.00    -0.030 C 
HETATM    5  C12 UNL     1      28.597 -17.165  -1.720  1.00  0.00     0.016 C 
HETATM    6  C13 UNL     1      26.371 -16.229  -1.508  1.00  0.00     0.010 C 
HETATM    7  C14 UNL     1      25.524 -14.967  -1.404  1.00  0.00     0.009 C 
HETATM    8  C15 UNL     1      26.082 -14.061  -2.483  1.00  0.00     0.033 C 
HETATM    9  C16 UNL     1      27.507 -13.685  -2.245  1.00  0.00     0.126 C 
HETATM   10  C17 UNL     1      28.363 -14.701  -1.601  1.00  0.00    -0.014 C 
HETATM   11  C18 UNL     1      29.026 -14.054  -0.373  1.00  0.00     0.018 C 
HETATM   12  C19 UNL     1      29.552 -14.978  -2.540  1.00  0.00     0.018 C 
ENDROOT
BRANCH   1  13
HETATM   13  C7  UNL     1      24.729 -17.846  -0.426  1.00  0.00    -0.150 C 
BRANCH  13  14
HETATM   14  C6  UNL     1      23.562 -18.523  -0.314  1.00  0.00     0.063 C 
HETATM   15  C5  UNL     1      22.328 -17.981  -0.408  1.00  0.00     0.009 C 
BRANCH  15  16
HETATM   16  C4  UNL     1      21.163 -18.869  -0.263  1.00  0.00     0.117 A 
HETATM   17  O1  UNL     1      20.512 -19.436  -1.272  1.00  0.00    -0.319 OA
HETATM   18  C3  UNL     1      19.528 -20.167  -0.823  1.00  0.00     0.152 A 
HETATM   19  C2  UNL     1      19.508 -20.095   0.533  1.00  0.00    -0.004 A 
HETATM   20  C1  UNL     1      18.555 -20.770   1.457  1.00  0.00     0.053 C 
HETATM   21  C21 UNL     1      20.570 -19.252   0.889  1.00  0.00     0.107 A 
BRANCH  21  22
HETATM   22  O4  UNL     1      20.855 -18.950   2.192  1.00  0.00    -0.357 OA
ATOM     23  H4  UNL     1      21.443 -18.244   2.430  1.00  0.00     0.217 HD
ENDBRANCH  21  22
ENDBRANCH  15  16
BRANCH  15  24
HETATM   24  C20 UNL     1      22.111 -16.559  -0.622  1.00  0.00     0.206 C 
BRANCH  24  25
HETATM   25  O3  UNL     1      20.919 -16.317  -1.333  1.00  0.00    -0.396 OA
ATOM     26  H3  UNL     1      20.568 -15.456  -1.146  1.00  0.00     0.209 HD
ENDBRANCH  24  25
ENDBRANCH  15  24
ENDBRANCH  13  14
ENDBRANCH   1  13
BRANCH   9  27
HETATM   27  O2  UNL     1      28.029 -13.274  -3.492  1.00  0.00    -0.395 OA
ATOM     28  H2  UNL     1      28.757 -13.853  -3.685  1.00  0.00     0.210 HD
ENDBRANCH   9  27
TORSDOF 7
ENDMDL
MODEL 3
REMARK VINA RESULT: -6.737530276      4.883      8.046
REMARK  7 active torsions:
REMARK  status: ('A' for Active; 'I' for Inactive)
REMARK    1  A    between atoms: C4_5  and  C5_6 
REMARK    2  A    between atoms: C5_6  and  C20_23 
REMARK    3  A    between atoms: C6_7  and  C7_8 
REMARK    4  A    between atoms: C7_8  and  C8_9 
REMARK    5  A    between atoms: C16_17  and  O2_18 
REMARK    6  A    between atoms: C20_23  and  O3_24 
REMARK    7  A    between atoms: C21_26  and  O4_27 
ROOT
HETATM    1  C8  UNL     1      27.189 -14.301   0.308  1.00  0.00     0.061 C 
HETATM    2  C9  UNL     1      27.365 -15.672  -0.311  1.00  0.00     0.018 C 
HETATM    3  C10 UNL     1      27.407 -15.438  -1.788  1.00  0.00     0.011 C 
HETATM    4  C11 UNL     1      26.314 -14.366  -1.919  1.00  0.00    -0.030 C 
HETATM    5  C12 UNL     1      25.005 -15.096  -1.598  1.00  0.00     0.016 C 
HETATM    6  C13 UNL     1      26.628 -13.487  -0.790  1.00  0.00     0.010 C 
HETATM    7  C14 UNL     1      27.667 -12.434  -1.153  1.00  0.00     0.009 C 
HETATM    8  C15 UNL     1      26.986 -11.599  -2.219  1.00  0.00     0.033 C 
HETATM    9  C16 UNL     1      26.667 -12.380  -3.451  1.00  0.00     0.126 C 
HETATM   10  C17 UNL     1      26.304 -13.798  -3.262  1.00  0.00    -0.014 C 
HETATM   11  C18 UNL     1      27.217 -14.646  -4.163  1.00  0.00     0.018 C 
HETATM   12  C19 UNL     1      24.907 -14.012  -3.874  1.00  0.00     0.018 C 
ENDROOT
BRANCH   1  13
HETATM   13  C7  UNL     1      27.503 -14.060   1.531  1.00  0.00    -0.150 C 
BRANCH  13  14
HETATM   14  C6  UNL     1      27.832 -13.806   2.819  1.00  0.00     0.063 C 
HETATM   15  C5  UNL     1      29.044 -13.401   3.254  1.00  0.00     0.009 C 
BRANCH  15  16
HETATM   16  C4  UNL     1      29.227 -13.169   4.696  1.00  0.00     0.117 A 
HETATM   17  O1  UNL     1      28.624 -12.212   5.393  1.00  0.00    -0.319 OA
HETATM   18  C3  UNL     1      28.988 -12.265   6.645  1.00  0.00     0.152 A 
HETATM   19  C2  UNL     1      29.867 -13.288   6.807  1.00  0.00    -0.004 A 
HETATM   20  C1  UNL     1      30.537 -13.709   8.068  1.00  0.00     0.053 C 
HETATM   21  C21 UNL     1      30.017 -13.869   5.540  1.00  0.00     0.107 A 
BRANCH  21  22
HETATM   22  O4  UNL     1      30.837 -14.942   5.323  1.00  0.00    -0.357 OA
ATOM     23  H4  UNL     1      31.577 -14.901   4.730  1.00  0.00     0.217 HD
ENDBRANCH  21  22
ENDBRANCH  15  16
BRANCH  15  24
HETATM   24  C20 UNL     1      30.175 -13.208   2.359  1.00  0.00     0.206 C 
BRANCH  24  25
HETATM   25  O3  UNL     1      30.970 -14.368   2.270  1.00  0.00    -0.396 OA
ATOM     26  H3  UNL     1      31.895 -14.157   2.250  1.00  0.00     0.209 HD
ENDBRANCH  24  25
ENDBRANCH  15  24
ENDBRANCH  13  14
ENDBRANCH   1  13
BRANCH   9  27
HETATM   27  O2  UNL     1      25.654 -11.666  -4.130  1.00  0.00    -0.395 OA
ATOM     28  H2  UNL     1      25.507 -12.119  -4.952  1.00  0.00     0.210 HD
ENDBRANCH   9  27
TORSDOF 7
ENDMDL
MODEL 4
REMARK VINA RESULT: -6.636752730      1.429      2.589
REMARK  7 active torsions:
REMARK  status: ('A' for Active; 'I' for Inactive)
REMARK    1  A    between atoms: C4_5  and  C5_6 
REMARK    2  A    between atoms: C5_6  and  C20_23 
REMARK    3  A    between atoms: C6_7  and  C7_8 
REMARK    4  A    between atoms: C7_8  and  C8_9 
REMARK    5  A    between atoms: C16_17  and  O2_18 
REMARK    6  A    between atoms: C20_23  and  O3_24 
REMARK    7  A    between atoms: C21_26  and  O4_27 
ROOT
HETATM    1  C8  UNL     1      24.820 -15.433  -1.237  1.00  0.00     0.061 C 
HETATM    2  C9  UNL     1      25.745 -15.001  -0.119  1.00  0.00     0.018 C 
HETATM    3  C10 UNL     1      26.501 -13.830  -0.659  1.00  0.00     0.011 C 
HETATM    4  C11 UNL     1      26.755 -14.315  -2.094  1.00  0.00    -0.030 C 
HETATM    5  C12 UNL     1      27.740 -15.479  -1.948  1.00  0.00     0.016 C 
HETATM    6  C13 UNL     1      25.448 -14.871  -2.452  1.00  0.00     0.010 C 
HETATM    7  C14 UNL     1      24.503 -13.812  -3.005  1.00  0.00     0.009 C 
HETATM    8  C15 UNL     1      25.178 -13.350  -4.281  1.00  0.00     0.033 C 
HETATM    9  C16 UNL     1      26.503 -12.707  -4.036  1.00  0.00     0.126 C 
HETATM   10  C17 UNL     1      27.302 -13.240  -2.915  1.00  0.00    -0.014 C 
HETATM   11  C18 UNL     1      27.679 -12.063  -1.999  1.00  0.00     0.018 C 
HETATM   12  C19 UNL     1      28.660 -13.698  -3.479  1.00  0.00     0.018 C 
ENDROOT
BRANCH   1  13
HETATM   13  C7  UNL     1      23.763 -16.131  -1.018  1.00  0.00    -0.150 C 
BRANCH  13  14
HETATM   14  C6  UNL     1      22.651 -16.869  -0.787  1.00  0.00     0.063 C 
HETATM   15  C5  UNL     1      22.631 -18.183  -0.478  1.00  0.00     0.009 C 
BRANCH  15  16
HETATM   16  C4  UNL     1      21.327 -18.828  -0.257  1.00  0.00     0.117 A 
HETATM   17  O1  UNL     1      20.543 -19.305  -1.218  1.00  0.00    -0.319 OA
HETATM   18  C3  UNL     1      19.458 -19.818  -0.705  1.00  0.00     0.152 A 
HETATM   19  C2  UNL     1      19.502 -19.685   0.646  1.00  0.00    -0.004 A 
HETATM   20  C1  UNL     1      18.475 -20.128   1.629  1.00  0.00     0.053 C 
HETATM   21  C21 UNL     1      20.716 -19.043   0.929  1.00  0.00     0.107 A 
BRANCH  21  22
HETATM   22  O4  UNL     1      21.101 -18.745   2.207  1.00  0.00    -0.357 OA
ATOM     23  H4  UNL     1      20.812 -19.254   2.954  1.00  0.00     0.217 HD
ENDBRANCH  21  22
ENDBRANCH  15  16
BRANCH  15  24
HETATM   24  C20 UNL     1      23.842 -18.984  -0.378  1.00  0.00     0.206 C 
BRANCH  24  25
HETATM   25  O3  UNL     1      24.777 -18.403   0.500  1.00  0.00    -0.396 OA
ATOM     26  H3  UNL     1      25.523 -18.047   0.031  1.00  0.00     0.209 HD
ENDBRANCH  24  25
ENDBRANCH  15  24
ENDBRANCH  13  14
ENDBRANCH   1  13
BRANCH   9  27
HETATM   27  O2  UNL     1      27.212 -12.765  -5.258  1.00  0.00    -0.395 OA
ATOM     28  H2  UNL     1      27.450 -13.675  -5.390  1.00  0.00     0.210 HD
ENDBRANCH   9  27
TORSDOF 7
ENDMDL
MODEL 5
REMARK VINA RESULT: -6.545963224      4.882      7.835
REMARK  7 active torsions:
REMARK  status: ('A' for Active; 'I' for Inactive)
REMARK    1  A    between atoms: C4_5  and  C5_6 
REMARK    2  A    between atoms: C5_6  and  C20_23 
REMARK    3  A    between atoms: C6_7  and  C7_8 
REMARK    4  A    between atoms: C7_8  and  C8_9 
REMARK    5  A    between atoms: C16_17  and  O2_18 
REMARK    6  A    between atoms: C20_23  and  O3_24 
REMARK    7  A    between atoms: C21_26  and  O4_27 
ROOT
HETATM    1  C8  UNL     1      27.176 -14.328   0.164  1.00  0.00     0.061 C 
HETATM    2  C9  UNL     1      27.278 -15.709  -0.449  1.00  0.00     0.018 C 
HETATM    3  C10 UNL     1      27.270 -15.488  -1.928  1.00  0.00     0.011 C 
HETATM    4  C11 UNL     1      26.211 -14.379  -2.026  1.00  0.00    -0.030 C 
HETATM    5  C12 UNL     1      24.892 -15.059  -1.647  1.00  0.00     0.016 C 
HETATM    6  C13 UNL     1      26.601 -13.502  -0.919  1.00  0.00     0.010 C 
HETATM    7  C14 UNL     1      27.661 -12.490  -1.332  1.00  0.00     0.009 C 
HETATM    8  C15 UNL     1      26.969 -11.639  -2.377  1.00  0.00     0.033 C 
HETATM    9  C16 UNL     1      26.574 -12.418  -3.589  1.00  0.00     0.126 C 
HETATM   10  C17 UNL     1      26.168 -13.821  -3.373  1.00  0.00    -0.014 C 
HETATM   11  C18 UNL     1      27.015 -14.708  -4.301  1.00  0.00     0.018 C 
HETATM   12  C19 UNL     1      24.741 -13.990  -3.927  1.00  0.00     0.018 C 
ENDROOT
BRANCH   1  13
HETATM   13  C7  UNL     1      27.546 -14.089   1.371  1.00  0.00    -0.150 C 
BRANCH  13  14
HETATM   14  C6  UNL     1      27.935 -13.835   2.643  1.00  0.00     0.063 C 
HETATM   15  C5  UNL     1      27.879 -12.633   3.256  1.00  0.00     0.009 C 
BRANCH  15  16
HETATM   16  C4  UNL     1      28.344 -12.538   4.649  1.00  0.00     0.117 A 
HETATM   17  O1  UNL     1      28.704 -11.411   5.254  1.00  0.00    -0.319 OA
HETATM   18  C3  UNL     1      29.064 -11.652   6.485  1.00  0.00     0.152 A 
HETATM   19  C2  UNL     1      28.948 -12.983   6.727  1.00  0.00    -0.004 A 
HETATM   20  C1  UNL     1      29.254 -13.698   7.997  1.00  0.00     0.053 C 
HETATM   21  C21 UNL     1      28.480 -13.551   5.533  1.00  0.00     0.107 A 
BRANCH  21  22
HETATM   22  O4  UNL     1      28.243 -14.892   5.409  1.00  0.00    -0.357 OA
ATOM     23  H4  UNL     1      28.895 -15.544   5.634  1.00  0.00     0.217 HD
ENDBRANCH  21  22
ENDBRANCH  15  16
BRANCH  15  24
HETATM   24  C20 UNL     1      27.400 -11.433   2.587  1.00  0.00     0.206 C 
BRANCH  24  25
HETATM   25  O3  UNL     1      28.389 -10.430   2.550  1.00  0.00    -0.396 OA
ATOM     26  H3  UNL     1      28.044  -9.611   2.216  1.00  0.00     0.209 HD
ENDBRANCH  24  25
ENDBRANCH  15  24
ENDBRANCH  13  14
ENDBRANCH   1  13
BRANCH   9  27
HETATM   27  O2  UNL     1      25.561 -11.673  -4.234  1.00  0.00    -0.395 OA
ATOM     28  H2  UNL     1      25.975 -10.888  -4.573  1.00  0.00     0.210 HD
ENDBRANCH   9  27
TORSDOF 7
ENDMDL
