MODEL 1
REMARK VINA RESULT: -6.917025071      0.000      0.000
REMARK  7 active torsions:
REMARK  status: ('A' for Active; 'I' for Inactive)
REMARK    1  A    between atoms: C2_2  and  O1_3 
REMARK    2  A    between atoms: O1_3  and  C3_4 
REMARK    3  A    between atoms: C4_5  and  O2_6 
REMARK    4  A    between atoms: C6_9  and  C7_10 
REMARK    5  A    between atoms: C7_10  and  C8_11 
REMARK    6  A    between atoms: C19_22  and  O3_23 
REMARK    7  A    between atoms: C21_26  and  O4_27 
ROOT
HETATM    1  C8  UNL     1      28.616 -13.768  -3.187  1.00  0.00     0.016 C 
HETATM    2  C9  UNL     1      28.086 -12.919  -2.103  1.00  0.00    -0.025 C 
HETATM    3  C10 UNL     1      26.819 -12.258  -1.970  1.00  0.00    -0.029 C 
HETATM    4  C11 UNL     1      26.299 -11.253  -3.014  1.00  0.00     0.038 C 
HETATM    5  C12 UNL     1      27.214 -11.579  -4.152  1.00  0.00    -0.015 C 
HETATM    6  C13 UNL     1      28.438 -10.894  -3.902  1.00  0.00     0.018 C 
HETATM    7  C14 UNL     1      26.817 -12.954  -4.363  1.00  0.00     0.017 C 
HETATM    8  C15 UNL     1      28.107 -13.723  -4.543  1.00  0.00    -0.002 C 
HETATM    9  C16 UNL     1      28.681 -12.987  -5.691  1.00  0.00    -0.012 C 
HETATM   10  C17 UNL     1      28.859 -14.037  -6.840  1.00  0.00     0.010 C 
HETATM   11  C18 UNL     1      27.912 -11.913  -6.356  1.00  0.00     0.037 C 
HETATM   12  C19 UNL     1      26.891 -11.073  -5.564  1.00  0.00     0.127 C 
ENDROOT
BRANCH   1  13
HETATM   13  C7  UNL     1      28.677 -15.207  -2.700  1.00  0.00     0.047 C 
BRANCH  13  14
HETATM   14  C6  UNL     1      27.510 -15.764  -2.048  1.00  0.00    -0.052 A 
HETATM   15  C5  UNL     1      26.186 -15.441  -2.271  1.00  0.00     0.046 A 
HETATM   16  C4  UNL     1      25.128 -16.025  -1.611  1.00  0.00     0.102 A 
HETATM   17  C3  UNL     1      25.344 -16.997  -0.660  1.00  0.00     0.135 A 
HETATM   18  C21 UNL     1      26.651 -17.352  -0.403  1.00  0.00     0.102 A 
HETATM   19  C20 UNL     1      27.696 -16.762  -1.069  1.00  0.00     0.046 A 
BRANCH  16  20
HETATM   20  O2  UNL     1      23.832 -15.617  -1.920  1.00  0.00    -0.358 OA
ATOM     21  H2  UNL     1      23.675 -15.024  -2.645  1.00  0.00     0.217 HD
ENDBRANCH  16  20
BRANCH  17  22
HETATM   22  O1  UNL     1      24.278 -17.598   0.019  1.00  0.00    -0.346 OA
BRANCH  22  23
HETATM   23  C2  UNL     1      23.492 -18.606  -0.590  1.00  0.00     0.171 C 
HETATM   24  C1  UNL     1      22.017 -18.380  -0.338  1.00  0.00     0.034 C 
ENDBRANCH  22  23
ENDBRANCH  17  22
BRANCH  18  25
HETATM   25  O4  UNL     1      26.858 -18.334   0.558  1.00  0.00    -0.358 OA
ATOM     26  H4  UNL     1      27.703 -18.340   0.993  1.00  0.00     0.217 HD
ENDBRANCH  18  25
ENDBRANCH  13  14
ENDBRANCH   1  13
BRANCH  12  27
HETATM   27  O3  UNL     1      25.595 -11.383  -5.921  1.00  0.00    -0.395 OA
ATOM     28  H3  UNL     1      25.393 -11.064  -6.793  1.00  0.00     0.210 HD
ENDBRANCH  12  27
TORSDOF 7
ENDMDL
MODEL 2
REMARK VINA RESULT: -6.866377039      2.183      3.582
REMARK  7 active torsions:
REMARK  status: ('A' for Active; 'I' for Inactive)
REMARK    1  A    between atoms: C2_2  and  O1_3 
REMARK    2  A    between atoms: O1_3  and  C3_4 
REMARK    3  A    between atoms: C4_5  and  O2_6 
REMARK    4  A    between atoms: C6_9  and  C7_10 
REMARK    5  A    between atoms: C7_10  and  C8_11 
REMARK    6  A    between atoms: C19_22  and  O3_23 
REMARK    7  A    between atoms: C21_26  and  O4_27 
ROOT
HETATM    1  C8  UNL     1      29.562 -15.894  -3.586  1.00  0.00     0.016 C 
HETATM    2  C9  UNL     1      30.831 -16.645  -3.609  1.00  0.00    -0.025 C 
HETATM    3  C10 UNL     1      32.153 -16.232  -3.989  1.00  0.00    -0.029 C 
HETATM    4  C11 UNL     1      32.468 -15.650  -5.379  1.00  0.00     0.038 C 
HETATM    5  C12 UNL     1      31.080 -15.326  -5.835  1.00  0.00    -0.015 C 
HETATM    6  C13 UNL     1      30.514 -16.539  -6.321  1.00  0.00     0.018 C 
HETATM    7  C14 UNL     1      30.739 -14.354  -4.818  1.00  0.00     0.017 C 
HETATM    8  C15 UNL     1      29.335 -14.704  -4.381  1.00  0.00    -0.002 C 
HETATM    9  C16 UNL     1      28.636 -14.615  -5.681  1.00  0.00    -0.012 C 
HETATM   10  C17 UNL     1      27.530 -13.519  -5.511  1.00  0.00     0.010 C 
HETATM   11  C18 UNL     1      29.353 -14.160  -6.891  1.00  0.00     0.037 C 
HETATM   12  C19 UNL     1      30.867 -14.410  -7.047  1.00  0.00     0.127 C 
ENDROOT
BRANCH   1  13
HETATM   13  C7  UNL     1      29.167 -15.639  -2.140  1.00  0.00     0.047 C 
BRANCH  13  14
HETATM   14  C6  UNL     1      27.825 -15.989  -1.719  1.00  0.00    -0.052 A 
HETATM   15  C5  UNL     1      26.638 -15.423  -2.139  1.00  0.00     0.046 A 
HETATM   16  C4  UNL     1      25.396 -15.820  -1.695  1.00  0.00     0.102 A 
HETATM   17  C3  UNL     1      25.272 -16.838  -0.776  1.00  0.00     0.135 A 
HETATM   18  C21 UNL     1      26.431 -17.432  -0.328  1.00  0.00     0.102 A 
HETATM   19  C20 UNL     1      27.663 -17.027  -0.780  1.00  0.00     0.046 A 
BRANCH  16  20
HETATM   20  O2  UNL     1      24.265 -15.175  -2.190  1.00  0.00    -0.358 OA
ATOM     21  H2  UNL     1      24.312 -14.668  -2.992  1.00  0.00     0.217 HD
ENDBRANCH  16  20
BRANCH  17  22
HETATM   22  O1  UNL     1      24.016 -17.251  -0.316  1.00  0.00    -0.346 OA
BRANCH  22  23
HETATM   23  C2  UNL     1      23.325 -18.327  -0.924  1.00  0.00     0.171 C 
HETATM   24  C1  UNL     1      21.929 -18.474  -0.359  1.00  0.00     0.034 C 
ENDBRANCH  22  23
ENDBRANCH  17  22
BRANCH  18  25
HETATM   25  O4  UNL     1      26.295 -18.459   0.599  1.00  0.00    -0.358 OA
ATOM     26  H4  UNL     1      26.793 -18.382   1.403  1.00  0.00     0.217 HD
ENDBRANCH  18  25
ENDBRANCH  13  14
ENDBRANCH   1  13
BRANCH  12  27
HETATM   27  O3  UNL     1      31.589 -13.241  -6.924  1.00  0.00    -0.395 OA
ATOM     28  H3  UNL     1      31.637 -12.778  -7.752  1.00  0.00     0.210 HD
ENDBRANCH  12  27
TORSDOF 7
ENDMDL
MODEL 3
REMARK VINA RESULT: -6.785081382      2.190      3.930
REMARK  7 active torsions:
REMARK  status: ('A' for Active; 'I' for Inactive)
REMARK    1  A    between atoms: C2_2  and  O1_3 
REMARK    2  A    between atoms: O1_3  and  C3_4 
REMARK    3  A    between atoms: C4_5  and  O2_6 
REMARK    4  A    between atoms: C6_9  and  C7_10 
REMARK    5  A    between atoms: C7_10  and  C8_11 
REMARK    6  A    between atoms: C19_22  and  O3_23 
REMARK    7  A    between atoms: C21_26  and  O4_27 
ROOT
HETATM    1  C8  UNL     1      29.580 -15.842  -3.555  1.00  0.00     0.016 C 
HETATM    2  C9  UNL     1      30.844 -16.601  -3.574  1.00  0.00    -0.025 C 
HETATM    3  C10 UNL     1      32.165 -16.204  -3.975  1.00  0.00    -0.029 C 
HETATM    4  C11 UNL     1      32.470 -15.655  -5.380  1.00  0.00     0.038 C 
HETATM    5  C12 UNL     1      31.080 -15.333  -5.830  1.00  0.00    -0.015 C 
HETATM    6  C13 UNL     1      30.502 -16.553  -6.284  1.00  0.00     0.018 C 
HETATM    7  C14 UNL     1      30.754 -14.336  -4.833  1.00  0.00     0.017 C 
HETATM    8  C15 UNL     1      29.352 -14.668  -4.374  1.00  0.00    -0.002 C 
HETATM    9  C16 UNL     1      28.642 -14.603  -5.670  1.00  0.00    -0.012 C 
HETATM   10  C17 UNL     1      27.544 -13.498  -5.514  1.00  0.00     0.010 C 
HETATM   11  C18 UNL     1      29.350 -14.179  -6.896  1.00  0.00     0.037 C 
HETATM   12  C19 UNL     1      30.861 -14.443  -7.061  1.00  0.00     0.127 C 
ENDROOT
BRANCH   1  13
HETATM   13  C7  UNL     1      29.200 -15.552  -2.112  1.00  0.00     0.047 C 
BRANCH  13  14
HETATM   14  C6  UNL     1      27.919 -16.024  -1.628  1.00  0.00    -0.052 A 
HETATM   15  C5  UNL     1      27.684 -17.035  -0.717  1.00  0.00     0.046 A 
HETATM   16  C4  UNL     1      26.429 -17.422  -0.301  1.00  0.00     0.102 A 
HETATM   17  C3  UNL     1      25.305 -16.796  -0.790  1.00  0.00     0.135 A 
HETATM   18  C21 UNL     1      25.490 -15.781  -1.702  1.00  0.00     0.102 A 
HETATM   19  C20 UNL     1      26.747 -15.405  -2.109  1.00  0.00     0.046 A 
BRANCH  16  20
HETATM   20  O2  UNL     1      26.315 -18.457   0.624  1.00  0.00    -0.358 OA
ATOM     21  H2  UNL     1      27.091 -18.881   0.970  1.00  0.00     0.217 HD
ENDBRANCH  16  20
BRANCH  17  22
HETATM   22  O1  UNL     1      24.023 -17.180  -0.376  1.00  0.00    -0.346 OA
BRANCH  22  23
HETATM   23  C2  UNL     1      23.360 -18.286  -0.961  1.00  0.00     0.171 C 
HETATM   24  C1  UNL     1      21.976 -18.468  -0.379  1.00  0.00     0.034 C 
ENDBRANCH  22  23
ENDBRANCH  17  22
BRANCH  18  25
HETATM   25  O4  UNL     1      24.348 -15.156  -2.190  1.00  0.00    -0.358 OA
ATOM     26  H4  UNL     1      24.424 -14.711  -3.025  1.00  0.00     0.217 HD
ENDBRANCH  18  25
ENDBRANCH  13  14
ENDBRANCH   1  13
BRANCH  12  27
HETATM   27  O3  UNL     1      31.591 -13.276  -6.970  1.00  0.00    -0.395 OA
ATOM     28  H3  UNL     1      31.094 -12.593  -6.533  1.00  0.00     0.210 HD
ENDBRANCH  12  27
TORSDOF 7
ENDMDL
MODEL 4
REMARK VINA RESULT: -6.756609099      2.164      6.792
REMARK  7 active torsions:
REMARK  status: ('A' for Active; 'I' for Inactive)
REMARK    1  A    between atoms: C2_2  and  O1_3 
REMARK    2  A    between atoms: O1_3  and  C3_4 
REMARK    3  A    between atoms: C4_5  and  O2_6 
REMARK    4  A    between atoms: C6_9  and  C7_10 
REMARK    5  A    between atoms: C7_10  and  C8_11 
REMARK    6  A    between atoms: C19_22  and  O3_23 
REMARK    7  A    between atoms: C21_26  and  O4_27 
ROOT
HETATM    1  C8  UNL     1      25.863 -13.562  -2.318  1.00  0.00     0.016 C 
HETATM    2  C9  UNL     1      26.800 -12.493  -1.925  1.00  0.00    -0.025 C 
HETATM    3  C10 UNL     1      28.210 -12.541  -1.655  1.00  0.00    -0.029 C 
HETATM    4  C11 UNL     1      28.814 -13.468  -0.585  1.00  0.00     0.038 C 
HETATM    5  C12 UNL     1      27.660 -14.398  -0.378  1.00  0.00    -0.015 C 
HETATM    6  C13 UNL     1      26.757 -13.740   0.506  1.00  0.00     0.018 C 
HETATM    7  C14 UNL     1      27.588 -14.954  -1.712  1.00  0.00     0.017 C 
HETATM    8  C15 UNL     1      26.118 -14.967  -2.065  1.00  0.00    -0.002 C 
HETATM    9  C16 UNL     1      25.597 -15.785  -0.949  1.00  0.00    -0.012 C 
HETATM   10  C17 UNL     1      24.919 -17.036  -1.601  1.00  0.00     0.010 C 
HETATM   11  C18 UNL     1      26.521 -16.397   0.030  1.00  0.00     0.037 C 
HETATM   12  C19 UNL     1      27.867 -15.723   0.366  1.00  0.00     0.127 C 
ENDROOT
BRANCH   1  13
HETATM   13  C7  UNL     1      25.464 -13.358  -3.771  1.00  0.00     0.047 C 
BRANCH  13  14
HETATM   14  C6  UNL     1      26.513 -13.216  -4.760  1.00  0.00    -0.052 A 
HETATM   15  C5  UNL     1      26.915 -12.061  -5.399  1.00  0.00     0.046 A 
HETATM   16  C4  UNL     1      27.932 -12.007  -6.328  1.00  0.00     0.102 A 
HETATM   17  C3  UNL     1      28.622 -13.146  -6.678  1.00  0.00     0.135 A 
HETATM   18  C21 UNL     1      28.254 -14.324  -6.065  1.00  0.00     0.102 A 
HETATM   19  C20 UNL     1      27.239 -14.363  -5.141  1.00  0.00     0.046 A 
BRANCH  16  20
HETATM   20  O2  UNL     1      28.251 -10.783  -6.909  1.00  0.00    -0.358 OA
ATOM     21  H2  UNL     1      27.582 -10.267  -7.343  1.00  0.00     0.217 HD
ENDBRANCH  16  20
BRANCH  17  22
HETATM   22  O1  UNL     1      29.657 -13.106  -7.620  1.00  0.00    -0.346 OA
BRANCH  22  23
HETATM   23  C2  UNL     1      30.983 -12.782  -7.245  1.00  0.00     0.171 C 
HETATM   24  C1  UNL     1      31.922 -13.943  -7.486  1.00  0.00     0.034 C 
ENDBRANCH  22  23
ENDBRANCH  17  22
BRANCH  18  25
HETATM   25  O4  UNL     1      28.958 -15.467  -6.425  1.00  0.00    -0.358 OA
ATOM     26  H4  UNL     1      28.776 -16.258  -5.932  1.00  0.00     0.217 HD
ENDBRANCH  18  25
ENDBRANCH  13  14
ENDBRANCH   1  13
BRANCH  12  27
HETATM   27  O3  UNL     1      28.931 -16.429  -0.159  1.00  0.00    -0.395 OA
ATOM     28  H3  UNL     1      29.524 -16.717   0.526  1.00  0.00     0.210 HD
ENDBRANCH  12  27
TORSDOF 7
ENDMDL
MODEL 5
REMARK VINA RESULT: -6.749222187      1.455      3.256
REMARK  7 active torsions:
REMARK  status: ('A' for Active; 'I' for Inactive)
REMARK    1  A    between atoms: C2_2  and  O1_3 
REMARK    2  A    between atoms: O1_3  and  C3_4 
REMARK    3  A    between atoms: C4_5  and  O2_6 
REMARK    4  A    between atoms: C6_9  and  C7_10 
REMARK    5  A    between atoms: C7_10  and  C8_11 
REMARK    6  A    between atoms: C19_22  and  O3_23 
REMARK    7  A    between atoms: C21_26  and  O4_27 
ROOT
HETATM    1  C8  UNL     1      28.866 -14.932  -4.080  1.00  0.00     0.016 C 
HETATM    2  C9  UNL     1      29.986 -15.616  -4.752  1.00  0.00    -0.025 C 
HETATM    3  C10 UNL     1      31.186 -15.089  -5.338  1.00  0.00    -0.029 C 
HETATM    4  C11 UNL     1      31.162 -14.028  -6.453  1.00  0.00     0.038 C 
HETATM    5  C12 UNL     1      29.747 -13.559  -6.322  1.00  0.00    -0.015 C 
HETATM    6  C13 UNL     1      28.936 -14.503  -7.015  1.00  0.00     0.018 C 
HETATM    7  C14 UNL     1      29.815 -13.039  -4.973  1.00  0.00     0.017 C 
HETATM    8  C15 UNL     1      28.560 -13.531  -4.288  1.00  0.00    -0.002 C 
HETATM    9  C16 UNL     1      27.538 -12.962  -5.195  1.00  0.00    -0.012 C 
HETATM   10  C17 UNL     1      26.654 -12.012  -4.319  1.00  0.00     0.010 C 
HETATM   11  C18 UNL     1      27.934 -12.085  -6.317  1.00  0.00     0.037 C 
HETATM   12  C19 UNL     1      29.306 -12.256  -7.001  1.00  0.00     0.127 C 
ENDROOT
BRANCH   1  13
HETATM   13  C7  UNL     1      28.923 -15.237  -2.591  1.00  0.00     0.047 C 
BRANCH  13  14
HETATM   14  C6  UNL     1      27.748 -15.799  -1.958  1.00  0.00    -0.052 A 
HETATM   15  C5  UNL     1      27.701 -16.805  -1.013  1.00  0.00     0.046 A 
HETATM   16  C4  UNL     1      26.536 -17.281  -0.451  1.00  0.00     0.102 A 
HETATM   17  C3  UNL     1      25.317 -16.757  -0.815  1.00  0.00     0.135 A 
HETATM   18  C21 UNL     1      25.315 -15.750  -1.756  1.00  0.00     0.102 A 
HETATM   19  C20 UNL     1      26.482 -15.285  -2.308  1.00  0.00     0.046 A 
BRANCH  16  20
HETATM   20  O2  UNL     1      26.612 -18.301   0.494  1.00  0.00    -0.358 OA
ATOM     21  H2  UNL     1      26.644 -18.097   1.422  1.00  0.00     0.217 HD
ENDBRANCH  16  20
BRANCH  17  22
HETATM   22  O1  UNL     1      24.126 -17.231  -0.252  1.00  0.00    -0.346 OA
BRANCH  22  23
HETATM   23  C2  UNL     1      23.412 -18.306  -0.836  1.00  0.00     0.171 C 
HETATM   24  C1  UNL     1      22.027 -18.434  -0.240  1.00  0.00     0.034 C 
ENDBRANCH  22  23
ENDBRANCH  17  22
BRANCH  18  25
HETATM   25  O4  UNL     1      24.078 -15.228  -2.116  1.00  0.00    -0.358 OA
ATOM     26  H4  UNL     1      23.962 -14.986  -3.027  1.00  0.00     0.217 HD
ENDBRANCH  18  25
ENDBRANCH  13  14
ENDBRANCH   1  13
BRANCH  12  27
HETATM   27  O3  UNL     1      30.159 -11.217  -6.691  1.00  0.00    -0.395 OA
ATOM     28  H3  UNL     1      29.687 -10.396  -6.615  1.00  0.00     0.210 HD
ENDBRANCH  12  27
TORSDOF 7
ENDMDL
