MODEL 1
REMARK VINA RESULT: -6.998758776      0.000      0.000
REMARK  6 active torsions:
REMARK  status: ('A' for Active; 'I' for Inactive)
REMARK    1  A    between atoms: C2_2  and  C4_4 
REMARK    2  A    between atoms: C4_4  and  C6_6 
REMARK    3  A    between atoms: C6_6  and  O1_7 
REMARK    4  A    between atoms: C6_6  and  O2_9 
REMARK    5  A    between atoms: O2_9  and  C7_10 
REMARK    6  A    between atoms: C11_14  and  O3_15 
ROOT
HETATM    1  C7  UNL     1      27.990 -15.336  -2.105  1.00  0.00     0.170 C 
HETATM    2  C8  UNL     1      26.708 -14.745  -2.586  1.00  0.00     0.043 C 
HETATM    3  C9  UNL     1      27.080 -13.911  -3.764  1.00  0.00     0.001 C 
HETATM    4  C10 UNL     1      27.127 -12.432  -3.450  1.00  0.00     0.042 C 
HETATM    5  C11 UNL     1      26.173 -11.627  -4.230  1.00  0.00     0.147 C 
HETATM    6  C12 UNL     1      26.762 -10.426  -4.898  1.00  0.00    -0.059 C 
HETATM    7  C13 UNL     1      26.488  -9.140  -4.138  1.00  0.00     0.046 C 
HETATM    8  C14 UNL     1      27.451 -10.407  -6.005  1.00  0.00    -0.021 C 
HETATM    9  C15 UNL     1      27.842 -11.527  -6.897  1.00  0.00     0.032 C 
HETATM   10  C16 UNL     1      29.268 -11.874  -6.583  1.00  0.00     0.037 C 
HETATM   11  C17 UNL     1      29.732 -13.199  -7.002  1.00  0.00    -0.087 C 
HETATM   12  C18 UNL     1      30.878 -13.163  -8.014  1.00  0.00     0.043 C 
HETATM   13  C19 UNL     1      29.320 -14.380  -6.650  1.00  0.00    -0.024 C 
HETATM   14  C20 UNL     1      28.261 -14.793  -5.724  1.00  0.00     0.038 C 
HETATM   15  C21 UNL     1      28.417 -14.383  -4.299  1.00  0.00     0.041 C 
HETATM   16  C22 UNL     1      28.718 -15.547  -3.391  1.00  0.00     0.014 C 
HETATM   17  N1  UNL     1      29.457 -16.555  -3.635  1.00  0.00    -0.403 N 
ATOM     18  H11 UNL     1      29.955 -16.700  -4.514  1.00  0.00     0.155 HD
ATOM     19  H12 UNL     1      29.660 -17.343  -3.020  1.00  0.00     0.155 HD
ENDROOT
BRANCH   1  20
HETATM   20  O2  UNL     1      27.740 -16.536  -1.484  1.00  0.00    -0.346 OA
BRANCH  20  21
HETATM   21  C6  UNL     1      26.995 -16.320  -0.341  1.00  0.00     0.292 C 
BRANCH  21  22
HETATM   22  C4  UNL     1      25.975 -17.397  -0.150  1.00  0.00    -0.008 C 
HETATM   23  C5  UNL     1      26.381 -18.500   0.462  1.00  0.00     0.024 C 
BRANCH  22  24
HETATM   24  C2  UNL     1      24.606 -17.273  -0.601  1.00  0.00    -0.061 C 
HETATM   25  C1  UNL     1      24.128 -16.123  -0.996  1.00  0.00     0.019 C 
HETATM   26  C3  UNL     1      23.747 -18.484  -0.610  1.00  0.00     0.048 C 
ENDBRANCH  22  24
ENDBRANCH  21  22
BRANCH  21  27
HETATM   27  O1  UNL     1      27.821 -16.262   0.782  1.00  0.00    -0.367 OA
ATOM     28  H1  UNL     1      27.323 -16.510   1.552  1.00  0.00     0.213 HD
ENDBRANCH  21  27
ENDBRANCH  20  21
ENDBRANCH   1  20
BRANCH   5  29
HETATM   29  O3  UNL     1      25.488 -12.414  -5.166  1.00  0.00    -0.391 OA
ATOM     30  H3  UNL     1      25.253 -11.910  -5.936  1.00  0.00     0.210 HD
ENDBRANCH   5  29
TORSDOF 6
ENDMDL
MODEL 2
REMARK VINA RESULT: -6.795675172      4.306      6.706
REMARK  6 active torsions:
REMARK  status: ('A' for Active; 'I' for Inactive)
REMARK    1  A    between atoms: C2_2  and  C4_4 
REMARK    2  A    between atoms: C4_4  and  C6_6 
REMARK    3  A    between atoms: C6_6  and  O1_7 
REMARK    4  A    between atoms: C6_6  and  O2_9 
REMARK    5  A    between atoms: O2_9  and  C7_10 
REMARK    6  A    between atoms: C11_14  and  O3_15 
ROOT
HETATM    1  C7  UNL     1      26.973 -14.521  -0.509  1.00  0.00     0.170 C 
HETATM    2  C8  UNL     1      26.563 -13.637   0.620  1.00  0.00     0.043 C 
HETATM    3  C9  UNL     1      27.833 -13.261   1.304  1.00  0.00     0.001 C 
HETATM    4  C10 UNL     1      28.069 -14.035   2.582  1.00  0.00     0.042 C 
HETATM    5  C11 UNL     1      28.145 -13.190   3.784  1.00  0.00     0.147 C 
HETATM    6  C12 UNL     1      29.330 -13.445   4.659  1.00  0.00    -0.059 C 
HETATM    7  C13 UNL     1      28.994 -14.300   5.867  1.00  0.00     0.046 C 
HETATM    8  C14 UNL     1      30.548 -13.019   4.467  1.00  0.00    -0.021 C 
HETATM    9  C15 UNL     1      31.099 -12.188   3.367  1.00  0.00     0.032 C 
HETATM   10  C16 UNL     1      31.788 -13.114   2.408  1.00  0.00     0.037 C 
HETATM   11  C17 UNL     1      32.021 -12.606   1.053  1.00  0.00    -0.087 C 
HETATM   12  C18 UNL     1      33.498 -12.517   0.669  1.00  0.00     0.043 C 
HETATM   13  C19 UNL     1      31.173 -12.223   0.146  1.00  0.00    -0.024 C 
HETATM   14  C20 UNL     1      29.707 -12.167   0.161  1.00  0.00     0.038 C 
HETATM   15  C21 UNL     1      28.987 -13.460   0.341  1.00  0.00     0.041 C 
HETATM   16  C22 UNL     1      28.272 -13.904  -0.908  1.00  0.00     0.014 C 
HETATM   17  N1  UNL     1      28.667 -13.793  -2.114  1.00  0.00    -0.403 N 
ATOM     18  H11 UNL     1      29.556 -13.371  -2.387  1.00  0.00     0.155 HD
ATOM     19  H12 UNL     1      28.183 -14.093  -2.960  1.00  0.00     0.155 HD
ENDROOT
BRANCH   1  20
HETATM   20  O2  UNL     1      26.055 -14.424  -1.526  1.00  0.00    -0.346 OA
BRANCH  20  21
HETATM   21  C6  UNL     1      25.750 -15.688  -1.997  1.00  0.00     0.292 C 
BRANCH  21  22
HETATM   22  C4  UNL     1      24.701 -16.339  -1.153  1.00  0.00    -0.008 C 
HETATM   23  C5  UNL     1      23.555 -15.686  -1.018  1.00  0.00     0.024 C 
BRANCH  22  24
HETATM   24  C2  UNL     1      24.897 -17.616  -0.501  1.00  0.00    -0.061 C 
HETATM   25  C1  UNL     1      23.911 -18.462  -0.367  1.00  0.00     0.019 C 
HETATM   26  C3  UNL     1      26.247 -17.951   0.016  1.00  0.00     0.048 C 
ENDBRANCH  22  24
ENDBRANCH  21  22
BRANCH  21  27
HETATM   27  O1  UNL     1      25.307 -15.627  -3.319  1.00  0.00    -0.367 OA
ATOM     28  H1  UNL     1      25.783 -16.263  -3.840  1.00  0.00     0.213 HD
ENDBRANCH  21  27
ENDBRANCH  20  21
ENDBRANCH   1  20
BRANCH   5  29
HETATM   29  O3  UNL     1      28.068 -11.829   3.457  1.00  0.00    -0.391 OA
ATOM     30  H3  UNL     1      27.751 -11.314   4.189  1.00  0.00     0.210 HD
ENDBRANCH   5  29
TORSDOF 6
ENDMDL
MODEL 3
REMARK VINA RESULT: -6.693763315      3.240      5.461
REMARK  6 active torsions:
REMARK  status: ('A' for Active; 'I' for Inactive)
REMARK    1  A    between atoms: C2_2  and  C4_4 
REMARK    2  A    between atoms: C4_4  and  C6_6 
REMARK    3  A    between atoms: C6_6  and  O1_7 
REMARK    4  A    between atoms: C6_6  and  O2_9 
REMARK    5  A    between atoms: O2_9  and  C7_10 
REMARK    6  A    between atoms: C11_14  and  O3_15 
ROOT
HETATM    1  C7  UNL     1      27.367 -14.756  -1.330  1.00  0.00     0.170 C 
HETATM    2  C8  UNL     1      27.488 -15.638  -2.526  1.00  0.00     0.043 C 
HETATM    3  C9  UNL     1      28.932 -16.003  -2.598  1.00  0.00     0.001 C 
HETATM    4  C10 UNL     1      29.688 -15.224  -3.651  1.00  0.00     0.042 C 
HETATM    5  C11 UNL     1      30.278 -16.064  -4.704  1.00  0.00     0.147 C 
HETATM    6  C12 UNL     1      31.722 -15.798  -4.986  1.00  0.00    -0.059 C 
HETATM    7  C13 UNL     1      31.931 -14.940  -6.221  1.00  0.00     0.046 C 
HETATM    8  C14 UNL     1      32.743 -16.216  -4.290  1.00  0.00    -0.021 C 
HETATM    9  C15 UNL     1      32.775 -17.047  -3.060  1.00  0.00     0.032 C 
HETATM   10  C16 UNL     1      32.978 -16.120  -1.898  1.00  0.00     0.037 C 
HETATM   11  C17 UNL     1      32.611 -16.631  -0.575  1.00  0.00    -0.087 C 
HETATM   12  C18 UNL     1      33.781 -16.711   0.406  1.00  0.00     0.043 C 
HETATM   13  C19 UNL     1      31.459 -17.022  -0.119  1.00  0.00    -0.024 C 
HETATM   14  C20 UNL     1      30.143 -17.088  -0.762  1.00  0.00     0.038 C 
HETATM   15  C21 UNL     1      29.559 -15.800  -1.234  1.00  0.00     0.041 C 
HETATM   16  C22 UNL     1      28.374 -15.365  -0.412  1.00  0.00     0.014 C 
HETATM   17  N1  UNL     1      28.215 -15.478   0.847  1.00  0.00    -0.403 N 
ATOM     18  H11 UNL     1      28.903 -15.894   1.475  1.00  0.00     0.155 HD
ATOM     19  H12 UNL     1      27.412 -15.184   1.403  1.00  0.00     0.155 HD
ENDROOT
BRANCH   1  20
HETATM   20  O2  UNL     1      26.102 -14.862  -0.805  1.00  0.00    -0.346 OA
BRANCH  20  21
HETATM   21  C6  UNL     1      25.294 -15.561  -1.682  1.00  0.00     0.292 C 
BRANCH  21  22
HETATM   22  C4  UNL     1      24.299 -16.400  -0.945  1.00  0.00    -0.008 C 
HETATM   23  C5  UNL     1      23.105 -15.863  -0.736  1.00  0.00     0.024 C 
BRANCH  22  24
HETATM   24  C2  UNL     1      24.594 -17.734  -0.470  1.00  0.00    -0.061 C 
HETATM   25  C1  UNL     1      23.665 -18.650  -0.415  1.00  0.00     0.019 C 
HETATM   26  C3  UNL     1      25.981 -18.047  -0.044  1.00  0.00     0.048 C 
ENDBRANCH  22  24
ENDBRANCH  21  22
BRANCH  21  27
HETATM   27  O1  UNL     1      24.619 -14.685  -2.533  1.00  0.00    -0.367 OA
ATOM     28  H1  UNL     1      23.698 -14.918  -2.560  1.00  0.00     0.213 HD
ENDBRANCH  21  27
ENDBRANCH  20  21
ENDBRANCH   1  20
BRANCH   5  29
HETATM   29  O3  UNL     1      30.079 -17.426  -4.442  1.00  0.00    -0.391 OA
ATOM     30  H3  UNL     1      30.160 -17.615  -3.515  1.00  0.00     0.210 HD
ENDBRANCH   5  29
TORSDOF 6
ENDMDL
MODEL 4
REMARK VINA RESULT: -6.469271137      2.165      4.019
REMARK  6 active torsions:
REMARK  status: ('A' for Active; 'I' for Inactive)
REMARK    1  A    between atoms: C2_2  and  C4_4 
REMARK    2  A    between atoms: C4_4  and  C6_6 
REMARK    3  A    between atoms: C6_6  and  O1_7 
REMARK    4  A    between atoms: C6_6  and  O2_9 
REMARK    5  A    between atoms: O2_9  and  C7_10 
REMARK    6  A    between atoms: C11_14  and  O3_15 
ROOT
HETATM    1  C7  UNL     1      26.805 -14.493  -3.537  1.00  0.00     0.170 C 
HETATM    2  C8  UNL     1      28.155 -13.894  -3.330  1.00  0.00     0.043 C 
HETATM    3  C9  UNL     1      28.397 -13.053  -4.538  1.00  0.00     0.001 C 
HETATM    4  C10 UNL     1      29.330 -13.704  -5.535  1.00  0.00     0.042 C 
HETATM    5  C11 UNL     1      30.565 -12.943  -5.780  1.00  0.00     0.147 C 
HETATM    6  C12 UNL     1      30.890 -12.720  -7.222  1.00  0.00    -0.059 C 
HETATM    7  C13 UNL     1      31.948 -13.678  -7.740  1.00  0.00     0.046 C 
HETATM    8  C14 UNL     1      30.362 -11.826  -8.011  1.00  0.00    -0.021 C 
HETATM    9  C15 UNL     1      29.322 -10.806  -7.727  1.00  0.00     0.032 C 
HETATM   10  C16 UNL     1      28.020 -11.335  -8.251  1.00  0.00     0.037 C 
HETATM   11  C17 UNL     1      26.798 -10.731  -7.712  1.00  0.00    -0.087 C 
HETATM   12  C18 UNL     1      25.936 -10.032  -8.764  1.00  0.00     0.043 C 
HETATM   13  C19 UNL     1      26.347 -10.700  -6.494  1.00  0.00    -0.024 C 
HETATM   14  C20 UNL     1      26.896 -11.250  -5.250  1.00  0.00     0.038 C 
HETATM   15  C21 UNL     1      27.067 -12.729  -5.187  1.00  0.00     0.041 C 
HETATM   16  C22 UNL     1      26.095 -13.385  -4.241  1.00  0.00     0.014 C 
HETATM   17  N1  UNL     1      24.874 -13.081  -4.043  1.00  0.00    -0.403 N 
ATOM     18  H11 UNL     1      24.389 -12.324  -4.525  1.00  0.00     0.155 HD
ATOM     19  H12 UNL     1      24.217 -13.525  -3.403  1.00  0.00     0.155 HD
ENDROOT
BRANCH   1  20
HETATM   20  O2  UNL     1      26.223 -14.747  -2.318  1.00  0.00    -0.346 OA
BRANCH  20  21
HETATM   21  C6  UNL     1      25.938 -16.095  -2.213  1.00  0.00     0.292 C 
BRANCH  21  22
HETATM   22  C4  UNL     1      26.544 -16.680  -0.977  1.00  0.00    -0.008 C 
HETATM   23  C5  UNL     1      25.828 -17.594  -0.338  1.00  0.00     0.024 C 
BRANCH  22  24
HETATM   24  C2  UNL     1      27.844 -16.287  -0.477  1.00  0.00    -0.061 C 
HETATM   25  C1  UNL     1      28.940 -16.721  -1.038  1.00  0.00     0.019 C 
HETATM   26  C3  UNL     1      27.909 -15.376   0.693  1.00  0.00     0.048 C 
ENDBRANCH  22  24
ENDBRANCH  21  22
BRANCH  21  27
HETATM   27  O1  UNL     1      24.558 -16.307  -2.196  1.00  0.00    -0.367 OA
ATOM     28  H1  UNL     1      24.231 -16.324  -3.088  1.00  0.00     0.213 HD
ENDBRANCH  21  27
ENDBRANCH  20  21
ENDBRANCH   1  20
BRANCH   5  29
HETATM   29  O3  UNL     1      30.558 -11.724  -5.090  1.00  0.00    -0.391 OA
ATOM     30  H3  UNL     1      30.317 -11.004  -5.661  1.00  0.00     0.210 HD
ENDBRANCH   5  29
TORSDOF 6
ENDMDL
MODEL 5
REMARK VINA RESULT: -6.387973101      6.550      8.946
REMARK  6 active torsions:
REMARK  status: ('A' for Active; 'I' for Inactive)
REMARK    1  A    between atoms: C2_2  and  C4_4 
REMARK    2  A    between atoms: C4_4  and  C6_6 
REMARK    3  A    between atoms: C6_6  and  O1_7 
REMARK    4  A    between atoms: C6_6  and  O2_9 
REMARK    5  A    between atoms: O2_9  and  C7_10 
REMARK    6  A    between atoms: C11_14  and  O3_15 
ROOT
HETATM    1  C7  UNL     1      28.365 -14.010   2.233  1.00  0.00     0.170 C 
HETATM    2  C8  UNL     1      27.537 -13.195   3.168  1.00  0.00     0.043 C 
HETATM    3  C9  UNL     1      28.516 -12.482   4.037  1.00  0.00     0.001 C 
HETATM    4  C10 UNL     1      28.652 -13.104   5.409  1.00  0.00     0.042 C 
HETATM    5  C11 UNL     1      28.279 -12.203   6.510  1.00  0.00     0.147 C 
HETATM    6  C12 UNL     1      29.282 -12.111   7.615  1.00  0.00    -0.059 C 
HETATM    7  C13 UNL     1      28.909 -12.957   8.819  1.00  0.00     0.046 C 
HETATM    8  C14 UNL     1      30.382 -11.409   7.614  1.00  0.00    -0.021 C 
HETATM    9  C15 UNL     1      30.943 -10.528   6.560  1.00  0.00     0.032 C 
HETATM   10  C16 UNL     1      32.011 -11.306   5.848  1.00  0.00     0.037 C 
HETATM   11  C17 UNL     1      32.397 -10.830   4.517  1.00  0.00    -0.087 C 
HETATM   12  C18 UNL     1      33.861 -10.401   4.412  1.00  0.00     0.043 C 
HETATM   13  C19 UNL     1      31.692 -10.717   3.431  1.00  0.00    -0.024 C 
HETATM   14  C20 UNL     1      30.283 -11.023   3.163  1.00  0.00     0.038 C 
HETATM   15  C21 UNL     1      29.858 -12.442   3.335  1.00  0.00     0.041 C 
HETATM   16  C22 UNL     1      29.541 -13.115   2.025  1.00  0.00     0.014 C 
HETATM   17  N1  UNL     1      30.142 -12.974   0.911  1.00  0.00    -0.403 N 
ATOM     18  H11 UNL     1      30.947 -12.363   0.769  1.00  0.00     0.155 HD
ATOM     19  H12 UNL     1      29.927 -13.430   0.024  1.00  0.00     0.155 HD
ENDROOT
BRANCH   1  20
HETATM   20  O2  UNL     1      27.682 -14.197   1.056  1.00  0.00    -0.346 OA
BRANCH  20  21
HETATM   21  C6  UNL     1      27.723 -15.533   0.704  1.00  0.00     0.292 C 
BRANCH  21  22
HETATM   22  C4  UNL     1      26.867 -15.802  -0.493  1.00  0.00    -0.008 C 
HETATM   23  C5  UNL     1      26.924 -14.916  -1.477  1.00  0.00     0.024 C 
BRANCH  22  24
HETATM   24  C2  UNL     1      26.008 -16.962  -0.601  1.00  0.00    -0.061 C 
HETATM   25  C1  UNL     1      26.263 -18.053   0.069  1.00  0.00     0.019 C 
HETATM   26  C3  UNL     1      24.823 -16.888  -1.492  1.00  0.00     0.048 C 
ENDBRANCH  22  24
ENDBRANCH  21  22
BRANCH  21  27
HETATM   27  O1  UNL     1      29.033 -15.931   0.434  1.00  0.00    -0.367 OA
ATOM     28  H1  UNL     1      29.632 -15.427   0.972  1.00  0.00     0.213 HD
ENDBRANCH  21  27
ENDBRANCH  20  21
ENDBRANCH   1  20
BRANCH   5  29
HETATM   29  O3  UNL     1      27.961 -10.922   6.037  1.00  0.00    -0.391 OA
ATOM     30  H3  UNL     1      27.103 -10.647   6.335  1.00  0.00     0.210 HD
ENDBRANCH   5  29
TORSDOF 6
ENDMDL
