MODEL 1
REMARK VINA RESULT: -9.102766899      0.000      0.000
REMARK  7 active torsions:
REMARK  status: ('A' for Active; 'I' for Inactive)
REMARK    1  A    between atoms: C5_9  and  S1_10 
REMARK    2  A    between atoms: S1_10  and  N3_13 
REMARK    3  A    between atoms: N3_13  and  C6_15 
REMARK    4  A    between atoms: C6_15  and  C7_16 
REMARK    5  A    between atoms: C6_15  and  C9_20 
REMARK    6  A    between atoms: C7_16  and  S2_17 
REMARK       I    between atoms: C9_20  and  N4_22 
REMARK    7  A    between atoms: N4_22  and  C10_24 
ROOT
HETATM    1  C6  UNL     1      38.382 -23.294  14.732  1.00  0.00     0.197 C 
ENDROOT
BRANCH   1   2
HETATM    2  N3  UNL     1      39.511 -24.037  14.289  1.00  0.00    -0.301 N 
ATOM      3  H3  UNL     1      40.445 -23.806  14.626  1.00  0.00     0.173 HD
BRANCH   2   4
HETATM    4  S1  UNL     1      39.288 -25.301  13.202  1.00  0.00     0.264 S 
HETATM    5  O1  UNL     1      37.998 -25.089  12.400  1.00  0.00    -0.200 OA
HETATM    6  O2  UNL     1      40.373 -25.284  12.127  1.00  0.00    -0.200 OA
BRANCH   4   7
HETATM    7  C5  UNL     1      39.261 -26.848  13.943  1.00  0.00     0.142 A 
HETATM    8  C2  UNL     1      38.542 -27.973  13.633  1.00  0.00     0.048 A 
HETATM    9  C1  UNL     1      37.544 -28.097  12.543  1.00  0.00     0.071 C 
HETATM   10  N1  UNL     1      38.890 -28.960  14.516  1.00  0.00    -0.301 N 
HETATM   11  N2  UNL     1      39.787 -28.482  15.348  1.00  0.00    -0.284 N 
ATOM     12  H1  UNL     1      38.515 -29.908  14.526  1.00  0.00     0.187 HD
HETATM   13  C3  UNL     1      40.391 -29.256  16.430  1.00  0.00     0.179 C 
HETATM   14  C4  UNL     1      40.047 -27.199  15.040  1.00  0.00     0.145 A 
HETATM   15 CL1  UNL     1      41.172 -26.140  15.863  1.00  0.00    -0.061 Cl
ENDBRANCH   4   7
ENDBRANCH   2   4
ENDBRANCH   1   2
BRANCH   1  16
HETATM   16  C7  UNL     1      38.479 -21.813  14.557  1.00  0.00     0.143 C 
BRANCH  16  17
HETATM   17  S2  UNL     1      38.370 -21.302  12.858  1.00  0.00     0.013 S 
HETATM   18  C8  UNL     1      36.752 -21.729  12.158  1.00  0.00     0.127 C 
HETATM   19  O3  UNL     1      39.471 -21.945  12.004  1.00  0.00    -0.258 OA
ENDBRANCH  16  17
ENDBRANCH   1  16
BRANCH   1  20
HETATM   20  C9  UNL     1      38.322 -23.480  16.257  1.00  0.00     0.247 C 
HETATM   21  O4  UNL     1      39.414 -23.388  16.858  1.00  0.00    -0.271 OA
HETATM   22  N4  UNL     1      37.088 -23.735  16.863  1.00  0.00    -0.310 N 
ATOM     23  H4  UNL     1      36.602 -24.610  16.667  1.00  0.00     0.170 HD
BRANCH  22  24
HETATM   24  C10 UNL     1      36.560 -22.881  17.664  1.00  0.00     0.125 A 
HETATM   25  N5  UNL     1      36.985 -22.736  18.927  1.00  0.00    -0.349 N 
HETATM   26  C11 UNL     1      36.433 -21.836  19.789  1.00  0.00     0.113 A 
ATOM     27  H5  UNL     1      37.751 -23.324  19.257  1.00  0.00     0.166 HD
HETATM   28  C12 UNL     1      35.398 -21.032  19.373  1.00  0.00     0.050 A 
HETATM   29 CL2  UNL     1      34.670 -19.866  20.457  1.00  0.00    -0.083 Cl
HETATM   30  C13 UNL     1      34.923 -21.142  18.078  1.00  0.00     0.048 A 
HETATM   31  C14 UNL     1      35.506 -22.061  17.240  1.00  0.00     0.056 A 
HETATM   32 BR1  UNL     1      34.891 -22.258  15.447  1.00  0.00    -0.047 Br
ENDBRANCH  22  24
ENDBRANCH   1  20
TORSDOF 7
ENDMDL
MODEL 2
REMARK VINA RESULT: -9.090078527      3.188      5.012
REMARK  7 active torsions:
REMARK  status: ('A' for Active; 'I' for Inactive)
REMARK    1  A    between atoms: C5_9  and  S1_10 
REMARK    2  A    between atoms: S1_10  and  N3_13 
REMARK    3  A    between atoms: N3_13  and  C6_15 
REMARK    4  A    between atoms: C6_15  and  C7_16 
REMARK    5  A    between atoms: C6_15  and  C9_20 
REMARK    6  A    between atoms: C7_16  and  S2_17 
REMARK       I    between atoms: C9_20  and  N4_22 
REMARK    7  A    between atoms: N4_22  and  C10_24 
ROOT
HETATM    1  C6  UNL     1      38.720 -22.904  13.352  1.00  0.00     0.197 C 
ENDROOT
BRANCH   1   2
HETATM    2  N3  UNL     1      38.367 -24.240  13.687  1.00  0.00    -0.301 N 
ATOM      3  H3  UNL     1      37.707 -24.425  14.441  1.00  0.00     0.173 HD
BRANCH   2   4
HETATM    4  S1  UNL     1      39.052 -25.511  12.825  1.00  0.00     0.264 S 
HETATM    5  O1  UNL     1      38.227 -25.804  11.566  1.00  0.00    -0.200 OA
HETATM    6  O2  UNL     1      40.414 -25.109  12.263  1.00  0.00    -0.200 OA
BRANCH   4   7
HETATM    7  C5  UNL     1      39.232 -26.948  13.746  1.00  0.00     0.142 A 
HETATM    8  C2  UNL     1      38.539 -28.130  13.700  1.00  0.00     0.048 A 
HETATM    9  C1  UNL     1      37.389 -28.432  12.812  1.00  0.00     0.071 C 
HETATM   10  N1  UNL     1      39.078 -28.979  14.629  1.00  0.00    -0.301 N 
HETATM   11  N2  UNL     1      40.066 -28.363  15.237  1.00  0.00    -0.284 N 
ATOM     12  H1  UNL     1      38.764 -29.931  14.817  1.00  0.00     0.187 HD
HETATM   13  C3  UNL     1      40.876 -28.966  16.293  1.00  0.00     0.179 C 
HETATM   14  C4  UNL     1      40.199 -27.123  14.735  1.00  0.00     0.145 A 
HETATM   15 CL1  UNL     1      41.377 -25.924  15.225  1.00  0.00    -0.061 Cl
ENDBRANCH   4   7
ENDBRANCH   2   4
ENDBRANCH   1   2
BRANCH   1  16
HETATM   16  C7  UNL     1      38.603 -21.910  14.463  1.00  0.00     0.143 C 
BRANCH  16  17
HETATM   17  S2  UNL     1      37.920 -22.603  15.949  1.00  0.00     0.013 S 
HETATM   18  C8  UNL     1      39.160 -23.592  16.830  1.00  0.00     0.127 C 
HETATM   19  O3  UNL     1      36.698 -23.483  15.653  1.00  0.00    -0.258 OA
ENDBRANCH  16  17
ENDBRANCH   1  16
BRANCH   1  20
HETATM   20  C9  UNL     1      37.675 -22.432  12.326  1.00  0.00     0.247 C 
HETATM   21  O4  UNL     1      38.134 -21.917  11.283  1.00  0.00    -0.271 OA
HETATM   22  N4  UNL     1      36.317 -22.598  12.612  1.00  0.00    -0.310 N 
ATOM     23  H4  UNL     1      35.898 -22.079  13.382  1.00  0.00     0.170 HD
BRANCH  22  24
HETATM   24  C10 UNL     1      35.592 -23.398  11.915  1.00  0.00     0.125 A 
HETATM   25  N5  UNL     1      36.044 -23.964  10.787  1.00  0.00    -0.349 N 
HETATM   26  C11 UNL     1      35.287 -24.812  10.037  1.00  0.00     0.113 A 
ATOM     27  H5  UNL     1      36.993 -23.751  10.478  1.00  0.00     0.166 HD
HETATM   28  C12 UNL     1      34.004 -25.117  10.427  1.00  0.00     0.050 A 
HETATM   29 CL2  UNL     1      33.007 -26.203   9.485  1.00  0.00    -0.083 Cl
HETATM   30  C13 UNL     1      33.490 -24.558  11.585  1.00  0.00     0.048 A 
HETATM   31  C14 UNL     1      34.285 -23.708  12.314  1.00  0.00     0.056 A 
HETATM   32 BR1  UNL     1      33.629 -22.909  13.914  1.00  0.00    -0.047 Br
ENDBRANCH  22  24
ENDBRANCH   1  20
TORSDOF 7
ENDMDL
MODEL 3
REMARK VINA RESULT: -9.047265178      3.581      5.275
REMARK  7 active torsions:
REMARK  status: ('A' for Active; 'I' for Inactive)
REMARK    1  A    between atoms: C5_9  and  S1_10 
REMARK    2  A    between atoms: S1_10  and  N3_13 
REMARK    3  A    between atoms: N3_13  and  C6_15 
REMARK    4  A    between atoms: C6_15  and  C7_16 
REMARK    5  A    between atoms: C6_15  and  C9_20 
REMARK    6  A    between atoms: C7_16  and  S2_17 
REMARK       I    between atoms: C9_20  and  N4_22 
REMARK    7  A    between atoms: N4_22  and  C10_24 
ROOT
HETATM    1  C6  UNL     1      38.782 -22.918  13.321  1.00  0.00     0.197 C 
ENDROOT
BRANCH   1   2
HETATM    2  N3  UNL     1      38.445 -24.260  13.650  1.00  0.00    -0.301 N 
ATOM      3  H3  UNL     1      37.758 -24.457  14.377  1.00  0.00     0.173 HD
BRANCH   2   4
HETATM    4  S1  UNL     1      39.194 -25.521  12.825  1.00  0.00     0.264 S 
HETATM    5  O1  UNL     1      38.360 -25.925  11.604  1.00  0.00    -0.200 OA
HETATM    6  O2  UNL     1      40.511 -25.053  12.208  1.00  0.00    -0.200 OA
BRANCH   4   7
HETATM    7  C5  UNL     1      39.495 -26.899  13.802  1.00  0.00     0.142 A 
HETATM    8  C2  UNL     1      40.495 -27.152  14.705  1.00  0.00     0.048 A 
HETATM    9  C1  UNL     1      41.625 -26.247  15.030  1.00  0.00     0.071 C 
HETATM   10  N1  UNL     1      40.283 -28.393  15.242  1.00  0.00    -0.301 N 
HETATM   11  N2  UNL     1      39.199 -28.904  14.704  1.00  0.00    -0.284 N 
ATOM     12  H1  UNL     1      40.869 -28.845  15.943  1.00  0.00     0.187 HD
HETATM   13  C3  UNL     1      38.664 -30.221  15.040  1.00  0.00     0.179 C 
HETATM   14  C4  UNL     1      38.682 -28.032  13.820  1.00  0.00     0.145 A 
HETATM   15 CL1  UNL     1      37.241 -28.263  12.853  1.00  0.00    -0.061 Cl
ENDBRANCH   4   7
ENDBRANCH   2   4
ENDBRANCH   1   2
BRANCH   1  16
HETATM   16  C7  UNL     1      38.667 -21.935  14.441  1.00  0.00     0.143 C 
BRANCH  16  17
HETATM   17  S2  UNL     1      38.070 -22.661  15.949  1.00  0.00     0.013 S 
HETATM   18  C8  UNL     1      39.336 -23.718  16.703  1.00  0.00     0.127 C 
HETATM   19  O3  UNL     1      36.801 -23.491  15.712  1.00  0.00    -0.258 OA
ENDBRANCH  16  17
ENDBRANCH   1  16
BRANCH   1  20
HETATM   20  C9  UNL     1      37.722 -22.449  12.310  1.00  0.00     0.247 C 
HETATM   21  O4  UNL     1      38.164 -21.917  11.269  1.00  0.00    -0.271 OA
HETATM   22  N4  UNL     1      36.369 -22.636  12.606  1.00  0.00    -0.310 N 
ATOM     23  H4  UNL     1      35.949 -22.131  13.386  1.00  0.00     0.170 HD
BRANCH  22  24
HETATM   24  C10 UNL     1      35.648 -23.438  11.907  1.00  0.00     0.125 A 
HETATM   25  N5  UNL     1      36.106 -24.005  10.782  1.00  0.00    -0.349 N 
HETATM   26  C11 UNL     1      35.353 -24.855  10.030  1.00  0.00     0.113 A 
ATOM     27  H5  UNL     1      37.056 -23.791  10.478  1.00  0.00     0.166 HD
HETATM   28  C12 UNL     1      34.068 -25.160  10.414  1.00  0.00     0.050 A 
HETATM   29 CL2  UNL     1      33.077 -26.249   9.468  1.00  0.00    -0.083 Cl
HETATM   30  C13 UNL     1      33.548 -24.600  11.568  1.00  0.00     0.048 A 
HETATM   31  C14 UNL     1      34.339 -23.749  12.300  1.00  0.00     0.056 A 
HETATM   32 BR1  UNL     1      33.674 -22.947  13.896  1.00  0.00    -0.047 Br
ENDBRANCH  22  24
ENDBRANCH   1  20
TORSDOF 7
ENDMDL
MODEL 4
REMARK VINA RESULT: -8.983380730      1.306      1.750
REMARK  7 active torsions:
REMARK  status: ('A' for Active; 'I' for Inactive)
REMARK    1  A    between atoms: C5_9  and  S1_10 
REMARK    2  A    between atoms: S1_10  and  N3_13 
REMARK    3  A    between atoms: N3_13  and  C6_15 
REMARK    4  A    between atoms: C6_15  and  C7_16 
REMARK    5  A    between atoms: C6_15  and  C9_20 
REMARK    6  A    between atoms: C7_16  and  S2_17 
REMARK       I    between atoms: C9_20  and  N4_22 
REMARK    7  A    between atoms: N4_22  and  C10_24 
ROOT
HETATM    1  C6  UNL     1      38.534 -23.328  14.221  1.00  0.00     0.197 C 
ENDROOT
BRANCH   1   2
HETATM    2  N3  UNL     1      39.711 -23.993  13.779  1.00  0.00    -0.301 N 
ATOM      3  H3  UNL     1      40.630 -23.595  13.968  1.00  0.00     0.173 HD
BRANCH   2   4
HETATM    4  S1  UNL     1      39.570 -25.443  12.939  1.00  0.00     0.264 S 
HETATM    5  O1  UNL     1      38.259 -25.469  12.143  1.00  0.00    -0.200 OA
HETATM    6  O2  UNL     1      40.638 -25.544  11.853  1.00  0.00    -0.200 OA
BRANCH   4   7
HETATM    7  C5  UNL     1      39.664 -26.831  13.944  1.00  0.00     0.142 A 
HETATM    8  C2  UNL     1      40.502 -27.121  14.989  1.00  0.00     0.048 A 
HETATM    9  C1  UNL     1      41.601 -26.259  15.489  1.00  0.00     0.071 C 
HETATM   10  N1  UNL     1      40.163 -28.352  15.481  1.00  0.00    -0.301 N 
HETATM   11  N2  UNL     1      39.156 -28.822  14.779  1.00  0.00    -0.284 N 
ATOM     12  H1  UNL     1      40.616 -28.826  16.262  1.00  0.00     0.187 HD
HETATM   13  C3  UNL     1      38.527 -30.118  15.022  1.00  0.00     0.179 C 
HETATM   14  C4  UNL     1      38.816 -27.932  13.831  1.00  0.00     0.145 A 
HETATM   15 CL1  UNL     1      37.534 -28.109  12.652  1.00  0.00    -0.061 Cl
ENDBRANCH   4   7
ENDBRANCH   2   4
ENDBRANCH   1   2
BRANCH   1  16
HETATM   16  C7  UNL     1      38.592 -21.834  14.195  1.00  0.00     0.143 C 
BRANCH  16  17
HETATM   17  S2  UNL     1      38.287 -21.152  12.584  1.00  0.00     0.013 S 
HETATM   18  C8  UNL     1      36.775 -20.149  12.581  1.00  0.00     0.127 C 
HETATM   19  O3  UNL     1      38.160 -22.251  11.520  1.00  0.00    -0.258 OA
ENDBRANCH  16  17
ENDBRANCH   1  16
BRANCH   1  20
HETATM   20  C9  UNL     1      38.391 -23.664  15.715  1.00  0.00     0.247 C 
HETATM   21  O4  UNL     1      39.457 -23.705  16.366  1.00  0.00    -0.271 OA
HETATM   22  N4  UNL     1      37.117 -23.899  16.240  1.00  0.00    -0.310 N 
ATOM     23  H4  UNL     1      36.589 -24.716  15.934  1.00  0.00     0.170 HD
BRANCH  22  24
HETATM   24  C10 UNL     1      36.604 -23.098  17.104  1.00  0.00     0.125 A 
HETATM   25  N5  UNL     1      37.052 -23.035  18.366  1.00  0.00    -0.349 N 
HETATM   26  C11 UNL     1      36.517 -22.193  19.293  1.00  0.00     0.113 A 
ATOM     27  H5  UNL     1      37.823 -23.643  18.643  1.00  0.00     0.166 HD
HETATM   28  C12 UNL     1      35.475 -21.363  18.950  1.00  0.00     0.050 A 
HETATM   29 CL2  UNL     1      34.769 -20.270  20.119  1.00  0.00    -0.083 Cl
HETATM   30  C13 UNL     1      34.977 -21.389  17.659  1.00  0.00     0.048 A 
HETATM   31  C14 UNL     1      35.543 -22.253  16.753  1.00  0.00     0.056 A 
HETATM   32 BR1  UNL     1      34.896 -22.333  14.963  1.00  0.00    -0.047 Br
ENDBRANCH  22  24
ENDBRANCH   1  20
TORSDOF 7
ENDMDL
MODEL 5
REMARK VINA RESULT: -8.960030523      2.600      6.459
REMARK  7 active torsions:
REMARK  status: ('A' for Active; 'I' for Inactive)
REMARK    1  A    between atoms: C5_9  and  S1_10 
REMARK    2  A    between atoms: S1_10  and  N3_13 
REMARK    3  A    between atoms: N3_13  and  C6_15 
REMARK    4  A    between atoms: C6_15  and  C7_16 
REMARK    5  A    between atoms: C6_15  and  C9_20 
REMARK    6  A    between atoms: C7_16  and  S2_17 
REMARK       I    between atoms: C9_20  and  N4_22 
REMARK    7  A    between atoms: N4_22  and  C10_24 
ROOT
HETATM    1  C6  UNL     1      37.946 -23.538  13.460  1.00  0.00     0.197 C 
ENDROOT
BRANCH   1   2
HETATM    2  N3  UNL     1      37.281 -23.988  14.634  1.00  0.00    -0.301 N 
ATOM      3  H3  UNL     1      37.177 -24.985  14.818  1.00  0.00     0.173 HD
BRANCH   2   4
HETATM    4  S1  UNL     1      36.667 -22.856  15.716  1.00  0.00     0.264 S 
HETATM    5  O1  UNL     1      36.711 -21.454  15.097  1.00  0.00    -0.200 OA
HETATM    6  O2  UNL     1      35.176 -23.087  15.949  1.00  0.00    -0.200 OA
BRANCH   4   7
HETATM    7  C5  UNL     1      37.473 -22.845  17.231  1.00  0.00     0.142 A 
HETATM    8  C2  UNL     1      38.738 -23.250  17.571  1.00  0.00     0.048 A 
HETATM    9  C1  UNL     1      39.737 -23.852  16.654  1.00  0.00     0.071 C 
HETATM   10  N1  UNL     1      38.916 -23.018  18.908  1.00  0.00    -0.301 N 
HETATM   11  N2  UNL     1      37.814 -22.493  19.394  1.00  0.00    -0.284 N 
ATOM     12  H1  UNL     1      39.763 -23.220  19.440  1.00  0.00     0.187 HD
HETATM   13  C3  UNL     1      37.639 -22.113  20.794  1.00  0.00     0.179 C 
HETATM   14  C4  UNL     1      36.905 -22.368  18.411  1.00  0.00     0.145 A 
HETATM   15 CL1  UNL     1      35.286 -21.720  18.569  1.00  0.00    -0.061 Cl
ENDBRANCH   4   7
ENDBRANCH   2   4
ENDBRANCH   1   2
BRANCH   1  16
HETATM   16  C7  UNL     1      37.071 -23.327  12.267  1.00  0.00     0.143 C 
BRANCH  16  17
HETATM   17  S2  UNL     1      37.295 -21.735  11.510  1.00  0.00     0.013 S 
HETATM   18  C8  UNL     1      38.854 -20.979  12.045  1.00  0.00     0.127 C 
HETATM   19  O3  UNL     1      36.137 -20.784  11.843  1.00  0.00    -0.258 OA
ENDBRANCH  16  17
ENDBRANCH   1  16
BRANCH   1  20
HETATM   20  C9  UNL     1      38.878 -24.684  13.033  1.00  0.00     0.247 C 
HETATM   21  O4  UNL     1      40.042 -24.349  12.724  1.00  0.00    -0.271 OA
HETATM   22  N4  UNL     1      38.385 -25.992  13.014  1.00  0.00    -0.310 N 
ATOM     23  H4  UNL     1      37.654 -26.245  12.349  1.00  0.00     0.170 HD
BRANCH  22  24
HETATM   24  C10 UNL     1      38.841 -26.878  13.825  1.00  0.00     0.125 A 
HETATM   25  N5  UNL     1      39.783 -26.590  14.733  1.00  0.00    -0.349 N 
HETATM   26  C11 UNL     1      40.277 -27.519  15.598  1.00  0.00     0.113 A 
ATOM     27  H5  UNL     1      40.144 -25.637  14.779  1.00  0.00     0.166 HD
HETATM   28  C12 UNL     1      39.810 -28.813  15.559  1.00  0.00     0.050 A 
HETATM   29 CL2  UNL     1      40.426 -30.028  16.658  1.00  0.00    -0.083 Cl
HETATM   30  C13 UNL     1      38.837 -29.161  14.639  1.00  0.00     0.048 A 
HETATM   31  C14 UNL     1      38.364 -28.195  13.785  1.00  0.00     0.056 A 
HETATM   32 BR1  UNL     1      37.026 -28.619  12.496  1.00  0.00    -0.047 Br
ENDBRANCH  22  24
ENDBRANCH   1  20
TORSDOF 7
ENDMDL
