MODEL 1
REMARK VINA RESULT: -9.118029098      0.000      0.000
REMARK  7 active torsions:
REMARK  status: ('A' for Active; 'I' for Inactive)
REMARK    1  A    between atoms: O1_2  and  C2_3 
REMARK    2  A    between atoms: C2_3  and  C3_5 
REMARK    3  A    between atoms: C5_9  and  N2_10 
REMARK       I    between atoms: N2_10  and  C6_12 
REMARK    4  A    between atoms: C6_12  and  C7_14 
REMARK    5  A    between atoms: C7_14  and  N3_15 
REMARK    6  A    between atoms: C7_14  and  C13_25 
REMARK       I    between atoms: N3_15  and  C8_17 
REMARK    7  A    between atoms: C8_17  and  C9_19 
ROOT
HETATM    1  N2  UNL     1      38.492 -26.262  12.789  1.00  0.00    -0.343 N 
ATOM      2  H2  UNL     1      38.711 -25.383  12.319  1.00  0.00     0.163 HD
HETATM    3  C6  UNL     1      38.885 -26.468  14.126  1.00  0.00     0.243 C 
HETATM    4  O4  UNL     1      38.585 -27.605  14.657  1.00  0.00    -0.271 OA
ENDROOT
BRANCH   3   5
HETATM    5  C7  UNL     1      39.605 -25.550  15.008  1.00  0.00     0.199 C 
BRANCH   5   6
HETATM    6  N3  UNL     1      38.652 -24.807  15.803  1.00  0.00    -0.342 N 
HETATM    7  C8  UNL     1      37.835 -23.755  15.310  1.00  0.00     0.254 C 
HETATM    8  O5  UNL     1      37.865 -23.369  14.117  1.00  0.00    -0.268 OA
ATOM      9  H3  UNL     1      38.560 -25.057  16.788  1.00  0.00     0.163 HD
BRANCH   7  10
HETATM   10  C9  UNL     1      36.898 -23.064  16.211  1.00  0.00     0.055 A 
HETATM   11  C10 UNL     1      35.683 -22.545  16.082  1.00  0.00     0.065 A 
HETATM   12 BR1  UNL     1      34.372 -22.345  14.710  1.00  0.00    -0.047 Br
HETATM   13  C11 UNL     1      35.685 -22.140  17.480  1.00  0.00     0.135 A 
HETATM   14  F1  UNL     1      34.803 -21.504  18.284  1.00  0.00    -0.205 F 
HETATM   15  C12 UNL     1      36.889 -22.652  17.613  1.00  0.00     0.062 A 
ENDBRANCH   7  10
ENDBRANCH   5   6
BRANCH   5  16
HETATM   16  C13 UNL     1      40.727 -26.106  15.805  1.00  0.00     0.059 C 
HETATM   17  C14 UNL     1      41.201 -25.147  16.868  1.00  0.00     0.035 C 
HETATM   18  C15 UNL     1      41.932 -26.245  14.835  1.00  0.00     0.035 C 
HETATM   19 CL1  UNL     1      40.454 -27.693  16.495  1.00  0.00    -0.117 Cl
ENDBRANCH   5  16
ENDBRANCH   3   5
BRANCH   1  20
HETATM   20  C5  UNL     1      37.785 -27.289  12.095  1.00  0.00     0.210 C 
HETATM   21  C4  UNL     1      37.883 -27.058  10.620  1.00  0.00     0.247 C 
HETATM   22  N1  UNL     1      36.593 -26.493  10.562  1.00  0.00    -0.319 N 
HETATM   23  O3  UNL     1      38.782 -27.289   9.789  1.00  0.00    -0.271 OA
HETATM   24  C3  UNL     1      35.451 -25.743  10.084  1.00  0.00     0.206 C 
HETATM   25  C16 UNL     1      36.335 -27.134  11.833  1.00  0.00     0.183 C 
HETATM   26  C17 UNL     1      35.002 -24.840  11.170  1.00  0.00     0.033 C 
HETATM   27  S1  UNL     1      35.510 -25.745  12.693  1.00  0.00    -0.129 SA
HETATM   28  C18 UNL     1      33.495 -24.722  11.141  1.00  0.00     0.029 C 
HETATM   29  C19 UNL     1      35.607 -23.471  11.161  1.00  0.00     0.029 C 
BRANCH  24  30
HETATM   30  C2  UNL     1      34.400 -26.625   9.531  1.00  0.00     0.283 C 
HETATM   31  O2  UNL     1      34.006 -26.394   8.342  1.00  0.00    -0.263 OA
BRANCH  30  32
HETATM   32  O1  UNL     1      33.824 -27.677  10.230  1.00  0.00    -0.325 OA
HETATM   33  C1  UNL     1      32.436 -27.829  10.275  1.00  0.00     0.213 C 
ENDBRANCH  30  32
ENDBRANCH  24  30
ENDBRANCH   1  20
TORSDOF 7
ENDMDL
MODEL 2
REMARK VINA RESULT: -9.014842610      1.039      1.150
REMARK  7 active torsions:
REMARK  status: ('A' for Active; 'I' for Inactive)
REMARK    1  A    between atoms: O1_2  and  C2_3 
REMARK    2  A    between atoms: C2_3  and  C3_5 
REMARK    3  A    between atoms: C5_9  and  N2_10 
REMARK       I    between atoms: N2_10  and  C6_12 
REMARK    4  A    between atoms: C6_12  and  C7_14 
REMARK    5  A    between atoms: C7_14  and  N3_15 
REMARK    6  A    between atoms: C7_14  and  C13_25 
REMARK       I    between atoms: N3_15  and  C8_17 
REMARK    7  A    between atoms: C8_17  and  C9_19 
ROOT
HETATM    1  N2  UNL     1      38.467 -26.195  12.881  1.00  0.00    -0.343 N 
ATOM      2  H2  UNL     1      38.713 -25.340  12.382  1.00  0.00     0.163 HD
HETATM    3  C6  UNL     1      38.833 -26.358  14.231  1.00  0.00     0.243 C 
HETATM    4  O4  UNL     1      38.502 -27.467  14.800  1.00  0.00    -0.271 OA
ENDROOT
BRANCH   3   5
HETATM    5  C7  UNL     1      39.557 -25.421  15.091  1.00  0.00     0.199 C 
BRANCH   5   6
HETATM    6  N3  UNL     1      38.608 -24.674  15.887  1.00  0.00    -0.342 N 
HETATM    7  C8  UNL     1      37.799 -23.616  15.396  1.00  0.00     0.254 C 
HETATM    8  O5  UNL     1      37.832 -23.226  14.205  1.00  0.00    -0.268 OA
ATOM      9  H3  UNL     1      38.514 -24.926  16.871  1.00  0.00     0.163 HD
BRANCH   7  10
HETATM   10  C9  UNL     1      36.865 -22.921  16.298  1.00  0.00     0.055 A 
HETATM   11  C10 UNL     1      36.891 -22.554  17.574  1.00  0.00     0.065 A 
HETATM   12 BR1  UNL     1      38.095 -22.666  19.051  1.00  0.00    -0.047 Br
HETATM   13  C11 UNL     1      35.560 -21.977  17.457  1.00  0.00     0.135 A 
HETATM   14  F1  UNL     1      34.725 -21.340  18.309  1.00  0.00    -0.205 F 
HETATM   15  C12 UNL     1      35.529 -22.339  16.193  1.00  0.00     0.062 A 
ENDBRANCH   7  10
ENDBRANCH   5   6
BRANCH   5  16
HETATM   16  C13 UNL     1      40.694 -25.956  15.881  1.00  0.00     0.059 C 
HETATM   17  C14 UNL     1      41.151 -24.991  16.946  1.00  0.00     0.035 C 
HETATM   18  C15 UNL     1      41.898 -26.065  14.906  1.00  0.00     0.035 C 
HETATM   19 CL1  UNL     1      40.457 -27.551  16.567  1.00  0.00    -0.117 Cl
ENDBRANCH   5  16
ENDBRANCH   3   5
BRANCH   1  20
HETATM   20  C5  UNL     1      37.752 -27.234  12.214  1.00  0.00     0.210 C 
HETATM   21  C4  UNL     1      37.864 -27.052  10.733  1.00  0.00     0.247 C 
HETATM   22  N1  UNL     1      36.583 -26.471  10.647  1.00  0.00    -0.319 N 
HETATM   23  O3  UNL     1      38.766 -27.321   9.917  1.00  0.00    -0.271 OA
HETATM   24  C3  UNL     1      35.456 -25.721  10.136  1.00  0.00     0.206 C 
HETATM   25  C16 UNL     1      36.306 -27.067  11.936  1.00  0.00     0.183 C 
HETATM   26  C17 UNL     1      35.011 -24.777  11.189  1.00  0.00     0.033 C 
HETATM   27  S1  UNL     1      35.494 -25.640  12.744  1.00  0.00    -0.129 SA
HETATM   28  C18 UNL     1      33.506 -24.639  11.144  1.00  0.00     0.029 C 
HETATM   29  C19 UNL     1      35.635 -23.418  11.142  1.00  0.00     0.029 C 
BRANCH  24  30
HETATM   30  C2  UNL     1      34.397 -26.605   9.603  1.00  0.00     0.283 C 
HETATM   31  O2  UNL     1      33.984 -26.378   8.419  1.00  0.00    -0.263 OA
BRANCH  30  32
HETATM   32  O1  UNL     1      33.832 -27.655  10.314  1.00  0.00    -0.325 OA
HETATM   33  C1  UNL     1      32.445 -27.801  10.392  1.00  0.00     0.213 C 
ENDBRANCH  30  32
ENDBRANCH  24  30
ENDBRANCH   1  20
TORSDOF 7
ENDMDL
MODEL 3
REMARK VINA RESULT: -8.697247019      2.944      3.427
REMARK  7 active torsions:
REMARK  status: ('A' for Active; 'I' for Inactive)
REMARK    1  A    between atoms: O1_2  and  C2_3 
REMARK    2  A    between atoms: C2_3  and  C3_5 
REMARK    3  A    between atoms: C5_9  and  N2_10 
REMARK       I    between atoms: N2_10  and  C6_12 
REMARK    4  A    between atoms: C6_12  and  C7_14 
REMARK    5  A    between atoms: C7_14  and  N3_15 
REMARK    6  A    between atoms: C7_14  and  C13_25 
REMARK       I    between atoms: N3_15  and  C8_17 
REMARK    7  A    between atoms: C8_17  and  C9_19 
ROOT
HETATM    1  N2  UNL     1      36.479 -26.119  11.986  1.00  0.00    -0.343 N 
ATOM      2  H2  UNL     1      36.992 -26.327  11.129  1.00  0.00     0.163 HD
HETATM    3  C6  UNL     1      37.142 -25.535  13.084  1.00  0.00     0.243 C 
HETATM    4  O4  UNL     1      36.438 -25.306  14.141  1.00  0.00    -0.271 OA
ENDROOT
BRANCH   3   5
HETATM    5  C7  UNL     1      38.549 -25.149  13.189  1.00  0.00     0.199 C 
BRANCH   5   6
HETATM    6  N3  UNL     1      38.637 -23.724  13.420  1.00  0.00    -0.342 N 
HETATM    7  C8  UNL     1      38.154 -22.731  12.527  1.00  0.00     0.254 C 
HETATM    8  O5  UNL     1      37.595 -23.004  11.438  1.00  0.00    -0.268 OA
ATOM      9  H3  UNL     1      39.076 -23.411  14.285  1.00  0.00     0.163 HD
BRANCH   7  10
HETATM   10  C9  UNL     1      38.298 -21.304  12.862  1.00  0.00     0.055 A 
HETATM   11  C10 UNL     1      37.478 -20.261  12.895  1.00  0.00     0.065 A 
HETATM   12 BR1  UNL     1      35.636 -19.902  12.550  1.00  0.00    -0.047 Br
HETATM   13  C11 UNL     1      38.564 -19.394  13.329  1.00  0.00     0.135 A 
HETATM   14  F1  UNL     1      38.666 -18.080  13.632  1.00  0.00    -0.205 F 
HETATM   15  C12 UNL     1      39.381 -20.425  13.297  1.00  0.00     0.062 A 
ENDBRANCH   7  10
ENDBRANCH   5   6
BRANCH   5  16
HETATM   16  C13 UNL     1      39.410 -25.945  14.099  1.00  0.00     0.059 C 
HETATM   17  C14 UNL     1      39.689 -25.225  15.394  1.00  0.00     0.035 C 
HETATM   18  C15 UNL     1      40.795 -26.064  13.408  1.00  0.00     0.035 C 
HETATM   19 CL1  UNL     1      38.867 -27.581  14.418  1.00  0.00    -0.117 Cl
ENDBRANCH   5  16
ENDBRANCH   3   5
BRANCH   1  20
HETATM   20  C5  UNL     1      35.087 -26.417  12.080  1.00  0.00     0.210 C 
HETATM   21  C4  UNL     1      34.811 -27.737  11.431  1.00  0.00     0.247 C 
HETATM   22  N1  UNL     1      34.334 -27.125  10.254  1.00  0.00    -0.319 N 
HETATM   23  O3  UNL     1      34.961 -28.913  11.815  1.00  0.00    -0.271 OA
HETATM   24  C3  UNL     1      33.937 -26.944   8.874  1.00  0.00     0.206 C 
HETATM   25  C16 UNL     1      34.158 -25.922  11.037  1.00  0.00     0.183 C 
HETATM   26  C17 UNL     1      34.623 -25.740   8.348  1.00  0.00     0.033 C 
HETATM   27  S1  UNL     1      34.853 -24.708   9.858  1.00  0.00    -0.129 SA
HETATM   28  C18 UNL     1      33.711 -25.016   7.385  1.00  0.00     0.029 C 
HETATM   29  C19 UNL     1      35.945 -25.987   7.690  1.00  0.00     0.029 C 
BRANCH  24  30
HETATM   30  C2  UNL     1      32.467 -26.944   8.714  1.00  0.00     0.283 C 
HETATM   31  O2  UNL     1      31.965 -27.780   7.894  1.00  0.00    -0.263 OA
BRANCH  30  32
HETATM   32  O1  UNL     1      31.612 -26.090   9.399  1.00  0.00    -0.325 OA
HETATM   33  C1  UNL     1      30.490 -25.546   8.769  1.00  0.00     0.213 C 
ENDBRANCH  30  32
ENDBRANCH  24  30
ENDBRANCH   1  20
TORSDOF 7
ENDMDL
MODEL 4
REMARK VINA RESULT: -8.618959649      2.426      3.511
REMARK  7 active torsions:
REMARK  status: ('A' for Active; 'I' for Inactive)
REMARK    1  A    between atoms: O1_2  and  C2_3 
REMARK    2  A    between atoms: C2_3  and  C3_5 
REMARK    3  A    between atoms: C5_9  and  N2_10 
REMARK       I    between atoms: N2_10  and  C6_12 
REMARK    4  A    between atoms: C6_12  and  C7_14 
REMARK    5  A    between atoms: C7_14  and  N3_15 
REMARK    6  A    between atoms: C7_14  and  C13_25 
REMARK       I    between atoms: N3_15  and  C8_17 
REMARK    7  A    between atoms: C8_17  and  C9_19 
ROOT
HETATM    1  N2  UNL     1      37.201 -23.917  14.348  1.00  0.00    -0.343 N 
ATOM      2  H2  UNL     1      37.088 -24.875  14.682  1.00  0.00     0.163 HD
HETATM    3  C6  UNL     1      38.258 -23.120  14.828  1.00  0.00     0.243 C 
HETATM    4  O4  UNL     1      38.338 -21.915  14.373  1.00  0.00    -0.271 OA
ENDROOT
BRANCH   3   5
HETATM    5  C7  UNL     1      39.295 -23.480  15.796  1.00  0.00     0.199 C 
BRANCH   5   6
HETATM    6  N3  UNL     1      38.938 -22.954  17.095  1.00  0.00    -0.342 N 
HETATM    7  C8  UNL     1      37.663 -23.102  17.703  1.00  0.00     0.254 C 
HETATM    8  O5  UNL     1      36.714 -23.716  17.160  1.00  0.00    -0.268 OA
ATOM      9  H3  UNL     1      39.653 -22.441  17.610  1.00  0.00     0.163 HD
BRANCH   7  10
HETATM   10  C9  UNL     1      37.408 -22.523  19.033  1.00  0.00     0.055 A 
HETATM   11  C10 UNL     1      36.437 -21.792  19.567  1.00  0.00     0.065 A 
HETATM   12 BR1  UNL     1      34.783 -21.020  19.011  1.00  0.00    -0.047 Br
HETATM   13  C11 UNL     1      37.128 -21.773  20.848  1.00  0.00     0.135 A 
HETATM   14  F1  UNL     1      36.865 -21.231  22.059  1.00  0.00    -0.205 F 
HETATM   15  C12 UNL     1      38.092 -22.498  20.324  1.00  0.00     0.062 A 
ENDBRANCH   7  10
ENDBRANCH   5   6
BRANCH   5  16
HETATM   16  C13 UNL     1      39.729 -24.899  15.835  1.00  0.00     0.059 C 
HETATM   17  C14 UNL     1      40.847 -25.124  16.823  1.00  0.00     0.035 C 
HETATM   18  C15 UNL     1      40.360 -25.208  14.450  1.00  0.00     0.035 C 
HETATM   19 CL1  UNL     1      38.455 -26.076  16.080  1.00  0.00    -0.117 Cl
ENDBRANCH   5  16
ENDBRANCH   3   5
BRANCH   1  20
HETATM   20  C5  UNL     1      36.289 -23.378  13.391  1.00  0.00     0.210 C 
HETATM   21  C4  UNL     1      34.918 -23.924  13.642  1.00  0.00     0.247 C 
HETATM   22  N1  UNL     1      35.040 -24.870  12.604  1.00  0.00    -0.319 N 
HETATM   23  O3  UNL     1      34.032 -23.629  14.466  1.00  0.00    -0.271 OA
HETATM   24  C3  UNL     1      34.798 -26.041  11.790  1.00  0.00     0.206 C 
HETATM   25  C16 UNL     1      36.115 -24.053  12.084  1.00  0.00     0.183 C 
HETATM   26  C17 UNL     1      36.089 -26.742  11.590  1.00  0.00     0.033 C 
HETATM   27  S1  UNL     1      37.319 -25.374  11.697  1.00  0.00    -0.129 SA
HETATM   28  C18 UNL     1      36.132 -27.343  10.204  1.00  0.00     0.029 C 
HETATM   29  C19 UNL     1      36.411 -27.800  12.599  1.00  0.00     0.029 C 
BRANCH  24  30
HETATM   30  C2  UNL     1      34.069 -25.712  10.546  1.00  0.00     0.283 C 
HETATM   31  O2  UNL     1      32.996 -26.356  10.306  1.00  0.00    -0.263 OA
BRANCH  30  32
HETATM   32  O1  UNL     1      34.486 -24.752   9.633  1.00  0.00    -0.325 OA
HETATM   33  C1  UNL     1      34.204 -24.890   8.272  1.00  0.00     0.213 C 
ENDBRANCH  30  32
ENDBRANCH  24  30
ENDBRANCH   1  20
TORSDOF 7
ENDMDL
MODEL 5
REMARK VINA RESULT: -8.523937909      5.011      9.105
REMARK  7 active torsions:
REMARK  status: ('A' for Active; 'I' for Inactive)
REMARK    1  A    between atoms: O1_2  and  C2_3 
REMARK    2  A    between atoms: C2_3  and  C3_5 
REMARK    3  A    between atoms: C5_9  and  N2_10 
REMARK       I    between atoms: N2_10  and  C6_12 
REMARK    4  A    between atoms: C6_12  and  C7_14 
REMARK    5  A    between atoms: C7_14  and  N3_15 
REMARK    6  A    between atoms: C7_14  and  C13_25 
REMARK       I    between atoms: N3_15  and  C8_17 
REMARK    7  A    between atoms: C8_17  and  C9_19 
ROOT
HETATM    1  N2  UNL     1      35.984 -20.822  17.012  1.00  0.00    -0.343 N 
ATOM      2  H2  UNL     1      36.726 -20.154  17.224  1.00  0.00     0.163 HD
HETATM    3  C6  UNL     1      36.147 -21.755  15.970  1.00  0.00     0.243 C 
HETATM    4  O4  UNL     1      35.167 -22.564  15.748  1.00  0.00    -0.271 OA
ENDROOT
BRANCH   3   5
HETATM    5  C7  UNL     1      37.299 -21.931  15.086  1.00  0.00     0.199 C 
BRANCH   5   6
HETATM    6  N3  UNL     1      37.593 -23.341  14.959  1.00  0.00    -0.342 N 
HETATM    7  C8  UNL     1      38.706 -23.991  15.556  1.00  0.00     0.254 C 
HETATM    8  O5  UNL     1      39.550 -23.389  16.262  1.00  0.00    -0.268 OA
ATOM      9  H3  UNL     1      36.955 -23.910  14.402  1.00  0.00     0.163 HD
BRANCH   7  10
HETATM   10  C9  UNL     1      38.911 -25.435  15.359  1.00  0.00     0.055 A 
HETATM   11  C10 UNL     1      38.473 -26.335  14.487  1.00  0.00     0.065 A 
HETATM   12 BR1  UNL     1      37.331 -26.379  12.958  1.00  0.00    -0.047 Br
HETATM   13  C11 UNL     1      39.232 -27.382  15.153  1.00  0.00     0.135 A 
HETATM   14  F1  UNL     1      39.403 -28.708  14.946  1.00  0.00    -0.205 F 
HETATM   15  C12 UNL     1      39.669 -26.495  16.021  1.00  0.00     0.062 A 
ENDBRANCH   7  10
ENDBRANCH   5   6
BRANCH   5  16
HETATM   16  C13 UNL     1      37.278 -21.217  13.785  1.00  0.00     0.059 C 
HETATM   17  C14 UNL     1      38.002 -21.980  12.704  1.00  0.00     0.035 C 
HETATM   18  C15 UNL     1      38.111 -19.920  13.977  1.00  0.00     0.035 C 
HETATM   19 CL1  UNL     1      35.696 -20.717  13.220  1.00  0.00    -0.117 Cl
ENDBRANCH   5  16
ENDBRANCH   3   5
BRANCH   1  20
HETATM   20  C5  UNL     1      34.775 -20.815  17.771  1.00  0.00     0.210 C 
HETATM   21  C4  UNL     1      34.631 -19.502  18.474  1.00  0.00     0.247 C 
HETATM   22  N1  UNL     1      35.087 -20.038  19.695  1.00  0.00    -0.319 N 
HETATM   23  O3  UNL     1      34.249 -18.379  18.092  1.00  0.00    -0.271 OA
HETATM   24  C3  UNL     1      35.623 -20.114  21.037  1.00  0.00     0.206 C 
HETATM   25  C16 UNL     1      34.775 -21.344  19.155  1.00  0.00     0.183 C 
HETATM   26  C17 UNL     1      36.745 -21.083  21.034  1.00  0.00     0.033 C 
HETATM   27  S1  UNL     1      36.286 -22.237  19.672  1.00  0.00    -0.129 SA
HETATM   28  C18 UNL     1      36.764 -21.840  22.342  1.00  0.00     0.029 C 
HETATM   29  C19 UNL     1      38.099 -20.501  20.778  1.00  0.00     0.029 C 
BRANCH  24  30
HETATM   30  C2  UNL     1      34.571 -20.380  22.042  1.00  0.00     0.283 C 
HETATM   31  O2  UNL     1      34.100 -19.382  22.678  1.00  0.00    -0.263 OA
BRANCH  30  32
HETATM   32  O1  UNL     1      34.075 -21.645  22.329  1.00  0.00    -0.325 OA
HETATM   33  C1  UNL     1      32.786 -22.013  21.938  1.00  0.00     0.213 C 
ENDBRANCH  30  32
ENDBRANCH  24  30
ENDBRANCH   1  20
TORSDOF 7
ENDMDL
