MODEL 1
REMARK VINA RESULT: -7.577250886      0.000      0.000
REMARK  10 active torsions:
REMARK  status: ('A' for Active; 'I' for Inactive)
REMARK    1  A    between atoms: C1_4  and  N2_5 
REMARK    2  A    between atoms: C1_4  and  O1_14 
REMARK    3  A    between atoms: N2_5  and  C2_7 
REMARK    4  A    between atoms: C2_7  and  C3_8 
REMARK    5  A    between atoms: O1_14  and  C9_15 
REMARK    6  A    between atoms: C9_15  and  C10_16 
REMARK    7  A    between atoms: C9_15  and  C14_24 
REMARK    8  A    between atoms: C10_16  and  C11_17 
REMARK    9  A    between atoms: C14_24  and  N5_25 
REMARK   10  A    between atoms: N6_28  and  C17_29 
ROOT
HETATM    1  C9  UNL     1       6.572   9.732  20.561  1.00  0.00     0.165 C 
ENDROOT
BRANCH   1   2
HETATM    2  O1  UNL     1       6.455  10.954  21.148  1.00  0.00    -0.315 OA
BRANCH   2   3
HETATM    3  C1  UNL     1       5.327  11.722  21.359  1.00  0.00     0.213 C 
HETATM    4  N1  UNL     1       4.506  11.735  20.390  1.00  0.00    -0.365 N 
ATOM      5  H12 UNL     1       3.673  12.301  20.545  1.00  0.00     0.159 HD
ATOM      6  H11 UNL     1       4.656  11.222  19.521  1.00  0.00     0.159 HD
BRANCH   3   7
HETATM    7  N2  UNL     1       5.117  12.438  22.573  1.00  0.00    -0.352 N 
ATOM      8  H2  UNL     1       5.797  13.132  22.881  1.00  0.00     0.163 HD
BRANCH   7   9
HETATM    9  C2  UNL     1       3.948  12.179  23.362  1.00  0.00     0.161 C 
BRANCH   9  10
HETATM   10  C3  UNL     1       4.011  10.793  23.879  1.00  0.00    -0.041 A 
HETATM   11  C4  UNL     1       3.010   9.913  23.557  1.00  0.00     0.009 A 
HETATM   12  C5  UNL     1       3.072   8.630  24.038  1.00  0.00     0.001 A 
HETATM   13  C6  UNL     1       4.105   8.168  24.841  1.00  0.00     0.000 A 
HETATM   14  C7  UNL     1       5.080   9.084  25.132  1.00  0.00     0.001 A 
HETATM   15  C8  UNL     1       5.050  10.380  24.667  1.00  0.00     0.009 A 
ENDBRANCH   9  10
ENDBRANCH   7   9
ENDBRANCH   3   7
ENDBRANCH   2   3
ENDBRANCH   1   2
BRANCH   1  16
HETATM   16  C10 UNL     1       7.794   9.357  19.838  1.00  0.00     0.092 C 
BRANCH  16  17
HETATM   17  C11 UNL     1       8.175  10.469  18.896  1.00  0.00     0.028 A 
HETATM   18  C12 UNL     1       8.397  10.355  17.537  1.00  0.00     0.114 A 
HETATM   19  N3  UNL     1       8.699  11.573  17.059  1.00  0.00    -0.360 N 
HETATM   20  C13 UNL     1       8.675  12.442  18.056  1.00  0.00     0.180 A 
ATOM     21  H3  UNL     1       8.912  11.792  16.086  1.00  0.00     0.166 HD
HETATM   22  N4  UNL     1       8.358  11.772  19.172  1.00  0.00    -0.354 N 
ATOM     23  H4  UNL     1       8.267  12.191  20.098  1.00  0.00     0.166 HD
ENDBRANCH  16  17
ENDBRANCH   1  16
BRANCH   1  24
HETATM   24  C14 UNL     1       6.103   8.689  21.588  1.00  0.00     0.305 C 
BRANCH  24  25
HETATM   25  N5  UNL     1       5.073   7.843  21.157  1.00  0.00     0.094 N 
HETATM   26  C15 UNL     1       4.657   7.835  19.815  1.00  0.00     0.292 C 
HETATM   27  C16 UNL     1       4.649   6.457  19.172  1.00  0.00     0.153 C 
HETATM   28  N6  UNL     1       3.822   5.599  19.979  1.00  0.00    -0.378 N 
HETATM   29  C23 UNL     1       4.032   5.649  21.433  1.00  0.00     0.153 C 
HETATM   30  C24 UNL     1       5.257   6.512  21.674  1.00  0.00     0.292 C 
BRANCH  28  31
HETATM   31  C17 UNL     1       2.855   4.738  19.415  1.00  0.00     0.030 A 
HETATM   32  C18 UNL     1       2.755   4.394  18.091  1.00  0.00     0.029 A 
HETATM   33  C19 UNL     1       1.758   3.533  17.628  1.00  0.00     0.002 A 
HETATM   34  C20 UNL     1       0.838   2.997  18.487  1.00  0.00     0.000 A 
HETATM   35  C21 UNL     1       0.927   3.334  19.820  1.00  0.00     0.002 A 
HETATM   36  C22 UNL     1       1.907   4.180  20.271  1.00  0.00     0.029 A 
ENDBRANCH  28  31
ENDBRANCH  24  25
ENDBRANCH   1  24
TORSDOF 10
ENDMDL
MODEL 2
REMARK VINA RESULT: -7.507418213      0.900      1.390
REMARK  10 active torsions:
REMARK  status: ('A' for Active; 'I' for Inactive)
REMARK    1  A    between atoms: C1_4  and  N2_5 
REMARK    2  A    between atoms: C1_4  and  O1_14 
REMARK    3  A    between atoms: N2_5  and  C2_7 
REMARK    4  A    between atoms: C2_7  and  C3_8 
REMARK    5  A    between atoms: O1_14  and  C9_15 
REMARK    6  A    between atoms: C9_15  and  C10_16 
REMARK    7  A    between atoms: C9_15  and  C14_24 
REMARK    8  A    between atoms: C10_16  and  C11_17 
REMARK    9  A    between atoms: C14_24  and  N5_25 
REMARK   10  A    between atoms: N6_28  and  C17_29 
ROOT
HETATM    1  C9  UNL     1       6.464   9.365  20.335  1.00  0.00     0.165 C 
ENDROOT
BRANCH   1   2
HETATM    2  O1  UNL     1       5.645  10.403  20.655  1.00  0.00    -0.315 OA
BRANCH   2   3
HETATM    3  C1  UNL     1       5.955  11.619  21.230  1.00  0.00     0.213 C 
HETATM    4  N1  UNL     1       6.220  12.545  20.402  1.00  0.00    -0.365 N 
ATOM      5  H12 UNL     1       6.448  13.444  20.826  1.00  0.00     0.159 HD
ATOM      6  H11 UNL     1       6.208  12.413  19.390  1.00  0.00     0.159 HD
BRANCH   3   7
HETATM    7  N2  UNL     1       5.972  11.803  22.643  1.00  0.00    -0.352 N 
ATOM      8  H2  UNL     1       6.857  11.947  23.129  1.00  0.00     0.163 HD
BRANCH   7   9
HETATM    9  C2  UNL     1       4.742  11.785  23.380  1.00  0.00     0.161 C 
BRANCH   9  10
HETATM   10  C3  UNL     1       4.480  10.404  23.848  1.00  0.00    -0.041 A 
HETATM   11  C4  UNL     1       3.331   9.771  23.451  1.00  0.00     0.009 A 
HETATM   12  C5  UNL     1       3.092   8.492  23.885  1.00  0.00     0.001 A 
HETATM   13  C6  UNL     1       3.960   7.797  24.714  1.00  0.00     0.000 A 
HETATM   14  C7  UNL     1       5.092   8.472  25.082  1.00  0.00     0.001 A 
HETATM   15  C8  UNL     1       5.365   9.756  24.665  1.00  0.00     0.009 A 
ENDBRANCH   9  10
ENDBRANCH   7   9
ENDBRANCH   3   7
ENDBRANCH   2   3
ENDBRANCH   1   2
BRANCH   1  16
HETATM   16  C10 UNL     1       7.902   9.576  20.120  1.00  0.00     0.092 C 
BRANCH  16  17
HETATM   17  C11 UNL     1       8.169   9.717  18.645  1.00  0.00     0.028 A 
HETATM   18  C12 UNL     1       8.437  10.890  17.967  1.00  0.00     0.114 A 
HETATM   19  N3  UNL     1       8.632  10.590  16.672  1.00  0.00    -0.360 N 
HETATM   20  C13 UNL     1       8.499   9.283  16.512  1.00  0.00     0.180 A 
ATOM     21  H3  UNL     1       8.847  11.260  15.934  1.00  0.00     0.166 HD
HETATM   22  N4  UNL     1       8.218   8.753  17.708  1.00  0.00    -0.354 N 
ATOM     23  H4  UNL     1       8.062   7.760  17.885  1.00  0.00     0.166 HD
ENDBRANCH  16  17
ENDBRANCH   1  16
BRANCH   1  24
HETATM   24  C14 UNL     1       6.135   8.214  21.300  1.00  0.00     0.305 C 
BRANCH  24  25
HETATM   25  N5  UNL     1       5.019   7.441  20.953  1.00  0.00     0.094 N 
HETATM   26  C15 UNL     1       4.596   7.339  19.617  1.00  0.00     0.292 C 
HETATM   27  C16 UNL     1       4.439   5.910  19.119  1.00  0.00     0.153 C 
HETATM   28  N6  UNL     1       3.532   5.232  20.007  1.00  0.00    -0.378 N 
HETATM   29  C23 UNL     1       3.754   5.409  21.449  1.00  0.00     0.153 C 
HETATM   30  C24 UNL     1       5.065   6.158  21.605  1.00  0.00     0.292 C 
BRANCH  28  31
HETATM   31  C17 UNL     1       2.477   4.423  19.529  1.00  0.00     0.030 A 
HETATM   32  C18 UNL     1       1.417   3.962  20.267  1.00  0.00     0.029 A 
HETATM   33  C19 UNL     1       0.421   3.163  19.703  1.00  0.00     0.002 A 
HETATM   34  C20 UNL     1       0.467   2.810  18.381  1.00  0.00     0.000 A 
HETATM   35  C21 UNL     1       1.527   3.267  17.628  1.00  0.00     0.002 A 
HETATM   36  C22 UNL     1       2.503   4.051  18.186  1.00  0.00     0.029 A 
ENDBRANCH  28  31
ENDBRANCH  24  25
ENDBRANCH   1  24
TORSDOF 10
ENDMDL
MODEL 3
REMARK VINA RESULT: -7.488750955      0.899      1.385
REMARK  10 active torsions:
REMARK  status: ('A' for Active; 'I' for Inactive)
REMARK    1  A    between atoms: C1_4  and  N2_5 
REMARK    2  A    between atoms: C1_4  and  O1_14 
REMARK    3  A    between atoms: N2_5  and  C2_7 
REMARK    4  A    between atoms: C2_7  and  C3_8 
REMARK    5  A    between atoms: O1_14  and  C9_15 
REMARK    6  A    between atoms: C9_15  and  C10_16 
REMARK    7  A    between atoms: C9_15  and  C14_24 
REMARK    8  A    between atoms: C10_16  and  C11_17 
REMARK    9  A    between atoms: C14_24  and  N5_25 
REMARK   10  A    between atoms: N6_28  and  C17_29 
ROOT
HETATM    1  C9  UNL     1       6.442   9.372  20.343  1.00  0.00     0.165 C 
ENDROOT
BRANCH   1   2
HETATM    2  O1  UNL     1       5.622  10.407  20.673  1.00  0.00    -0.315 OA
BRANCH   2   3
HETATM    3  C1  UNL     1       5.934  11.630  21.230  1.00  0.00     0.213 C 
HETATM    4  N1  UNL     1       6.227  12.537  20.388  1.00  0.00    -0.365 N 
ATOM      5  H12 UNL     1       6.458  13.441  20.800  1.00  0.00     0.159 HD
ATOM      6  H11 UNL     1       6.233  12.385  19.380  1.00  0.00     0.159 HD
BRANCH   3   7
HETATM    7  N2  UNL     1       5.925  11.843  22.639  1.00  0.00    -0.352 N 
ATOM      8  H2  UNL     1       6.798  12.024  23.133  1.00  0.00     0.163 HD
BRANCH   7   9
HETATM    9  C2  UNL     1       4.687  11.802  23.359  1.00  0.00     0.161 C 
BRANCH   9  10
HETATM   10  C3  UNL     1       4.438  10.414  23.812  1.00  0.00    -0.041 A 
HETATM   11  C4  UNL     1       5.361   9.797  24.617  1.00  0.00     0.009 A 
HETATM   12  C5  UNL     1       5.127   8.512  25.034  1.00  0.00     0.001 A 
HETATM   13  C6  UNL     1       3.993   7.794  24.683  1.00  0.00     0.000 A 
HETATM   14  C7  UNL     1       3.103   8.453  23.880  1.00  0.00     0.001 A 
HETATM   15  C8  UNL     1       3.305   9.743  23.442  1.00  0.00     0.009 A 
ENDBRANCH   9  10
ENDBRANCH   7   9
ENDBRANCH   3   7
ENDBRANCH   2   3
ENDBRANCH   1   2
BRANCH   1  16
HETATM   16  C10 UNL     1       7.881   9.585  20.141  1.00  0.00     0.092 C 
BRANCH  16  17
HETATM   17  C11 UNL     1       8.160   9.730  18.668  1.00  0.00     0.028 A 
HETATM   18  C12 UNL     1       8.431  10.905  17.994  1.00  0.00     0.114 A 
HETATM   19  N3  UNL     1       8.637  10.608  16.701  1.00  0.00    -0.360 N 
HETATM   20  C13 UNL     1       8.508   9.302  16.536  1.00  0.00     0.180 A 
ATOM     21  H3  UNL     1       8.857  11.280  15.966  1.00  0.00     0.166 HD
HETATM   22  N4  UNL     1       8.218   8.768  17.730  1.00  0.00    -0.354 N 
ATOM     23  H4  UNL     1       8.063   7.774  17.903  1.00  0.00     0.166 HD
ENDBRANCH  16  17
ENDBRANCH   1  16
BRANCH   1  24
HETATM   24  C14 UNL     1       6.105   8.208  21.290  1.00  0.00     0.305 C 
BRANCH  24  25
HETATM   25  N5  UNL     1       5.000   7.432  20.916  1.00  0.00     0.094 N 
HETATM   26  C15 UNL     1       4.607   7.332  19.571  1.00  0.00     0.292 C 
HETATM   27  C16 UNL     1       4.466   5.904  19.067  1.00  0.00     0.153 C 
HETATM   28  N6  UNL     1       3.542   5.220  19.933  1.00  0.00    -0.378 N 
HETATM   29  C23 UNL     1       3.732   5.394  21.380  1.00  0.00     0.153 C 
HETATM   30  C24 UNL     1       5.036   6.148  21.567  1.00  0.00     0.292 C 
BRANCH  28  31
HETATM   31  C17 UNL     1       2.500   4.410  19.431  1.00  0.00     0.030 A 
HETATM   32  C18 UNL     1       2.378   3.958  18.142  1.00  0.00     0.029 A 
HETATM   33  C19 UNL     1       1.305   3.160  17.740  1.00  0.00     0.002 A 
HETATM   34  C20 UNL     1       0.329   2.796  18.627  1.00  0.00     0.000 A 
HETATM   35  C21 UNL     1       0.439   3.243  19.926  1.00  0.00     0.002 A 
HETATM   36  C22 UNL     1       1.494   4.026  20.316  1.00  0.00     0.029 A 
ENDBRANCH  28  31
ENDBRANCH  24  25
ENDBRANCH   1  24
TORSDOF 10
ENDMDL
MODEL 4
REMARK VINA RESULT: -7.448589000      1.457      5.207
REMARK  10 active torsions:
REMARK  status: ('A' for Active; 'I' for Inactive)
REMARK    1  A    between atoms: C1_4  and  N2_5 
REMARK    2  A    between atoms: C1_4  and  O1_14 
REMARK    3  A    between atoms: N2_5  and  C2_7 
REMARK    4  A    between atoms: C2_7  and  C3_8 
REMARK    5  A    between atoms: O1_14  and  C9_15 
REMARK    6  A    between atoms: C9_15  and  C10_16 
REMARK    7  A    between atoms: C9_15  and  C14_24 
REMARK    8  A    between atoms: C10_16  and  C11_17 
REMARK    9  A    between atoms: C14_24  and  N5_25 
REMARK   10  A    between atoms: N6_28  and  C17_29 
ROOT
HETATM    1  C9  UNL     1       5.438   9.439  22.006  1.00  0.00     0.165 C 
ENDROOT
BRANCH   1   2
HETATM    2  O1  UNL     1       5.306  10.442  21.096  1.00  0.00    -0.315 OA
BRANCH   2   3
HETATM    3  C1  UNL     1       5.776  11.738  21.144  1.00  0.00     0.213 C 
HETATM    4  N1  UNL     1       5.283  12.447  22.076  1.00  0.00    -0.365 N 
ATOM      5  H12 UNL     1       5.630  13.405  22.113  1.00  0.00     0.159 HD
ATOM      6  H11 UNL     1       4.594  12.097  22.743  1.00  0.00     0.159 HD
BRANCH   3   7
HETATM    7  N2  UNL     1       6.738  12.228  20.214  1.00  0.00    -0.352 N 
ATOM      8  H2  UNL     1       6.474  12.938  19.532  1.00  0.00     0.163 HD
BRANCH   7   9
HETATM    9  C2  UNL     1       8.078  11.719  20.238  1.00  0.00     0.161 C 
BRANCH   9  10
HETATM   10  C3  UNL     1       8.393  11.123  18.919  1.00  0.00    -0.041 A 
HETATM   11  C4  UNL     1       8.099   9.803  18.695  1.00  0.00     0.009 A 
HETATM   12  C5  UNL     1       8.392   9.255  17.472  1.00  0.00     0.001 A 
HETATM   13  C6  UNL     1       8.975   9.972  16.438  1.00  0.00     0.000 A 
HETATM   14  C7  UNL     1       9.247  11.285  16.711  1.00  0.00     0.001 A 
HETATM   15  C8  UNL     1       8.968  11.869  17.927  1.00  0.00     0.009 A 
ENDBRANCH   9  10
ENDBRANCH   7   9
ENDBRANCH   3   7
ENDBRANCH   2   3
ENDBRANCH   1   2
BRANCH   1  16
HETATM   16  C10 UNL     1       4.420   9.222  23.043  1.00  0.00     0.092 C 
BRANCH  16  17
HETATM   17  C11 UNL     1       5.065   9.313  24.400  1.00  0.00     0.028 A 
HETATM   18  C12 UNL     1       5.173  10.446  25.184  1.00  0.00     0.114 A 
HETATM   19  N3  UNL     1       5.798  10.107  26.324  1.00  0.00    -0.360 N 
HETATM   20  C13 UNL     1       6.084   8.816  26.288  1.00  0.00     0.180 A 
ATOM     21  H3  UNL     1       6.017  10.742  27.091  1.00  0.00     0.166 HD
HETATM   22  N4  UNL     1       5.640   8.333  25.120  1.00  0.00    -0.354 N 
ATOM     23  H4  UNL     1       5.725   7.362  24.819  1.00  0.00     0.166 HD
ENDBRANCH  16  17
ENDBRANCH   1  16
BRANCH   1  24
HETATM   24  C14 UNL     1       5.826   8.170  21.230  1.00  0.00     0.305 C 
BRANCH  24  25
HETATM   25  N5  UNL     1       4.755   7.355  20.840  1.00  0.00     0.094 N 
HETATM   26  C15 UNL     1       4.266   7.382  19.524  1.00  0.00     0.292 C 
HETATM   27  C16 UNL     1       4.192   6.017  18.857  1.00  0.00     0.153 C 
HETATM   28  N6  UNL     1       3.392   5.162  19.693  1.00  0.00    -0.378 N 
HETATM   29  C23 UNL     1       3.682   5.178  21.134  1.00  0.00     0.153 C 
HETATM   30  C24 UNL     1       4.937   6.010  21.322  1.00  0.00     0.292 C 
BRANCH  28  31
HETATM   31  C17 UNL     1       2.376   4.332  19.167  1.00  0.00     0.030 A 
HETATM   32  C18 UNL     1       2.387   3.724  17.938  1.00  0.00     0.029 A 
HETATM   33  C19 UNL     1       1.330   2.921  17.506  1.00  0.00     0.002 A 
HETATM   34  C20 UNL     1       0.236   2.710  18.301  1.00  0.00     0.000 A 
HETATM   35  C21 UNL     1       0.213   3.316  19.539  1.00  0.00     0.002 A 
HETATM   36  C22 UNL     1       1.253   4.104  19.960  1.00  0.00     0.029 A 
ENDBRANCH  28  31
ENDBRANCH  24  25
ENDBRANCH   1  24
TORSDOF 10
ENDMDL
MODEL 5
REMARK VINA RESULT: -7.445097661      2.804      6.256
REMARK  10 active torsions:
REMARK  status: ('A' for Active; 'I' for Inactive)
REMARK    1  A    between atoms: C1_4  and  N2_5 
REMARK    2  A    between atoms: C1_4  and  O1_14 
REMARK    3  A    between atoms: N2_5  and  C2_7 
REMARK    4  A    between atoms: C2_7  and  C3_8 
REMARK    5  A    between atoms: O1_14  and  C9_15 
REMARK    6  A    between atoms: C9_15  and  C10_16 
REMARK    7  A    between atoms: C9_15  and  C14_24 
REMARK    8  A    between atoms: C10_16  and  C11_17 
REMARK    9  A    between atoms: C14_24  and  N5_25 
REMARK   10  A    between atoms: N6_28  and  C17_29 
ROOT
HETATM    1  C9  UNL     1       5.011  11.305  26.245  1.00  0.00     0.165 C 
ENDROOT
BRANCH   1   2
HETATM    2  O1  UNL     1       4.095  11.872  25.413  1.00  0.00    -0.315 OA
BRANCH   2   3
HETATM    3  C1  UNL     1       4.245  12.311  24.113  1.00  0.00     0.213 C 
HETATM    4  N1  UNL     1       3.446  13.238  23.771  1.00  0.00    -0.365 N 
ATOM      5  H12 UNL     1       3.556  13.563  22.811  1.00  0.00     0.159 HD
ATOM      6  H11 UNL     1       2.745  13.634  24.399  1.00  0.00     0.159 HD
BRANCH   3   7
HETATM    7  N2  UNL     1       5.224  11.759  23.237  1.00  0.00    -0.352 N 
ATOM      8  H2  UNL     1       5.894  11.075  23.587  1.00  0.00     0.163 HD
BRANCH   7   9
HETATM    9  C2  UNL     1       5.264  12.166  21.863  1.00  0.00     0.161 C 
BRANCH   9  10
HETATM   10  C3  UNL     1       6.207  11.292  21.128  1.00  0.00    -0.041 A 
HETATM   11  C4  UNL     1       5.955   9.946  21.059  1.00  0.00     0.009 A 
HETATM   12  C5  UNL     1       6.830   9.139  20.378  1.00  0.00     0.001 A 
HETATM   13  C6  UNL     1       7.969   9.617  19.746  1.00  0.00     0.000 A 
HETATM   14  C7  UNL     1       8.175  10.966  19.843  1.00  0.00     0.001 A 
HETATM   15  C8  UNL     1       7.318  11.806  20.519  1.00  0.00     0.009 A 
ENDBRANCH   9  10
ENDBRANCH   7   9
ENDBRANCH   3   7
ENDBRANCH   2   3
ENDBRANCH   1   2
BRANCH   1  16
HETATM   16  C10 UNL     1       5.798  12.128  27.172  1.00  0.00     0.092 C 
BRANCH  16  17
HETATM   17  C11 UNL     1       5.031  13.382  27.498  1.00  0.00     0.028 A 
HETATM   18  C12 UNL     1       4.294  13.622  28.642  1.00  0.00     0.114 A 
HETATM   19  N3  UNL     1       3.779  14.859  28.556  1.00  0.00    -0.360 N 
HETATM   20  C13 UNL     1       4.161  15.403  27.413  1.00  0.00     0.180 A 
ATOM     21  H3  UNL     1       3.190  15.306  29.258  1.00  0.00     0.166 HD
HETATM   22  N4  UNL     1       4.921  14.508  26.769  1.00  0.00    -0.354 N 
ATOM     23  H4  UNL     1       5.353  14.657  25.857  1.00  0.00     0.166 HD
ENDBRANCH  16  17
ENDBRANCH   1  16
BRANCH   1  24
HETATM   24  C14 UNL     1       4.335  10.089  26.901  1.00  0.00     0.305 C 
BRANCH  24  25
HETATM   25  N5  UNL     1       4.245   8.946  26.095  1.00  0.00     0.094 N 
HETATM   26  C15 UNL     1       3.121   8.720  25.283  1.00  0.00     0.292 C 
HETATM   27  C16 UNL     1       3.450   8.453  23.823  1.00  0.00     0.153 C 
HETATM   28  N6  UNL     1       4.362   7.342  23.772  1.00  0.00    -0.378 N 
HETATM   29  C23 UNL     1       5.494   7.365  24.711  1.00  0.00     0.153 C 
HETATM   30  C24 UNL     1       5.478   8.724  25.386  1.00  0.00     0.292 C 
BRANCH  28  31
HETATM   31  C17 UNL     1       4.196   6.273  22.864  1.00  0.00     0.030 A 
HETATM   32  C18 UNL     1       3.417   5.162  23.058  1.00  0.00     0.029 A 
HETATM   33  C19 UNL     1       3.319   4.154  22.097  1.00  0.00     0.002 A 
HETATM   34  C20 UNL     1       4.005   4.240  20.915  1.00  0.00     0.000 A 
HETATM   35  C21 UNL     1       4.792   5.352  20.707  1.00  0.00     0.002 A 
HETATM   36  C22 UNL     1       4.885   6.340  21.654  1.00  0.00     0.029 A 
ENDBRANCH  28  31
ENDBRANCH  24  25
ENDBRANCH   1  24
TORSDOF 10
ENDMDL
