MODEL 1
REMARK VINA RESULT: -7.679670229      0.000      0.000
REMARK  9 active torsions:
REMARK  status: ('A' for Active; 'I' for Inactive)
REMARK    1  A    between atoms: N1_8  and  C8_9 
REMARK    2  A    between atoms: C8_9  and  C9_10 
REMARK    3  A    between atoms: C9_10  and  C10_11 
REMARK    4  A    between atoms: C10_11  and  C11_12 
REMARK       I    between atoms: C11_12  and  N2_14 
REMARK    5  A    between atoms: N2_14  and  C12_16 
REMARK    6  A    between atoms: C12_16  and  C13_17 
REMARK    7  A    between atoms: C12_16  and  C20_24 
REMARK    8  A    between atoms: C13_17  and  C14_18 
REMARK       I    between atoms: C20_24  and  N3_26 
REMARK    9  A    between atoms: N3_26  and  C21_28 
ROOT
HETATM    1  C21 UNL     1       4.116  11.805  24.485  1.00  0.00     0.115 C 
HETATM    2  C22 UNL     1       3.136  10.657  24.723  1.00  0.00     0.055 C 
HETATM    3  C23 UNL     1       3.325  12.963  23.929  1.00  0.00     0.055 C 
HETATM    4  C24 UNL     1       4.676  12.251  25.783  1.00  0.00     0.090 C 
HETATM    5  N4  UNL     1       5.121  12.594  26.794  1.00  0.00    -0.195 NA
ENDROOT
BRANCH   1   6
HETATM    6  N3  UNL     1       5.171  11.363  23.615  1.00  0.00    -0.338 N 
HETATM    7  C20 UNL     1       4.876  10.714  22.406  1.00  0.00     0.241 C 
HETATM    8  O2  UNL     1       3.624  10.541  22.155  1.00  0.00    -0.271 OA
ATOM      9  H3  UNL     1       6.144  11.522  23.878  1.00  0.00     0.164 HD
BRANCH   7  10
HETATM   10  C12 UNL     1       5.823  10.205  21.398  1.00  0.00     0.177 C 
BRANCH  10  11
HETATM   11  N2  UNL     1       5.051   9.170  20.633  1.00  0.00    -0.348 N 
HETATM   12  C11 UNL     1       5.303   7.792  20.855  1.00  0.00     0.218 C 
HETATM   13  O1  UNL     1       6.168   7.473  21.700  1.00  0.00    -0.274 OA
ATOM     14  H2  UNL     1       4.346   9.457  19.954  1.00  0.00     0.163 HD
BRANCH  12  15
HETATM   15  C10 UNL     1       4.575   6.743  20.118  1.00  0.00     0.104 C 
BRANCH  15  16
HETATM   16  C9  UNL     1       4.100   5.697  21.083  1.00  0.00     0.029 C 
BRANCH  16  17
HETATM   17  C8  UNL     1       4.306   4.294  20.551  1.00  0.00     0.118 C 
BRANCH  17  18
HETATM   18  N1  UNL     1       3.064   3.619  20.372  1.00  0.00    -0.405 N 
HETATM   19  C2  UNL     1       2.104   4.330  19.597  1.00  0.00     0.075 C 
HETATM   20  C1  UNL     1       0.693   4.012  20.027  1.00  0.00     0.032 C 
HETATM   21  C3  UNL     1       2.220   4.036  18.113  1.00  0.00     0.024 C 
HETATM   22  C4  UNL     1       1.911   2.559  17.970  1.00  0.00     0.004 C 
HETATM   23  C5  UNL     1       2.988   1.810  18.701  1.00  0.00     0.024 C 
HETATM   24  C6  UNL     1       3.141   2.221  20.139  1.00  0.00     0.075 C 
HETATM   25  C7  UNL     1       4.413   1.581  20.647  1.00  0.00     0.032 C 
ENDBRANCH  17  18
ENDBRANCH  16  17
ENDBRANCH  15  16
ENDBRANCH  12  15
ENDBRANCH  10  11
BRANCH  10  26
HETATM   26  C13 UNL     1       6.181  11.289  20.429  1.00  0.00     0.039 C 
BRANCH  26  27
HETATM   27  C14 UNL     1       7.613  11.648  20.330  1.00  0.00    -0.012 C 
HETATM   28  C15 UNL     1       7.859  12.689  19.233  1.00  0.00     0.005 C 
HETATM   29  C16 UNL     1       8.764  12.153  18.158  1.00  0.00     0.000 C 
HETATM   30  C17 UNL     1       8.180  10.846  17.604  1.00  0.00     0.000 C 
HETATM   31  C18 UNL     1       8.169   9.819  18.698  1.00  0.00     0.000 C 
HETATM   32  C19 UNL     1       8.488  10.419  20.049  1.00  0.00     0.005 C 
ENDBRANCH  26  27
ENDBRANCH  10  26
ENDBRANCH   7  10
ENDBRANCH   1   6
TORSDOF 9
ENDMDL
MODEL 2
REMARK VINA RESULT: -7.555960448      1.099      1.613
REMARK  9 active torsions:
REMARK  status: ('A' for Active; 'I' for Inactive)
REMARK    1  A    between atoms: N1_8  and  C8_9 
REMARK    2  A    between atoms: C8_9  and  C9_10 
REMARK    3  A    between atoms: C9_10  and  C10_11 
REMARK    4  A    between atoms: C10_11  and  C11_12 
REMARK       I    between atoms: C11_12  and  N2_14 
REMARK    5  A    between atoms: N2_14  and  C12_16 
REMARK    6  A    between atoms: C12_16  and  C13_17 
REMARK    7  A    between atoms: C12_16  and  C20_24 
REMARK    8  A    between atoms: C13_17  and  C14_18 
REMARK       I    between atoms: C20_24  and  N3_26 
REMARK    9  A    between atoms: N3_26  and  C21_28 
ROOT
HETATM    1  C21 UNL     1       3.499  11.421  24.299  1.00  0.00     0.115 C 
HETATM    2  C22 UNL     1       2.153  10.814  24.687  1.00  0.00     0.055 C 
HETATM    3  C23 UNL     1       3.274  12.892  24.048  1.00  0.00     0.055 C 
HETATM    4  C24 UNL     1       4.433  11.320  25.446  1.00  0.00     0.090 C 
HETATM    5  N4  UNL     1       5.166  11.233  26.337  1.00  0.00    -0.195 NA
ENDROOT
BRANCH   1   6
HETATM    6  N3  UNL     1       4.032  10.722  23.162  1.00  0.00    -0.338 N 
HETATM    7  C20 UNL     1       5.198  11.175  22.526  1.00  0.00     0.241 C 
HETATM    8  O2  UNL     1       5.727  12.242  23.020  1.00  0.00    -0.271 OA
ATOM      9  H3  UNL     1       3.558   9.888  22.814  1.00  0.00     0.164 HD
BRANCH   7  10
HETATM   10  C12 UNL     1       5.883  10.582  21.363  1.00  0.00     0.177 C 
BRANCH  10  11
HETATM   11  N2  UNL     1       4.846   9.721  20.704  1.00  0.00    -0.348 N 
HETATM   12  C11 UNL     1       5.080   8.331  20.539  1.00  0.00     0.218 C 
HETATM   13  O1  UNL     1       6.155   7.855  20.961  1.00  0.00    -0.274 OA
ATOM     14  H2  UNL     1       3.974  10.134  20.374  1.00  0.00     0.163 HD
BRANCH  12  15
HETATM   15  C10 UNL     1       4.092   7.452  19.888  1.00  0.00     0.104 C 
BRANCH  15  16
HETATM   16  C9  UNL     1       4.785   6.225  19.373  1.00  0.00     0.029 C 
BRANCH  16  17
HETATM   17  C8  UNL     1       4.598   5.036  20.293  1.00  0.00     0.118 C 
BRANCH  17  18
HETATM   18  N1  UNL     1       3.226   4.666  20.391  1.00  0.00    -0.405 N 
HETATM   19  C2  UNL     1       2.769   3.787  19.366  1.00  0.00     0.075 C 
HETATM   20  C1  UNL     1       1.310   4.008  19.052  1.00  0.00     0.032 C 
HETATM   21  C3  UNL     1       2.956   2.326  19.726  1.00  0.00     0.024 C 
HETATM   22  C4  UNL     1       2.081   2.095  20.942  1.00  0.00     0.004 C 
HETATM   23  C5  UNL     1       2.633   2.944  22.051  1.00  0.00     0.024 C 
HETATM   24  C6  UNL     1       2.742   4.401  21.699  1.00  0.00     0.075 C 
HETATM   25  C7  UNL     1       3.545   5.061  22.797  1.00  0.00     0.032 C 
ENDBRANCH  17  18
ENDBRANCH  16  17
ENDBRANCH  15  16
ENDBRANCH  12  15
ENDBRANCH  10  11
BRANCH  10  26
HETATM   26  C13 UNL     1       6.256  11.649  20.382  1.00  0.00     0.039 C 
BRANCH  26  27
HETATM   27  C14 UNL     1       7.699  11.936  20.226  1.00  0.00    -0.012 C 
HETATM   28  C15 UNL     1       7.967  12.833  19.012  1.00  0.00     0.005 C 
HETATM   29  C16 UNL     1       8.834  12.141  17.997  1.00  0.00     0.000 C 
HETATM   30  C17 UNL     1       8.191  10.803  17.604  1.00  0.00     0.000 C 
HETATM   31  C18 UNL     1       8.158   9.911  18.810  1.00  0.00     0.000 C 
HETATM   32  C19 UNL     1       8.521  10.649  20.080  1.00  0.00     0.005 C 
ENDBRANCH  26  27
ENDBRANCH  10  26
ENDBRANCH   7  10
ENDBRANCH   1   6
TORSDOF 9
ENDMDL
MODEL 3
REMARK VINA RESULT: -7.540198505      0.887      1.007
REMARK  9 active torsions:
REMARK  status: ('A' for Active; 'I' for Inactive)
REMARK    1  A    between atoms: N1_8  and  C8_9 
REMARK    2  A    between atoms: C8_9  and  C9_10 
REMARK    3  A    between atoms: C9_10  and  C10_11 
REMARK    4  A    between atoms: C10_11  and  C11_12 
REMARK       I    between atoms: C11_12  and  N2_14 
REMARK    5  A    between atoms: N2_14  and  C12_16 
REMARK    6  A    between atoms: C12_16  and  C13_17 
REMARK    7  A    between atoms: C12_16  and  C20_24 
REMARK    8  A    between atoms: C13_17  and  C14_18 
REMARK       I    between atoms: C20_24  and  N3_26 
REMARK    9  A    between atoms: N3_26  and  C21_28 
ROOT
HETATM    1  C21 UNL     1       3.356  10.278  24.460  1.00  0.00     0.115 C 
HETATM    2  C22 UNL     1       2.052   9.658  23.963  1.00  0.00     0.055 C 
HETATM    3  C23 UNL     1       3.197  11.777  24.390  1.00  0.00     0.055 C 
HETATM    4  C24 UNL     1       3.550   9.934  25.889  1.00  0.00     0.090 C 
HETATM    5  N4  UNL     1       3.709   9.658  27.001  1.00  0.00    -0.195 NA
ENDROOT
BRANCH   1   6
HETATM    6  N3  UNL     1       4.454   9.783  23.676  1.00  0.00    -0.338 N 
HETATM    7  C20 UNL     1       4.720  10.313  22.405  1.00  0.00     0.241 C 
HETATM    8  O2  UNL     1       3.919  11.239  22.005  1.00  0.00    -0.271 OA
ATOM      9  H3  UNL     1       5.045   9.039  24.047  1.00  0.00     0.164 HD
BRANCH   7  10
HETATM   10  C12 UNL     1       5.799   9.933  21.474  1.00  0.00     0.177 C 
BRANCH  10  11
HETATM   11  N2  UNL     1       5.222   8.820  20.650  1.00  0.00    -0.348 N 
HETATM   12  C11 UNL     1       5.302   7.481  21.114  1.00  0.00     0.218 C 
HETATM   13  O1  UNL     1       5.851   7.265  22.216  1.00  0.00    -0.274 OA
ATOM     14  H2  UNL     1       4.773   9.024  19.758  1.00  0.00     0.163 HD
BRANCH  12  15
HETATM   15  C10 UNL     1       4.758   6.356  20.331  1.00  0.00     0.104 C 
BRANCH  15  16
HETATM   16  C9  UNL     1       4.082   5.389  21.257  1.00  0.00     0.029 C 
BRANCH  16  17
HETATM   17  C8  UNL     1       4.249   3.953  20.804  1.00  0.00     0.118 C 
BRANCH  17  18
HETATM   18  N1  UNL     1       2.993   3.356  20.496  1.00  0.00    -0.405 N 
HETATM   19  C2  UNL     1       2.112   4.177  19.734  1.00  0.00     0.075 C 
HETATM   20  C1  UNL     1       0.665   3.889  20.055  1.00  0.00     0.032 C 
HETATM   21  C3  UNL     1       2.304   4.006  18.239  1.00  0.00     0.024 C 
HETATM   22  C4  UNL     1       1.942   2.564  17.948  1.00  0.00     0.004 C 
HETATM   23  C5  UNL     1       2.941   1.704  18.668  1.00  0.00     0.024 C 
HETATM   24  C6  UNL     1       3.024   1.981  20.143  1.00  0.00     0.075 C 
HETATM   25  C7  UNL     1       4.235   1.240  20.663  1.00  0.00     0.032 C 
ENDBRANCH  17  18
ENDBRANCH  16  17
ENDBRANCH  15  16
ENDBRANCH  12  15
ENDBRANCH  10  11
BRANCH  10  26
HETATM   26  C13 UNL     1       6.097  11.063  20.538  1.00  0.00     0.039 C 
BRANCH  26  27
HETATM   27  C14 UNL     1       7.505  11.510  20.460  1.00  0.00    -0.012 C 
HETATM   28  C15 UNL     1       7.683  12.636  19.436  1.00  0.00     0.005 C 
HETATM   29  C16 UNL     1       8.611  12.228  18.325  1.00  0.00     0.000 C 
HETATM   30  C17 UNL     1       8.101  10.930  17.685  1.00  0.00     0.000 C 
HETATM   31  C18 UNL     1       8.156   9.832  18.707  1.00  0.00     0.000 C 
HETATM   32  C19 UNL     1       8.448  10.357  20.095  1.00  0.00     0.005 C 
ENDBRANCH  26  27
ENDBRANCH  10  26
ENDBRANCH   7  10
ENDBRANCH   1   6
TORSDOF 9
ENDMDL
MODEL 4
REMARK VINA RESULT: -7.483700826      1.228      2.100
REMARK  9 active torsions:
REMARK  status: ('A' for Active; 'I' for Inactive)
REMARK    1  A    between atoms: N1_8  and  C8_9 
REMARK    2  A    between atoms: C8_9  and  C9_10 
REMARK    3  A    between atoms: C9_10  and  C10_11 
REMARK    4  A    between atoms: C10_11  and  C11_12 
REMARK       I    between atoms: C11_12  and  N2_14 
REMARK    5  A    between atoms: N2_14  and  C12_16 
REMARK    6  A    between atoms: C12_16  and  C13_17 
REMARK    7  A    between atoms: C12_16  and  C20_24 
REMARK    8  A    between atoms: C13_17  and  C14_18 
REMARK       I    between atoms: C20_24  and  N3_26 
REMARK    9  A    between atoms: N3_26  and  C21_28 
ROOT
HETATM    1  C21 UNL     1       3.072  10.559  24.191  1.00  0.00     0.115 C 
HETATM    2  C22 UNL     1       1.634  10.046  24.227  1.00  0.00     0.055 C 
HETATM    3  C23 UNL     1       3.017  12.063  24.297  1.00  0.00     0.055 C 
HETATM    4  C24 UNL     1       3.798  10.071  25.388  1.00  0.00     0.090 C 
HETATM    5  N4  UNL     1       4.369   9.682  26.316  1.00  0.00    -0.195 NA
ENDROOT
BRANCH   1   6
HETATM    6  N3  UNL     1       3.719  10.094  22.994  1.00  0.00    -0.338 N 
HETATM    7  C20 UNL     1       4.989  10.570  22.637  1.00  0.00     0.241 C 
HETATM    8  O2  UNL     1       5.506  11.440  23.436  1.00  0.00    -0.271 OA
ATOM      9  H3  UNL     1       3.250   9.411  22.399  1.00  0.00     0.164 HD
BRANCH   7  10
HETATM   10  C12 UNL     1       5.796  10.200  21.461  1.00  0.00     0.177 C 
BRANCH  10  11
HETATM   11  N2  UNL     1       4.901   9.317  20.642  1.00  0.00    -0.348 N 
HETATM   12  C11 UNL     1       5.173   7.928  20.545  1.00  0.00     0.218 C 
HETATM   13  O1  UNL     1       6.161   7.471  21.159  1.00  0.00    -0.274 OA
ATOM     14  H2  UNL     1       4.097   9.715  20.156  1.00  0.00     0.163 HD
BRANCH  12  15
HETATM   15  C10 UNL     1       4.324   7.027  19.743  1.00  0.00     0.104 C 
BRANCH  15  16
HETATM   16  C9  UNL     1       4.653   5.604  20.083  1.00  0.00     0.029 C 
BRANCH  16  17
HETATM   17  C8  UNL     1       3.515   4.912  20.804  1.00  0.00     0.118 C 
BRANCH  17  18
HETATM   18  N1  UNL     1       3.356   3.569  20.357  1.00  0.00    -0.405 N 
HETATM   19  C2  UNL     1       4.016   2.592  21.155  1.00  0.00     0.075 C 
HETATM   20  C1  UNL     1       4.459   1.406  20.331  1.00  0.00     0.032 C 
HETATM   21  C3  UNL     1       3.146   2.079  22.286  1.00  0.00     0.024 C 
HETATM   22  C4  UNL     1       1.973   1.395  21.615  1.00  0.00     0.004 C 
HETATM   23  C5  UNL     1       1.218   2.452  20.861  1.00  0.00     0.024 C 
HETATM   24  C6  UNL     1       2.065   3.217  19.882  1.00  0.00     0.075 C 
HETATM   25  C7  UNL     1       1.240   4.393  19.412  1.00  0.00     0.032 C 
ENDBRANCH  17  18
ENDBRANCH  16  17
ENDBRANCH  15  16
ENDBRANCH  12  15
ENDBRANCH  10  11
BRANCH  10  26
HETATM   26  C13 UNL     1       6.092  11.412  20.633  1.00  0.00     0.039 C 
BRANCH  26  27
HETATM   27  C14 UNL     1       7.515  11.797  20.500  1.00  0.00    -0.012 C 
HETATM   28  C15 UNL     1       7.723  12.800  19.360  1.00  0.00     0.005 C 
HETATM   29  C16 UNL     1       8.625  12.241  18.294  1.00  0.00     0.000 C 
HETATM   30  C17 UNL     1       8.062  10.902  17.798  1.00  0.00     0.000 C 
HETATM   31  C18 UNL     1       8.088   9.919  18.931  1.00  0.00     0.000 C 
HETATM   32  C19 UNL     1       8.412  10.577  20.254  1.00  0.00     0.005 C 
ENDBRANCH  26  27
ENDBRANCH  10  26
ENDBRANCH   7  10
ENDBRANCH   1   6
TORSDOF 9
ENDMDL
MODEL 5
REMARK VINA RESULT: -7.353992375      1.989      3.288
REMARK  9 active torsions:
REMARK  status: ('A' for Active; 'I' for Inactive)
REMARK    1  A    between atoms: N1_8  and  C8_9 
REMARK    2  A    between atoms: C8_9  and  C9_10 
REMARK    3  A    between atoms: C9_10  and  C10_11 
REMARK    4  A    between atoms: C10_11  and  C11_12 
REMARK       I    between atoms: C11_12  and  N2_14 
REMARK    5  A    between atoms: N2_14  and  C12_16 
REMARK    6  A    between atoms: C12_16  and  C13_17 
REMARK    7  A    between atoms: C12_16  and  C20_24 
REMARK    8  A    between atoms: C13_17  and  C14_18 
REMARK       I    between atoms: C20_24  and  N3_26 
REMARK    9  A    between atoms: N3_26  and  C21_28 
ROOT
HETATM    1  C21 UNL     1       4.124  13.208  26.513  1.00  0.00     0.115 C 
HETATM    2  C22 UNL     1       5.380  13.311  27.376  1.00  0.00     0.055 C 
HETATM    3  C23 UNL     1       3.083  12.473  27.320  1.00  0.00     0.055 C 
HETATM    4  C24 UNL     1       3.590  14.567  26.259  1.00  0.00     0.090 C 
HETATM    5  N4  UNL     1       3.176  15.627  26.051  1.00  0.00    -0.195 NA
ENDROOT
BRANCH   1   6
HETATM    6  N3  UNL     1       4.447  12.560  25.271  1.00  0.00    -0.338 N 
HETATM    7  C20 UNL     1       4.978  11.262  25.259  1.00  0.00     0.241 C 
HETATM    8  O2  UNL     1       5.159  10.720  26.415  1.00  0.00    -0.271 OA
ATOM      9  H3  UNL     1       4.289  13.050  24.390  1.00  0.00     0.164 HD
BRANCH   7  10
HETATM   10  C12 UNL     1       5.356  10.450  24.089  1.00  0.00     0.177 C 
BRANCH  10  11
HETATM   11  N2  UNL     1       4.250   9.447  23.943  1.00  0.00    -0.348 N 
HETATM   12  C11 UNL     1       4.494   8.078  24.224  1.00  0.00     0.218 C 
HETATM   13  O1  UNL     1       5.638   7.742  24.599  1.00  0.00    -0.274 OA
ATOM     14  H2  UNL     1       3.324   9.748  23.642  1.00  0.00     0.163 HD
BRANCH  12  15
HETATM   15  C10 UNL     1       3.438   7.058  24.084  1.00  0.00     0.104 C 
BRANCH  15  16
HETATM   16  C9  UNL     1       3.945   5.934  23.229  1.00  0.00     0.029 C 
BRANCH  16  17
HETATM   17  C8  UNL     1       4.159   6.363  21.792  1.00  0.00     0.118 C 
BRANCH  17  18
HETATM   18  N1  UNL     1       4.262   5.237  20.925  1.00  0.00    -0.405 N 
HETATM   19  C2  UNL     1       3.535   4.088  21.348  1.00  0.00     0.075 C 
HETATM   20  C1  UNL     1       4.206   2.810  20.906  1.00  0.00     0.032 C 
HETATM   21  C3  UNL     1       2.111   4.075  20.827  1.00  0.00     0.024 C 
HETATM   22  C4  UNL     1       2.234   4.000  19.319  1.00  0.00     0.004 C 
HETATM   23  C5  UNL     1       2.905   5.265  18.867  1.00  0.00     0.024 C 
HETATM   24  C6  UNL     1       4.230   5.517  19.533  1.00  0.00     0.075 C 
HETATM   25  C7  UNL     1       4.640   6.928  19.179  1.00  0.00     0.032 C 
ENDBRANCH  17  18
ENDBRANCH  16  17
ENDBRANCH  15  16
ENDBRANCH  12  15
ENDBRANCH  10  11
BRANCH  10  26
HETATM   26  C13 UNL     1       5.351  11.292  22.851  1.00  0.00     0.039 C 
BRANCH  26  27
HETATM   27  C14 UNL     1       5.158  10.585  21.565  1.00  0.00    -0.012 C 
HETATM   28  C15 UNL     1       6.243   9.528  21.334  1.00  0.00     0.005 C 
HETATM   29  C16 UNL     1       7.054   9.832  20.103  1.00  0.00     0.000 C 
HETATM   30  C17 UNL     1       7.632  11.249  20.209  1.00  0.00     0.000 C 
HETATM   31  C18 UNL     1       6.499  12.233  20.223  1.00  0.00     0.000 C 
HETATM   32  C19 UNL     1       5.155  11.557  20.378  1.00  0.00     0.005 C 
ENDBRANCH  26  27
ENDBRANCH  10  26
ENDBRANCH   7  10
ENDBRANCH   1   6
TORSDOF 9
ENDMDL
