MODEL 1
REMARK VINA RESULT: -7.316390896      0.000      0.000
REMARK  9 active torsions:
REMARK  status: ('A' for Active; 'I' for Inactive)
REMARK    1  A    between atoms: C2_2  and  C3_3 
REMARK    2  A    between atoms: C3_3  and  C5_5 
REMARK    3  A    between atoms: C5_5  and  N1_6 
REMARK    4  A    between atoms: C5_5  and  C16_20 
REMARK       I    between atoms: N1_6  and  C6_8 
REMARK    5  A    between atoms: C6_8  and  C7_10 
REMARK    6  A    between atoms: C7_10  and  C8_11 
REMARK    7  A    between atoms: C7_10  and  C9_13 
REMARK       I    between atoms: C16_20  and  N2_22 
REMARK    8  A    between atoms: C21_27  and  C22_28 
REMARK    9  A    between atoms: C22_28  and  N3_29 
ROOT
HETATM    1  C5  UNL     1       4.674  10.822  24.046  1.00  0.00     0.180 C 
ENDROOT
BRANCH   1   2
HETATM    2  C3  UNL     1       3.203  10.944  24.030  1.00  0.00     0.013 C 
HETATM    3  C4  UNL     1       2.479   9.595  24.114  1.00  0.00     0.012 C 
BRANCH   2   4
HETATM    4  C2  UNL     1       2.565  11.968  24.901  1.00  0.00     0.002 C 
HETATM    5  C1  UNL     1       3.107  13.349  24.454  1.00  0.00     0.005 C 
ENDBRANCH   2   4
ENDBRANCH   1   2
BRANCH   1   6
HETATM    6  N1  UNL     1       5.293  10.057  23.014  1.00  0.00    -0.347 N 
HETATM    7  C6  UNL     1       5.092   9.944  21.667  1.00  0.00     0.223 C 
HETATM    8  O1  UNL     1       4.266  10.538  20.994  1.00  0.00    -0.273 OA
ATOM      9  H1  UNL     1       6.051   9.466  23.355  1.00  0.00     0.163 HD
BRANCH   7  10
HETATM   10  C7  UNL     1       5.985   8.966  20.893  1.00  0.00     0.092 C 
BRANCH  10  11
HETATM   11  C8  UNL     1       5.050   7.895  20.485  1.00  0.00     0.100 C 
HETATM   12  S1  UNL     1       5.070   6.403  21.482  1.00  0.00    -0.097 SA
ENDBRANCH  10  11
BRANCH  10  13
HETATM   13  C9  UNL     1       6.768   9.719  19.911  1.00  0.00    -0.001 C 
HETATM   14  C10 UNL     1       7.149  11.050  20.630  1.00  0.00     0.005 C 
HETATM   15  C11 UNL     1       7.390  12.151  19.656  1.00  0.00     0.000 C 
HETATM   16  C12 UNL     1       8.727  11.916  18.943  1.00  0.00     0.000 C 
HETATM   17  C13 UNL     1       8.427  11.101  17.736  1.00  0.00     0.000 C 
HETATM   18  C14 UNL     1       8.276   9.644  17.920  1.00  0.00     0.000 C 
HETATM   19  C15 UNL     1       8.033   9.199  19.370  1.00  0.00     0.005 C 
ENDBRANCH  10  13
ENDBRANCH   7  10
ENDBRANCH   1   6
BRANCH   1  20
HETATM   20  C16 UNL     1       5.209  10.412  25.363  1.00  0.00     0.243 C 
HETATM   21  O2  UNL     1       5.424  11.341  26.201  1.00  0.00    -0.271 OA
HETATM   22  N2  UNL     1       5.499   9.100  25.789  1.00  0.00    -0.344 N 
HETATM   23  C17 UNL     1       6.073   8.920  27.137  1.00  0.00     0.126 C 
HETATM   24  C21 UNL     1       5.269   7.875  25.088  1.00  0.00     0.112 C 
HETATM   25  C18 UNL     1       7.376   8.202  27.093  1.00  0.00     0.020 C 
HETATM   26  C19 UNL     1       7.186   6.901  26.340  1.00  0.00     0.004 C 
HETATM   27  C20 UNL     1       6.579   7.131  24.983  1.00  0.00     0.027 C 
BRANCH  24  28
HETATM   28  C22 UNL     1       4.254   6.996  25.857  1.00  0.00     0.254 C 
BRANCH  28  29
HETATM   29  N3  UNL     1       3.908   5.910  24.958  1.00  0.00    -0.077 N 
ATOM     30  H33 UNL     1       2.956   5.970  24.594  1.00  0.00     0.274 HD
ATOM     31  H32 UNL     1       4.386   5.957  24.058  1.00  0.00     0.274 HD
ATOM     32  H31 UNL     1       4.093   5.050  25.474  1.00  0.00     0.274 HD
ENDBRANCH  28  29
ENDBRANCH  24  28
ENDBRANCH   1  20
TORSDOF 9
ENDMDL
MODEL 2
REMARK VINA RESULT: -7.273908957      1.975      3.153
REMARK  9 active torsions:
REMARK  status: ('A' for Active; 'I' for Inactive)
REMARK    1  A    between atoms: C2_2  and  C3_3 
REMARK    2  A    between atoms: C3_3  and  C5_5 
REMARK    3  A    between atoms: C5_5  and  N1_6 
REMARK    4  A    between atoms: C5_5  and  C16_20 
REMARK       I    between atoms: N1_6  and  C6_8 
REMARK    5  A    between atoms: C6_8  and  C7_10 
REMARK    6  A    between atoms: C7_10  and  C8_11 
REMARK    7  A    between atoms: C7_10  and  C9_13 
REMARK       I    between atoms: C16_20  and  N2_22 
REMARK    8  A    between atoms: C21_27  and  C22_28 
REMARK    9  A    between atoms: C22_28  and  N3_29 
ROOT
HETATM    1  C5  UNL     1       4.474  10.000  24.480  1.00  0.00     0.180 C 
ENDROOT
BRANCH   1   2
HETATM    2  C3  UNL     1       3.078   9.585  24.712  1.00  0.00     0.013 C 
HETATM    3  C4  UNL     1       2.916   8.622  25.894  1.00  0.00     0.012 C 
BRANCH   2   4
HETATM    4  C2  UNL     1       2.014  10.627  24.700  1.00  0.00     0.002 C 
HETATM    5  C1  UNL     1       0.659   9.894  24.541  1.00  0.00     0.005 C 
ENDBRANCH   2   4
ENDBRANCH   1   2
BRANCH   1   6
HETATM    6  N1  UNL     1       5.159   9.446  23.358  1.00  0.00    -0.347 N 
HETATM    7  C6  UNL     1       4.901   9.401  22.017  1.00  0.00     0.223 C 
HETATM    8  O1  UNL     1       3.942   9.879  21.437  1.00  0.00    -0.273 OA
ATOM      9  H1  UNL     1       6.032   8.982  23.612  1.00  0.00     0.163 HD
BRANCH   7  10
HETATM   10  C7  UNL     1       5.910   8.669  21.122  1.00  0.00     0.092 C 
BRANCH  10  11
HETATM   11  C8  UNL     1       5.122   7.552  20.557  1.00  0.00     0.100 C 
HETATM   12  S1  UNL     1       4.942   6.102  21.600  1.00  0.00    -0.097 SA
ENDBRANCH  10  11
BRANCH  10  13
HETATM   13  C9  UNL     1       6.577   9.650  20.264  1.00  0.00    -0.001 C 
HETATM   14  C10 UNL     1       6.555  10.982  21.078  1.00  0.00     0.005 C 
HETATM   15  C11 UNL     1       6.614  12.173  20.184  1.00  0.00     0.000 C 
HETATM   16  C12 UNL     1       8.029  12.309  19.611  1.00  0.00     0.000 C 
HETATM   17  C13 UNL     1       8.050  11.530  18.344  1.00  0.00     0.000 C 
HETATM   18  C14 UNL     1       8.239  10.069  18.447  1.00  0.00     0.000 C 
HETATM   19  C15 UNL     1       7.976   9.482  19.841  1.00  0.00     0.005 C 
ENDBRANCH  10  13
ENDBRANCH   7  10
ENDBRANCH   1   6
BRANCH   1  20
HETATM   20  C16 UNL     1       5.321   9.891  25.688  1.00  0.00     0.243 C 
HETATM   21  O2  UNL     1       6.097   8.887  25.748  1.00  0.00    -0.271 OA
HETATM   22  N2  UNL     1       5.364  10.784  26.777  1.00  0.00    -0.344 N 
HETATM   23  C17 UNL     1       6.255  10.457  27.908  1.00  0.00     0.126 C 
HETATM   24  C21 UNL     1       4.672  12.027  26.925  1.00  0.00     0.112 C 
HETATM   25  C18 UNL     1       5.511  10.382  29.195  1.00  0.00     0.020 C 
HETATM   26  C19 UNL     1       4.743  11.673  29.386  1.00  0.00     0.004 C 
HETATM   27  C20 UNL     1       3.867  11.978  28.202  1.00  0.00     0.027 C 
BRANCH  24  28
HETATM   28  C22 UNL     1       5.678  13.199  27.012  1.00  0.00     0.254 C 
BRANCH  28  29
HETATM   29  N3  UNL     1       4.930  14.393  26.662  1.00  0.00    -0.077 N 
ATOM     30  H33 UNL     1       4.305  14.263  25.866  1.00  0.00     0.274 HD
ATOM     31  H32 UNL     1       4.213  14.639  27.344  1.00  0.00     0.274 HD
ATOM     32  H31 UNL     1       5.625  15.126  26.518  1.00  0.00     0.274 HD
ENDBRANCH  28  29
ENDBRANCH  24  28
ENDBRANCH   1  20
TORSDOF 9
ENDMDL
MODEL 3
REMARK VINA RESULT: -7.202556639      2.087      3.067
REMARK  9 active torsions:
REMARK  status: ('A' for Active; 'I' for Inactive)
REMARK    1  A    between atoms: C2_2  and  C3_3 
REMARK    2  A    between atoms: C3_3  and  C5_5 
REMARK    3  A    between atoms: C5_5  and  N1_6 
REMARK    4  A    between atoms: C5_5  and  C16_20 
REMARK       I    between atoms: N1_6  and  C6_8 
REMARK    5  A    between atoms: C6_8  and  C7_10 
REMARK    6  A    between atoms: C7_10  and  C8_11 
REMARK    7  A    between atoms: C7_10  and  C9_13 
REMARK       I    between atoms: C16_20  and  N2_22 
REMARK    8  A    between atoms: C21_27  and  C22_28 
REMARK    9  A    between atoms: C22_28  and  N3_29 
ROOT
HETATM    1  C5  UNL     1       2.979  10.569  23.875  1.00  0.00     0.180 C 
ENDROOT
BRANCH   1   2
HETATM    2  C3  UNL     1       2.111   9.660  24.648  1.00  0.00     0.013 C 
HETATM    3  C4  UNL     1       0.615   9.886  24.399  1.00  0.00     0.012 C 
BRANCH   2   4
HETATM    4  C2  UNL     1       2.451   8.211  24.684  1.00  0.00     0.002 C 
HETATM    5  C1  UNL     1       2.039   7.681  26.080  1.00  0.00     0.005 C 
ENDBRANCH   2   4
ENDBRANCH   1   2
BRANCH   1   6
HETATM    6  N1  UNL     1       4.125  10.014  23.233  1.00  0.00    -0.347 N 
HETATM    7  C6  UNL     1       4.467   9.792  21.929  1.00  0.00     0.223 C 
HETATM    8  O1  UNL     1       3.805  10.055  20.940  1.00  0.00    -0.273 OA
ATOM      9  H1  UNL     1       4.847   9.718  23.890  1.00  0.00     0.163 HD
BRANCH   7  10
HETATM   10  C7  UNL     1       5.825   9.135  21.651  1.00  0.00     0.092 C 
BRANCH  10  11
HETATM   11  C8  UNL     1       5.489   7.704  21.483  1.00  0.00     0.100 C 
HETATM   12  S1  UNL     1       5.463   6.715  22.981  1.00  0.00    -0.097 SA
ENDBRANCH  10  11
BRANCH  10  13
HETATM   13  C9  UNL     1       6.509   9.892  20.600  1.00  0.00    -0.001 C 
HETATM   14  C10 UNL     1       6.640  11.341  21.164  1.00  0.00     0.005 C 
HETATM   15  C11 UNL     1       6.732  12.350  20.071  1.00  0.00     0.000 C 
HETATM   16  C12 UNL     1       8.114  12.262  19.414  1.00  0.00     0.000 C 
HETATM   17  C13 UNL     1       7.994  11.278  18.305  1.00  0.00     0.000 C 
HETATM   18  C14 UNL     1       8.078   9.846  18.657  1.00  0.00     0.000 C 
HETATM   19  C15 UNL     1       7.861   9.534  20.144  1.00  0.00     0.005 C 
ENDBRANCH  10  13
ENDBRANCH   7  10
ENDBRANCH   1   6
BRANCH   1  20
HETATM   20  C16 UNL     1       3.365  11.784  24.626  1.00  0.00     0.243 C 
HETATM   21  O2  UNL     1       3.189  12.894  24.036  1.00  0.00    -0.271 OA
HETATM   22  N2  UNL     1       3.900  11.841  25.928  1.00  0.00    -0.344 N 
HETATM   23  C17 UNL     1       4.259  13.166  26.473  1.00  0.00     0.126 C 
HETATM   24  C21 UNL     1       4.112  10.762  26.842  1.00  0.00     0.112 C 
HETATM   25  C18 UNL     1       5.688  13.228  26.882  1.00  0.00     0.020 C 
HETATM   26  C19 UNL     1       5.968  12.087  27.838  1.00  0.00     0.004 C 
HETATM   27  C20 UNL     1       5.566  10.761  27.252  1.00  0.00     0.027 C 
BRANCH  24  28
HETATM   28  C22 UNL     1       3.236  10.943  28.104  1.00  0.00     0.254 C 
BRANCH  28  29
HETATM   29  N3  UNL     1       3.369   9.710  28.860  1.00  0.00    -0.077 N 
ATOM     30  H33 UNL     1       2.649   9.021  28.645  1.00  0.00     0.274 HD
ATOM     31  H32 UNL     1       4.170   9.144  28.580  1.00  0.00     0.274 HD
ATOM     32  H31 UNL     1       3.389   9.986  29.842  1.00  0.00     0.274 HD
ENDBRANCH  28  29
ENDBRANCH  24  28
ENDBRANCH   1  20
TORSDOF 9
ENDMDL
MODEL 4
REMARK VINA RESULT: -7.120511908      2.378      3.922
REMARK  9 active torsions:
REMARK  status: ('A' for Active; 'I' for Inactive)
REMARK    1  A    between atoms: C2_2  and  C3_3 
REMARK    2  A    between atoms: C3_3  and  C5_5 
REMARK    3  A    between atoms: C5_5  and  N1_6 
REMARK    4  A    between atoms: C5_5  and  C16_20 
REMARK       I    between atoms: N1_6  and  C6_8 
REMARK    5  A    between atoms: C6_8  and  C7_10 
REMARK    6  A    between atoms: C7_10  and  C8_11 
REMARK    7  A    between atoms: C7_10  and  C9_13 
REMARK       I    between atoms: C16_20  and  N2_22 
REMARK    8  A    between atoms: C21_27  and  C22_28 
REMARK    9  A    between atoms: C22_28  and  N3_29 
ROOT
HETATM    1  C5  UNL     1       4.679   7.666  22.195  1.00  0.00     0.180 C 
ENDROOT
BRANCH   1   2
HETATM    2  C3  UNL     1       4.870   6.634  21.158  1.00  0.00     0.013 C 
HETATM    3  C4  UNL     1       4.027   5.374  21.389  1.00  0.00     0.012 C 
BRANCH   2   4
HETATM    4  C2  UNL     1       4.859   7.051  19.728  1.00  0.00     0.002 C 
HETATM    5  C1  UNL     1       4.026   5.998  18.954  1.00  0.00     0.005 C 
ENDBRANCH   2   4
ENDBRANCH   1   2
BRANCH   1   6
HETATM    6  N1  UNL     1       5.201   8.970  21.945  1.00  0.00    -0.347 N 
HETATM    7  C6  UNL     1       4.711  10.085  21.327  1.00  0.00     0.223 C 
HETATM    8  O1  UNL     1       3.612  10.220  20.816  1.00  0.00    -0.273 OA
ATOM      9  H1  UNL     1       6.147   9.097  22.306  1.00  0.00     0.163 HD
BRANCH   7  10
HETATM   10  C7  UNL     1       5.624  11.315  21.248  1.00  0.00     0.092 C 
BRANCH  10  11
HETATM   11  C8  UNL     1       6.065  11.508  22.647  1.00  0.00     0.100 C 
HETATM   12  S1  UNL     1       4.781  11.913  23.834  1.00  0.00    -0.097 SA
ENDBRANCH  10  11
BRANCH  10  13
HETATM   13  C9  UNL     1       6.584  11.121  20.160  1.00  0.00    -0.001 C 
HETATM   14  C10 UNL     1       7.353  12.474  20.050  1.00  0.00     0.005 C 
HETATM   15  C11 UNL     1       7.899  12.686  18.680  1.00  0.00     0.000 C 
HETATM   16  C12 UNL     1       9.097  11.754  18.461  1.00  0.00     0.000 C 
HETATM   17  C13 UNL     1       8.553  10.490  17.897  1.00  0.00     0.000 C 
HETATM   18  C14 UNL     1       7.977   9.516  18.846  1.00  0.00     0.000 C 
HETATM   19  C15 UNL     1       7.631  10.089  20.227  1.00  0.00     0.005 C 
ENDBRANCH  10  13
ENDBRANCH   7  10
ENDBRANCH   1   6
BRANCH   1  20
HETATM   20  C16 UNL     1       5.081   7.215  23.545  1.00  0.00     0.243 C 
HETATM   21  O2  UNL     1       6.229   6.683  23.646  1.00  0.00    -0.271 OA
HETATM   22  N2  UNL     1       4.329   7.319  24.733  1.00  0.00    -0.344 N 
HETATM   23  C17 UNL     1       4.907   6.759  25.970  1.00  0.00     0.126 C 
HETATM   24  C21 UNL     1       3.059   7.950  24.919  1.00  0.00     0.112 C 
HETATM   25  C18 UNL     1       4.012   5.743  26.589  1.00  0.00     0.020 C 
HETATM   26  C19 UNL     1       2.643   6.360  26.788  1.00  0.00     0.004 C 
HETATM   27  C20 UNL     1       2.104   6.938  25.508  1.00  0.00     0.027 C 
BRANCH  24  28
HETATM   28  C22 UNL     1       3.187   9.144  25.895  1.00  0.00     0.254 C 
BRANCH  28  29
HETATM   29  N3  UNL     1       1.943   9.884  25.783  1.00  0.00    -0.077 N 
ATOM     30  H33 UNL     1       1.706  10.138  24.824  1.00  0.00     0.274 HD
ATOM     31  H32 UNL     1       1.115   9.319  25.969  1.00  0.00     0.274 HD
ATOM     32  H31 UNL     1       2.039  10.686  26.405  1.00  0.00     0.274 HD
ENDBRANCH  28  29
ENDBRANCH  24  28
ENDBRANCH   1  20
TORSDOF 9
ENDMDL
MODEL 5
REMARK VINA RESULT: -7.094809102      1.906      3.600
REMARK  9 active torsions:
REMARK  status: ('A' for Active; 'I' for Inactive)
REMARK    1  A    between atoms: C2_2  and  C3_3 
REMARK    2  A    between atoms: C3_3  and  C5_5 
REMARK    3  A    between atoms: C5_5  and  N1_6 
REMARK    4  A    between atoms: C5_5  and  C16_20 
REMARK       I    between atoms: N1_6  and  C6_8 
REMARK    5  A    between atoms: C6_8  and  C7_10 
REMARK    6  A    between atoms: C7_10  and  C8_11 
REMARK    7  A    between atoms: C7_10  and  C9_13 
REMARK       I    between atoms: C16_20  and  N2_22 
REMARK    8  A    between atoms: C21_27  and  C22_28 
REMARK    9  A    between atoms: C22_28  and  N3_29 
ROOT
HETATM    1  C5  UNL     1       4.363  10.568  23.789  1.00  0.00     0.180 C 
ENDROOT
BRANCH   1   2
HETATM    2  C3  UNL     1       2.905  10.628  24.012  1.00  0.00     0.013 C 
HETATM    3  C4  UNL     1       2.226   9.253  23.979  1.00  0.00     0.012 C 
BRANCH   2   4
HETATM    4  C2  UNL     1       2.390  11.471  25.126  1.00  0.00     0.002 C 
HETATM    5  C1  UNL     1       2.704  12.944  24.764  1.00  0.00     0.005 C 
ENDBRANCH   2   4
ENDBRANCH   1   2
BRANCH   1   6
HETATM    6  N1  UNL     1       4.844   9.746  22.728  1.00  0.00    -0.347 N 
HETATM    7  C6  UNL     1       4.601   9.692  21.385  1.00  0.00     0.223 C 
HETATM    8  O1  UNL     1       3.855  10.412  20.744  1.00  0.00    -0.273 OA
ATOM      9  H1  UNL     1       5.516   9.044  23.040  1.00  0.00     0.163 HD
BRANCH   7  10
HETATM   10  C7  UNL     1       5.328   8.613  20.572  1.00  0.00     0.092 C 
BRANCH  10  11
HETATM   11  C8  UNL     1       6.739   8.758  20.991  1.00  0.00     0.100 C 
HETATM   12  S1  UNL     1       7.815   9.645  19.860  1.00  0.00    -0.097 SA
ENDBRANCH  10  11
BRANCH  10  13
HETATM   13  C9  UNL     1       4.608   7.347  20.719  1.00  0.00    -0.001 C 
HETATM   14  C10 UNL     1       4.586   6.725  19.288  1.00  0.00     0.005 C 
HETATM   15  C11 UNL     1       3.430   5.802  19.108  1.00  0.00     0.000 C 
HETATM   16  C12 UNL     1       3.687   4.507  19.888  1.00  0.00     0.000 C 
HETATM   17  C13 UNL     1       3.129   4.716  21.251  1.00  0.00     0.000 C 
HETATM   18  C14 UNL     1       3.962   5.457  22.220  1.00  0.00     0.000 C 
HETATM   19  C15 UNL     1       5.103   6.274  21.596  1.00  0.00     0.005 C 
ENDBRANCH  10  13
ENDBRANCH   7  10
ENDBRANCH   1   6
BRANCH   1  20
HETATM   20  C16 UNL     1       5.128  10.292  25.025  1.00  0.00     0.243 C 
HETATM   21  O2  UNL     1       5.565  11.301  25.658  1.00  0.00    -0.271 OA
HETATM   22  N2  UNL     1       5.420   9.028  25.577  1.00  0.00    -0.344 N 
HETATM   23  C17 UNL     1       6.244   8.979  26.801  1.00  0.00     0.126 C 
HETATM   24  C21 UNL     1       4.978   7.745  25.124  1.00  0.00     0.112 C 
HETATM   25  C18 UNL     1       7.465   8.149  26.614  1.00  0.00     0.020 C 
HETATM   26  C19 UNL     1       7.048   6.782  26.113  1.00  0.00     0.004 C 
HETATM   27  C20 UNL     1       6.193   6.880  24.880  1.00  0.00     0.027 C 
BRANCH  24  28
HETATM   28  C22 UNL     1       4.090   7.070  26.195  1.00  0.00     0.254 C 
BRANCH  28  29
HETATM   29  N3  UNL     1       3.671   5.803  25.624  1.00  0.00    -0.077 N 
ATOM     30  H33 UNL     1       3.126   5.228  26.266  1.00  0.00     0.274 HD
ATOM     31  H32 UNL     1       2.955   5.898  24.904  1.00  0.00     0.274 HD
ATOM     32  H31 UNL     1       4.523   5.350  25.295  1.00  0.00     0.274 HD
ENDBRANCH  28  29
ENDBRANCH  24  28
ENDBRANCH   1  20
TORSDOF 9
ENDMDL
