MODEL 1
REMARK VINA RESULT: -7.093979993      0.000      0.000
REMARK  10 active torsions:
REMARK  status: ('A' for Active; 'I' for Inactive)
REMARK    1  A    between atoms: C6_6  and  C7_7 
REMARK    2  A    between atoms: C7_7  and  O1_8 
REMARK    3  A    between atoms: C16_19  and  C17_20 
REMARK    4  A    between atoms: C17_20  and  N1_21 
REMARK    5  A    between atoms: N1_21  and  C18_22 
REMARK       I    between atoms: N1_21  and  C21_27 
REMARK    6  A    between atoms: C18_22  and  C19_23 
REMARK    7  A    between atoms: C19_23  and  C20_24 
REMARK    8  A    between atoms: C20_24  and  O3_25 
REMARK    9  A    between atoms: C21_27  and  C22_29 
REMARK   10  A    between atoms: C22_29  and  C23_30 
ROOT
HETATM    1  C1  UNL     1       4.446  11.913  21.681  1.00  0.00     0.011 C 
HETATM    2  C2  UNL     1       5.021  10.652  21.050  1.00  0.00     0.000 C 
HETATM    3  C3  UNL     1       6.454  10.925  20.770  1.00  0.00     0.023 C 
HETATM    4  C4  UNL     1       6.515  11.923  19.640  1.00  0.00     0.012 C 
HETATM    5  C5  UNL     1       7.867  11.931  18.966  1.00  0.00     0.036 C 
HETATM    6  C6  UNL     1       8.173  10.547  18.500  1.00  0.00    -0.058 C 
HETATM    7  C8  UNL     1       7.899   9.549  19.275  1.00  0.00     0.010 C 
HETATM    8  C9  UNL     1       7.285   9.719  20.626  1.00  0.00     0.150 C 
HETATM    9  O2  UNL     1       6.808   8.508  20.996  1.00  0.00    -0.370 OA
HETATM   10  C10 UNL     1       5.491   8.319  21.284  1.00  0.00     0.070 C 
HETATM   11  C11 UNL     1       4.794   8.358  19.912  1.00  0.00     0.039 C 
HETATM   12  C12 UNL     1       4.857   7.051  19.165  1.00  0.00     0.003 C 
HETATM   13  C13 UNL     1       4.033   6.073  20.000  1.00  0.00     0.000 C 
HETATM   14  C14 UNL     1       4.922   5.819  21.182  1.00  0.00     0.003 C 
HETATM   15  C15 UNL     1       5.299   7.020  21.970  1.00  0.00     0.039 C 
HETATM   16  C16 UNL     1       4.863   9.459  22.023  1.00  0.00     0.063 C 
ENDROOT
BRANCH  16  17
HETATM   17  C17 UNL     1       5.259   9.877  23.361  1.00  0.00     0.075 C 
BRANCH  17  18
HETATM   18  N1  UNL     1       4.534   9.606  24.546  1.00  0.00    -0.331 N 
HETATM   19  C21 UNL     1       4.939   8.615  25.485  1.00  0.00     0.224 C 
HETATM   20  O4  UNL     1       6.020   8.010  25.260  1.00  0.00    -0.273 OA
BRANCH  18  21
HETATM   21  C18 UNL     1       3.316  10.305  24.836  1.00  0.00     0.133 C 
BRANCH  21  22
HETATM   22  C19 UNL     1       2.064   9.914  24.189  1.00  0.00     0.046 C 
BRANCH  22  23
HETATM   23  C20 UNL     1       0.899   9.494  25.025  1.00  0.00     0.165 C 
BRANCH  23  24
HETATM   24  O3  UNL     1      -0.327   9.957  24.630  1.00  0.00    -0.401 OA
ATOM     25  H3  UNL     1      -1.069   9.676  25.152  1.00  0.00     0.209 HD
ENDBRANCH  23  24
ENDBRANCH  22  23
ENDBRANCH  21  22
ENDBRANCH  18  21
BRANCH  19  26
HETATM   26  C22 UNL     1       4.189   8.243  26.703  1.00  0.00     0.114 C 
BRANCH  26  27
HETATM   27  C23 UNL     1       3.976   6.722  26.689  1.00  0.00     0.095 C 
HETATM   28  S1  UNL     1       2.952   6.207  25.307  1.00  0.00    -0.097 SA
ENDBRANCH  26  27
ENDBRANCH  19  26
ENDBRANCH  17  18
ENDBRANCH  16  17
BRANCH   6  29
HETATM   29  C7  UNL     1       8.798  10.380  17.128  1.00  0.00     0.198 C 
BRANCH  29  30
HETATM   30  O1  UNL     1       8.213  11.216  16.212  1.00  0.00    -0.397 OA
ATOM     31  H1  UNL     1       8.533  11.042  15.334  1.00  0.00     0.209 HD
ENDBRANCH  29  30
ENDBRANCH   6  29
TORSDOF 10
ENDMDL
MODEL 2
REMARK VINA RESULT: -7.068350980      1.349      1.455
REMARK  10 active torsions:
REMARK  status: ('A' for Active; 'I' for Inactive)
REMARK    1  A    between atoms: C6_6  and  C7_7 
REMARK    2  A    between atoms: C7_7  and  O1_8 
REMARK    3  A    between atoms: C16_19  and  C17_20 
REMARK    4  A    between atoms: C17_20  and  N1_21 
REMARK    5  A    between atoms: N1_21  and  C18_22 
REMARK       I    between atoms: N1_21  and  C21_27 
REMARK    6  A    between atoms: C18_22  and  C19_23 
REMARK    7  A    between atoms: C19_23  and  C20_24 
REMARK    8  A    between atoms: C20_24  and  O3_25 
REMARK    9  A    between atoms: C21_27  and  C22_29 
REMARK   10  A    between atoms: C22_29  and  C23_30 
ROOT
HETATM    1  C1  UNL     1       4.210  11.520  21.874  1.00  0.00     0.011 C 
HETATM    2  C2  UNL     1       4.831  10.327  21.161  1.00  0.00     0.000 C 
HETATM    3  C3  UNL     1       6.266  10.648  20.954  1.00  0.00     0.023 C 
HETATM    4  C4  UNL     1       6.343  11.739  19.912  1.00  0.00     0.012 C 
HETATM    5  C5  UNL     1       7.715  11.828  19.288  1.00  0.00     0.036 C 
HETATM    6  C6  UNL     1       8.066  10.494  18.720  1.00  0.00    -0.058 C 
HETATM    7  C8  UNL     1       7.787   9.429  19.400  1.00  0.00     0.010 C 
HETATM    8  C9  UNL     1       7.127   9.474  20.739  1.00  0.00     0.150 C 
HETATM    9  O2  UNL     1       6.664   8.228  20.991  1.00  0.00    -0.370 OA
HETATM   10  C10 UNL     1       5.343   7.992  21.218  1.00  0.00     0.070 C 
HETATM   11  C11 UNL     1       4.690   8.132  19.830  1.00  0.00     0.039 C 
HETATM   12  C12 UNL     1       4.805   6.893  18.981  1.00  0.00     0.003 C 
HETATM   13  C13 UNL     1       3.976   5.833  19.703  1.00  0.00     0.000 C 
HETATM   14  C14 UNL     1       4.831   5.499  20.891  1.00  0.00     0.003 C 
HETATM   15  C15 UNL     1       5.156   6.637  21.787  1.00  0.00     0.039 C 
HETATM   16  C16 UNL     1       4.667   9.055  22.026  1.00  0.00     0.063 C 
ENDROOT
BRANCH  16  17
HETATM   17  C17 UNL     1       5.011   9.367  23.407  1.00  0.00     0.075 C 
BRANCH  17  18
HETATM   18  N1  UNL     1       4.165   9.160  24.523  1.00  0.00    -0.331 N 
HETATM   19  C21 UNL     1       4.610   9.323  25.866  1.00  0.00     0.224 C 
HETATM   20  O4  UNL     1       5.790   9.726  26.040  1.00  0.00    -0.273 OA
BRANCH  18  21
HETATM   21  C18 UNL     1       2.808   8.730  24.345  1.00  0.00     0.133 C 
BRANCH  21  22
HETATM   22  C19 UNL     1       1.757   9.700  24.040  1.00  0.00     0.046 C 
BRANCH  22  23
HETATM   23  C20 UNL     1       0.689   9.973  25.048  1.00  0.00     0.165 C 
BRANCH  23  24
HETATM   24  O3  UNL     1      -0.462   9.244  24.923  1.00  0.00    -0.401 OA
ATOM     25  H3  UNL     1      -0.585   8.542  25.551  1.00  0.00     0.209 HD
ENDBRANCH  23  24
ENDBRANCH  22  23
ENDBRANCH  21  22
ENDBRANCH  18  21
BRANCH  19  26
HETATM   26  C22 UNL     1       3.794   9.057  27.068  1.00  0.00     0.114 C 
BRANCH  26  27
HETATM   27  C23 UNL     1       3.932  10.257  28.016  1.00  0.00     0.095 C 
HETATM   28  S1  UNL     1       3.168  11.733  27.335  1.00  0.00    -0.097 SA
ENDBRANCH  26  27
ENDBRANCH  19  26
ENDBRANCH  17  18
ENDBRANCH  16  17
BRANCH   6  29
HETATM   29  C7  UNL     1       8.737  10.453  17.361  1.00  0.00     0.198 C 
BRANCH  29  30
HETATM   30  O1  UNL     1       8.340  11.507  16.579  1.00  0.00    -0.397 OA
ATOM     31  H1  UNL     1       9.077  12.059  16.345  1.00  0.00     0.209 HD
ENDBRANCH  29  30
ENDBRANCH   6  29
TORSDOF 10
ENDMDL
MODEL 3
REMARK VINA RESULT: -7.049010468      1.931      2.159
REMARK  10 active torsions:
REMARK  status: ('A' for Active; 'I' for Inactive)
REMARK    1  A    between atoms: C6_6  and  C7_7 
REMARK    2  A    between atoms: C7_7  and  O1_8 
REMARK    3  A    between atoms: C16_19  and  C17_20 
REMARK    4  A    between atoms: C17_20  and  N1_21 
REMARK    5  A    between atoms: N1_21  and  C18_22 
REMARK       I    between atoms: N1_21  and  C21_27 
REMARK    6  A    between atoms: C18_22  and  C19_23 
REMARK    7  A    between atoms: C19_23  and  C20_24 
REMARK    8  A    between atoms: C20_24  and  O3_25 
REMARK    9  A    between atoms: C21_27  and  C22_29 
REMARK   10  A    between atoms: C22_29  and  C23_30 
ROOT
HETATM    1  C1  UNL     1       4.597  12.278  21.483  1.00  0.00     0.011 C 
HETATM    2  C2  UNL     1       5.142  10.955  20.966  1.00  0.00     0.000 C 
HETATM    3  C3  UNL     1       6.572  11.179  20.632  1.00  0.00     0.023 C 
HETATM    4  C4  UNL     1       6.621  12.062  19.409  1.00  0.00     0.012 C 
HETATM    5  C5  UNL     1       7.957  11.986  18.710  1.00  0.00     0.036 C 
HETATM    6  C6  UNL     1       8.237  10.560  18.374  1.00  0.00    -0.058 C 
HETATM    7  C8  UNL     1       7.968   9.645  19.248  1.00  0.00     0.010 C 
HETATM    8  C9  UNL     1       7.386   9.953  20.588  1.00  0.00     0.150 C 
HETATM    9  O2  UNL     1       6.902   8.790  21.084  1.00  0.00    -0.370 OA
HETATM   10  C10 UNL     1       5.590   8.648  21.415  1.00  0.00     0.070 C 
HETATM   11  C11 UNL     1       4.864   8.564  20.060  1.00  0.00     0.039 C 
HETATM   12  C12 UNL     1       4.895   7.191  19.443  1.00  0.00     0.003 C 
HETATM   13  C13 UNL     1       4.078   6.309  20.385  1.00  0.00     0.000 C 
HETATM   14  C14 UNL     1       4.990   6.159  21.568  1.00  0.00     0.003 C 
HETATM   15  C15 UNL     1       5.397   7.425  22.228  1.00  0.00     0.039 C 
HETATM   16  C16 UNL     1       4.991   9.863  22.053  1.00  0.00     0.063 C 
ENDROOT
BRANCH  16  17
HETATM   17  C17 UNL     1       5.422  10.403  23.336  1.00  0.00     0.075 C 
BRANCH  17  18
HETATM   18  N1  UNL     1       4.695  10.302  24.546  1.00  0.00    -0.331 N 
HETATM   19  C21 UNL     1       5.073   9.421  25.599  1.00  0.00     0.224 C 
HETATM   20  O4  UNL     1       6.135   8.761  25.449  1.00  0.00    -0.273 OA
BRANCH  18  21
HETATM   21  C18 UNL     1       3.500  11.068  24.749  1.00  0.00     0.133 C 
BRANCH  21  22
HETATM   22  C19 UNL     1       3.573  12.513  24.964  1.00  0.00     0.046 C 
BRANCH  22  23
HETATM   23  C20 UNL     1       4.090  13.043  26.261  1.00  0.00     0.165 C 
BRANCH  23  24
HETATM   24  O3  UNL     1       5.410  13.405  26.284  1.00  0.00    -0.401 OA
ATOM     25  H3  UNL     1       5.590  14.336  26.224  1.00  0.00     0.209 HD
ENDBRANCH  23  24
ENDBRANCH  22  23
ENDBRANCH  21  22
ENDBRANCH  18  21
BRANCH  19  26
HETATM   26  C22 UNL     1       4.318   9.225  26.854  1.00  0.00     0.114 C 
BRANCH  26  27
HETATM   27  C23 UNL     1       5.326   9.026  27.994  1.00  0.00     0.095 C 
HETATM   28  S1  UNL     1       6.085  10.577  28.489  1.00  0.00    -0.097 SA
ENDBRANCH  26  27
ENDBRANCH  19  26
ENDBRANCH  17  18
ENDBRANCH  16  17
BRANCH   6  29
HETATM   29  C7  UNL     1       8.830  10.252  17.012  1.00  0.00     0.198 C 
BRANCH  29  30
HETATM   30  O1  UNL     1       8.271  11.040  16.039  1.00  0.00    -0.397 OA
ATOM     31  H1  UNL     1       7.747  10.523  15.437  1.00  0.00     0.209 HD
ENDBRANCH  29  30
ENDBRANCH   6  29
TORSDOF 10
ENDMDL
MODEL 4
REMARK VINA RESULT: -7.019507058      1.111      1.165
REMARK  10 active torsions:
REMARK  status: ('A' for Active; 'I' for Inactive)
REMARK    1  A    between atoms: C6_6  and  C7_7 
REMARK    2  A    between atoms: C7_7  and  O1_8 
REMARK    3  A    between atoms: C16_19  and  C17_20 
REMARK    4  A    between atoms: C17_20  and  N1_21 
REMARK    5  A    between atoms: N1_21  and  C18_22 
REMARK       I    between atoms: N1_21  and  C21_27 
REMARK    6  A    between atoms: C18_22  and  C19_23 
REMARK    7  A    between atoms: C19_23  and  C20_24 
REMARK    8  A    between atoms: C20_24  and  O3_25 
REMARK    9  A    between atoms: C21_27  and  C22_29 
REMARK   10  A    between atoms: C22_29  and  C23_30 
ROOT
HETATM    1  C1  UNL     1       4.549  11.915  21.630  1.00  0.00     0.011 C 
HETATM    2  C2  UNL     1       5.105  10.644  21.005  1.00  0.00     0.000 C 
HETATM    3  C3  UNL     1       6.531  10.910  20.683  1.00  0.00     0.023 C 
HETATM    4  C4  UNL     1       6.564  11.890  19.536  1.00  0.00     0.012 C 
HETATM    5  C5  UNL     1       7.897  11.885  18.827  1.00  0.00     0.036 C 
HETATM    6  C6  UNL     1       8.191  10.493  18.375  1.00  0.00    -0.058 C 
HETATM    7  C8  UNL     1       7.935   9.508  19.174  1.00  0.00     0.010 C 
HETATM    8  C9  UNL     1       7.357   9.700  20.537  1.00  0.00     0.150 C 
HETATM    9  O2  UNL     1       6.888   8.496  20.940  1.00  0.00    -0.370 OA
HETATM   10  C10 UNL     1       5.579   8.314  21.265  1.00  0.00     0.070 C 
HETATM   11  C11 UNL     1       4.847   8.331  19.910  1.00  0.00     0.039 C 
HETATM   12  C12 UNL     1       4.889   7.013  19.184  1.00  0.00     0.003 C 
HETATM   13  C13 UNL     1       4.087   6.049  20.056  1.00  0.00     0.000 C 
HETATM   14  C14 UNL     1       5.006   5.814  21.219  1.00  0.00     0.003 C 
HETATM   15  C15 UNL     1       5.404   7.027  21.977  1.00  0.00     0.039 C 
HETATM   16  C16 UNL     1       4.972   9.467  22.001  1.00  0.00     0.063 C 
ENDROOT
BRANCH  16  17
HETATM   17  C17 UNL     1       5.403   9.906  23.321  1.00  0.00     0.075 C 
BRANCH  17  18
HETATM   18  N1  UNL     1       4.698   9.674  24.526  1.00  0.00    -0.331 N 
HETATM   19  C21 UNL     1       5.095   8.687  25.473  1.00  0.00     0.224 C 
HETATM   20  O4  UNL     1       6.154   8.048  25.234  1.00  0.00    -0.273 OA
BRANCH  18  21
HETATM   21  C18 UNL     1       3.507  10.413  24.832  1.00  0.00     0.133 C 
BRANCH  21  22
HETATM   22  C19 UNL     1       2.258  10.133  24.124  1.00  0.00     0.046 C 
BRANCH  22  23
HETATM   23  C20 UNL     1       1.077   9.621  24.882  1.00  0.00     0.165 C 
BRANCH  23  24
HETATM   24  O3  UNL     1      -0.152   9.996  24.412  1.00  0.00    -0.401 OA
ATOM     25  H3  UNL     1      -0.238  10.902  24.138  1.00  0.00     0.209 HD
ENDBRANCH  23  24
ENDBRANCH  22  23
ENDBRANCH  21  22
ENDBRANCH  18  21
BRANCH  19  26
HETATM   26  C22 UNL     1       4.362   8.356  26.712  1.00  0.00     0.114 C 
BRANCH  26  27
HETATM   27  C23 UNL     1       5.331   8.496  27.894  1.00  0.00     0.095 C 
HETATM   28  S1  UNL     1       5.934  10.179  28.064  1.00  0.00    -0.097 SA
ENDBRANCH  26  27
ENDBRANCH  19  26
ENDBRANCH  17  18
ENDBRANCH  16  17
BRANCH   6  29
HETATM   29  C7  UNL     1       8.779  10.303  16.991  1.00  0.00     0.198 C 
BRANCH  29  30
HETATM   30  O1  UNL     1       8.168  11.122  16.076  1.00  0.00    -0.397 OA
ATOM     31  H1  UNL     1       7.848  10.626  15.331  1.00  0.00     0.209 HD
ENDBRANCH  29  30
ENDBRANCH   6  29
TORSDOF 10
ENDMDL
MODEL 5
REMARK VINA RESULT: -7.008910802      1.509      1.775
REMARK  10 active torsions:
REMARK  status: ('A' for Active; 'I' for Inactive)
REMARK    1  A    between atoms: C6_6  and  C7_7 
REMARK    2  A    between atoms: C7_7  and  O1_8 
REMARK    3  A    between atoms: C16_19  and  C17_20 
REMARK    4  A    between atoms: C17_20  and  N1_21 
REMARK    5  A    between atoms: N1_21  and  C18_22 
REMARK       I    between atoms: N1_21  and  C21_27 
REMARK    6  A    between atoms: C18_22  and  C19_23 
REMARK    7  A    between atoms: C19_23  and  C20_24 
REMARK    8  A    between atoms: C20_24  and  O3_25 
REMARK    9  A    between atoms: C21_27  and  C22_29 
REMARK   10  A    between atoms: C22_29  and  C23_30 
ROOT
HETATM    1  C1  UNL     1       4.603  12.243  21.307  1.00  0.00     0.011 C 
HETATM    2  C2  UNL     1       5.145  10.896  20.852  1.00  0.00     0.000 C 
HETATM    3  C3  UNL     1       6.582  11.096  20.530  1.00  0.00     0.023 C 
HETATM    4  C4  UNL     1       6.654  11.929  19.273  1.00  0.00     0.012 C 
HETATM    5  C5  UNL     1       8.000  11.815  18.598  1.00  0.00     0.036 C 
HETATM    6  C6  UNL     1       8.274  10.374  18.324  1.00  0.00    -0.058 C 
HETATM    7  C8  UNL     1       7.985   9.497  19.230  1.00  0.00     0.010 C 
HETATM    8  C9  UNL     1       7.386   9.864  20.548  1.00  0.00     0.150 C 
HETATM    9  O2  UNL     1       6.886   8.726  21.083  1.00  0.00    -0.370 OA
HETATM   10  C10 UNL     1       5.569   8.607  21.401  1.00  0.00     0.070 C 
HETATM   11  C11 UNL     1       4.862   8.473  20.040  1.00  0.00     0.039 C 
HETATM   12  C12 UNL     1       4.891   7.075  19.480  1.00  0.00     0.003 C 
HETATM   13  C13 UNL     1       4.053   6.239  20.445  1.00  0.00     0.000 C 
HETATM   14  C14 UNL     1       4.947   6.130  21.646  1.00  0.00     0.003 C 
HETATM   15  C15 UNL     1       5.355   7.419  22.260  1.00  0.00     0.039 C 
HETATM   16  C16 UNL     1       4.971   9.851  21.980  1.00  0.00     0.063 C 
ENDROOT
BRANCH  16  17
HETATM   17  C17 UNL     1       5.387  10.439  23.246  1.00  0.00     0.075 C 
BRANCH  17  18
HETATM   18  N1  UNL     1       4.638  10.400  24.446  1.00  0.00    -0.331 N 
HETATM   19  C21 UNL     1       4.992   9.569  25.548  1.00  0.00     0.224 C 
HETATM   20  O4  UNL     1       6.052   8.895  25.448  1.00  0.00    -0.273 OA
BRANCH  18  21
HETATM   21  C18 UNL     1       3.444  11.182  24.592  1.00  0.00     0.133 C 
BRANCH  21  22
HETATM   22  C19 UNL     1       3.526  12.628  24.795  1.00  0.00     0.046 C 
BRANCH  22  23
HETATM   23  C20 UNL     1       3.971  13.165  26.116  1.00  0.00     0.165 C 
BRANCH  23  24
HETATM   24  O3  UNL     1       5.322  13.303  26.289  1.00  0.00    -0.401 OA
ATOM     25  H3  UNL     1       5.843  13.352  25.496  1.00  0.00     0.209 HD
ENDBRANCH  23  24
ENDBRANCH  22  23
ENDBRANCH  21  22
ENDBRANCH  18  21
BRANCH  19  26
HETATM   26  C22 UNL     1       4.214   9.436  26.796  1.00  0.00     0.114 C 
BRANCH  26  27
HETATM   27  C23 UNL     1       3.793   7.968  26.946  1.00  0.00     0.095 C 
HETATM   28  S1  UNL     1       2.678   7.458  25.633  1.00  0.00    -0.097 SA
ENDBRANCH  26  27
ENDBRANCH  19  26
ENDBRANCH  17  18
ENDBRANCH  16  17
BRANCH   6  29
HETATM   29  C7  UNL     1       8.883  10.007  16.985  1.00  0.00     0.198 C 
BRANCH  29  30
HETATM   30  O1  UNL     1       9.067  11.118  16.202  1.00  0.00    -0.397 OA
ATOM     31  H1  UNL     1       9.639  10.930  15.466  1.00  0.00     0.209 HD
ENDBRANCH  29  30
ENDBRANCH   6  29
TORSDOF 10
ENDMDL
