MODEL 1
REMARK VINA RESULT: -8.292034768      0.000      0.000
REMARK  5 active torsions:
REMARK  status: ('A' for Active; 'I' for Inactive)
REMARK    1  A    between atoms: C1_2  and  C2_3 
REMARK       I    between atoms: C1_2  and  N4_25 
REMARK    2  A    between atoms: C2_3  and  S1_4 
REMARK    3  A    between atoms: S1_4  and  C3_5 
REMARK    4  A    between atoms: N2_12  and  C7_13 
REMARK    5  A    between atoms: C7_13  and  C8_14 
ROOT
HETATM    1  C3  UNL     1     -11.539   5.708   0.939  1.00  0.00     0.150 A 
HETATM    2  N1  UNL     1     -11.452   4.829   1.953  1.00  0.00    -0.338 N 
ATOM      3  H1  UNL     1     -10.646   4.875   2.575  1.00  0.00     0.168 HD
HETATM    4  C4  UNL     1     -12.376   3.905   2.175  1.00  0.00     0.043 A 
HETATM    5  C5  UNL     1     -13.446   3.872   1.322  1.00  0.00     0.120 A 
HETATM    6  C6  UNL     1     -13.508   4.793   0.283  1.00  0.00     0.278 A 
HETATM    7  O2  UNL     1     -14.510   4.711  -0.447  1.00  0.00    -0.265 OA
HETATM    8  N2  UNL     1     -12.577   5.733   0.045  1.00  0.00    -0.292 N 
HETATM    9  N3  UNL     1     -14.452   2.900   1.531  1.00  0.00    -0.384 N 
ATOM     10  H3  UNL     1     -15.108   2.720   0.770  1.00  0.00     0.159 HD
HETATM   11  C14 UNL     1     -14.611   2.142   2.756  1.00  0.00     0.120 C 
HETATM   12  C15 UNL     1     -13.723   2.751   3.837  1.00  0.00     0.026 C 
HETATM   13  C16 UNL     1     -12.319   2.917   3.279  1.00  0.00     0.061 C 
ENDROOT
BRANCH   1  14
HETATM   14  S1  UNL     1     -10.279   6.986   0.821  1.00  0.00    -0.084 SA
BRANCH  14  15
HETATM   15  C2  UNL     1      -8.899   6.636   1.911  1.00  0.00     0.185 C 
BRANCH  15  16
HETATM   16  C1  UNL     1      -9.093   7.274   3.254  1.00  0.00     0.229 C 
HETATM   17  O1  UNL     1     -10.082   6.964   3.977  1.00  0.00    -0.273 OA
HETATM   18  N4  UNL     1      -8.169   8.236   3.734  1.00  0.00    -0.351 N 
HETATM   19  C17 UNL     1      -8.220   8.933   4.998  1.00  0.00     0.126 C 
HETATM   20  C20 UNL     1      -7.003   8.692   3.035  1.00  0.00     0.126 C 
HETATM   21  C18 UNL     1      -7.743  10.324   4.565  1.00  0.00     0.021 C 
HETATM   22  C19 UNL     1      -6.592   9.997   3.665  1.00  0.00     0.021 C 
ENDBRANCH  15  16
ENDBRANCH  14  15
ENDBRANCH   1  14
BRANCH   8  23
HETATM   23  C7  UNL     1     -12.574   6.676  -1.017  1.00  0.00     0.139 C 
BRANCH  23  24
HETATM   24  C8  UNL     1     -11.949   6.353  -2.321  1.00  0.00     0.004 C 
HETATM   25  C9  UNL     1     -10.763   7.152  -2.740  1.00  0.00     0.006 C 
HETATM   26  C10 UNL     1      -9.866   6.224  -3.617  1.00  0.00     0.000 C 
HETATM   27  C11 UNL     1     -10.804   5.451  -4.492  1.00  0.00     0.000 C 
HETATM   28  C12 UNL     1     -12.060   6.229  -4.775  1.00  0.00     0.000 C 
HETATM   29  C13 UNL     1     -12.912   6.343  -3.497  1.00  0.00     0.006 C 
ENDBRANCH  23  24
ENDBRANCH   8  23
TORSDOF 5
ENDMDL
MODEL 2
REMARK VINA RESULT: -8.255843300      1.507      4.868
REMARK  5 active torsions:
REMARK  status: ('A' for Active; 'I' for Inactive)
REMARK    1  A    between atoms: C1_2  and  C2_3 
REMARK       I    between atoms: C1_2  and  N4_25 
REMARK    2  A    between atoms: C2_3  and  S1_4 
REMARK    3  A    between atoms: S1_4  and  C3_5 
REMARK    4  A    between atoms: N2_12  and  C7_13 
REMARK    5  A    between atoms: C7_13  and  C8_14 
ROOT
HETATM    1  C3  UNL     1     -10.805   6.355   0.069  1.00  0.00     0.150 A 
HETATM    2  N1  UNL     1      -9.769   6.332  -0.788  1.00  0.00    -0.338 N 
ATOM      3  H1  UNL     1      -8.822   6.396  -0.416  1.00  0.00     0.168 HD
HETATM    4  C4  UNL     1      -9.932   6.229  -2.099  1.00  0.00     0.043 A 
HETATM    5  C5  UNL     1     -11.217   6.145  -2.566  1.00  0.00     0.120 A 
HETATM    6  C6  UNL     1     -12.266   6.171  -1.656  1.00  0.00     0.278 A 
HETATM    7  O2  UNL     1     -13.404   6.083  -2.147  1.00  0.00    -0.265 OA
HETATM    8  N2  UNL     1     -12.115   6.279  -0.324  1.00  0.00    -0.292 N 
HETATM    9  N3  UNL     1     -11.428   6.032  -3.960  1.00  0.00    -0.384 N 
ATOM     10  H3  UNL     1     -12.366   6.212  -4.317  1.00  0.00     0.159 HD
HETATM   11  C14 UNL     1     -10.396   5.676  -4.914  1.00  0.00     0.120 C 
HETATM   12  C15 UNL     1      -9.165   5.187  -4.157  1.00  0.00     0.026 C 
HETATM   13  C16 UNL     1      -8.820   6.202  -3.078  1.00  0.00     0.061 C 
ENDROOT
BRANCH   1  14
HETATM   14  S1  UNL     1     -10.441   6.377   1.830  1.00  0.00    -0.084 SA
BRANCH  14  15
HETATM   15  C2  UNL     1      -8.770   6.949   2.138  1.00  0.00     0.185 C 
BRANCH  15  16
HETATM   16  C1  UNL     1      -8.632   7.497   3.527  1.00  0.00     0.229 C 
HETATM   17  O1  UNL     1      -9.350   7.054   4.468  1.00  0.00    -0.273 OA
HETATM   18  N4  UNL     1      -7.691   8.520   3.807  1.00  0.00    -0.351 N 
HETATM   19  C17 UNL     1      -7.443   9.145   5.086  1.00  0.00     0.126 C 
HETATM   20  C20 UNL     1      -6.809   9.124   2.852  1.00  0.00     0.126 C 
HETATM   21  C18 UNL     1      -7.221  10.596   4.646  1.00  0.00     0.021 C 
HETATM   22  C19 UNL     1      -6.345  10.431   3.442  1.00  0.00     0.021 C 
ENDBRANCH  15  16
ENDBRANCH  14  15
ENDBRANCH   1  14
BRANCH   8  23
HETATM   23  C7  UNL     1     -13.150   6.342   0.646  1.00  0.00     0.139 C 
BRANCH  23  24
HETATM   24  C8  UNL     1     -13.754   5.107   1.198  1.00  0.00     0.004 C 
HETATM   25  C9  UNL     1     -13.020   3.825   0.997  1.00  0.00     0.006 C 
HETATM   26  C10 UNL     1     -13.350   2.908   2.217  1.00  0.00     0.000 C 
HETATM   27  C11 UNL     1     -14.810   3.093   2.490  1.00  0.00     0.000 C 
HETATM   28  C12 UNL     1     -15.565   3.442   1.236  1.00  0.00     0.000 C 
HETATM   29  C13 UNL     1     -15.192   4.863   0.772  1.00  0.00     0.006 C 
ENDBRANCH  23  24
ENDBRANCH   8  23
TORSDOF 5
ENDMDL
MODEL 3
REMARK VINA RESULT: -8.072238065      0.954      1.201
REMARK  5 active torsions:
REMARK  status: ('A' for Active; 'I' for Inactive)
REMARK    1  A    between atoms: C1_2  and  C2_3 
REMARK       I    between atoms: C1_2  and  N4_25 
REMARK    2  A    between atoms: C2_3  and  S1_4 
REMARK    3  A    between atoms: S1_4  and  C3_5 
REMARK    4  A    between atoms: N2_12  and  C7_13 
REMARK    5  A    between atoms: C7_13  and  C8_14 
ROOT
HETATM    1  C3  UNL     1     -11.633   5.484   1.316  1.00  0.00     0.150 A 
HETATM    2  N1  UNL     1     -11.577   4.525   2.257  1.00  0.00    -0.338 N 
ATOM      3  H1  UNL     1     -10.741   4.456   2.837  1.00  0.00     0.168 HD
HETATM    4  C4  UNL     1     -12.565   3.666   2.459  1.00  0.00     0.043 A 
HETATM    5  C5  UNL     1     -13.673   3.789   1.664  1.00  0.00     0.120 A 
HETATM    6  C6  UNL     1     -13.703   4.789   0.700  1.00  0.00     0.278 A 
HETATM    7  O2  UNL     1     -14.741   4.847   0.019  1.00  0.00    -0.265 OA
HETATM    8  N2  UNL     1     -12.706   5.664   0.482  1.00  0.00    -0.292 N 
HETATM    9  N3  UNL     1     -14.749   2.890   1.854  1.00  0.00    -0.384 N 
ATOM     10  H3  UNL     1     -15.453   2.825   1.118  1.00  0.00     0.159 HD
HETATM   11  C14 UNL     1     -14.916   2.056   3.027  1.00  0.00     0.120 C 
HETATM   12  C15 UNL     1     -13.929   2.504   4.101  1.00  0.00     0.026 C 
HETATM   13  C16 UNL     1     -12.543   2.595   3.483  1.00  0.00     0.061 C 
ENDROOT
BRANCH   1  14
HETATM   14  S1  UNL     1     -10.274   6.658   1.226  1.00  0.00    -0.084 SA
BRANCH  14  15
HETATM   15  C2  UNL     1      -9.421   6.781   2.797  1.00  0.00     0.185 C 
BRANCH  15  16
HETATM   16  C1  UNL     1      -8.082   7.438   2.637  1.00  0.00     0.229 C 
HETATM   17  O1  UNL     1      -7.306   7.099   1.699  1.00  0.00    -0.273 OA
HETATM   18  N4  UNL     1      -7.667   8.452   3.537  1.00  0.00    -0.351 N 
HETATM   19  C17 UNL     1      -6.415   9.174   3.513  1.00  0.00     0.126 C 
HETATM   20  C20 UNL     1      -8.429   8.945   4.647  1.00  0.00     0.126 C 
HETATM   21  C18 UNL     1      -6.124   9.272   5.014  1.00  0.00     0.021 C 
HETATM   22  C19 UNL     1      -7.464   9.639   5.573  1.00  0.00     0.021 C 
ENDBRANCH  15  16
ENDBRANCH  14  15
ENDBRANCH   1  14
BRANCH   8  23
HETATM   23  C7  UNL     1     -12.670   6.683  -0.507  1.00  0.00     0.139 C 
BRANCH  23  24
HETATM   24  C8  UNL     1     -12.062   6.435  -1.835  1.00  0.00     0.004 C 
HETATM   25  C9  UNL     1     -11.023   7.391  -2.313  1.00  0.00     0.006 C 
HETATM   26  C10 UNL     1     -10.040   6.589  -3.222  1.00  0.00     0.000 C 
HETATM   27  C11 UNL     1     -10.893   5.677  -4.047  1.00  0.00     0.000 C 
HETATM   28  C12 UNL     1     -12.259   6.262  -4.280  1.00  0.00     0.000 C 
HETATM   29  C13 UNL     1     -13.063   6.270  -2.966  1.00  0.00     0.006 C 
ENDBRANCH  23  24
ENDBRANCH   8  23
TORSDOF 5
ENDMDL
MODEL 4
REMARK VINA RESULT: -7.818820980      1.767      2.275
REMARK  5 active torsions:
REMARK  status: ('A' for Active; 'I' for Inactive)
REMARK    1  A    between atoms: C1_2  and  C2_3 
REMARK       I    between atoms: C1_2  and  N4_25 
REMARK    2  A    between atoms: C2_3  and  S1_4 
REMARK    3  A    between atoms: S1_4  and  C3_5 
REMARK    4  A    between atoms: N2_12  and  C7_13 
REMARK    5  A    between atoms: C7_13  and  C8_14 
ROOT
HETATM    1  C3  UNL     1     -11.318   6.546   0.391  1.00  0.00     0.150 A 
HETATM    2  N1  UNL     1     -11.183   5.287   0.844  1.00  0.00    -0.338 N 
ATOM      3  H1  UNL     1     -10.247   4.888   0.912  1.00  0.00     0.168 HD
HETATM    4  C4  UNL     1     -12.220   4.544   1.204  1.00  0.00     0.043 A 
HETATM    5  C5  UNL     1     -13.462   5.111   1.101  1.00  0.00     0.120 A 
HETATM    6  C6  UNL     1     -13.570   6.414   0.630  1.00  0.00     0.278 A 
HETATM    7  O2  UNL     1     -14.726   6.867   0.569  1.00  0.00    -0.265 OA
HETATM    8  N2  UNL     1     -12.528   7.176   0.258  1.00  0.00    -0.292 N 
HETATM    9  N3  UNL     1     -14.591   4.347   1.479  1.00  0.00    -0.384 N 
ATOM     10  H3  UNL     1     -15.510   4.673   1.178  1.00  0.00     0.159 HD
HETATM   11  C14 UNL     1     -14.526   3.133   2.267  1.00  0.00     0.120 C 
HETATM   12  C15 UNL     1     -13.119   2.983   2.836  1.00  0.00     0.026 C 
HETATM   13  C16 UNL     1     -12.115   3.153   1.706  1.00  0.00     0.061 C 
ENDROOT
BRANCH   1  14
HETATM   14  S1  UNL     1      -9.823   7.485   0.049  1.00  0.00    -0.084 SA
BRANCH  14  15
HETATM   15  C2  UNL     1      -8.456   6.913   1.059  1.00  0.00     0.185 C 
BRANCH  15  16
HETATM   16  C1  UNL     1      -8.634   7.318   2.492  1.00  0.00     0.229 C 
HETATM   17  O1  UNL     1      -9.569   6.829   3.188  1.00  0.00    -0.273 OA
HETATM   18  N4  UNL     1      -7.755   8.257   3.088  1.00  0.00    -0.351 N 
HETATM   19  C17 UNL     1      -7.797   8.743   4.448  1.00  0.00     0.126 C 
HETATM   20  C20 UNL     1      -6.652   8.898   2.433  1.00  0.00     0.126 C 
HETATM   21  C18 UNL     1      -7.431  10.215   4.226  1.00  0.00     0.021 C 
HETATM   22  C19 UNL     1      -6.301  10.116   3.249  1.00  0.00     0.021 C 
ENDBRANCH  15  16
ENDBRANCH  14  15
ENDBRANCH   1  14
BRANCH   8  23
HETATM   23  C7  UNL     1     -12.584   8.498  -0.259  1.00  0.00     0.139 C 
BRANCH  23  24
HETATM   24  C8  UNL     1     -13.286   8.791  -1.530  1.00  0.00     0.004 C 
HETATM   25  C9  UNL     1     -13.154   7.804  -2.640  1.00  0.00     0.006 C 
HETATM   26  C10 UNL     1     -14.472   7.867  -3.473  1.00  0.00     0.000 C 
HETATM   27  C11 UNL     1     -14.825   9.318  -3.577  1.00  0.00     0.000 C 
HETATM   28  C12 UNL     1     -13.599  10.189  -3.530  1.00  0.00     0.000 C 
HETATM   29  C13 UNL     1     -12.983  10.159  -2.118  1.00  0.00     0.006 C 
ENDBRANCH  23  24
ENDBRANCH   8  23
TORSDOF 5
ENDMDL
MODEL 5
REMARK VINA RESULT: -7.799677178      2.241      2.755
REMARK  5 active torsions:
REMARK  status: ('A' for Active; 'I' for Inactive)
REMARK    1  A    between atoms: C1_2  and  C2_3 
REMARK       I    between atoms: C1_2  and  N4_25 
REMARK    2  A    between atoms: C2_3  and  S1_4 
REMARK    3  A    between atoms: S1_4  and  C3_5 
REMARK    4  A    between atoms: N2_12  and  C7_13 
REMARK    5  A    between atoms: C7_13  and  C8_14 
ROOT
HETATM    1  C3  UNL     1     -12.333   4.372   1.173  1.00  0.00     0.150 A 
HETATM    2  N1  UNL     1     -12.031   3.773   2.339  1.00  0.00    -0.338 N 
ATOM      3  H1  UNL     1     -11.085   3.867   2.707  1.00  0.00     0.168 HD
HETATM    4  C4  UNL     1     -12.915   3.066   3.027  1.00  0.00     0.043 A 
HETATM    5  C5  UNL     1     -14.177   2.962   2.505  1.00  0.00     0.120 A 
HETATM    6  C6  UNL     1     -14.460   3.591   1.299  1.00  0.00     0.278 A 
HETATM    7  O2  UNL     1     -15.625   3.461   0.887  1.00  0.00    -0.265 OA
HETATM    8  N2  UNL     1     -13.571   4.308   0.589  1.00  0.00    -0.292 N 
HETATM    9  N3  UNL     1     -15.147   2.216   3.214  1.00  0.00    -0.384 N 
ATOM     10  H3  UNL     1     -15.994   1.940   2.718  1.00  0.00     0.159 HD
HETATM   11  C14 UNL     1     -15.014   1.820   4.602  1.00  0.00     0.120 C 
HETATM   12  C15 UNL     1     -13.831   2.559   5.220  1.00  0.00     0.026 C 
HETATM   13  C16 UNL     1     -12.623   2.390   4.313  1.00  0.00     0.061 C 
ENDROOT
BRANCH   1  14
HETATM   14  S1  UNL     1     -11.076   5.400   0.401  1.00  0.00    -0.084 SA
BRANCH  14  15
HETATM   15  C2  UNL     1     -10.145   6.314   1.630  1.00  0.00     0.185 C 
BRANCH  15  16
HETATM   16  C1  UNL     1      -8.934   6.960   1.024  1.00  0.00     0.229 C 
HETATM   17  O1  UNL     1      -8.659   6.791  -0.198  1.00  0.00    -0.273 OA
HETATM   18  N4  UNL     1      -8.081   7.772   1.812  1.00  0.00    -0.351 N 
HETATM   19  C17 UNL     1      -6.887   8.457   1.374  1.00  0.00     0.126 C 
HETATM   20  C20 UNL     1      -8.258   8.059   3.206  1.00  0.00     0.126 C 
HETATM   21  C18 UNL     1      -5.989   8.258   2.601  1.00  0.00     0.021 C 
HETATM   22  C19 UNL     1      -6.930   8.541   3.731  1.00  0.00     0.021 C 
ENDBRANCH  15  16
ENDBRANCH  14  15
ENDBRANCH   1  14
BRANCH   8  23
HETATM   23  C7  UNL     1     -13.797   4.944  -0.661  1.00  0.00     0.139 C 
BRANCH  23  24
HETATM   24  C8  UNL     1     -13.609   6.406  -0.817  1.00  0.00     0.004 C 
HETATM   25  C9  UNL     1     -14.049   7.287   0.302  1.00  0.00     0.006 C 
HETATM   26  C10 UNL     1     -13.115   8.537   0.300  1.00  0.00     0.000 C 
HETATM   27  C11 UNL     1     -12.927   8.909  -1.138  1.00  0.00     0.000 C 
HETATM   28  C12 UNL     1     -14.119   8.518  -1.968  1.00  0.00     0.000 C 
HETATM   29  C13 UNL     1     -14.198   6.985  -2.093  1.00  0.00     0.006 C 
ENDBRANCH  23  24
ENDBRANCH   8  23
TORSDOF 5
ENDMDL
