MODEL 1
REMARK VINA RESULT: -8.603556008      0.000      0.000
REMARK  6 active torsions:
REMARK  status: ('A' for Active; 'I' for Inactive)
REMARK    1  A    between atoms: S1_3  and  C2_4 
REMARK    2  A    between atoms: C2_4  and  C3_5 
REMARK    3  A    between atoms: C3_5  and  N2_6 
REMARK    4  A    between atoms: C7_10  and  C8_11 
REMARK    5  A    between atoms: C11_14  and  N3_15 
REMARK    6  A    between atoms: N3_15  and  C12_17 
ROOT
HETATM    1  N1  UNL     1     -12.138   2.771   5.255  1.00  0.00    -0.184 NA
HETATM    2  C1  UNL     1     -13.086   2.338   4.800  1.00  0.00     0.133 C 
HETATM    3  S1  UNL     1     -14.539   1.641   4.101  1.00  0.00    -0.049 SA
ENDROOT
BRANCH   3   4
HETATM    4  C2  UNL     1     -15.052   2.643   2.675  1.00  0.00     0.110 C 
BRANCH   4   5
HETATM    5  C3  UNL     1     -13.860   2.771   1.757  1.00  0.00     0.139 C 
BRANCH   5   6
HETATM    6  N2  UNL     1     -13.556   4.173   1.473  1.00  0.00    -0.365 N 
HETATM    7  C4  UNL     1     -14.538   5.024   1.078  1.00  0.00     0.090 A 
HETATM    8  C5  UNL     1     -14.294   6.354   0.800  1.00  0.00     0.018 A 
HETATM    9  C6  UNL     1     -13.011   6.841   0.927  1.00  0.00     0.015 A 
HETATM   10  C7  UNL     1     -11.997   5.997   1.326  1.00  0.00    -0.010 A 
HETATM   11  C21 UNL     1     -12.316   4.679   1.587  1.00  0.00     0.102 A 
BRANCH  10  12
HETATM   12  C8  UNL     1     -10.613   6.476   1.475  1.00  0.00    -0.025 A 
HETATM   13  C9  UNL     1      -9.862   6.896   0.396  1.00  0.00     0.014 A 
HETATM   14  C10 UNL     1      -8.557   7.346   0.542  1.00  0.00     0.030 A 
HETATM   15  C11 UNL     1      -8.007   7.370   1.793  1.00  0.00     0.033 A 
HETATM   16  C19 UNL     1      -8.717   6.960   2.902  1.00  0.00     0.030 A 
HETATM   17  C20 UNL     1     -10.003   6.521   2.722  1.00  0.00     0.014 A 
BRANCH  15  18
HETATM   18  N3  UNL     1      -6.653   7.831   1.982  1.00  0.00    -0.340 N 
ATOM     19  H3  UNL     1      -5.910   7.580   1.330  1.00  0.00     0.167 HD
BRANCH  18  20
HETATM   20  C12 UNL     1      -6.417   8.585   3.023  1.00  0.00     0.145 A 
HETATM   21  N4  UNL     1      -7.302   9.515   3.427  1.00  0.00    -0.336 N 
HETATM   22  C13 UNL     1      -7.011  10.259   4.499  1.00  0.00     0.184 A 
ATOM     23  H4  UNL     1      -8.179   9.650   2.923  1.00  0.00     0.168 HD
HETATM   24  N5  UNL     1      -5.852  10.082   5.167  1.00  0.00    -0.331 N 
HETATM   25  C14 UNL     1      -4.963   9.156   4.773  1.00  0.00     0.181 A 
ATOM     26  H5  UNL     1      -5.649  10.660   5.983  1.00  0.00     0.168 HD
HETATM   27  C15 UNL     1      -5.222   8.369   3.675  1.00  0.00     0.164 A 
HETATM   28  O2  UNL     1      -3.813   9.085   5.556  1.00  0.00    -0.333 OA
HETATM   29  O1  UNL     1      -4.446   7.369   3.108  1.00  0.00    -0.344 OA
HETATM   30  C16 UNL     1      -3.528   6.521   3.801  1.00  0.00     0.178 C 
HETATM   31  C17 UNL     1      -2.486   7.387   4.479  1.00  0.00     0.053 C 
HETATM   32  C18 UNL     1      -2.988   7.947   5.782  1.00  0.00     0.179 C 
ENDBRANCH  18  20
ENDBRANCH  15  18
ENDBRANCH  10  12
ENDBRANCH   5   6
ENDBRANCH   4   5
ENDBRANCH   3   4
TORSDOF 6
ENDMDL
MODEL 2
REMARK VINA RESULT: -8.071331756      1.373      1.821
REMARK  6 active torsions:
REMARK  status: ('A' for Active; 'I' for Inactive)
REMARK    1  A    between atoms: S1_3  and  C2_4 
REMARK    2  A    between atoms: C2_4  and  C3_5 
REMARK    3  A    between atoms: C3_5  and  N2_6 
REMARK    4  A    between atoms: C7_10  and  C8_11 
REMARK    5  A    between atoms: C11_14  and  N3_15 
REMARK    6  A    between atoms: N3_15  and  C12_17 
ROOT
HETATM    1  N1  UNL     1     -15.290   2.012   4.416  1.00  0.00    -0.184 NA
HETATM    2  C1  UNL     1     -14.725   2.300   3.474  1.00  0.00     0.133 C 
HETATM    3  S1  UNL     1     -13.827   2.754   2.033  1.00  0.00    -0.049 SA
ENDROOT
BRANCH   3   4
HETATM    4  C2  UNL     1     -14.923   3.676   0.916  1.00  0.00     0.110 C 
BRANCH   4   5
HETATM    5  C3  UNL     1     -14.651   5.147   1.123  1.00  0.00     0.139 C 
BRANCH   5   6
HETATM    6  N2  UNL     1     -13.577   5.618   0.249  1.00  0.00    -0.365 N 
HETATM    7  C4  UNL     1     -13.760   5.674  -1.095  1.00  0.00     0.090 A 
HETATM    8  C5  UNL     1     -12.773   6.113  -1.956  1.00  0.00     0.018 A 
HETATM    9  C6  UNL     1     -11.559   6.508  -1.438  1.00  0.00     0.015 A 
HETATM   10  C7  UNL     1     -11.349   6.460  -0.076  1.00  0.00    -0.010 A 
HETATM   11  C21 UNL     1     -12.382   6.010   0.722  1.00  0.00     0.102 A 
BRANCH  10  12
HETATM   12  C8  UNL     1     -10.068   6.872   0.519  1.00  0.00    -0.025 A 
HETATM   13  C9  UNL     1      -9.705   6.514   1.801  1.00  0.00     0.014 A 
HETATM   14  C10 UNL     1      -8.495   6.907   2.358  1.00  0.00     0.030 A 
HETATM   15  C11 UNL     1      -7.645   7.670   1.607  1.00  0.00     0.033 A 
HETATM   16  C19 UNL     1      -7.962   8.053   0.321  1.00  0.00     0.030 A 
HETATM   17  C20 UNL     1      -9.166   7.648  -0.197  1.00  0.00     0.014 A 
BRANCH  15  18
HETATM   18  N3  UNL     1      -6.379   8.096   2.153  1.00  0.00    -0.340 N 
ATOM     19  H3  UNL     1      -5.498   7.873   1.689  1.00  0.00     0.167 HD
BRANCH  18  20
HETATM   20  C12 UNL     1      -6.407   8.779   3.267  1.00  0.00     0.145 A 
HETATM   21  N4  UNL     1      -7.463   9.549   3.587  1.00  0.00    -0.336 N 
HETATM   22  C13 UNL     1      -7.440  10.226   4.740  1.00  0.00     0.184 A 
ATOM     23  H4  UNL     1      -8.266   9.614   2.962  1.00  0.00     0.168 HD
HETATM   24  N5  UNL     1      -6.379  10.141   5.569  1.00  0.00    -0.331 N 
HETATM   25  C14 UNL     1      -5.321   9.375   5.259  1.00  0.00     0.181 A 
ATOM     26  H5  UNL     1      -6.381  10.666   6.444  1.00  0.00     0.168 HD
HETATM   27  C15 UNL     1      -5.302   8.661   4.083  1.00  0.00     0.164 A 
HETATM   28  O2  UNL     1      -4.300   9.382   6.207  1.00  0.00    -0.333 OA
HETATM   29  O1  UNL     1      -4.319   7.822   3.579  1.00  0.00    -0.344 OA
HETATM   30  C16 UNL     1      -3.403   7.041   4.349  1.00  0.00     0.178 C 
HETATM   31  C17 UNL     1      -2.604   7.970   5.240  1.00  0.00     0.053 C 
HETATM   32  C18 UNL     1      -3.367   8.343   6.483  1.00  0.00     0.179 C 
ENDBRANCH  18  20
ENDBRANCH  15  18
ENDBRANCH  10  12
ENDBRANCH   5   6
ENDBRANCH   4   5
ENDBRANCH   3   4
TORSDOF 6
ENDMDL
MODEL 3
REMARK VINA RESULT: -7.950572035      4.002      9.272
REMARK  6 active torsions:
REMARK  status: ('A' for Active; 'I' for Inactive)
REMARK    1  A    between atoms: S1_3  and  C2_4 
REMARK    2  A    between atoms: C2_4  and  C3_5 
REMARK    3  A    between atoms: C3_5  and  N2_6 
REMARK    4  A    between atoms: C7_10  and  C8_11 
REMARK    5  A    between atoms: C11_14  and  N3_15 
REMARK    6  A    between atoms: N3_15  and  C12_17 
ROOT
HETATM    1  N1  UNL     1      -3.031   8.771   0.944  1.00  0.00    -0.184 NA
HETATM    2  C1  UNL     1      -2.753   8.050   1.778  1.00  0.00     0.133 C 
HETATM    3  S1  UNL     1      -2.323   6.913   3.046  1.00  0.00    -0.049 SA
ENDROOT
BRANCH   3   4
HETATM    4  C2  UNL     1      -3.289   7.293   4.536  1.00  0.00     0.110 C 
BRANCH   4   5
HETATM    5  C3  UNL     1      -3.568   8.776   4.532  1.00  0.00     0.139 C 
BRANCH   5   6
HETATM    6  N2  UNL     1      -5.005   9.047   4.578  1.00  0.00    -0.365 N 
HETATM    7  C4  UNL     1      -5.502   9.984   5.426  1.00  0.00     0.090 A 
HETATM    8  C5  UNL     1      -6.850  10.271   5.500  1.00  0.00     0.018 A 
HETATM    9  C6  UNL     1      -7.727   9.585   4.688  1.00  0.00     0.015 A 
HETATM   10  C7  UNL     1      -7.248   8.629   3.819  1.00  0.00    -0.010 A 
HETATM   11  C21 UNL     1      -5.886   8.396   3.800  1.00  0.00     0.102 A 
BRANCH  10  12
HETATM   12  C8  UNL     1      -8.149   7.873   2.934  1.00  0.00    -0.025 A 
HETATM   13  C9  UNL     1      -9.296   7.265   3.401  1.00  0.00     0.014 A 
HETATM   14  C10 UNL     1     -10.142   6.553   2.562  1.00  0.00     0.030 A 
HETATM   15  C11 UNL     1      -9.823   6.457   1.236  1.00  0.00     0.033 A 
HETATM   16  C19 UNL     1      -8.688   7.047   0.722  1.00  0.00     0.030 A 
HETATM   17  C20 UNL     1      -7.874   7.742   1.579  1.00  0.00     0.014 A 
BRANCH  15  18
HETATM   18  N3  UNL     1     -10.680   5.724   0.335  1.00  0.00    -0.340 N 
ATOM     19  H3  UNL     1     -10.331   4.930  -0.202  1.00  0.00     0.167 HD
BRANCH  18  20
HETATM   20  C12 UNL     1     -11.921   6.120   0.235  1.00  0.00     0.145 A 
HETATM   21  N4  UNL     1     -12.233   7.304  -0.325  1.00  0.00    -0.336 N 
HETATM   22  C13 UNL     1     -13.519   7.660  -0.404  1.00  0.00     0.184 A 
ATOM     23  H4  UNL     1     -11.501   7.918  -0.683  1.00  0.00     0.168 HD
HETATM   24  N5  UNL     1     -14.489   6.850   0.069  1.00  0.00    -0.331 N 
HETATM   25  C14 UNL     1     -14.188   5.667   0.628  1.00  0.00     0.181 A 
ATOM     26  H5  UNL     1     -15.465   7.140   0.000  1.00  0.00     0.168 HD
HETATM   27  C15 UNL     1     -12.878   5.261   0.730  1.00  0.00     0.164 A 
HETATM   28  O2  UNL     1     -15.289   4.936   1.071  1.00  0.00    -0.333 OA
HETATM   29  O1  UNL     1     -12.358   4.092   1.267  1.00  0.00    -0.344 OA
HETATM   30  C16 UNL     1     -13.008   2.820   1.300  1.00  0.00     0.178 C 
HETATM   31  C17 UNL     1     -14.315   2.963   2.052  1.00  0.00     0.053 C 
HETATM   32  C18 UNL     1     -15.404   3.521   1.176  1.00  0.00     0.179 C 
ENDBRANCH  18  20
ENDBRANCH  15  18
ENDBRANCH  10  12
ENDBRANCH   5   6
ENDBRANCH   4   5
ENDBRANCH   3   4
TORSDOF 6
ENDMDL
MODEL 4
REMARK VINA RESULT: -7.828642800      4.085      9.255
REMARK  6 active torsions:
REMARK  status: ('A' for Active; 'I' for Inactive)
REMARK    1  A    between atoms: S1_3  and  C2_4 
REMARK    2  A    between atoms: C2_4  and  C3_5 
REMARK    3  A    between atoms: C3_5  and  N2_6 
REMARK    4  A    between atoms: C7_10  and  C8_11 
REMARK    5  A    between atoms: C11_14  and  N3_15 
REMARK    6  A    between atoms: N3_15  and  C12_17 
ROOT
HETATM    1  N1  UNL     1      -4.455   9.520   0.358  1.00  0.00    -0.184 NA
HETATM    2  C1  UNL     1      -3.669   9.148   1.089  1.00  0.00     0.133 C 
HETATM    3  S1  UNL     1      -2.437   8.561   2.195  1.00  0.00    -0.049 SA
ENDROOT
BRANCH   3   4
HETATM    4  C2  UNL     1      -3.243   7.731   3.595  1.00  0.00     0.110 C 
BRANCH   4   5
HETATM    5  C3  UNL     1      -3.602   8.792   4.608  1.00  0.00     0.139 C 
BRANCH   5   6
HETATM    6  N2  UNL     1      -5.039   9.064   4.606  1.00  0.00    -0.365 N 
HETATM    7  C4  UNL     1      -5.561  10.007   5.432  1.00  0.00     0.090 A 
HETATM    8  C5  UNL     1      -6.911  10.296   5.461  1.00  0.00     0.018 A 
HETATM    9  C6  UNL     1      -7.762   9.607   4.625  1.00  0.00     0.015 A 
HETATM   10  C7  UNL     1      -7.256   8.644   3.777  1.00  0.00    -0.010 A 
HETATM   11  C21 UNL     1      -5.895   8.410   3.804  1.00  0.00     0.102 A 
BRANCH  10  12
HETATM   12  C8  UNL     1      -8.130   7.884   2.868  1.00  0.00    -0.025 A 
HETATM   13  C9  UNL     1      -7.858   7.762   1.521  1.00  0.00     0.014 A 
HETATM   14  C10 UNL     1      -8.686   7.045   0.669  1.00  0.00     0.030 A 
HETATM   15  C11 UNL     1      -9.799   6.445   1.187  1.00  0.00     0.033 A 
HETATM   16  C19 UNL     1     -10.113   6.537   2.526  1.00  0.00     0.030 A 
HETATM   17  C20 UNL     1      -9.274   7.254   3.340  1.00  0.00     0.014 A 
BRANCH  15  18
HETATM   18  N3  UNL     1     -10.682   5.690   0.329  1.00  0.00    -0.340 N 
ATOM     19  H3  UNL     1     -10.356   4.867  -0.177  1.00  0.00     0.167 HD
BRANCH  18  20
HETATM   20  C12 UNL     1     -11.917   6.105   0.229  1.00  0.00     0.145 A 
HETATM   21  N4  UNL     1     -12.213   7.282  -0.353  1.00  0.00    -0.336 N 
HETATM   22  C13 UNL     1     -13.494   7.658  -0.430  1.00  0.00     0.184 A 
ATOM     23  H4  UNL     1     -11.474   7.876  -0.727  1.00  0.00     0.168 HD
HETATM   24  N5  UNL     1     -14.474   6.873   0.064  1.00  0.00    -0.331 N 
HETATM   25  C14 UNL     1     -14.189   5.697   0.645  1.00  0.00     0.181 A 
ATOM     26  H5  UNL     1     -15.445   7.178  -0.004  1.00  0.00     0.168 HD
HETATM   27  C15 UNL     1     -12.885   5.271   0.747  1.00  0.00     0.164 A 
HETATM   28  O2  UNL     1     -15.299   4.994   1.109  1.00  0.00    -0.333 OA
HETATM   29  O1  UNL     1     -12.382   4.105   1.304  1.00  0.00    -0.344 OA
HETATM   30  C16 UNL     1     -13.052   2.845   1.367  1.00  0.00     0.178 C 
HETATM   31  C17 UNL     1     -14.352   3.024   2.124  1.00  0.00     0.053 C 
HETATM   32  C18 UNL     1     -15.437   3.583   1.243  1.00  0.00     0.179 C 
ENDBRANCH  18  20
ENDBRANCH  15  18
ENDBRANCH  10  12
ENDBRANCH   5   6
ENDBRANCH   4   5
ENDBRANCH   3   4
TORSDOF 6
ENDMDL
MODEL 5
REMARK VINA RESULT: -7.769514126      1.512      2.049
REMARK  6 active torsions:
REMARK  status: ('A' for Active; 'I' for Inactive)
REMARK    1  A    between atoms: S1_3  and  C2_4 
REMARK    2  A    between atoms: C2_4  and  C3_5 
REMARK    3  A    between atoms: C3_5  and  N2_6 
REMARK    4  A    between atoms: C7_10  and  C8_11 
REMARK    5  A    between atoms: C11_14  and  N3_15 
REMARK    6  A    between atoms: N3_15  and  C12_17 
ROOT
HETATM    1  N1  UNL     1     -11.910   2.542   5.309  1.00  0.00    -0.184 NA
HETATM    2  C1  UNL     1     -12.877   2.434   4.723  1.00  0.00     0.133 C 
HETATM    3  S1  UNL     1     -14.379   2.242   3.832  1.00  0.00    -0.049 SA
ENDROOT
BRANCH   3   4
HETATM    4  C2  UNL     1     -14.064   2.534   2.067  1.00  0.00     0.110 C 
BRANCH   4   5
HETATM    5  C3  UNL     1     -15.032   3.595   1.602  1.00  0.00     0.139 C 
BRANCH   5   6
HETATM    6  N2  UNL     1     -14.328   4.785   1.122  1.00  0.00    -0.365 N 
HETATM    7  C4  UNL     1     -14.910   5.610   0.215  1.00  0.00     0.090 A 
HETATM    8  C5  UNL     1     -14.281   6.742  -0.262  1.00  0.00     0.018 A 
HETATM    9  C6  UNL     1     -13.018   7.050   0.195  1.00  0.00     0.015 A 
HETATM   10  C7  UNL     1     -12.405   6.228   1.116  1.00  0.00    -0.010 A 
HETATM   11  C21 UNL     1     -13.096   5.113   1.548  1.00  0.00     0.102 A 
BRANCH  10  12
HETATM   12  C8  UNL     1     -11.058   6.519   1.630  1.00  0.00    -0.025 A 
HETATM   13  C9  UNL     1     -10.808   6.697   2.975  1.00  0.00     0.014 A 
HETATM   14  C10 UNL     1      -9.534   6.972   3.455  1.00  0.00     0.030 A 
HETATM   15  C11 UNL     1      -8.504   7.068   2.562  1.00  0.00     0.033 A 
HETATM   16  C19 UNL     1      -8.703   6.899   1.208  1.00  0.00     0.030 A 
HETATM   17  C20 UNL     1      -9.974   6.629   0.769  1.00  0.00     0.014 A 
BRANCH  15  18
HETATM   18  N3  UNL     1      -7.167   7.353   3.025  1.00  0.00    -0.340 N 
ATOM     19  H3  UNL     1      -6.827   6.996   3.918  1.00  0.00     0.167 HD
BRANCH  18  20
HETATM   20  C12 UNL     1      -6.410   8.086   2.252  1.00  0.00     0.145 A 
HETATM   21  N4  UNL     1      -6.943   8.954   1.372  1.00  0.00    -0.336 N 
HETATM   22  C13 UNL     1      -6.122   9.681   0.607  1.00  0.00     0.184 A 
ATOM     23  H4  UNL     1      -7.954   9.054   1.291  1.00  0.00     0.168 HD
HETATM   24  N5  UNL     1      -4.784   9.549   0.713  1.00  0.00    -0.331 N 
HETATM   25  C14 UNL     1      -4.242   8.688   1.589  1.00  0.00     0.181 A 
ATOM     26  H5  UNL     1      -4.174  10.113   0.119  1.00  0.00     0.168 HD
HETATM   27  C15 UNL     1      -5.049   7.919   2.395  1.00  0.00     0.164 A 
HETATM   28  O2  UNL     1      -2.849   8.658   1.590  1.00  0.00    -0.333 OA
HETATM   29  O1  UNL     1      -4.696   6.981   3.353  1.00  0.00    -0.344 OA
HETATM   30  C16 UNL     1      -3.505   6.990   4.143  1.00  0.00     0.178 C 
HETATM   31  C17 UNL     1      -2.308   6.964   3.215  1.00  0.00     0.053 C 
HETATM   32  C18 UNL     1      -1.990   8.333   2.677  1.00  0.00     0.179 C 
ENDBRANCH  18  20
ENDBRANCH  15  18
ENDBRANCH  10  12
ENDBRANCH   5   6
ENDBRANCH   4   5
ENDBRANCH   3   4
TORSDOF 6
ENDMDL
