MODEL 1
REMARK VINA RESULT: -8.032672449      0.000      0.000
REMARK  6 active torsions:
REMARK  status: ('A' for Active; 'I' for Inactive)
REMARK    1  A    between atoms: C2_3  and  C3_4 
REMARK    2  A    between atoms: C3_4  and  C4_5 
REMARK    3  A    between atoms: C4_5  and  N2_6 
REMARK    4  A    between atoms: C7_9  and  C8_10 
REMARK    5  A    between atoms: C13_18  and  N4_19 
REMARK       I    between atoms: N4_19  and  C14_21 
REMARK    6  A    between atoms: C14_21  and  C15_23 
ROOT
HETATM    1  N1  UNL     1     -12.082   2.401   5.361  1.00  0.00    -0.197 NA
HETATM    2  C1  UNL     1     -13.163   2.288   4.926  1.00  0.00     0.059 C 
HETATM    3  C2  UNL     1     -14.524   2.147   4.405  1.00  0.00     0.129 C 
ENDROOT
BRANCH   3   4
HETATM    4  C3  UNL     1     -14.498   1.745   2.940  1.00  0.00     0.058 C 
BRANCH   4   5
HETATM    5  C4  UNL     1     -15.153   2.788   2.071  1.00  0.00     0.064 C 
BRANCH   5   6
HETATM    6  N2  UNL     1     -14.280   3.656   1.408  1.00  0.00    -0.374 N 
HETATM    7  C5  UNL     1     -14.703   4.927   0.999  1.00  0.00     0.064 C 
HETATM    8  C6  UNL     1     -13.728   6.044   1.132  1.00  0.00     0.057 C 
HETATM    9  C7  UNL     1     -12.391   5.718   1.664  1.00  0.00     0.060 C 
HETATM   10  C19 UNL     1     -12.110   4.312   2.046  1.00  0.00     0.033 C 
HETATM   11  C20 UNL     1     -12.919   3.309   1.269  1.00  0.00     0.128 C 
BRANCH   9  12
HETATM   12  C8  UNL     1     -11.298   6.132   0.696  1.00  0.00     0.087 A 
HETATM   13  N3  UNL     1     -11.594   6.096  -0.604  1.00  0.00    -0.344 N 
HETATM   14  C9  UNL     1     -10.678   6.452  -1.564  1.00  0.00     0.054 A 
ATOM     15  H3  UNL     1     -12.526   5.796  -0.894  1.00  0.00     0.167 HD
HETATM   16  C10 UNL     1     -10.834   6.466  -2.908  1.00  0.00     0.038 A 
HETATM   17  C12 UNL     1      -9.466   6.838  -1.069  1.00  0.00     0.075 A 
HETATM   18  C11 UNL     1      -9.759   6.867  -3.652  1.00  0.00     0.053 A 
HETATM   19  S1  UNL     1      -8.574   7.209  -2.480  1.00  0.00    -0.096 SA
HETATM   20  C13 UNL     1      -9.173   6.870   0.301  1.00  0.00     0.128 A 
HETATM   21  N5  UNL     1     -10.111   6.509   1.195  1.00  0.00    -0.330 N 
ATOM     22  H5  UNL     1      -9.929   6.521   2.198  1.00  0.00     0.168 HD
BRANCH  20  23
HETATM   23  N4  UNL     1      -8.025   7.243   0.646  1.00  0.00    -0.310 N 
HETATM   24  C14 UNL     1      -7.448   7.477   1.882  1.00  0.00     0.252 C 
HETATM   25  O1  UNL     1      -6.989   6.523   2.559  1.00  0.00    -0.270 OA
ATOM     26  H4  UNL     1      -7.394   7.406  -0.139  1.00  0.00     0.170 HD
BRANCH  24  27
HETATM   27  C15 UNL     1      -7.323   8.831   2.490  1.00  0.00     0.213 C 
HETATM   28  C16 UNL     1      -7.746   8.794   3.943  1.00  0.00     0.044 C 
HETATM   29  C17 UNL     1      -6.596   9.463   4.658  1.00  0.00     0.029 C 
HETATM   30  C18 UNL     1      -5.845  10.120   3.541  1.00  0.00     0.168 C 
HETATM   31  O2  UNL     1      -5.991   9.228   2.485  1.00  0.00    -0.376 OA
ENDBRANCH  24  27
ENDBRANCH  20  23
ENDBRANCH   9  12
ENDBRANCH   5   6
ENDBRANCH   4   5
ENDBRANCH   3   4
TORSDOF 6
ENDMDL
MODEL 2
REMARK VINA RESULT: -7.693570259      1.076      1.320
REMARK  6 active torsions:
REMARK  status: ('A' for Active; 'I' for Inactive)
REMARK    1  A    between atoms: C2_3  and  C3_4 
REMARK    2  A    between atoms: C3_4  and  C4_5 
REMARK    3  A    between atoms: C4_5  and  N2_6 
REMARK    4  A    between atoms: C7_9  and  C8_10 
REMARK    5  A    between atoms: C13_18  and  N4_19 
REMARK       I    between atoms: N4_19  and  C14_21 
REMARK    6  A    between atoms: C14_21  and  C15_23 
ROOT
HETATM    1  N1  UNL     1     -12.217   2.686   5.456  1.00  0.00    -0.197 NA
HETATM    2  C1  UNL     1     -13.262   2.371   5.032  1.00  0.00     0.059 C 
HETATM    3  C2  UNL     1     -14.576   1.973   4.525  1.00  0.00     0.129 C 
ENDROOT
BRANCH   3   4
HETATM    4  C3  UNL     1     -14.503   1.647   3.042  1.00  0.00     0.058 C 
BRANCH   4   5
HETATM    5  C4  UNL     1     -15.195   2.699   2.213  1.00  0.00     0.064 C 
BRANCH   5   6
HETATM    6  N2  UNL     1     -14.356   3.514   1.448  1.00  0.00    -0.374 N 
HETATM    7  C5  UNL     1     -14.852   4.657   0.808  1.00  0.00     0.064 C 
HETATM    8  C6  UNL     1     -13.975   5.860   0.787  1.00  0.00     0.057 C 
HETATM    9  C7  UNL     1     -12.650   5.745   1.426  1.00  0.00     0.060 C 
HETATM   10  C19 UNL     1     -12.283   4.453   2.057  1.00  0.00     0.033 C 
HETATM   11  C20 UNL     1     -12.967   3.267   1.431  1.00  0.00     0.128 C 
BRANCH   9  12
HETATM   12  C8  UNL     1     -11.539   6.082   0.449  1.00  0.00     0.087 A 
HETATM   13  N3  UNL     1     -11.868   6.158  -0.841  1.00  0.00    -0.344 N 
HETATM   14  C9  UNL     1     -10.938   6.458  -1.808  1.00  0.00     0.054 A 
ATOM     15  H3  UNL     1     -12.835   5.989  -1.119  1.00  0.00     0.167 HD
HETATM   16  C10 UNL     1     -11.123   6.570  -3.143  1.00  0.00     0.038 A 
HETATM   17  C12 UNL     1      -9.676   6.667  -1.329  1.00  0.00     0.075 A 
HETATM   18  C11 UNL     1     -10.025   6.882  -3.897  1.00  0.00     0.053 A 
HETATM   19  S1  UNL     1      -8.781   7.012  -2.744  1.00  0.00    -0.096 SA
HETATM   20  C13 UNL     1      -9.349   6.583   0.031  1.00  0.00     0.128 A 
HETATM   21  N5  UNL     1     -10.303   6.285   0.931  1.00  0.00    -0.330 N 
ATOM     22  H5  UNL     1     -10.098   6.216   1.928  1.00  0.00     0.168 HD
BRANCH  20  23
HETATM   23  N4  UNL     1      -8.158   6.796   0.361  1.00  0.00    -0.310 N 
HETATM   24  C14 UNL     1      -7.586   7.491   1.412  1.00  0.00     0.252 C 
HETATM   25  O1  UNL     1      -7.462   6.949   2.539  1.00  0.00    -0.270 OA
ATOM     26  H4  UNL     1      -7.476   6.374  -0.270  1.00  0.00     0.170 HD
BRANCH  24  27
HETATM   27  C15 UNL     1      -7.085   8.889   1.299  1.00  0.00     0.213 C 
HETATM   28  C16 UNL     1      -5.755   9.028   2.009  1.00  0.00     0.044 C 
HETATM   29  C17 UNL     1      -4.875   9.690   0.976  1.00  0.00     0.029 C 
HETATM   30  C18 UNL     1      -5.862  10.180  -0.039  1.00  0.00     0.168 C 
HETATM   31  O2  UNL     1      -6.844   9.197  -0.035  1.00  0.00    -0.376 OA
ENDBRANCH  24  27
ENDBRANCH  20  23
ENDBRANCH   9  12
ENDBRANCH   5   6
ENDBRANCH   4   5
ENDBRANCH   3   4
TORSDOF 6
ENDMDL
MODEL 3
REMARK VINA RESULT: -7.477355471      3.954      6.137
REMARK  6 active torsions:
REMARK  status: ('A' for Active; 'I' for Inactive)
REMARK    1  A    between atoms: C2_3  and  C3_4 
REMARK    2  A    between atoms: C3_4  and  C4_5 
REMARK    3  A    between atoms: C4_5  and  N2_6 
REMARK    4  A    between atoms: C7_9  and  C8_10 
REMARK    5  A    between atoms: C13_18  and  N4_19 
REMARK       I    between atoms: N4_19  and  C14_21 
REMARK    6  A    between atoms: C14_21  and  C15_23 
ROOT
HETATM    1  N1  UNL     1     -11.916   3.033   5.556  1.00  0.00    -0.197 NA
HETATM    2  C1  UNL     1     -12.860   2.420   5.234  1.00  0.00     0.059 C 
HETATM    3  C2  UNL     1     -14.043   1.646   4.854  1.00  0.00     0.129 C 
ENDROOT
BRANCH   3   4
HETATM    4  C3  UNL     1     -14.127   1.500   3.344  1.00  0.00     0.058 C 
BRANCH   4   5
HETATM    5  C4  UNL     1     -15.121   2.466   2.752  1.00  0.00     0.064 C 
BRANCH   5   6
HETATM    6  N2  UNL     1     -14.662   3.215   1.664  1.00  0.00    -0.374 N 
HETATM    7  C5  UNL     1     -15.495   4.143   1.027  1.00  0.00     0.064 C 
HETATM    8  C6  UNL     1     -14.874   5.418   0.575  1.00  0.00     0.057 C 
HETATM    9  C7  UNL     1     -13.428   5.592   0.817  1.00  0.00     0.060 C 
HETATM   10  C19 UNL     1     -12.694   4.500   1.505  1.00  0.00     0.033 C 
HETATM   11  C20 UNL     1     -13.304   3.141   1.288  1.00  0.00     0.128 C 
BRANCH   9  12
HETATM   12  C8  UNL     1     -12.684   5.868  -0.476  1.00  0.00     0.087 A 
HETATM   13  N3  UNL     1     -11.354   5.931  -0.409  1.00  0.00    -0.344 N 
HETATM   14  C9  UNL     1     -10.585   6.174  -1.522  1.00  0.00     0.054 A 
ATOM     15  H3  UNL     1     -10.894   5.796   0.492  1.00  0.00     0.167 HD
HETATM   16  C10 UNL     1      -9.238   6.264  -1.606  1.00  0.00     0.038 A 
HETATM   17  C12 UNL     1     -11.299   6.338  -2.674  1.00  0.00     0.075 A 
HETATM   18  C11 UNL     1      -8.710   6.514  -2.844  1.00  0.00     0.053 A 
HETATM   19  S1  UNL     1     -10.083   6.614  -3.844  1.00  0.00    -0.096 SA
HETATM   20  C13 UNL     1     -12.698   6.267  -2.725  1.00  0.00     0.128 A 
HETATM   21  N5  UNL     1     -13.397   6.027  -1.602  1.00  0.00    -0.330 N 
ATOM     22  H5  UNL     1     -14.415   5.970  -1.606  1.00  0.00     0.168 HD
BRANCH  20  23
HETATM   23  N4  UNL     1     -13.252   6.432  -3.839  1.00  0.00    -0.310 N 
HETATM   24  C14 UNL     1     -13.760   7.550  -4.477  1.00  0.00     0.252 C 
HETATM   25  O1  UNL     1     -12.995   8.325  -5.106  1.00  0.00    -0.270 OA
ATOM     26  H4  UNL     1     -13.346   5.572  -4.381  1.00  0.00     0.170 HD
BRANCH  24  27
HETATM   27  C15 UNL     1     -15.204   7.914  -4.475  1.00  0.00     0.213 C 
HETATM   28  C16 UNL     1     -15.462   9.027  -3.482  1.00  0.00     0.044 C 
HETATM   29  C17 UNL     1     -16.235  10.043  -4.290  1.00  0.00     0.029 C 
HETATM   30  C18 UNL     1     -16.644   9.264  -5.502  1.00  0.00     0.168 C 
HETATM   31  O2  UNL     1     -15.565   8.415  -5.720  1.00  0.00    -0.376 OA
ENDBRANCH  24  27
ENDBRANCH  20  23
ENDBRANCH   9  12
ENDBRANCH   5   6
ENDBRANCH   4   5
ENDBRANCH   3   4
TORSDOF 6
ENDMDL
MODEL 4
REMARK VINA RESULT: -7.458997018      2.655      3.377
REMARK  6 active torsions:
REMARK  status: ('A' for Active; 'I' for Inactive)
REMARK    1  A    between atoms: C2_3  and  C3_4 
REMARK    2  A    between atoms: C3_4  and  C4_5 
REMARK    3  A    between atoms: C4_5  and  N2_6 
REMARK    4  A    between atoms: C7_9  and  C8_10 
REMARK    5  A    between atoms: C13_18  and  N4_19 
REMARK       I    between atoms: N4_19  and  C14_21 
REMARK    6  A    between atoms: C14_21  and  C15_23 
ROOT
HETATM    1  N1  UNL     1     -12.225   2.716   5.321  1.00  0.00    -0.197 NA
HETATM    2  C1  UNL     1     -13.223   2.250   4.921  1.00  0.00     0.059 C 
HETATM    3  C2  UNL     1     -14.466   1.649   4.437  1.00  0.00     0.129 C 
ENDROOT
BRANCH   3   4
HETATM    4  C3  UNL     1     -14.914   2.311   3.144  1.00  0.00     0.058 C 
BRANCH   4   5
HETATM    5  C4  UNL     1     -13.785   2.396   2.149  1.00  0.00     0.064 C 
BRANCH   5   6
HETATM    6  N2  UNL     1     -13.816   3.501   1.293  1.00  0.00    -0.374 N 
HETATM    7  C5  UNL     1     -15.031   3.995   0.800  1.00  0.00     0.064 C 
HETATM    8  C6  UNL     1     -15.170   5.472   0.690  1.00  0.00     0.057 C 
HETATM    9  C7  UNL     1     -14.013   6.296   1.090  1.00  0.00     0.060 C 
HETATM   10  C19 UNL     1     -12.797   5.604   1.589  1.00  0.00     0.033 C 
HETATM   11  C20 UNL     1     -12.628   4.217   1.031  1.00  0.00     0.128 C 
BRANCH   9  12
HETATM   12  C8  UNL     1     -13.564   7.200  -0.043  1.00  0.00     0.087 A 
HETATM   13  N3  UNL     1     -14.481   7.534  -0.951  1.00  0.00    -0.344 N 
HETATM   14  C9  UNL     1     -14.179   8.350  -2.016  1.00  0.00     0.054 A 
ATOM     15  H3  UNL     1     -15.431   7.176  -0.854  1.00  0.00     0.167 HD
HETATM   16  C10 UNL     1     -14.998   8.771  -3.007  1.00  0.00     0.038 A 
HETATM   17  C12 UNL     1     -12.882   8.774  -2.050  1.00  0.00     0.075 A 
HETATM   18  C11 UNL     1     -14.449   9.587  -3.958  1.00  0.00     0.053 A 
HETATM   19  S1  UNL     1     -12.831   9.745  -3.456  1.00  0.00    -0.096 SA
HETATM   20  C13 UNL     1     -11.932   8.412  -1.085  1.00  0.00     0.128 A 
HETATM   21  N5  UNL     1     -12.286   7.610  -0.065  1.00  0.00    -0.330 N 
ATOM     22  H5  UNL     1     -11.619   7.328   0.653  1.00  0.00     0.168 HD
BRANCH  20  23
HETATM   23  N4  UNL     1     -10.767   8.861  -1.213  1.00  0.00    -0.310 N 
HETATM   24  C14 UNL     1      -9.606   8.319  -1.736  1.00  0.00     0.252 C 
HETATM   25  O1  UNL     1      -9.401   8.333  -2.975  1.00  0.00    -0.270 OA
ATOM     26  H4  UNL     1     -10.654   9.812  -0.862  1.00  0.00     0.170 HD
BRANCH  24  27
HETATM   27  C15 UNL     1      -8.539   7.699  -0.902  1.00  0.00     0.213 C 
HETATM   28  C16 UNL     1      -7.667   8.771  -0.284  1.00  0.00     0.044 C 
HETATM   29  C17 UNL     1      -7.637   8.396   1.179  1.00  0.00     0.029 C 
HETATM   30  C18 UNL     1      -8.164   6.994   1.175  1.00  0.00     0.168 C 
HETATM   31  O2  UNL     1      -9.112   7.008   0.159  1.00  0.00    -0.376 OA
ENDBRANCH  24  27
ENDBRANCH  20  23
ENDBRANCH   9  12
ENDBRANCH   5   6
ENDBRANCH   4   5
ENDBRANCH   3   4
TORSDOF 6
ENDMDL
MODEL 5
REMARK VINA RESULT: -7.412452717      2.011      3.302
REMARK  6 active torsions:
REMARK  status: ('A' for Active; 'I' for Inactive)
REMARK    1  A    between atoms: C2_3  and  C3_4 
REMARK    2  A    between atoms: C3_4  and  C4_5 
REMARK    3  A    between atoms: C4_5  and  N2_6 
REMARK    4  A    between atoms: C7_9  and  C8_10 
REMARK    5  A    between atoms: C13_18  and  N4_19 
REMARK       I    between atoms: N4_19  and  C14_21 
REMARK    6  A    between atoms: C14_21  and  C15_23 
ROOT
HETATM    1  N1  UNL     1     -15.303   2.787   2.684  1.00  0.00    -0.197 NA
HETATM    2  C1  UNL     1     -14.567   3.198   1.871  1.00  0.00     0.059 C 
HETATM    3  C2  UNL     1     -13.629   3.699   0.865  1.00  0.00     0.129 C 
ENDROOT
BRANCH   3   4
HETATM    4  C3  UNL     1     -14.189   4.931   0.175  1.00  0.00     0.058 C 
BRANCH   4   5
HETATM    5  C4  UNL     1     -13.958   6.175   0.996  1.00  0.00     0.064 C 
BRANCH   5   6
HETATM    6  N2  UNL     1     -12.675   6.724   0.912  1.00  0.00    -0.374 N 
HETATM    7  C5  UNL     1     -11.753   6.557   1.952  1.00  0.00     0.064 C 
HETATM    8  C6  UNL     1     -10.331   6.332   1.572  1.00  0.00     0.057 C 
HETATM    9  C7  UNL     1     -10.007   6.321   0.132  1.00  0.00     0.060 C 
HETATM   10  C19 UNL     1     -11.113   6.519  -0.839  1.00  0.00     0.033 C 
HETATM   11  C20 UNL     1     -12.253   7.333  -0.289  1.00  0.00     0.128 C 
BRANCH   9  12
HETATM   12  C8  UNL     1      -8.948   7.356  -0.200  1.00  0.00     0.087 A 
HETATM   13  N3  UNL     1      -8.872   7.761  -1.468  1.00  0.00    -0.344 N 
HETATM   14  C9  UNL     1      -7.950   8.696  -1.874  1.00  0.00     0.054 A 
ATOM     15  H3  UNL     1      -9.515   7.367  -2.155  1.00  0.00     0.167 HD
HETATM   16  C10 UNL     1      -7.757   9.199  -3.115  1.00  0.00     0.038 A 
HETATM   17  C12 UNL     1      -7.141   9.158  -0.876  1.00  0.00     0.075 A 
HETATM   18  C11 UNL     1      -6.764  10.129  -3.259  1.00  0.00     0.053 A 
HETATM   19  S1  UNL     1      -6.134  10.278  -1.686  1.00  0.00    -0.096 SA
HETATM   20  C13 UNL     1      -7.236   8.721   0.452  1.00  0.00     0.128 A 
HETATM   21  N5  UNL     1      -8.159   7.803   0.789  1.00  0.00    -0.330 N 
ATOM     22  H5  UNL     1      -8.253   7.464   1.747  1.00  0.00     0.168 HD
BRANCH  20  23
HETATM   23  N4  UNL     1      -6.442   9.214   1.289  1.00  0.00    -0.310 N 
HETATM   24  C14 UNL     1      -5.782   8.681   2.382  1.00  0.00     0.252 C 
HETATM   25  O1  UNL     1      -4.712   8.041   2.228  1.00  0.00    -0.270 OA
ATOM     26  H4  UNL     1      -6.244  10.203   1.133  1.00  0.00     0.170 HD
BRANCH  24  27
HETATM   27  C15 UNL     1      -6.266   8.820   3.784  1.00  0.00     0.213 C 
HETATM   28  C16 UNL     1      -6.395  10.283   4.151  1.00  0.00     0.044 C 
HETATM   29  C17 UNL     1      -7.792  10.378   4.718  1.00  0.00     0.029 C 
HETATM   30  C18 UNL     1      -8.156   8.944   4.952  1.00  0.00     0.168 C 
HETATM   31  O2  UNL     1      -7.541   8.279   3.898  1.00  0.00    -0.376 OA
ENDBRANCH  24  27
ENDBRANCH  20  23
ENDBRANCH   9  12
ENDBRANCH   5   6
ENDBRANCH   4   5
ENDBRANCH   3   4
TORSDOF 6
ENDMDL
