MODEL 1
REMARK VINA RESULT: -5.910355321      0.000      0.000
REMARK  5 active torsions:
REMARK  status: ('A' for Active; 'I' for Inactive)
REMARK    1  A    between atoms: C4_4  and  C5_5 
REMARK    2  A    between atoms: C5_5  and  N1_6 
REMARK    3  A    between atoms: C10_11  and  C11_12 
REMARK    4  A    between atoms: C11_12  and  O1_13 
REMARK    5  A    between atoms: C11_12  and  O2_15 
ROOT
HETATM    1  N1  UNL     1      13.425  38.927  77.305  1.00  0.00     0.098 N 
HETATM    2  C6  UNL     1      14.109  37.695  77.673  1.00  0.00     0.224 C 
HETATM    3  C7  UNL     1      12.960  36.799  78.048  1.00  0.00     0.038 C 
HETATM    4  C8  UNL     1      11.916  37.245  77.012  1.00  0.00     0.038 C 
HETATM    5  C9  UNL     1      12.558  38.344  76.256  1.00  0.00     0.232 C 
HETATM    6  C10 UNL     1      13.638  37.900  75.325  1.00  0.00     0.076 C 
HETATM    7  C12 UNL     1      14.591  37.215  76.319  1.00  0.00     0.047 C 
ENDROOT
BRANCH   1   8
HETATM    8  C5  UNL     1      12.704  39.515  78.377  1.00  0.00     0.278 C 
BRANCH   8   9
HETATM    9  C4  UNL     1      13.344  40.830  78.753  1.00  0.00     0.018 A 
HETATM   10  C2  UNL     1      14.133  40.905  80.017  1.00  0.00    -0.012 A 
HETATM   11  C1  UNL     1      13.924  42.177  80.810  1.00  0.00     0.010 C 
HETATM   12  C3  UNL     1      14.828  40.918  78.722  1.00  0.00     0.011 A 
ENDBRANCH   8   9
ENDBRANCH   1   8
BRANCH   6  13
HETATM   13  C11 UNL     1      13.260  37.046  74.180  1.00  0.00     0.260 C 
BRANCH  13  14
HETATM   14  O1  UNL     1      12.162  37.710  73.548  1.00  0.00    -0.371 OA
ATOM     15  H1  UNL     1      12.550  38.380  72.998  1.00  0.00     0.212 HD
ENDBRANCH  13  14
BRANCH  13  16
HETATM   16  O2  UNL     1      14.189  36.916  73.174  1.00  0.00    -0.371 OA
ATOM     17  H2  UNL     1      14.052  37.445  72.397  1.00  0.00     0.212 HD
ENDBRANCH  13  16
ENDBRANCH   6  13
TORSDOF 5
ENDMDL
MODEL 2
REMARK VINA RESULT: -5.865124080      2.785      5.553
REMARK  5 active torsions:
REMARK  status: ('A' for Active; 'I' for Inactive)
REMARK    1  A    between atoms: C4_4  and  C5_5 
REMARK    2  A    between atoms: C5_5  and  N1_6 
REMARK    3  A    between atoms: C10_11  and  C11_12 
REMARK    4  A    between atoms: C11_12  and  O1_13 
REMARK    5  A    between atoms: C11_12  and  O2_15 
ROOT
HETATM    1  N1  UNL     1      13.306  38.274  76.127  1.00  0.00     0.098 N 
HETATM    2  C6  UNL     1      12.291  38.090  77.155  1.00  0.00     0.224 C 
HETATM    3  C7  UNL     1      12.846  36.935  77.941  1.00  0.00     0.038 C 
HETATM    4  C8  UNL     1      14.347  37.258  77.881  1.00  0.00     0.038 C 
HETATM    5  C9  UNL     1      14.454  38.472  77.041  1.00  0.00     0.232 C 
HETATM    6  C10 UNL     1      13.970  39.721  77.702  1.00  0.00     0.076 C 
HETATM    7  C12 UNL     1      12.516  39.324  78.007  1.00  0.00     0.047 C 
ENDROOT
BRANCH   1   8
HETATM    8  C5  UNL     1      13.450  37.151  75.270  1.00  0.00     0.278 C 
BRANCH   8   9
HETATM    9  C4  UNL     1      13.076  37.542  73.861  1.00  0.00     0.018 A 
HETATM   10  C2  UNL     1      13.596  36.721  72.729  1.00  0.00    -0.012 A 
HETATM   11  C1  UNL     1      14.048  37.524  71.529  1.00  0.00     0.010 C 
HETATM   12  C3  UNL     1      12.176  36.635  73.099  1.00  0.00     0.011 A 
ENDBRANCH   8   9
ENDBRANCH   1   8
BRANCH   6  13
HETATM   13  C11 UNL     1      14.711  40.213  78.882  1.00  0.00     0.260 C 
BRANCH  13  14
HETATM   14  O1  UNL     1      16.079  40.297  78.473  1.00  0.00    -0.371 OA
ATOM     15  H1  UNL     1      16.425  41.075  78.893  1.00  0.00     0.212 HD
ENDBRANCH  13  14
BRANCH  13  16
HETATM   16  O2  UNL     1      14.416  41.487  79.308  1.00  0.00    -0.371 OA
ATOM     17  H2  UNL     1      13.523  41.784  79.179  1.00  0.00     0.212 HD
ENDBRANCH  13  16
ENDBRANCH   6  13
TORSDOF 5
ENDMDL
MODEL 3
REMARK VINA RESULT: -5.769883174      1.625      2.267
REMARK  5 active torsions:
REMARK  status: ('A' for Active; 'I' for Inactive)
REMARK    1  A    between atoms: C4_4  and  C5_5 
REMARK    2  A    between atoms: C5_5  and  N1_6 
REMARK    3  A    between atoms: C10_11  and  C11_12 
REMARK    4  A    between atoms: C11_12  and  O1_13 
REMARK    5  A    between atoms: C11_12  and  O2_15 
ROOT
HETATM    1  N1  UNL     1      13.460  39.238  77.354  1.00  0.00     0.098 N 
HETATM    2  C6  UNL     1      14.153  38.501  76.307  1.00  0.00     0.224 C 
HETATM    3  C7  UNL     1      14.692  37.316  77.061  1.00  0.00     0.038 C 
HETATM    4  C8  UNL     1      13.535  37.067  78.042  1.00  0.00     0.038 C 
HETATM    5  C9  UNL     1      12.555  38.144  77.775  1.00  0.00     0.232 C 
HETATM    6  C10 UNL     1      11.811  37.993  76.489  1.00  0.00     0.076 C 
HETATM    7  C12 UNL     1      12.984  37.983  75.494  1.00  0.00     0.047 C 
ENDROOT
BRANCH   1   8
HETATM    8  C5  UNL     1      14.321  39.694  78.388  1.00  0.00     0.278 C 
BRANCH   8   9
HETATM    9  C4  UNL     1      13.681  40.864  79.095  1.00  0.00     0.018 A 
HETATM   10  C2  UNL     1      13.854  40.988  80.572  1.00  0.00    -0.012 A 
HETATM   11  C1  UNL     1      12.611  41.430  81.312  1.00  0.00     0.010 C 
HETATM   12  C3  UNL     1      14.574  41.903  79.675  1.00  0.00     0.011 A 
ENDBRANCH   8   9
ENDBRANCH   1   8
BRANCH   6  13
HETATM   13  C11 UNL     1      10.901  36.837  76.345  1.00  0.00     0.260 C 
BRANCH  13  14
HETATM   14  O1  UNL     1       9.767  37.134  77.164  1.00  0.00    -0.371 OA
ATOM     15  H1  UNL     1       9.078  37.396  76.564  1.00  0.00     0.212 HD
ENDBRANCH  13  14
BRANCH  13  16
HETATM   16  O2  UNL     1      10.361  36.629  75.098  1.00  0.00    -0.371 OA
ATOM     17  H2  UNL     1       9.886  35.816  74.970  1.00  0.00     0.212 HD
ENDBRANCH  13  16
ENDBRANCH   6  13
TORSDOF 5
ENDMDL
MODEL 4
REMARK VINA RESULT: -5.728609620      3.079      5.169
REMARK  5 active torsions:
REMARK  status: ('A' for Active; 'I' for Inactive)
REMARK    1  A    between atoms: C4_4  and  C5_5 
REMARK    2  A    between atoms: C5_5  and  N1_6 
REMARK    3  A    between atoms: C10_11  and  C11_12 
REMARK    4  A    between atoms: C11_12  and  O1_13 
REMARK    5  A    between atoms: C11_12  and  O2_15 
ROOT
HETATM    1  N1  UNL     1      11.467  38.288  76.591  1.00  0.00     0.098 N 
HETATM    2  C6  UNL     1      11.144  38.643  77.966  1.00  0.00     0.224 C 
HETATM    3  C7  UNL     1      11.381  37.346  78.690  1.00  0.00     0.038 C 
HETATM    4  C8  UNL     1      12.600  36.820  77.916  1.00  0.00     0.038 C 
HETATM    5  C9  UNL     1      12.847  37.815  76.847  1.00  0.00     0.232 C 
HETATM    6  C10 UNL     1      13.415  39.108  77.332  1.00  0.00     0.076 C 
HETATM    7  C12 UNL     1      12.316  39.539  78.317  1.00  0.00     0.047 C 
ENDROOT
BRANCH   1   8
HETATM    8  C5  UNL     1      10.614  37.289  76.052  1.00  0.00     0.278 C 
BRANCH   8   9
HETATM    9  C4  UNL     1       9.348  37.931  75.540  1.00  0.00     0.018 A 
HETATM   10  C2  UNL     1       9.133  38.012  74.066  1.00  0.00    -0.012 A 
HETATM   11  C1  UNL     1       8.538  39.320  73.592  1.00  0.00     0.010 C 
HETATM   12  C3  UNL     1       8.347  37.062  74.865  1.00  0.00     0.011 A 
ENDBRANCH   8   9
ENDBRANCH   1   8
BRANCH   6  13
HETATM   13  C11 UNL     1      14.769  39.092  77.925  1.00  0.00     0.260 C 
BRANCH  13  14
HETATM   14  O1  UNL     1      15.595  38.401  76.983  1.00  0.00    -0.371 OA
ATOM     15  H1  UNL     1      16.290  39.009  76.757  1.00  0.00     0.212 HD
ENDBRANCH  13  14
BRANCH  13  16
HETATM   16  O2  UNL     1      15.391  40.309  78.076  1.00  0.00    -0.371 OA
ATOM     17  H2  UNL     1      14.921  40.968  78.575  1.00  0.00     0.212 HD
ENDBRANCH  13  16
ENDBRANCH   6  13
TORSDOF 5
ENDMDL
MODEL 5
REMARK VINA RESULT: -5.534783961      3.000      4.974
REMARK  5 active torsions:
REMARK  status: ('A' for Active; 'I' for Inactive)
REMARK    1  A    between atoms: C4_4  and  C5_5 
REMARK    2  A    between atoms: C5_5  and  N1_6 
REMARK    3  A    between atoms: C10_11  and  C11_12 
REMARK    4  A    between atoms: C11_12  and  O1_13 
REMARK    5  A    between atoms: C11_12  and  O2_15 
ROOT
HETATM    1  N1  UNL     1      12.376  37.553  77.522  1.00  0.00     0.098 N 
HETATM    2  C6  UNL     1      13.688  36.925  77.590  1.00  0.00     0.224 C 
HETATM    3  C7  UNL     1      14.173  37.054  76.173  1.00  0.00     0.038 C 
HETATM    4  C8  UNL     1      13.599  38.434  75.812  1.00  0.00     0.038 C 
HETATM    5  C9  UNL     1      12.832  38.864  77.003  1.00  0.00     0.232 C 
HETATM    6  C10 UNL     1      13.678  39.257  78.169  1.00  0.00     0.076 C 
HETATM    7  C12 UNL     1      14.460  37.952  78.393  1.00  0.00     0.047 C 
ENDROOT
BRANCH   1   8
HETATM    8  C5  UNL     1      11.473  36.882  76.655  1.00  0.00     0.278 C 
BRANCH   8   9
HETATM    9  C4  UNL     1      10.261  37.751  76.421  1.00  0.00     0.018 A 
HETATM   10  C2  UNL     1       9.280  37.341  75.375  1.00  0.00    -0.012 A 
HETATM   11  C1  UNL     1       8.745  38.482  74.537  1.00  0.00     0.010 C 
HETATM   12  C3  UNL     1       8.928  37.207  76.795  1.00  0.00     0.011 A 
ENDBRANCH   8   9
ENDBRANCH   1   8
BRANCH   6  13
HETATM   13  C11 UNL     1      14.540  40.450  78.030  1.00  0.00     0.260 C 
BRANCH  13  14
HETATM   14  O1  UNL     1      14.228  41.286  79.147  1.00  0.00    -0.371 OA
ATOM     15  H1  UNL     1      14.764  42.063  79.044  1.00  0.00     0.212 HD
ENDBRANCH  13  14
BRANCH  13  16
HETATM   16  O2  UNL     1      15.896  40.246  78.139  1.00  0.00    -0.371 OA
ATOM     17  H2  UNL     1      16.425  41.006  78.351  1.00  0.00     0.212 HD
ENDBRANCH  13  16
ENDBRANCH   6  13
TORSDOF 5
ENDMDL
