MODEL 1
REMARK VINA RESULT: -5.272604563      0.000      0.000
REMARK  5 active torsions:
REMARK  status: ('A' for Active; 'I' for Inactive)
REMARK    1  A    between atoms: C2_2  and  C3_3 
REMARK    2  A    between atoms: C8_8  and  C9_9 
REMARK    3  A    between atoms: C9_9  and  O1_11 
REMARK    4  A    between atoms: C12_14  and  C13_15 
REMARK    5  A    between atoms: C13_15  and  N1_16 
ROOT
HETATM    1  C3  UNL     1      12.105  38.117  78.127  1.00  0.00     0.023 C 
HETATM    2  C4  UNL     1      12.582  36.908  77.305  1.00  0.00     0.005 C 
HETATM    3  C5  UNL     1      13.696  36.176  78.069  1.00  0.00     0.011 C 
HETATM    4  C6  UNL     1      14.627  37.257  77.502  1.00  0.00    -0.003 C 
HETATM    5  C7  UNL     1      14.476  38.509  78.356  1.00  0.00     0.018 C 
HETATM    6  C8  UNL     1      13.151  39.103  77.832  1.00  0.00    -0.006 C 
HETATM    7  C11 UNL     1      13.376  38.920  76.344  1.00  0.00     0.024 C 
HETATM    8  C12 UNL     1      13.653  37.420  76.390  1.00  0.00    -0.008 C 
ENDROOT
BRANCH   8   9
HETATM    9  C13 UNL     1      13.873  36.736  75.118  1.00  0.00     0.240 C 
BRANCH   9  10
HETATM   10  N1  UNL     1      13.718  37.598  74.000  1.00  0.00    -0.079 N 
ATOM     11  H13 UNL     1      13.258  38.469  74.269  1.00  0.00     0.274 HD
ATOM     12  H12 UNL     1      14.618  37.974  73.699  1.00  0.00     0.274 HD
ATOM     13  H11 UNL     1      13.230  37.151  73.225  1.00  0.00     0.274 HD
ENDBRANCH   9  10
ENDBRANCH   8   9
BRANCH   1  14
HETATM   14  C2  UNL     1      10.756  38.427  77.664  1.00  0.00    -0.031 C 
HETATM   15  C1  UNL     1       9.702  37.738  78.045  1.00  0.00     0.007 C 
ENDBRANCH   1  14
BRANCH   6  16
HETATM   16  C9  UNL     1      13.037  40.464  78.301  1.00  0.00     0.123 C 
HETATM   17  C10 UNL     1      12.468  40.730  79.636  1.00  0.00     0.040 C 
BRANCH  16  18
HETATM   18  O1  UNL     1      14.305  41.081  78.214  1.00  0.00    -0.395 OA
ATOM     19  H1  UNL     1      14.305  41.674  77.471  1.00  0.00     0.210 HD
ENDBRANCH  16  18
ENDBRANCH   6  16
TORSDOF 5
ENDMDL
MODEL 2
REMARK VINA RESULT: -5.131652261      2.268      3.294
REMARK  5 active torsions:
REMARK  status: ('A' for Active; 'I' for Inactive)
REMARK    1  A    between atoms: C2_2  and  C3_3 
REMARK    2  A    between atoms: C8_8  and  C9_9 
REMARK    3  A    between atoms: C9_9  and  O1_11 
REMARK    4  A    between atoms: C12_14  and  C13_15 
REMARK    5  A    between atoms: C13_15  and  N1_16 
ROOT
HETATM    1  C3  UNL     1      11.551  36.440  76.104  1.00  0.00     0.023 C 
HETATM    2  C4  UNL     1      11.103  35.865  74.750  1.00  0.00     0.005 C 
HETATM    3  C5  UNL     1      11.948  34.627  74.413  1.00  0.00     0.011 C 
HETATM    4  C6  UNL     1      13.005  35.630  73.931  1.00  0.00    -0.003 C 
HETATM    5  C7  UNL     1      13.750  36.158  75.150  1.00  0.00     0.018 C 
HETATM    6  C8  UNL     1      12.754  37.188  75.721  1.00  0.00    -0.006 C 
HETATM    7  C11 UNL     1      12.334  37.861  74.429  1.00  0.00     0.024 C 
HETATM    8  C12 UNL     1      11.893  36.592  73.704  1.00  0.00    -0.008 C 
ENDROOT
BRANCH   8   9
HETATM    9  C13 UNL     1      11.317  36.743  72.370  1.00  0.00     0.240 C 
BRANCH   9  10
HETATM   10  N1  UNL     1      11.272  38.098  71.945  1.00  0.00    -0.079 N 
ATOM     11  H13 UNL     1      12.178  38.399  71.583  1.00  0.00     0.274 HD
ATOM     12  H12 UNL     1      10.714  38.198  71.097  1.00  0.00     0.274 HD
ATOM     13  H11 UNL     1      10.943  38.728  72.676  1.00  0.00     0.274 HD
ENDBRANCH   9  10
ENDBRANCH   8   9
BRANCH   1  14
HETATM   14  C2  UNL     1      10.426  37.215  76.618  1.00  0.00    -0.031 C 
HETATM   15  C1  UNL     1       9.193  37.037  76.196  1.00  0.00     0.007 C 
ENDBRANCH   1  14
BRANCH   6  16
HETATM   16  C9  UNL     1      13.445  38.017  76.681  1.00  0.00     0.123 C 
HETATM   17  C10 UNL     1      14.151  37.387  77.814  1.00  0.00     0.040 C 
BRANCH  16  18
HETATM   18  O1  UNL     1      14.347  38.855  75.989  1.00  0.00    -0.395 OA
ATOM     19  H1  UNL     1      14.596  38.430  75.176  1.00  0.00     0.210 HD
ENDBRANCH  16  18
ENDBRANCH   6  16
TORSDOF 5
ENDMDL
MODEL 3
REMARK VINA RESULT: -5.049911661      2.579      3.814
REMARK  5 active torsions:
REMARK  status: ('A' for Active; 'I' for Inactive)
REMARK    1  A    between atoms: C2_2  and  C3_3 
REMARK    2  A    between atoms: C8_8  and  C9_9 
REMARK    3  A    between atoms: C9_9  and  O1_11 
REMARK    4  A    between atoms: C12_14  and  C13_15 
REMARK    5  A    between atoms: C13_15  and  N1_16 
ROOT
HETATM    1  C3  UNL     1      12.840  37.282  75.631  1.00  0.00     0.023 C 
HETATM    2  C4  UNL     1      14.084  38.070  76.077  1.00  0.00     0.005 C 
HETATM    3  C5  UNL     1      14.996  37.157  76.912  1.00  0.00     0.011 C 
HETATM    4  C6  UNL     1      14.052  37.485  78.077  1.00  0.00    -0.003 C 
HETATM    5  C7  UNL     1      12.815  36.605  77.948  1.00  0.00     0.018 C 
HETATM    6  C8  UNL     1      12.015  37.327  76.843  1.00  0.00    -0.006 C 
HETATM    7  C11 UNL     1      12.188  38.758  77.315  1.00  0.00     0.024 C 
HETATM    8  C12 UNL     1      13.713  38.745  77.363  1.00  0.00    -0.008 C 
ENDROOT
BRANCH   8   9
HETATM    9  C13 UNL     1      14.387  39.991  77.718  1.00  0.00     0.240 C 
BRANCH   9  10
HETATM   10  N1  UNL     1      13.519  40.919  78.354  1.00  0.00    -0.079 N 
ATOM     11  H13 UNL     1      13.225  41.650  77.706  1.00  0.00     0.274 HD
ATOM     12  H12 UNL     1      12.611  40.497  78.549  1.00  0.00     0.274 HD
ATOM     13  H11 UNL     1      13.926  41.320  79.199  1.00  0.00     0.274 HD
ENDBRANCH   9  10
ENDBRANCH   8   9
BRANCH   1  14
HETATM   14  C2  UNL     1      12.319  37.965  74.451  1.00  0.00    -0.031 C 
HETATM   15  C1  UNL     1      12.515  37.515  73.230  1.00  0.00     0.007 C 
ENDBRANCH   1  14
BRANCH   6  16
HETATM   16  C9  UNL     1      10.666  36.812  76.838  1.00  0.00     0.123 C 
HETATM   17  C10 UNL     1       9.530  37.741  76.995  1.00  0.00     0.040 C 
BRANCH  16  18
HETATM   18  O1  UNL     1      10.476  36.052  75.662  1.00  0.00    -0.395 OA
ATOM     19  H1  UNL     1      10.224  35.169  75.908  1.00  0.00     0.210 HD
ENDBRANCH  16  18
ENDBRANCH   6  16
TORSDOF 5
ENDMDL
MODEL 4
REMARK VINA RESULT: -5.032787133      2.548      4.015
REMARK  5 active torsions:
REMARK  status: ('A' for Active; 'I' for Inactive)
REMARK    1  A    between atoms: C2_2  and  C3_3 
REMARK    2  A    between atoms: C8_8  and  C9_9 
REMARK    3  A    between atoms: C9_9  and  O1_11 
REMARK    4  A    between atoms: C12_14  and  C13_15 
REMARK    5  A    between atoms: C13_15  and  N1_16 
ROOT
HETATM    1  C3  UNL     1      13.119  37.676  75.849  1.00  0.00     0.023 C 
HETATM    2  C4  UNL     1      13.336  36.916  74.529  1.00  0.00     0.005 C 
HETATM    3  C5  UNL     1      12.604  37.646  73.392  1.00  0.00     0.011 C 
HETATM    4  C6  UNL     1      11.348  36.924  73.901  1.00  0.00    -0.003 C 
HETATM    5  C7  UNL     1      10.821  37.685  75.111  1.00  0.00     0.018 C 
HETATM    6  C8  UNL     1      11.777  37.223  76.231  1.00  0.00    -0.006 C 
HETATM    7  C11 UNL     1      11.820  35.740  75.915  1.00  0.00     0.024 C 
HETATM    8  C12 UNL     1      12.253  35.882  74.458  1.00  0.00    -0.008 C 
ENDROOT
BRANCH   8   9
HETATM    9  C13 UNL     1      12.505  34.655  73.707  1.00  0.00     0.240 C 
BRANCH   9  10
HETATM   10  N1  UNL     1      12.061  33.493  74.394  1.00  0.00    -0.079 N 
ATOM     11  H13 UNL     1      12.466  33.443  75.330  1.00  0.00     0.274 HD
ATOM     12  H12 UNL     1      11.075  33.571  74.646  1.00  0.00     0.274 HD
ATOM     13  H11 UNL     1      12.239  32.637  73.871  1.00  0.00     0.274 HD
ENDBRANCH   9  10
ENDBRANCH   8   9
BRANCH   1  14
HETATM   14  C2  UNL     1      14.220  37.298  76.730  1.00  0.00    -0.031 C 
HETATM   15  C1  UNL     1      14.978  38.186  77.335  1.00  0.00     0.007 C 
ENDBRANCH   1  14
BRANCH   6  16
HETATM   16  C9  UNL     1      11.207  37.591  77.505  1.00  0.00     0.123 C 
HETATM   17  C10 UNL     1      11.387  38.964  78.015  1.00  0.00     0.040 C 
BRANCH  16  18
HETATM   18  O1  UNL     1       9.828  37.286  77.491  1.00  0.00    -0.395 OA
ATOM     19  H1  UNL     1       9.411  37.725  78.224  1.00  0.00     0.210 HD
ENDBRANCH  16  18
ENDBRANCH   6  16
TORSDOF 5
ENDMDL
MODEL 5
REMARK VINA RESULT: -4.964409758      3.101      4.926
REMARK  5 active torsions:
REMARK  status: ('A' for Active; 'I' for Inactive)
REMARK    1  A    between atoms: C2_2  and  C3_3 
REMARK    2  A    between atoms: C8_8  and  C9_9 
REMARK    3  A    between atoms: C9_9  and  O1_11 
REMARK    4  A    between atoms: C12_14  and  C13_15 
REMARK    5  A    between atoms: C13_15  and  N1_16 
ROOT
HETATM    1  C3  UNL     1      11.776  35.610  74.342  1.00  0.00     0.023 C 
HETATM    2  C4  UNL     1      11.717  35.854  75.859  1.00  0.00     0.005 C 
HETATM    3  C5  UNL     1      10.522  36.763  76.186  1.00  0.00     0.011 C 
HETATM    4  C6  UNL     1      11.445  37.919  75.775  1.00  0.00    -0.003 C 
HETATM    5  C7  UNL     1      11.455  38.000  74.254  1.00  0.00     0.018 C 
HETATM    6  C8  UNL     1      12.407  36.848  73.870  1.00  0.00    -0.006 C 
HETATM    7  C11 UNL     1      13.497  37.083  74.897  1.00  0.00     0.024 C 
HETATM    8  C12 UNL     1      12.593  37.040  76.127  1.00  0.00    -0.008 C 
ENDROOT
BRANCH   8   9
HETATM    9  C13 UNL     1      13.230  37.159  77.436  1.00  0.00     0.240 C 
BRANCH   9  10
HETATM   10  N1  UNL     1      14.635  37.354  77.345  1.00  0.00    -0.079 N 
ATOM     11  H13 UNL     1      15.118  36.471  77.178  1.00  0.00     0.274 HD
ATOM     12  H12 UNL     1      14.882  37.841  76.483  1.00  0.00     0.274 HD
ATOM     13  H11 UNL     1      15.018  37.833  78.159  1.00  0.00     0.274 HD
ENDBRANCH   9  10
ENDBRANCH   8   9
BRANCH   1  14
HETATM   14  C2  UNL     1      12.526  34.372  74.150  1.00  0.00    -0.031 C 
HETATM   15  C1  UNL     1      11.938  33.204  74.012  1.00  0.00     0.007 C 
ENDBRANCH   1  14
BRANCH   6  16
HETATM   16  C9  UNL     1      12.786  37.003  72.486  1.00  0.00     0.123 C 
HETATM   17  C10 UNL     1      12.027  37.927  71.621  1.00  0.00     0.040 C 
BRANCH  16  18
HETATM   18  O1  UNL     1      14.156  37.343  72.426  1.00  0.00    -0.395 OA
ATOM     19  H1  UNL     1      14.399  37.772  73.239  1.00  0.00     0.210 HD
ENDBRANCH  16  18
ENDBRANCH   6  16
TORSDOF 5
ENDMDL
