MODEL 1
REMARK VINA RESULT: -6.663936190      0.000      0.000
REMARK  5 active torsions:
REMARK  status: ('A' for Active; 'I' for Inactive)
REMARK    1  A    between atoms: N1_1  and  C1_5 
REMARK    2  A    between atoms: C4_8  and  C5_9 
REMARK    3  A    between atoms: C5_9  and  C6_10 
REMARK    4  A    between atoms: C12_16  and  C13_17 
REMARK    5  A    between atoms: C13_17  and  O1_18 
ROOT
HETATM    1  C1  UNL     1      12.637  37.382  75.890  1.00  0.00     0.190 C 
HETATM    2  C2  UNL     1      12.028  36.456  76.922  1.00  0.00     0.033 C 
HETATM    3  C3  UNL     1      11.598  37.453  78.009  1.00  0.00     0.007 C 
HETATM    4  C4  UNL     1      12.713  38.466  78.064  1.00  0.00    -0.002 C 
HETATM    5  C12 UNL     1      13.418  38.348  76.734  1.00  0.00     0.044 C 
ENDROOT
BRANCH   4   6
HETATM    6  C5  UNL     1      12.235  39.865  78.220  1.00  0.00     0.043 C 
BRANCH   6   7
HETATM    7  C6  UNL     1      12.913  40.647  79.280  1.00  0.00    -0.058 A 
HETATM    8  C7  UNL     1      14.179  41.160  79.110  1.00  0.00     0.007 A 
HETATM    9  C8  UNL     1      14.816  41.897  80.100  1.00  0.00     0.001 A 
HETATM   10  C9  UNL     1      14.192  42.143  81.302  1.00  0.00     0.000 A 
HETATM   11  C10 UNL     1      12.924  41.636  81.487  1.00  0.00     0.001 A 
HETATM   12  C11 UNL     1      12.301  40.907  80.500  1.00  0.00     0.007 A 
ENDBRANCH   6   7
ENDBRANCH   4   6
BRANCH   5  13
HETATM   13  C13 UNL     1      14.808  37.736  76.921  1.00  0.00     0.171 C 
BRANCH  13  14
HETATM   14  O1  UNL     1      15.166  37.083  75.747  1.00  0.00    -0.400 OA
ATOM     15  H1  UNL     1      14.374  36.855  75.274  1.00  0.00     0.209 HD
ENDBRANCH  13  14
ENDBRANCH   5  13
BRANCH   1  16
HETATM   16  N1  UNL     1      11.597  38.040  75.121  1.00  0.00    -0.075 N 
ATOM     17  H13 UNL     1      11.174  37.409  74.439  1.00  0.00     0.274 HD
ATOM     18  H12 UNL     1      10.770  38.230  75.686  1.00  0.00     0.274 HD
ATOM     19  H11 UNL     1      11.959  38.886  74.681  1.00  0.00     0.274 HD
ENDBRANCH   1  16
TORSDOF 5
ENDMDL
MODEL 2
REMARK VINA RESULT: -6.662911188      0.047      1.217
REMARK  5 active torsions:
REMARK  status: ('A' for Active; 'I' for Inactive)
REMARK    1  A    between atoms: N1_1  and  C1_5 
REMARK    2  A    between atoms: C4_8  and  C5_9 
REMARK    3  A    between atoms: C5_9  and  C6_10 
REMARK    4  A    between atoms: C12_16  and  C13_17 
REMARK    5  A    between atoms: C13_17  and  O1_18 
ROOT
HETATM    1  C1  UNL     1      12.647  37.386  75.904  1.00  0.00     0.190 C 
HETATM    2  C2  UNL     1      12.043  36.445  76.926  1.00  0.00     0.033 C 
HETATM    3  C3  UNL     1      11.587  37.430  78.014  1.00  0.00     0.007 C 
HETATM    4  C4  UNL     1      12.686  38.460  78.084  1.00  0.00    -0.002 C 
HETATM    5  C12 UNL     1      13.405  38.359  76.759  1.00  0.00     0.044 C 
ENDROOT
BRANCH   4   6
HETATM    6  C5  UNL     1      12.185  39.851  78.241  1.00  0.00     0.043 C 
BRANCH   6   7
HETATM    7  C6  UNL     1      12.851  40.643  79.301  1.00  0.00    -0.058 A 
HETATM    8  C7  UNL     1      12.242  40.906  80.507  1.00  0.00     0.007 A 
HETATM    9  C8  UNL     1      12.867  41.643  81.504  1.00  0.00     0.001 A 
HETATM   10  C9  UNL     1      14.135  42.144  81.317  1.00  0.00     0.000 A 
HETATM   11  C10 UNL     1      14.758  41.890  80.114  1.00  0.00     0.001 A 
HETATM   12  C11 UNL     1      14.131  41.157  79.132  1.00  0.00     0.007 A 
ENDBRANCH   6   7
ENDBRANCH   4   6
BRANCH   5  13
HETATM   13  C13 UNL     1      14.802  37.768  76.957  1.00  0.00     0.171 C 
BRANCH  13  14
HETATM   14  O1  UNL     1      15.180  37.124  75.784  1.00  0.00    -0.400 OA
ATOM     15  H1  UNL     1      15.264  36.194  75.964  1.00  0.00     0.209 HD
ENDBRANCH  13  14
ENDBRANCH   5  13
BRANCH   1  16
HETATM   16  N1  UNL     1      11.604  38.031  75.128  1.00  0.00    -0.075 N 
ATOM     17  H13 UNL     1      11.777  37.957  74.125  1.00  0.00     0.274 HD
ATOM     18  H12 UNL     1      10.726  37.514  75.169  1.00  0.00     0.274 HD
ATOM     19  H11 UNL     1      11.488  39.001  75.422  1.00  0.00     0.274 HD
ENDBRANCH   1  16
TORSDOF 5
ENDMDL
MODEL 3
REMARK VINA RESULT: -6.554394911      2.524      4.631
REMARK  5 active torsions:
REMARK  status: ('A' for Active; 'I' for Inactive)
REMARK    1  A    between atoms: N1_1  and  C1_5 
REMARK    2  A    between atoms: C4_8  and  C5_9 
REMARK    3  A    between atoms: C5_9  and  C6_10 
REMARK    4  A    between atoms: C12_16  and  C13_17 
REMARK    5  A    between atoms: C13_17  and  O1_18 
ROOT
HETATM    1  C1  UNL     1      14.242  38.436  76.680  1.00  0.00     0.190 C 
HETATM    2  C2  UNL     1      14.413  37.163  77.482  1.00  0.00     0.033 C 
HETATM    3  C3  UNL     1      12.955  36.834  77.843  1.00  0.00     0.007 C 
HETATM    4  C4  UNL     1      12.324  38.168  78.149  1.00  0.00    -0.002 C 
HETATM    5  C12 UNL     1      13.207  39.186  77.467  1.00  0.00     0.044 C 
ENDROOT
BRANCH   4   6
HETATM    6  C5  UNL     1      10.945  38.308  77.611  1.00  0.00     0.043 C 
BRANCH   6   7
HETATM    7  C6  UNL     1       9.880  37.706  78.447  1.00  0.00    -0.058 A 
HETATM    8  C7  UNL     1       8.657  37.352  77.926  1.00  0.00     0.007 A 
HETATM    9  C8  UNL     1       7.659  36.782  78.707  1.00  0.00     0.001 A 
HETATM   10  C9  UNL     1       7.864  36.550  80.047  1.00  0.00     0.000 A 
HETATM   11  C10 UNL     1       9.084  36.900  80.584  1.00  0.00     0.001 A 
HETATM   12  C11 UNL     1      10.067  37.463  79.802  1.00  0.00     0.007 A 
ENDBRANCH   6   7
ENDBRANCH   4   6
BRANCH   5  13
HETATM   13  C13 UNL     1      13.967  40.012  78.508  1.00  0.00     0.171 C 
BRANCH  13  14
HETATM   14  O1  UNL     1      15.073  40.588  77.894  1.00  0.00    -0.400 OA
ATOM     15  H1  UNL     1      14.925  41.524  77.820  1.00  0.00     0.209 HD
ENDBRANCH  13  14
ENDBRANCH   5  13
BRANCH   1  16
HETATM   16  N1  UNL     1      13.795  38.132  75.333  1.00  0.00    -0.075 N 
ATOM     17  H13 UNL     1      14.314  37.353  74.929  1.00  0.00     0.274 HD
ATOM     18  H12 UNL     1      12.865  37.715  75.328  1.00  0.00     0.274 HD
ATOM     19  H11 UNL     1      13.841  38.964  74.745  1.00  0.00     0.274 HD
ENDBRANCH   1  16
TORSDOF 5
ENDMDL
MODEL 4
REMARK VINA RESULT: -6.489708879      2.547      4.677
REMARK  5 active torsions:
REMARK  status: ('A' for Active; 'I' for Inactive)
REMARK    1  A    between atoms: N1_1  and  C1_5 
REMARK    2  A    between atoms: C4_8  and  C5_9 
REMARK    3  A    between atoms: C5_9  and  C6_10 
REMARK    4  A    between atoms: C12_16  and  C13_17 
REMARK    5  A    between atoms: C13_17  and  O1_18 
ROOT
HETATM    1  C1  UNL     1      14.201  38.425  76.673  1.00  0.00     0.190 C 
HETATM    2  C2  UNL     1      14.348  37.151  77.478  1.00  0.00     0.033 C 
HETATM    3  C3  UNL     1      12.882  36.833  77.812  1.00  0.00     0.007 C 
HETATM    4  C4  UNL     1      12.255  38.172  78.107  1.00  0.00    -0.002 C 
HETATM    5  C12 UNL     1      13.158  39.183  77.441  1.00  0.00     0.044 C 
ENDROOT
BRANCH   4   6
HETATM    6  C5  UNL     1      10.887  38.322  77.545  1.00  0.00     0.043 C 
BRANCH   6   7
HETATM    7  C6  UNL     1       9.805  37.717  78.356  1.00  0.00    -0.058 A 
HETATM    8  C7  UNL     1       9.959  37.458  79.699  1.00  0.00     0.007 A 
HETATM    9  C8  UNL     1       8.944  36.896  80.463  1.00  0.00     0.001 A 
HETATM   10  C9  UNL     1       7.733  36.574  79.894  1.00  0.00     0.000 A 
HETATM   11  C10 UNL     1       7.564  36.828  78.550  1.00  0.00     0.001 A 
HETATM   12  C11 UNL     1       8.575  37.386  77.802  1.00  0.00     0.007 A 
ENDBRANCH   6   7
ENDBRANCH   4   6
BRANCH   5  13
HETATM   13  C13 UNL     1      13.905  40.003  78.495  1.00  0.00     0.171 C 
BRANCH  13  14
HETATM   14  O1  UNL     1      15.010  40.595  77.893  1.00  0.00    -0.400 OA
ATOM     15  H1  UNL     1      14.907  40.540  76.950  1.00  0.00     0.209 HD
ENDBRANCH  13  14
ENDBRANCH   5  13
BRANCH   1  16
HETATM   16  N1  UNL     1      13.776  38.124  75.318  1.00  0.00    -0.075 N 
ATOM     17  H13 UNL     1      12.775  38.280  75.191  1.00  0.00     0.274 HD
ATOM     18  H12 UNL     1      14.122  38.813  74.650  1.00  0.00     0.274 HD
ATOM     19  H11 UNL     1      14.048  37.176  75.060  1.00  0.00     0.274 HD
ENDBRANCH   1  16
TORSDOF 5
ENDMDL
MODEL 5
REMARK VINA RESULT: -6.141453832      2.555      5.008
REMARK  5 active torsions:
REMARK  status: ('A' for Active; 'I' for Inactive)
REMARK    1  A    between atoms: N1_1  and  C1_5 
REMARK    2  A    between atoms: C4_8  and  C5_9 
REMARK    3  A    between atoms: C5_9  and  C6_10 
REMARK    4  A    between atoms: C12_16  and  C13_17 
REMARK    5  A    between atoms: C13_17  and  O1_18 
ROOT
HETATM    1  C1  UNL     1      14.817  37.901  77.097  1.00  0.00     0.190 C 
HETATM    2  C2  UNL     1      14.424  36.912  78.174  1.00  0.00     0.033 C 
HETATM    3  C3  UNL     1      12.905  36.816  77.958  1.00  0.00     0.007 C 
HETATM    4  C4  UNL     1      12.472  38.225  77.644  1.00  0.00    -0.002 C 
HETATM    5  C12 UNL     1      13.724  38.927  77.175  1.00  0.00     0.044 C 
ENDROOT
BRANCH   4   6
HETATM    6  C5  UNL     1      11.455  38.306  76.562  1.00  0.00     0.043 C 
BRANCH   6   7
HETATM    7  C6  UNL     1      10.132  37.731  76.900  1.00  0.00    -0.058 A 
HETATM    8  C7  UNL     1       9.282  37.242  75.934  1.00  0.00     0.007 A 
HETATM    9  C8  UNL     1       8.043  36.699  76.248  1.00  0.00     0.001 A 
HETATM   10  C9  UNL     1       7.618  36.631  77.555  1.00  0.00     0.000 A 
HETATM   11  C10 UNL     1       8.458  37.118  78.533  1.00  0.00     0.001 A 
HETATM   12  C11 UNL     1       9.684  37.653  78.213  1.00  0.00     0.007 A 
ENDBRANCH   6   7
ENDBRANCH   4   6
BRANCH   5  13
HETATM   13  C13 UNL     1      14.173  39.962  78.208  1.00  0.00     0.171 C 
BRANCH  13  14
HETATM   14  O1  UNL     1      15.339  40.567  77.752  1.00  0.00    -0.400 OA
ATOM     15  H1  UNL     1      16.051  40.327  78.334  1.00  0.00     0.209 HD
ENDBRANCH  13  14
ENDBRANCH   5  13
BRANCH   1  16
HETATM   16  N1  UNL     1      14.868  37.249  75.801  1.00  0.00    -0.075 N 
ATOM     17  H13 UNL     1      15.671  36.624  75.723  1.00  0.00     0.274 HD
ATOM     18  H12 UNL     1      14.127  36.557  75.697  1.00  0.00     0.274 HD
ATOM     19  H11 UNL     1      14.851  37.940  75.052  1.00  0.00     0.274 HD
ENDBRANCH   1  16
TORSDOF 5
ENDMDL
