MODEL 1
REMARK VINA RESULT: -5.874413429      0.000      0.000
REMARK  5 active torsions:
REMARK  status: ('A' for Active; 'I' for Inactive)
REMARK    1  A    between atoms: N1_1  and  C1_5 
REMARK    2  A    between atoms: C1_5  and  C2_6 
REMARK    3  A    between atoms: C2_6  and  C3_7 
REMARK    4  A    between atoms: C3_7  and  N2_8 
REMARK    5  A    between atoms: C11_16  and  O1_17 
ROOT
HETATM    1  N2  UNL     1      12.857  39.337  77.736  1.00  0.00    -0.358 N 
HETATM    2  C4  UNL     1      13.935  38.658  77.133  1.00  0.00     0.087 C 
HETATM    3  C5  UNL     1      14.146  37.345  77.860  1.00  0.00     0.030 C 
HETATM    4  C6  UNL     1      12.872  36.508  77.829  1.00  0.00    -0.008 C 
HETATM    5  C7  UNL     1      12.488  36.230  76.398  1.00  0.00     0.009 C 
HETATM    6  C8  UNL     1      12.266  37.560  75.714  1.00  0.00    -0.008 C 
HETATM    7  C9  UNL     1      13.572  38.301  75.710  1.00  0.00     0.030 C 
HETATM    8  C10 UNL     1      11.165  38.328  76.408  1.00  0.00     0.065 C 
HETATM    9  C11 UNL     1      11.636  38.619  77.817  1.00  0.00     0.134 C 
HETATM   10  C12 UNL     1      11.774  37.273  78.517  1.00  0.00     0.065 C 
ENDROOT
BRANCH   1  11
HETATM   11  C3  UNL     1      13.123  40.236  78.787  1.00  0.00     0.063 C 
BRANCH  11  12
HETATM   12  C2  UNL     1      14.429  40.945  78.741  1.00  0.00     0.071 C 
BRANCH  12  13
HETATM   13  C1  UNL     1      14.592  41.970  79.851  1.00  0.00     0.234 C 
BRANCH  13  14
HETATM   14  N1  UNL     1      14.917  41.341  81.085  1.00  0.00    -0.079 N 
ATOM     15  H13 UNL     1      14.588  41.885  81.883  1.00  0.00     0.274 HD
ATOM     16  H12 UNL     1      14.364  40.497  81.234  1.00  0.00     0.274 HD
ATOM     17  H11 UNL     1      15.917  41.150  81.147  1.00  0.00     0.274 HD
ENDBRANCH  13  14
ENDBRANCH  12  13
ENDBRANCH  11  12
ENDBRANCH   1  11
BRANCH   9  18
HETATM   18  O1  UNL     1      10.701  39.351  78.534  1.00  0.00    -0.371 OA
ATOM     19  H1  UNL     1       9.875  38.882  78.564  1.00  0.00     0.212 HD
ENDBRANCH   9  18
TORSDOF 5
ENDMDL
MODEL 2
REMARK VINA RESULT: -5.806759576      1.336      2.564
REMARK  5 active torsions:
REMARK  status: ('A' for Active; 'I' for Inactive)
REMARK    1  A    between atoms: N1_1  and  C1_5 
REMARK    2  A    between atoms: C1_5  and  C2_6 
REMARK    3  A    between atoms: C2_6  and  C3_7 
REMARK    4  A    between atoms: C3_7  and  N2_8 
REMARK    5  A    between atoms: C11_16  and  O1_17 
ROOT
HETATM    1  N2  UNL     1      13.000  39.171  78.198  1.00  0.00    -0.358 N 
HETATM    2  C4  UNL     1      11.701  38.628  78.119  1.00  0.00     0.087 C 
HETATM    3  C5  UNL     1      11.276  38.603  76.664  1.00  0.00     0.030 C 
HETATM    4  C6  UNL     1      12.269  37.798  75.833  1.00  0.00    -0.008 C 
HETATM    5  C7  UNL     1      12.337  36.387  76.357  1.00  0.00     0.009 C 
HETATM    6  C8  UNL     1      12.783  36.452  77.799  1.00  0.00    -0.008 C 
HETATM    7  C9  UNL     1      11.730  37.187  78.577  1.00  0.00     0.030 C 
HETATM    8  C10 UNL     1      14.140  37.108  77.898  1.00  0.00     0.065 C 
HETATM    9  C11 UNL     1      13.990  38.533  77.407  1.00  0.00     0.134 C 
HETATM   10  C12 UNL     1      13.622  38.449  75.932  1.00  0.00     0.065 C 
ENDROOT
BRANCH   1  11
HETATM   11  C3  UNL     1      13.144  40.560  78.379  1.00  0.00     0.063 C 
BRANCH  11  12
HETATM   12  C2  UNL     1      13.172  41.048  79.783  1.00  0.00     0.071 C 
BRANCH  12  13
HETATM   13  C1  UNL     1      14.434  41.825  80.120  1.00  0.00     0.234 C 
BRANCH  13  14
HETATM   14  N1  UNL     1      15.598  41.106  79.729  1.00  0.00    -0.079 N 
ATOM     15  H13 UNL     1      16.243  40.982  80.511  1.00  0.00     0.274 HD
ATOM     16  H12 UNL     1      15.389  40.125  79.544  1.00  0.00     0.274 HD
ATOM     17  H11 UNL     1      16.054  41.550  78.933  1.00  0.00     0.274 HD
ENDBRANCH  13  14
ENDBRANCH  12  13
ENDBRANCH  11  12
ENDBRANCH   1  11
BRANCH   9  18
HETATM   18  O1  UNL     1      15.184  39.234  77.485  1.00  0.00    -0.371 OA
ATOM     19  H1  UNL     1      15.380  39.637  76.647  1.00  0.00     0.212 HD
ENDBRANCH   9  18
TORSDOF 5
ENDMDL
MODEL 3
REMARK VINA RESULT: -4.894810674      7.582      9.225
REMARK  5 active torsions:
REMARK  status: ('A' for Active; 'I' for Inactive)
REMARK    1  A    between atoms: N1_1  and  C1_5 
REMARK    2  A    between atoms: C1_5  and  C2_6 
REMARK    3  A    between atoms: C2_6  and  C3_7 
REMARK    4  A    between atoms: C3_7  and  N2_8 
REMARK    5  A    between atoms: C11_16  and  O1_17 
ROOT
HETATM    1  N2  UNL     1       5.133  36.085  80.331  1.00  0.00    -0.358 N 
HETATM    2  C4  UNL     1       4.700  34.840  80.832  1.00  0.00     0.087 C 
HETATM    3  C5  UNL     1       4.825  33.807  79.731  1.00  0.00     0.030 C 
HETATM    4  C6  UNL     1       6.262  33.736  79.227  1.00  0.00    -0.008 C 
HETATM    5  C7  UNL     1       7.177  33.364  80.366  1.00  0.00     0.009 C 
HETATM    6  C8  UNL     1       7.040  34.426  81.432  1.00  0.00    -0.008 C 
HETATM    7  C9  UNL     1       5.627  34.394  81.940  1.00  0.00     0.030 C 
HETATM    8  C10 UNL     1       7.425  35.778  80.877  1.00  0.00     0.065 C 
HETATM    9  C11 UNL     1       6.440  36.112  79.778  1.00  0.00     0.134 C 
HETATM   10  C12 UNL     1       6.649  35.082  78.676  1.00  0.00     0.065 C 
ENDROOT
BRANCH   1  11
HETATM   11  C3  UNL     1       4.187  36.946  79.742  1.00  0.00     0.063 C 
BRANCH  11  12
HETATM   12  C2  UNL     1       2.992  37.280  80.561  1.00  0.00     0.071 C 
BRANCH  12  13
HETATM   13  C1  UNL     1       2.303  38.559  80.117  1.00  0.00     0.234 C 
BRANCH  13  14
HETATM   14  N1  UNL     1       2.407  39.570  81.113  1.00  0.00    -0.079 N 
ATOM     15  H13 UNL     1       1.893  39.319  81.958  1.00  0.00     0.274 HD
ATOM     16  H12 UNL     1       3.346  39.612  81.510  1.00  0.00     0.274 HD
ATOM     17  H11 UNL     1       2.113  40.476  80.749  1.00  0.00     0.274 HD
ENDBRANCH  13  14
ENDBRANCH  12  13
ENDBRANCH  11  12
ENDBRANCH   1  11
BRANCH   9  18
HETATM   18  O1  UNL     1       6.692  37.356  79.218  1.00  0.00    -0.371 OA
ATOM     19  H1  UNL     1       6.498  38.041  79.847  1.00  0.00     0.212 HD
ENDBRANCH   9  18
TORSDOF 5
ENDMDL
MODEL 4
REMARK VINA RESULT: -4.845451231      2.625      4.818
REMARK  5 active torsions:
REMARK  status: ('A' for Active; 'I' for Inactive)
REMARK    1  A    between atoms: N1_1  and  C1_5 
REMARK    2  A    between atoms: C1_5  and  C2_6 
REMARK    3  A    between atoms: C2_6  and  C3_7 
REMARK    4  A    between atoms: C3_7  and  N2_8 
REMARK    5  A    between atoms: C11_16  and  O1_17 
ROOT
HETATM    1  N2  UNL     1      12.175  37.972  76.056  1.00  0.00    -0.358 N 
HETATM    2  C4  UNL     1      11.808  37.911  77.416  1.00  0.00     0.087 C 
HETATM    3  C5  UNL     1      12.600  36.802  78.080  1.00  0.00     0.030 C 
HETATM    4  C6  UNL     1      14.097  37.045  77.916  1.00  0.00    -0.008 C 
HETATM    5  C7  UNL     1      14.464  38.365  78.543  1.00  0.00     0.009 C 
HETATM    6  C8  UNL     1      13.672  39.444  77.842  1.00  0.00    -0.008 C 
HETATM    7  C9  UNL     1      12.215  39.194  78.105  1.00  0.00     0.030 C 
HETATM    8  C10 UNL     1      14.000  39.461  76.367  1.00  0.00     0.065 C 
HETATM    9  C11 UNL     1      13.560  38.132  75.792  1.00  0.00     0.134 C 
HETATM   10  C12 UNL     1      14.425  37.064  76.447  1.00  0.00     0.065 C 
ENDROOT
BRANCH   1  11
HETATM   11  C3  UNL     1      11.443  37.214  75.122  1.00  0.00     0.063 C 
BRANCH  11  12
HETATM   12  C2  UNL     1      10.173  37.810  74.630  1.00  0.00     0.071 C 
BRANCH  12  13
HETATM   13  C1  UNL     1      10.223  38.194  73.161  1.00  0.00     0.234 C 
BRANCH  13  14
HETATM   14  N1  UNL     1      11.468  37.825  72.577  1.00  0.00    -0.079 N 
ATOM     15  H13 UNL     1      11.536  36.816  72.444  1.00  0.00     0.274 HD
ATOM     16  H12 UNL     1      11.525  38.115  71.601  1.00  0.00     0.274 HD
ATOM     17  H11 UNL     1      12.249  38.187  73.122  1.00  0.00     0.274 HD
ENDBRANCH  13  14
ENDBRANCH  12  13
ENDBRANCH  11  12
ENDBRANCH   1  11
BRANCH   9  18
HETATM   18  O1  UNL     1      13.794  38.057  74.427  1.00  0.00    -0.371 OA
ATOM     19  H1  UNL     1      14.724  37.955  74.261  1.00  0.00     0.212 HD
ENDBRANCH   9  18
TORSDOF 5
ENDMDL
MODEL 5
REMARK VINA RESULT: -4.797224011      6.034      7.669
REMARK  5 active torsions:
REMARK  status: ('A' for Active; 'I' for Inactive)
REMARK    1  A    between atoms: N1_1  and  C1_5 
REMARK    2  A    between atoms: C1_5  and  C2_6 
REMARK    3  A    between atoms: C2_6  and  C3_7 
REMARK    4  A    between atoms: C3_7  and  N2_8 
REMARK    5  A    between atoms: C11_16  and  O1_17 
ROOT
HETATM    1  N2  UNL     1       7.079  36.050  80.238  1.00  0.00    -0.358 N 
HETATM    2  C4  UNL     1       6.041  35.871  79.300  1.00  0.00     0.087 C 
HETATM    3  C5  UNL     1       6.245  34.541  78.603  1.00  0.00     0.030 C 
HETATM    4  C6  UNL     1       6.277  33.406  79.621  1.00  0.00    -0.008 C 
HETATM    5  C7  UNL     1       4.978  33.376  80.383  1.00  0.00     0.009 C 
HETATM    6  C8  UNL     1       4.822  34.709  81.080  1.00  0.00    -0.008 C 
HETATM    7  C9  UNL     1       4.719  35.773  80.025  1.00  0.00     0.030 C 
HETATM    8  C10 UNL     1       5.976  34.942  82.027  1.00  0.00     0.065 C 
HETATM    9  C11 UNL     1       7.238  35.014  81.194  1.00  0.00     0.134 C 
HETATM   10  C12 UNL     1       7.424  33.638  80.567  1.00  0.00     0.065 C 
ENDROOT
BRANCH   1  11
HETATM   11  C3  UNL     1       8.254  36.712  79.833  1.00  0.00     0.063 C 
BRANCH  11  12
HETATM   12  C2  UNL     1       8.245  37.308  78.471  1.00  0.00     0.071 C 
BRANCH  12  13
HETATM   13  C1  UNL     1       9.632  37.681  77.974  1.00  0.00     0.234 C 
BRANCH  13  14
HETATM   14  N1  UNL     1      10.416  38.243  79.020  1.00  0.00    -0.079 N 
ATOM     15  H13 UNL     1       9.832  38.634  79.760  1.00  0.00     0.274 HD
ATOM     16  H12 UNL     1      10.892  37.523  79.562  1.00  0.00     0.274 HD
ATOM     17  H11 UNL     1      11.073  38.933  78.655  1.00  0.00     0.274 HD
ENDBRANCH  13  14
ENDBRANCH  12  13
ENDBRANCH  11  12
ENDBRANCH   1  11
BRANCH   9  18
HETATM   18  O1  UNL     1       8.359  35.255  81.974  1.00  0.00    -0.371 OA
ATOM     19  H1  UNL     1       8.126  35.795  82.720  1.00  0.00     0.212 HD
ENDBRANCH   9  18
TORSDOF 5
ENDMDL
