MODEL 1
REMARK VINA RESULT: -6.352467748      0.000      0.000
REMARK  6 active torsions:
REMARK  status: ('A' for Active; 'I' for Inactive)
REMARK    1  A    between atoms: N1_1  and  S1_4 
REMARK    2  A    between atoms: S1_4  and  C1_6 
REMARK    3  A    between atoms: S1_4  and  N2_14 
REMARK    4  A    between atoms: C1_6  and  C2_7 
REMARK    5  A    between atoms: C2_7  and  C3_8 
REMARK    6  A    between atoms: N2_14  and  O2_16 
ROOT
HETATM    1  S1  UNL     1      14.213  41.700  81.267  1.00  0.00     0.122 S 
HETATM    2  O1  UNL     1      13.524  42.977  81.681  1.00  0.00    -0.227 OA
ENDROOT
BRANCH   1   3
HETATM    3  N1  UNL     1      15.736  42.084  80.575  1.00  0.00    -0.344 N 
ATOM      4  H12 UNL     1      16.573  42.322  81.109  1.00  0.00     0.167 HD
ATOM      5  H11 UNL     1      15.662  42.035  79.559  1.00  0.00     0.167 HD
ENDBRANCH   1   3
BRANCH   1   6
HETATM    6  C1  UNL     1      13.159  40.843  80.145  1.00  0.00     0.141 C 
BRANCH   6   7
HETATM    7  C2  UNL     1      13.653  40.993  78.722  1.00  0.00     0.020 C 
BRANCH   7   8
HETATM    8  C3  UNL     1      13.362  39.739  77.921  1.00  0.00    -0.014 C 
HETATM    9  C4  UNL     1      12.012  39.235  78.379  1.00  0.00     0.005 C 
HETATM   10  C5  UNL     1      11.742  37.971  77.631  1.00  0.00     0.000 C 
HETATM   11  C6  UNL     1      12.773  36.907  77.855  1.00  0.00     0.000 C 
HETATM   12  C7  UNL     1      14.181  37.360  77.817  1.00  0.00     0.000 C 
HETATM   13  C8  UNL     1      14.453  38.765  78.163  1.00  0.00     0.005 C 
ENDBRANCH   7   8
ENDBRANCH   6   7
ENDBRANCH   1   6
BRANCH   1  14
HETATM   14  N2  UNL     1      14.440  40.839  82.559  1.00  0.00    -0.211 N 
ATOM     15  H2  UNL     1      13.775  40.120  82.846  1.00  0.00     0.205 HD
BRANCH  14  16
HETATM   16  O2  UNL     1      15.585  41.102  83.289  1.00  0.00    -0.281 OA
ATOM     17  H2  UNL     1      15.489  41.142  84.234  1.00  0.00     0.245 HD
ENDBRANCH  14  16
ENDBRANCH   1  14
TORSDOF 6
ENDMDL
MODEL 2
REMARK VINA RESULT: -6.146045891      1.266      1.670
REMARK  6 active torsions:
REMARK  status: ('A' for Active; 'I' for Inactive)
REMARK    1  A    between atoms: N1_1  and  S1_4 
REMARK    2  A    between atoms: S1_4  and  C1_6 
REMARK    3  A    between atoms: S1_4  and  N2_14 
REMARK    4  A    between atoms: C1_6  and  C2_7 
REMARK    5  A    between atoms: C2_7  and  C3_8 
REMARK    6  A    between atoms: N2_14  and  O2_16 
ROOT
HETATM    1  S1  UNL     1      13.796  41.510  81.624  1.00  0.00     0.122 S 
HETATM    2  O1  UNL     1      14.361  40.369  82.434  1.00  0.00    -0.227 OA
ENDROOT
BRANCH   1   3
HETATM    3  N1  UNL     1      12.224  41.884  82.206  1.00  0.00    -0.344 N 
ATOM      4  H12 UNL     1      11.850  41.580  83.104  1.00  0.00     0.167 HD
ATOM      5  H11 UNL     1      11.739  42.452  81.511  1.00  0.00     0.167 HD
ENDBRANCH   1   3
BRANCH   1   6
HETATM    6  C1  UNL     1      13.793  41.036  79.928  1.00  0.00     0.141 C 
BRANCH   6   7
HETATM    7  C2  UNL     1      12.392  40.690  79.468  1.00  0.00     0.020 C 
BRANCH   7   8
HETATM    8  C3  UNL     1      12.436  39.697  78.325  1.00  0.00    -0.014 C 
HETATM    9  C4  UNL     1      11.366  38.665  78.604  1.00  0.00     0.005 C 
HETATM   10  C5  UNL     1      11.439  37.654  77.508  1.00  0.00     0.000 C 
HETATM   11  C6  UNL     1      12.770  36.974  77.402  1.00  0.00     0.000 C 
HETATM   12  C7  UNL     1      13.951  37.858  77.508  1.00  0.00     0.000 C 
HETATM   13  C8  UNL     1      13.797  39.113  78.264  1.00  0.00     0.005 C 
ENDBRANCH   7   8
ENDBRANCH   6   7
ENDBRANCH   1   6
BRANCH   1  14
HETATM   14  N2  UNL     1      14.729  42.754  81.835  1.00  0.00    -0.211 N 
ATOM     15  H2  UNL     1      14.622  43.602  81.280  1.00  0.00     0.205 HD
BRANCH  14  16
HETATM   16  O2  UNL     1      15.704  42.642  82.810  1.00  0.00    -0.281 OA
ATOM     17  H2  UNL     1      16.526  43.090  82.645  1.00  0.00     0.245 HD
ENDBRANCH  14  16
ENDBRANCH   1  14
TORSDOF 6
ENDMDL
MODEL 3
REMARK VINA RESULT: -5.997146978      1.439      1.439
REMARK  6 active torsions:
REMARK  status: ('A' for Active; 'I' for Inactive)
REMARK    1  A    between atoms: N1_1  and  S1_4 
REMARK    2  A    between atoms: S1_4  and  C1_6 
REMARK    3  A    between atoms: S1_4  and  N2_14 
REMARK    4  A    between atoms: C1_6  and  C2_7 
REMARK    5  A    between atoms: C2_7  and  C3_8 
REMARK    6  A    between atoms: N2_14  and  O2_16 
ROOT
HETATM    1  S1  UNL     1      12.937  41.705  81.883  1.00  0.00     0.122 S 
HETATM    2  O1  UNL     1      11.843  42.664  82.284  1.00  0.00    -0.227 OA
ENDROOT
BRANCH   1   3
HETATM    3  N1  UNL     1      14.406  42.575  81.708  1.00  0.00    -0.344 N 
ATOM      4  H12 UNL     1      14.471  43.557  81.441  1.00  0.00     0.167 HD
ATOM      5  H11 UNL     1      15.188  41.951  81.912  1.00  0.00     0.167 HD
ENDBRANCH   1   3
BRANCH   1   6
HETATM    6  C1  UNL     1      12.447  40.899  80.395  1.00  0.00     0.141 C 
BRANCH   6   7
HETATM    7  C2  UNL     1      13.527  41.017  79.340  1.00  0.00     0.020 C 
BRANCH   7   8
HETATM    8  C3  UNL     1      13.320  39.986  78.248  1.00  0.00    -0.014 C 
HETATM    9  C4  UNL     1      11.973  39.347  78.503  1.00  0.00     0.005 C 
HETATM   10  C5  UNL     1      11.786  38.294  77.461  1.00  0.00     0.000 C 
HETATM   11  C6  UNL     1      12.849  37.238  77.474  1.00  0.00     0.000 C 
HETATM   12  C7  UNL     1      14.237  37.727  77.617  1.00  0.00     0.000 C 
HETATM   13  C8  UNL     1      14.438  39.015  78.303  1.00  0.00     0.005 C 
ENDBRANCH   7   8
ENDBRANCH   6   7
ENDBRANCH   1   6
BRANCH   1  14
HETATM   14  N2  UNL     1      13.099  40.654  83.037  1.00  0.00    -0.211 N 
ATOM     15  H2  UNL     1      14.002  40.477  83.475  1.00  0.00     0.205 HD
BRANCH  14  16
HETATM   16  O2  UNL     1      11.956  39.981  83.430  1.00  0.00    -0.281 OA
ATOM     17  H2  UNL     1      12.057  39.335  84.120  1.00  0.00     0.245 HD
ENDBRANCH  14  16
ENDBRANCH   1  14
TORSDOF 6
ENDMDL
MODEL 4
REMARK VINA RESULT: -5.988907990      0.957      1.734
REMARK  6 active torsions:
REMARK  status: ('A' for Active; 'I' for Inactive)
REMARK    1  A    between atoms: N1_1  and  S1_4 
REMARK    2  A    between atoms: S1_4  and  C1_6 
REMARK    3  A    between atoms: S1_4  and  N2_14 
REMARK    4  A    between atoms: C1_6  and  C2_7 
REMARK    5  A    between atoms: C2_7  and  C3_8 
REMARK    6  A    between atoms: N2_14  and  O2_16 
ROOT
HETATM    1  S1  UNL     1      14.097  41.502  80.804  1.00  0.00     0.122 S 
HETATM    2  O1  UNL     1      14.021  43.007  80.870  1.00  0.00    -0.227 OA
ENDROOT
BRANCH   1   3
HETATM    3  N1  UNL     1      15.362  41.052  79.734  1.00  0.00    -0.344 N 
ATOM      4  H12 UNL     1      15.467  41.400  78.781  1.00  0.00     0.167 HD
ATOM      5  H11 UNL     1      15.977  40.389  80.206  1.00  0.00     0.167 HD
ENDBRANCH   1   3
BRANCH   1   6
HETATM    6  C1  UNL     1      12.528  40.890  80.290  1.00  0.00     0.141 C 
BRANCH   6   7
HETATM    7  C2  UNL     1      12.527  40.590  78.806  1.00  0.00     0.020 C 
BRANCH   7   8
HETATM    8  C3  UNL     1      12.371  39.102  78.563  1.00  0.00    -0.014 C 
HETATM    9  C4  UNL     1      13.430  38.712  77.557  1.00  0.00     0.005 C 
HETATM   10  C5  UNL     1      13.248  37.257  77.274  1.00  0.00     0.000 C 
HETATM   11  C6  UNL     1      11.894  36.914  76.731  1.00  0.00     0.000 C 
HETATM   12  C7  UNL     1      10.749  37.561  77.407  1.00  0.00     0.000 C 
HETATM   13  C8  UNL     1      10.994  38.849  78.078  1.00  0.00     0.005 C 
ENDBRANCH   7   8
ENDBRANCH   6   7
ENDBRANCH   1   6
BRANCH   1  14
HETATM   14  N2  UNL     1      14.435  40.977  82.244  1.00  0.00    -0.211 N 
ATOM     15  H2  UNL     1      13.838  40.302  82.721  1.00  0.00     0.205 HD
BRANCH  14  16
HETATM   16  O2  UNL     1      15.583  41.475  82.835  1.00  0.00    -0.281 OA
ATOM     17  H2  UNL     1      15.993  42.220  82.410  1.00  0.00     0.245 HD
ENDBRANCH  14  16
ENDBRANCH   1  14
TORSDOF 6
ENDMDL
MODEL 5
REMARK VINA RESULT: -5.897491049      1.101      1.754
REMARK  6 active torsions:
REMARK  status: ('A' for Active; 'I' for Inactive)
REMARK    1  A    between atoms: N1_1  and  S1_4 
REMARK    2  A    between atoms: S1_4  and  C1_6 
REMARK    3  A    between atoms: S1_4  and  N2_14 
REMARK    4  A    between atoms: C1_6  and  C2_7 
REMARK    5  A    between atoms: C2_7  and  C3_8 
REMARK    6  A    between atoms: N2_14  and  O2_16 
ROOT
HETATM    1  S1  UNL     1      13.813  41.558  81.259  1.00  0.00     0.122 S 
HETATM    2  O1  UNL     1      12.355  41.169  81.241  1.00  0.00    -0.227 OA
ENDROOT
BRANCH   1   3
HETATM    3  N1  UNL     1      13.937  43.243  81.567  1.00  0.00    -0.344 N 
ATOM      4  H12 UNL     1      14.814  43.763  81.605  1.00  0.00     0.167 HD
ATOM      5  H11 UNL     1      13.002  43.626  81.703  1.00  0.00     0.167 HD
ENDBRANCH   1   3
BRANCH   1   6
HETATM    6  C1  UNL     1      14.526  41.100  79.716  1.00  0.00     0.141 C 
BRANCH   6   7
HETATM    7  C2  UNL     1      13.450  40.795  78.695  1.00  0.00     0.020 C 
BRANCH   7   8
HETATM    8  C3  UNL     1      13.272  39.298  78.537  1.00  0.00    -0.014 C 
HETATM    9  C4  UNL     1      14.204  38.864  77.428  1.00  0.00     0.005 C 
HETATM   10  C5  UNL     1      13.996  37.398  77.233  1.00  0.00     0.000 C 
HETATM   11  C6  UNL     1      12.588  37.032  76.873  1.00  0.00     0.000 C 
HETATM   12  C7  UNL     1      11.530  37.709  77.654  1.00  0.00     0.000 C 
HETATM   13  C8  UNL     1      11.848  39.025  78.233  1.00  0.00     0.005 C 
ENDBRANCH   7   8
ENDBRANCH   6   7
ENDBRANCH   1   6
BRANCH   1  14
HETATM   14  N2  UNL     1      14.504  40.772  82.428  1.00  0.00    -0.211 N 
ATOM     15  H2  UNL     1      14.131  39.887  82.770  1.00  0.00     0.205 HD
BRANCH  14  16
HETATM   16  O2  UNL     1      15.643  41.338  82.971  1.00  0.00    -0.281 OA
ATOM     17  H2  UNL     1      16.440  40.824  82.922  1.00  0.00     0.245 HD
ENDBRANCH  14  16
ENDBRANCH   1  14
TORSDOF 6
ENDMDL
