MODEL 1
REMARK VINA RESULT: -6.069283692      0.000      0.000
REMARK  4 active torsions:
REMARK  status: ('A' for Active; 'I' for Inactive)
REMARK    1  A    between atoms: N1_2  and  C2_3 
REMARK    2  A    between atoms: N1_2  and  C4_9 
REMARK    3  A    between atoms: C2_3  and  C3_4 
REMARK    4  A    between atoms: C3_4  and  N2_5 
ROOT
HETATM    1  C4  UNL     1      13.511  39.467  78.033  1.00  0.00     0.160 C 
HETATM    2  C5  UNL     1      13.923  39.636  76.607  1.00  0.00     0.046 C 
HETATM    3  C6  UNL     1      13.767  38.305  75.864  1.00  0.00    -0.011 C 
HETATM    4  C7  UNL     1      14.649  37.231  76.500  1.00  0.00     0.009 C 
HETATM    5  C8  UNL     1      14.203  37.101  77.947  1.00  0.00    -0.011 C 
HETATM    6  C9  UNL     1      12.782  36.652  77.945  1.00  0.00     0.009 C 
HETATM    7  C10 UNL     1      11.888  37.676  77.291  1.00  0.00    -0.011 C 
HETATM    8  C11 UNL     1      12.329  37.907  75.865  1.00  0.00     0.009 C 
HETATM    9  C12 UNL     1      12.056  38.954  78.029  1.00  0.00     0.046 C 
HETATM   10  C13 UNL     1      14.434  38.447  78.613  1.00  0.00     0.046 C 
ENDROOT
BRANCH   1  11
HETATM   11  N1  UNL     1      13.403  40.708  78.748  1.00  0.00     0.095 N 
HETATM   12  C1  UNL     1      12.165  40.650  79.575  1.00  0.00     0.310 C 
BRANCH  11  13
HETATM   13  C2  UNL     1      14.471  41.170  79.527  1.00  0.00     0.300 C 
BRANCH  13  14
HETATM   14  C3  UNL     1      14.125  42.040  80.673  1.00  0.00     0.259 C 
BRANCH  14  15
HETATM   15  N2  UNL     1      14.849  41.562  81.898  1.00  0.00    -0.078 N 
ATOM     16  H23 UNL     1      14.214  41.172  82.595  1.00  0.00     0.274 HD
ATOM     17  H22 UNL     1      15.399  40.722  81.719  1.00  0.00     0.274 HD
ATOM     18  H21 UNL     1      15.416  42.321  82.274  1.00  0.00     0.274 HD
ENDBRANCH  14  15
ENDBRANCH  13  14
ENDBRANCH  11  13
ENDBRANCH   1  11
TORSDOF 4
ENDMDL
MODEL 2
REMARK VINA RESULT: -5.777750904      0.344      1.951
REMARK  4 active torsions:
REMARK  status: ('A' for Active; 'I' for Inactive)
REMARK    1  A    between atoms: N1_2  and  C2_3 
REMARK    2  A    between atoms: N1_2  and  C4_9 
REMARK    3  A    between atoms: C2_3  and  C3_4 
REMARK    4  A    between atoms: C3_4  and  N2_5 
ROOT
HETATM    1  C4  UNL     1      13.261  39.319  78.086  1.00  0.00     0.160 C 
HETATM    2  C5  UNL     1      14.134  38.295  78.733  1.00  0.00     0.046 C 
HETATM    3  C6  UNL     1      14.154  37.022  77.881  1.00  0.00    -0.011 C 
HETATM    4  C7  UNL     1      12.746  36.444  77.747  1.00  0.00     0.009 C 
HETATM    5  C8  UNL     1      11.893  37.520  77.096  1.00  0.00    -0.011 C 
HETATM    6  C9  UNL     1      12.459  37.791  75.744  1.00  0.00     0.009 C 
HETATM    7  C10 UNL     1      13.864  38.330  75.839  1.00  0.00    -0.011 C 
HETATM    8  C11 UNL     1      14.750  37.332  76.549  1.00  0.00     0.009 C 
HETATM    9  C12 UNL     1      13.817  39.561  76.668  1.00  0.00     0.046 C 
HETATM   10  C13 UNL     1      11.894  38.721  78.027  1.00  0.00     0.046 C 
ENDROOT
BRANCH   1  11
HETATM   11  N1  UNL     1      13.361  40.619  78.688  1.00  0.00     0.095 N 
HETATM   12  C1  UNL     1      12.265  40.741  79.691  1.00  0.00     0.310 C 
BRANCH  11  13
HETATM   13  C2  UNL     1      14.569  41.045  79.254  1.00  0.00     0.300 C 
BRANCH  13  14
HETATM   14  C3  UNL     1      14.503  42.227  80.141  1.00  0.00     0.259 C 
BRANCH  14  15
HETATM   15  N2  UNL     1      15.294  41.959  81.389  1.00  0.00    -0.078 N 
ATOM     16  H23 UNL     1      14.855  41.253  81.980  1.00  0.00     0.274 HD
ATOM     17  H22 UNL     1      16.164  41.465  81.195  1.00  0.00     0.274 HD
ATOM     18  H21 UNL     1      15.450  42.836  81.886  1.00  0.00     0.274 HD
ENDBRANCH  14  15
ENDBRANCH  13  14
ENDBRANCH  11  13
ENDBRANCH   1  11
TORSDOF 4
ENDMDL
MODEL 3
REMARK VINA RESULT: -5.703497631      0.384      1.925
REMARK  4 active torsions:
REMARK  status: ('A' for Active; 'I' for Inactive)
REMARK    1  A    between atoms: N1_2  and  C2_3 
REMARK    2  A    between atoms: N1_2  and  C4_9 
REMARK    3  A    between atoms: C2_3  and  C3_4 
REMARK    4  A    between atoms: C3_4  and  N2_5 
ROOT
HETATM    1  C4  UNL     1      13.320  39.385  77.809  1.00  0.00     0.160 C 
HETATM    2  C5  UNL     1      11.962  38.764  77.796  1.00  0.00     0.046 C 
HETATM    3  C6  UNL     1      12.040  37.365  77.176  1.00  0.00    -0.011 C 
HETATM    4  C7  UNL     1      12.551  37.446  75.737  1.00  0.00     0.009 C 
HETATM    5  C8  UNL     1      13.925  38.091  75.798  1.00  0.00    -0.011 C 
HETATM    6  C9  UNL     1      14.811  37.199  76.599  1.00  0.00     0.009 C 
HETATM    7  C10 UNL     1      14.314  37.070  78.018  1.00  0.00    -0.011 C 
HETATM    8  C11 UNL     1      12.913  36.501  78.021  1.00  0.00     0.009 C 
HETATM    9  C12 UNL     1      14.247  38.437  78.595  1.00  0.00     0.046 C 
HETATM   10  C13 UNL     1      13.745  39.483  76.381  1.00  0.00     0.046 C 
ENDROOT
BRANCH   1  11
HETATM   11  N1  UNL     1      13.388  40.597  78.577  1.00  0.00     0.095 N 
HETATM   12  C1  UNL     1      12.250  40.589  79.540  1.00  0.00     0.310 C 
BRANCH  11  13
HETATM   13  C2  UNL     1      14.569  40.947  79.243  1.00  0.00     0.300 C 
BRANCH  13  14
HETATM   14  C3  UNL     1      14.516  42.162  80.086  1.00  0.00     0.259 C 
BRANCH  14  15
HETATM   15  N2  UNL     1      15.263  41.915  81.364  1.00  0.00    -0.078 N 
ATOM     16  H23 UNL     1      14.757  41.289  81.992  1.00  0.00     0.274 HD
ATOM     17  H22 UNL     1      16.092  41.338  81.222  1.00  0.00     0.274 HD
ATOM     18  H21 UNL     1      15.485  42.808  81.805  1.00  0.00     0.274 HD
ENDBRANCH  14  15
ENDBRANCH  13  14
ENDBRANCH  11  13
ENDBRANCH   1  11
TORSDOF 4
ENDMDL
MODEL 4
REMARK VINA RESULT: -5.302050124      2.025      3.806
REMARK  4 active torsions:
REMARK  status: ('A' for Active; 'I' for Inactive)
REMARK    1  A    between atoms: N1_2  and  C2_3 
REMARK    2  A    between atoms: N1_2  and  C4_9 
REMARK    3  A    between atoms: C2_3  and  C3_4 
REMARK    4  A    between atoms: C3_4  and  N2_5 
ROOT
HETATM    1  C4  UNL     1      12.140  37.553  76.323  1.00  0.00     0.160 C 
HETATM    2  C5  UNL     1      12.137  36.063  76.424  1.00  0.00     0.046 C 
HETATM    3  C6  UNL     1      11.940  35.452  75.033  1.00  0.00    -0.011 C 
HETATM    4  C7  UNL     1      10.607  35.901  74.435  1.00  0.00     0.009 C 
HETATM    5  C8  UNL     1      10.652  37.418  74.361  1.00  0.00    -0.011 C 
HETATM    6  C9  UNL     1      11.768  37.796  73.448  1.00  0.00     0.009 C 
HETATM    7  C10 UNL     1      13.097  37.335  73.993  1.00  0.00    -0.011 C 
HETATM    8  C11 UNL     1      13.090  35.833  74.162  1.00  0.00     0.009 C 
HETATM    9  C12 UNL     1      13.263  37.940  75.340  1.00  0.00     0.046 C 
HETATM   10  C13 UNL     1      10.803  37.935  75.782  1.00  0.00     0.046 C 
ENDROOT
BRANCH   1  11
HETATM   11  N1  UNL     1      12.547  38.207  77.536  1.00  0.00     0.095 N 
HETATM   12  C1  UNL     1      13.820  38.930  77.257  1.00  0.00     0.310 C 
BRANCH  11  13
HETATM   13  C2  UNL     1      11.661  39.054  78.214  1.00  0.00     0.300 C 
BRANCH  13  14
HETATM   14  C3  UNL     1      12.236  40.295  78.779  1.00  0.00     0.259 C 
BRANCH  14  15
HETATM   15  N2  UNL     1      11.581  40.592  80.097  1.00  0.00    -0.078 N 
ATOM     16  H23 UNL     1      10.720  41.127  79.988  1.00  0.00     0.274 HD
ATOM     17  H22 UNL     1      11.180  39.758  80.525  1.00  0.00     0.274 HD
ATOM     18  H21 UNL     1      12.251  41.056  80.710  1.00  0.00     0.274 HD
ENDBRANCH  14  15
ENDBRANCH  13  14
ENDBRANCH  11  13
ENDBRANCH   1  11
TORSDOF 4
ENDMDL
MODEL 5
REMARK VINA RESULT: -5.294168756      2.106      3.833
REMARK  4 active torsions:
REMARK  status: ('A' for Active; 'I' for Inactive)
REMARK    1  A    between atoms: N1_2  and  C2_3 
REMARK    2  A    between atoms: N1_2  and  C4_9 
REMARK    3  A    between atoms: C2_3  and  C3_4 
REMARK    4  A    between atoms: C3_4  and  N2_5 
ROOT
HETATM    1  C4  UNL     1      11.962  37.651  76.038  1.00  0.00     0.160 C 
HETATM    2  C5  UNL     1      11.976  36.186  76.327  1.00  0.00     0.046 C 
HETATM    3  C6  UNL     1      12.019  35.402  75.011  1.00  0.00    -0.011 C 
HETATM    4  C7  UNL     1      10.790  35.717  74.159  1.00  0.00     0.009 C 
HETATM    5  C8  UNL     1      10.812  37.214  73.900  1.00  0.00    -0.011 C 
HETATM    6  C9  UNL     1      12.052  37.525  73.133  1.00  0.00     0.009 C 
HETATM    7  C10 UNL     1      13.286  37.191  73.934  1.00  0.00    -0.011 C 
HETATM    8  C11 UNL     1      13.285  35.722  74.290  1.00  0.00     0.009 C 
HETATM    9  C12 UNL     1      13.220  37.962  75.202  1.00  0.00     0.046 C 
HETATM   10  C13 UNL     1      10.721  37.907  75.250  1.00  0.00     0.046 C 
ENDROOT
BRANCH   1  11
HETATM   11  N1  UNL     1      12.154  38.465  77.206  1.00  0.00     0.095 N 
HETATM   12  C1  UNL     1      11.317  37.896  78.300  1.00  0.00     0.310 C 
BRANCH  11  13
HETATM   13  C2  UNL     1      13.445  38.724  77.684  1.00  0.00     0.300 C 
BRANCH  13  14
HETATM   14  C3  UNL     1      13.688  40.077  78.230  1.00  0.00     0.259 C 
BRANCH  14  15
HETATM   15  N2  UNL     1      15.022  40.104  78.919  1.00  0.00    -0.078 N 
ATOM     16  H23 UNL     1      15.790  39.897  78.281  1.00  0.00     0.274 HD
ATOM     17  H22 UNL     1      15.302  41.049  79.181  1.00  0.00     0.274 HD
ATOM     18  H21 UNL     1      15.002  39.472  79.719  1.00  0.00     0.274 HD
ENDBRANCH  14  15
ENDBRANCH  13  14
ENDBRANCH  11  13
ENDBRANCH   1  11
TORSDOF 4
ENDMDL
