MODEL 1
REMARK VINA RESULT: -7.711424688      0.000      0.000
REMARK  0 active torsions:
REMARK  status: ('A' for Active; 'I' for Inactive)
ROOT
HETATM    1  O1  UNL     1     -22.890 -43.196  20.165  1.00  0.00    -0.262 OA
HETATM    2  C1  UNL     1     -21.903 -42.667  20.706  1.00  0.00     0.296 A 
HETATM    3  O2  UNL     1     -20.493 -42.396  20.378  1.00  0.00    -0.296 OA
HETATM    4  C2  UNL     1     -21.059 -42.017  21.617  1.00  0.00     0.166 A 
HETATM    5  C3  UNL     1     -20.626 -42.740  22.875  1.00  0.00     0.060 C 
HETATM    6  C4  UNL     1     -19.826 -41.738  23.662  1.00  0.00    -0.032 C 
HETATM    7  C5  UNL     1     -18.406 -42.259  23.756  1.00  0.00     0.010 C 
HETATM    8  C6  UNL     1     -18.088 -42.411  25.213  1.00  0.00     0.006 C 
HETATM    9  C7  UNL     1     -19.056 -41.526  25.952  1.00  0.00    -0.010 C 
HETATM   10  C8  UNL     1     -19.466 -42.074  27.281  1.00  0.00     0.005 C 
HETATM   11  C9  UNL     1     -20.457 -43.152  26.992  1.00  0.00     0.001 C 
HETATM   12  C10 UNL     1     -20.836 -43.000  25.527  1.00  0.00     0.006 C 
HETATM   13  C11 UNL     1     -20.309 -41.664  25.092  1.00  0.00    -0.002 C 
HETATM   14  C12 UNL     1     -19.921 -40.430  22.939  1.00  0.00     0.023 C 
HETATM   15  C13 UNL     1     -21.012 -40.559  21.903  1.00  0.00     0.006 C 
HETATM   16  C14 UNL     1     -22.296 -40.016  22.481  1.00  0.00     0.039 C 
HETATM   17  C15 UNL     1     -22.198 -38.502  22.437  1.00  0.00     0.168 C 
HETATM   18  O3  UNL     1     -22.455 -38.131  21.110  1.00  0.00    -0.391 OA
HETATM   19  C16 UNL     1     -21.929 -39.021  20.205  1.00  0.00     0.168 C 
HETATM   20  C17 UNL     1     -20.689 -39.721  20.678  1.00  0.00     0.039 C 
ENDROOT
TORSDOF 0
ENDMDL
MODEL 2
REMARK VINA RESULT: -7.629249393      1.693      2.469
REMARK  0 active torsions:
REMARK  status: ('A' for Active; 'I' for Inactive)
ROOT
HETATM    1  O1  UNL     1     -24.656 -38.890  23.284  1.00  0.00    -0.262 OA
HETATM    2  C1  UNL     1     -23.791 -39.759  23.076  1.00  0.00     0.296 A 
HETATM    3  O2  UNL     1     -23.690 -41.052  22.377  1.00  0.00    -0.296 OA
HETATM    4  C2  UNL     1     -22.590 -40.482  23.061  1.00  0.00     0.166 A 
HETATM    5  C3  UNL     1     -22.099 -41.133  24.336  1.00  0.00     0.060 C 
HETATM    6  C4  UNL     1     -20.758 -41.726  23.996  1.00  0.00    -0.032 C 
HETATM    7  C5  UNL     1     -20.874 -43.231  24.142  1.00  0.00     0.010 C 
HETATM    8  C6  UNL     1     -19.868 -43.652  25.171  1.00  0.00     0.006 C 
HETATM    9  C7  UNL     1     -18.845 -42.550  25.238  1.00  0.00    -0.010 C 
HETATM   10  C8  UNL     1     -18.281 -42.345  26.607  1.00  0.00     0.005 C 
HETATM   11  C9  UNL     1     -19.327 -41.609  27.376  1.00  0.00     0.001 C 
HETATM   12  C10 UNL     1     -20.347 -41.129  26.354  1.00  0.00     0.006 C 
HETATM   13  C11 UNL     1     -19.714 -41.317  25.007  1.00  0.00    -0.002 C 
HETATM   14  C12 UNL     1     -20.427 -41.300  22.598  1.00  0.00     0.023 C 
HETATM   15  C13 UNL     1     -21.401 -40.214  22.210  1.00  0.00     0.006 C 
HETATM   16  C14 UNL     1     -20.761 -38.873  22.475  1.00  0.00     0.039 C 
HETATM   17  C15 UNL     1     -19.770 -38.623  21.352  1.00  0.00     0.168 C 
HETATM   18  O3  UNL     1     -20.528 -38.219  20.244  1.00  0.00    -0.391 OA
HETATM   19  C16 UNL     1     -21.727 -38.884  20.157  1.00  0.00     0.168 C 
HETATM   20  C17 UNL     1     -21.704 -40.273  20.723  1.00  0.00     0.039 C 
ENDROOT
TORSDOF 0
ENDMDL
MODEL 3
REMARK VINA RESULT: -7.493268834      1.361      3.670
REMARK  0 active torsions:
REMARK  status: ('A' for Active; 'I' for Inactive)
ROOT
HETATM    1  O1  UNL     1     -21.679 -38.388  20.888  1.00  0.00    -0.262 OA
HETATM    2  C1  UNL     1     -21.513 -39.272  21.748  1.00  0.00     0.296 A 
HETATM    3  O2  UNL     1     -22.072 -39.636  23.061  1.00  0.00    -0.296 OA
HETATM    4  C2  UNL     1     -21.047 -40.393  22.447  1.00  0.00     0.166 A 
HETATM    5  C3  UNL     1     -19.657 -40.371  23.046  1.00  0.00     0.060 C 
HETATM    6  C4  UNL     1     -19.444 -41.743  23.625  1.00  0.00    -0.032 C 
HETATM    7  C5  UNL     1     -19.294 -41.588  25.125  1.00  0.00     0.010 C 
HETATM    8  C6  UNL     1     -17.947 -42.134  25.492  1.00  0.00     0.006 C 
HETATM    9  C7  UNL     1     -17.542 -43.051  24.369  1.00  0.00    -0.010 C 
HETATM   10  C8  UNL     1     -16.070 -43.055  24.108  1.00  0.00     0.005 C 
HETATM   11  C9  UNL     1     -15.780 -41.793  23.367  1.00  0.00     0.001 C 
HETATM   12  C10 UNL     1     -17.129 -41.232  22.940  1.00  0.00     0.006 C 
HETATM   13  C11 UNL     1     -18.130 -42.327  23.161  1.00  0.00    -0.002 C 
HETATM   14  C12 UNL     1     -20.629 -42.575  23.240  1.00  0.00     0.023 C 
HETATM   15  C13 UNL     1     -21.396 -41.814  22.185  1.00  0.00     0.006 C 
HETATM   16  C14 UNL     1     -20.962 -42.301  20.824  1.00  0.00     0.039 C 
HETATM   17  C15 UNL     1     -21.637 -43.641  20.594  1.00  0.00     0.168 C 
HETATM   18  O3  UNL     1     -22.963 -43.355  20.242  1.00  0.00    -0.391 OA
HETATM   19  C16 UNL     1     -23.470 -42.281  20.932  1.00  0.00     0.168 C 
HETATM   20  C17 UNL     1     -22.885 -42.095  22.301  1.00  0.00     0.039 C 
ENDROOT
TORSDOF 0
ENDMDL
MODEL 4
REMARK VINA RESULT: -7.425217056      1.277      1.870
REMARK  0 active torsions:
REMARK  status: ('A' for Active; 'I' for Inactive)
ROOT
HETATM    1  O1  UNL     1     -20.551 -41.958  19.969  1.00  0.00    -0.262 OA
HETATM    2  C1  UNL     1     -20.321 -41.531  21.115  1.00  0.00     0.296 A 
HETATM    3  O2  UNL     1     -19.320 -40.681  21.782  1.00  0.00    -0.296 OA
HETATM    4  C2  UNL     1     -20.399 -41.262  22.488  1.00  0.00     0.166 A 
HETATM    5  C3  UNL     1     -20.117 -42.371  23.479  1.00  0.00     0.060 C 
HETATM    6  C4  UNL     1     -20.385 -41.779  24.836  1.00  0.00    -0.032 C 
HETATM    7  C5  UNL     1     -19.073 -41.766  25.596  1.00  0.00     0.010 C 
HETATM    8  C6  UNL     1     -19.274 -42.587  26.835  1.00  0.00     0.006 C 
HETATM    9  C7  UNL     1     -20.760 -42.633  27.074  1.00  0.00    -0.010 C 
HETATM   10  C8  UNL     1     -21.225 -43.923  27.670  1.00  0.00     0.005 C 
HETATM   11  C9  UNL     1     -21.234 -44.912  26.553  1.00  0.00     0.001 C 
HETATM   12  C10 UNL     1     -21.074 -44.108  25.272  1.00  0.00     0.006 C 
HETATM   13  C11 UNL     1     -21.295 -42.672  25.646  1.00  0.00    -0.002 C 
HETATM   14  C12 UNL     1     -20.944 -40.407  24.617  1.00  0.00     0.023 C 
HETATM   15  C13 UNL     1     -21.302 -40.288  23.155  1.00  0.00     0.006 C 
HETATM   16  C14 UNL     1     -22.766 -40.611  22.987  1.00  0.00     0.039 C 
HETATM   17  C15 UNL     1     -23.547 -39.395  23.453  1.00  0.00     0.168 C 
HETATM   18  O3  UNL     1     -23.472 -38.460  22.411  1.00  0.00    -0.391 OA
HETATM   19  C16 UNL     1     -22.250 -38.468  21.784  1.00  0.00     0.168 C 
HETATM   20  C17 UNL     1     -21.105 -38.862  22.670  1.00  0.00     0.039 C 
ENDROOT
TORSDOF 0
ENDMDL
MODEL 5
REMARK VINA RESULT: -7.329692464     11.210     13.078
REMARK  0 active torsions:
REMARK  status: ('A' for Active; 'I' for Inactive)
ROOT
HETATM    1  O1  UNL     1      -8.708 -46.550  30.290  1.00  0.00    -0.262 OA
HETATM    2  C1  UNL     1      -9.075 -45.433  30.695  1.00  0.00     0.296 A 
HETATM    3  O2  UNL     1      -8.485 -44.277  31.392  1.00  0.00    -0.296 OA
HETATM    4  C2  UNL     1      -9.842 -44.298  30.992  1.00  0.00     0.166 A 
HETATM    5  C3  UNL     1     -10.920 -44.386  32.052  1.00  0.00     0.060 C 
HETATM    6  C4  UNL     1     -11.604 -43.046  32.045  1.00  0.00    -0.032 C 
HETATM    7  C5  UNL     1     -11.359 -42.401  33.394  1.00  0.00     0.010 C 
HETATM    8  C6  UNL     1     -12.702 -42.151  34.013  1.00  0.00     0.006 C 
HETATM    9  C7  UNL     1     -13.694 -42.146  32.882  1.00  0.00    -0.010 C 
HETATM   10  C8  UNL     1     -15.030 -42.700  33.261  1.00  0.00     0.005 C 
HETATM   11  C9  UNL     1     -14.866 -44.182  33.292  1.00  0.00     0.001 C 
HETATM   12  C10 UNL     1     -13.527 -44.476  32.631  1.00  0.00     0.006 C 
HETATM   13  C11 UNL     1     -13.104 -43.205  31.956  1.00  0.00    -0.002 C 
HETATM   14  C12 UNL     1     -11.025 -42.259  30.909  1.00  0.00     0.023 C 
HETATM   15  C13 UNL     1     -10.230 -43.214  30.052  1.00  0.00     0.006 C 
HETATM   16  C14 UNL     1     -11.103 -43.686  28.915  1.00  0.00     0.039 C 
HETATM   17  C15 UNL     1     -11.164 -42.557  27.902  1.00  0.00     0.168 C 
HETATM   18  O3  UNL     1      -9.954 -42.598  27.196  1.00  0.00    -0.391 OA
HETATM   19  C16 UNL     1      -8.890 -42.934  27.998  1.00  0.00     0.168 C 
HETATM   20  C17 UNL     1      -9.037 -42.508  29.429  1.00  0.00     0.039 C 
ENDROOT
TORSDOF 0
ENDMDL
