MODEL 1
REMARK VINA RESULT: -6.914858194      0.000      0.000
REMARK  0 active torsions:
REMARK  status: ('A' for Active; 'I' for Inactive)
ROOT
HETATM    1  C1  UNL     1     -25.155 -39.497  22.860  1.00  0.00     0.148 C 
HETATM    2  N1  UNL     1     -23.755 -39.444  23.092  1.00  0.00    -0.398 N 
HETATM    3  C2  UNL     1     -23.049 -38.383  22.530  1.00  0.00     0.057 C 
HETATM    4  C3  UNL     1     -22.172 -38.660  21.368  1.00  0.00     0.044 C 
HETATM    5  C4  UNL     1     -20.731 -38.625  21.841  1.00  0.00     0.005 C 
HETATM    6  C5  UNL     1     -19.791 -39.367  20.974  1.00  0.00     0.001 C 
HETATM    7  C6  UNL     1     -19.445 -40.749  21.394  1.00  0.00     0.007 C 
HETATM    8  C7  UNL     1     -19.312 -40.954  22.869  1.00  0.00     0.081 C 
HETATM    9  C8  UNL     1     -20.429 -41.775  23.350  1.00  0.00     0.154 C 
HETATM   10  O1  UNL     1     -20.737 -42.686  22.570  1.00  0.00    -0.295 OA
HETATM   11  C9  UNL     1     -21.187 -41.649  24.593  1.00  0.00     0.090 C 
HETATM   12  C10 UNL     1     -20.339 -40.877  25.624  1.00  0.00     0.039 C 
HETATM   13  C11 UNL     1     -19.210 -41.695  26.146  1.00  0.00     0.003 C 
HETATM   14  C12 UNL     1     -19.559 -42.259  27.531  1.00  0.00     0.002 C 
HETATM   15  C13 UNL     1     -20.392 -43.482  27.296  1.00  0.00     0.019 C 
HETATM   16  C14 UNL     1     -21.646 -43.076  26.507  1.00  0.00     0.117 C 
HETATM   17  N2  UNL     1     -21.367 -42.981  25.120  1.00  0.00    -0.402 N 
HETATM   18  C15 UNL     1     -22.124 -43.884  24.352  1.00  0.00     0.144 C 
HETATM   19  C16 UNL     1     -22.496 -40.943  24.528  1.00  0.00     0.058 C 
HETATM   20  C17 UNL     1     -23.093 -40.718  23.181  1.00  0.00     0.124 C 
ENDROOT
TORSDOF 0
ENDMDL
MODEL 2
REMARK VINA RESULT: -6.895318883      2.466      4.392
REMARK  0 active torsions:
REMARK  status: ('A' for Active; 'I' for Inactive)
ROOT
HETATM    1  C1  UNL     1     -23.950 -44.022  22.298  1.00  0.00     0.148 C 
HETATM    2  N1  UNL     1     -23.295 -43.647  23.500  1.00  0.00    -0.398 N 
HETATM    3  C2  UNL     1     -24.017 -43.750  24.687  1.00  0.00     0.057 C 
HETATM    4  C3  UNL     1     -24.485 -42.504  25.336  1.00  0.00     0.044 C 
HETATM    5  C4  UNL     1     -23.615 -42.246  26.553  1.00  0.00     0.005 C 
HETATM    6  C5  UNL     1     -23.596 -40.836  26.995  1.00  0.00     0.001 C 
HETATM    7  C6  UNL     1     -22.450 -40.009  26.536  1.00  0.00     0.007 C 
HETATM    8  C7  UNL     1     -21.136 -40.718  26.471  1.00  0.00     0.081 C 
HETATM    9  C8  UNL     1     -20.743 -40.891  25.068  1.00  0.00     0.154 C 
HETATM   10  O1  UNL     1     -21.015 -39.911  24.361  1.00  0.00    -0.295 OA
HETATM   11  C9  UNL     1     -20.094 -42.037  24.435  1.00  0.00     0.090 C 
HETATM   12  C10 UNL     1     -19.363 -42.860  25.514  1.00  0.00     0.039 C 
HETATM   13  C11 UNL     1     -18.141 -42.172  26.013  1.00  0.00     0.003 C 
HETATM   14  C12 UNL     1     -16.889 -42.771  25.354  1.00  0.00     0.002 C 
HETATM   15  C13 UNL     1     -16.761 -42.118  24.011  1.00  0.00     0.019 C 
HETATM   16  C14 UNL     1     -18.033 -42.411  23.201  1.00  0.00     0.117 C 
HETATM   17  N2  UNL     1     -19.077 -41.518  23.552  1.00  0.00    -0.402 N 
HETATM   18  C15 UNL     1     -19.502 -40.729  22.468  1.00  0.00     0.144 C 
HETATM   19  C16 UNL     1     -20.964 -42.999  23.705  1.00  0.00     0.058 C 
HETATM   20  C17 UNL     1     -22.353 -42.565  23.381  1.00  0.00     0.124 C 
ENDROOT
TORSDOF 0
ENDMDL
MODEL 3
REMARK VINA RESULT: -6.696994256      1.639      5.190
REMARK  0 active torsions:
REMARK  status: ('A' for Active; 'I' for Inactive)
ROOT
HETATM    1  C1  UNL     1     -24.623 -44.423  23.670  1.00  0.00     0.148 C 
HETATM    2  N1  UNL     1     -23.285 -43.966  23.795  1.00  0.00    -0.398 N 
HETATM    3  C2  UNL     1     -22.403 -44.750  24.535  1.00  0.00     0.057 C 
HETATM    4  C3  UNL     1     -21.989 -44.269  25.874  1.00  0.00     0.044 C 
HETATM    5  C4  UNL     1     -20.561 -43.763  25.776  1.00  0.00     0.005 C 
HETATM    6  C5  UNL     1     -20.185 -42.803  26.836  1.00  0.00     0.001 C 
HETATM    7  C6  UNL     1     -20.265 -41.361  26.490  1.00  0.00     0.007 C 
HETATM    8  C7  UNL     1     -19.865 -41.018  25.091  1.00  0.00     0.081 C 
HETATM    9  C8  UNL     1     -21.051 -40.606  24.331  1.00  0.00     0.154 C 
HETATM   10  O1  UNL     1     -21.840 -39.920  24.993  1.00  0.00    -0.295 OA
HETATM   11  C9  UNL     1     -21.393 -40.899  22.941  1.00  0.00     0.090 C 
HETATM   12  C10 UNL     1     -20.105 -41.250  22.169  1.00  0.00     0.039 C 
HETATM   13  C11 UNL     1     -19.252 -40.053  21.930  1.00  0.00     0.003 C 
HETATM   14  C12 UNL     1     -19.437 -39.549  20.491  1.00  0.00     0.002 C 
HETATM   15  C13 UNL     1     -20.682 -38.714  20.488  1.00  0.00     0.019 C 
HETATM   16  C14 UNL     1     -21.858 -39.589  20.947  1.00  0.00     0.117 C 
HETATM   17  N2  UNL     1     -21.904 -39.681  22.361  1.00  0.00    -0.402 N 
HETATM   18  C15 UNL     1     -23.094 -39.157  22.899  1.00  0.00     0.144 C 
HETATM   19  C16 UNL     1     -22.338 -42.022  22.690  1.00  0.00     0.058 C 
HETATM   20  C17 UNL     1     -23.120 -42.537  23.851  1.00  0.00     0.124 C 
ENDROOT
TORSDOF 0
ENDMDL
MODEL 4
REMARK VINA RESULT: -6.672707194      1.714      5.717
REMARK  0 active torsions:
REMARK  status: ('A' for Active; 'I' for Inactive)
ROOT
HETATM    1  C1  UNL     1     -16.933 -42.751  24.784  1.00  0.00     0.148 C 
HETATM    2  N1  UNL     1     -18.171 -42.071  24.921  1.00  0.00    -0.398 N 
HETATM    3  C2  UNL     1     -18.681 -41.915  26.207  1.00  0.00     0.057 C 
HETATM    4  C3  UNL     1     -19.849 -42.735  26.605  1.00  0.00     0.044 C 
HETATM    5  C4  UNL     1     -21.075 -41.841  26.624  1.00  0.00     0.005 C 
HETATM    6  C5  UNL     1     -22.356 -42.567  26.488  1.00  0.00     0.001 C 
HETATM    7  C6  UNL     1     -22.948 -42.624  25.127  1.00  0.00     0.007 C 
HETATM    8  C7  UNL     1     -22.778 -41.387  24.304  1.00  0.00     0.081 C 
HETATM    9  C8  UNL     1     -21.840 -41.656  23.208  1.00  0.00     0.154 C 
HETATM   10  O1  UNL     1     -21.980 -42.781  22.711  1.00  0.00    -0.295 OA
HETATM   11  C9  UNL     1     -20.804 -40.785  22.657  1.00  0.00     0.090 C 
HETATM   12  C10 UNL     1     -21.147 -39.320  22.995  1.00  0.00     0.039 C 
HETATM   13  C11 UNL     1     -22.297 -38.814  22.195  1.00  0.00     0.003 C 
HETATM   14  C12 UNL     1     -21.793 -37.953  21.028  1.00  0.00     0.002 C 
HETATM   15  C13 UNL     1     -21.397 -38.901  19.937  1.00  0.00     0.019 C 
HETATM   16  C14 UNL     1     -20.304 -39.835  20.475  1.00  0.00     0.117 C 
HETATM   17  N2  UNL     1     -20.866 -40.903  21.220  1.00  0.00    -0.402 N 
HETATM   18  C15 UNL     1     -20.582 -42.162  20.661  1.00  0.00     0.144 C 
HETATM   19  C16 UNL     1     -19.408 -40.997  23.129  1.00  0.00     0.058 C 
HETATM   20  C17 UNL     1     -19.109 -42.269  23.847  1.00  0.00     0.124 C 
ENDROOT
TORSDOF 0
ENDMDL
MODEL 5
REMARK VINA RESULT: -6.661679362      2.064      5.787
REMARK  0 active torsions:
REMARK  status: ('A' for Active; 'I' for Inactive)
ROOT
HETATM    1  C1  UNL     1     -15.914 -43.080  23.512  1.00  0.00     0.148 C 
HETATM    2  N1  UNL     1     -17.011 -42.378  24.075  1.00  0.00    -0.398 N 
HETATM    3  C2  UNL     1     -16.966 -42.100  25.439  1.00  0.00     0.057 C 
HETATM    4  C3  UNL     1     -17.853 -42.868  26.343  1.00  0.00     0.044 C 
HETATM    5  C4  UNL     1     -18.992 -41.963  26.775  1.00  0.00     0.005 C 
HETATM    6  C5  UNL     1     -20.199 -42.684  27.229  1.00  0.00     0.001 C 
HETATM    7  C6  UNL     1     -21.287 -42.858  26.233  1.00  0.00     0.007 C 
HETATM    8  C7  UNL     1     -21.494 -41.704  25.305  1.00  0.00     0.081 C 
HETATM    9  C8  UNL     1     -21.069 -42.081  23.953  1.00  0.00     0.154 C 
HETATM   10  O1  UNL     1     -21.366 -43.245  23.655  1.00  0.00    -0.295 OA
HETATM   11  C9  UNL     1     -20.365 -41.274  22.958  1.00  0.00     0.090 C 
HETATM   12  C10 UNL     1     -20.582 -39.782  23.275  1.00  0.00     0.039 C 
HETATM   13  C11 UNL     1     -21.969 -39.339  22.965  1.00  0.00     0.003 C 
HETATM   14  C12 UNL     1     -22.000 -38.592  21.623  1.00  0.00     0.002 C 
HETATM   15  C13 UNL     1     -22.050 -39.640  20.553  1.00  0.00     0.019 C 
HETATM   16  C14 UNL     1     -20.808 -40.533  20.685  1.00  0.00     0.117 C 
HETATM   17  N2  UNL     1     -20.996 -41.523  21.684  1.00  0.00    -0.402 N 
HETATM   18  C15 UNL     1     -20.925 -42.830  21.170  1.00  0.00     0.144 C 
HETATM   19  C16 UNL     1     -18.892 -41.458  22.845  1.00  0.00     0.058 C 
HETATM   20  C17 UNL     1     -18.296 -42.662  23.491  1.00  0.00     0.124 C 
ENDROOT
TORSDOF 0
ENDMDL
