MODEL 1
REMARK VINA RESULT: -7.634408859      0.000      0.000
REMARK  0 active torsions:
REMARK  status: ('A' for Active; 'I' for Inactive)
ROOT
HETATM    1  C1  UNL     1      -8.550 -42.982  33.986  1.00  0.00     0.002 C 
HETATM    2  C2  UNL     1      -9.895 -42.713  33.412  1.00  0.00     0.001 C 
HETATM    3  C3  UNL     1     -10.533 -43.775  32.608  1.00  0.00     0.008 C 
HETATM    4  C4  UNL     1     -10.091 -43.973  31.214  1.00  0.00     0.026 C 
HETATM    5  C5  UNL     1      -9.325 -42.781  30.638  1.00  0.00     0.164 C 
HETATM    6  O1  UNL     1      -7.991 -42.829  30.821  1.00  0.00    -0.377 OA
HETATM    7  C6  UNL     1      -7.460 -43.627  31.792  1.00  0.00     0.127 C 
HETATM    8  C7  UNL     1      -7.398 -42.836  33.071  1.00  0.00     0.032 C 
HETATM    9  C8  UNL     1      -8.053 -44.937  32.011  1.00  0.00     0.023 C 
HETATM   10  C9  UNL     1      -7.249 -46.159  31.709  1.00  0.00     0.008 C 
HETATM   11  C10 UNL     1      -8.349 -47.210  31.717  1.00  0.00     0.001 C 
HETATM   12  C11 UNL     1      -9.655 -46.474  31.380  1.00  0.00     0.010 C 
HETATM   13  C12 UNL     1      -9.179 -45.139  30.984  1.00  0.00    -0.028 C 
HETATM   14  C13 UNL     1      -8.653 -45.145  29.584  1.00  0.00     0.013 C 
HETATM   15  C14 UNL     1      -9.441 -44.266  28.642  1.00  0.00     0.045 C 
HETATM   16  C15 UNL     1      -9.565 -42.860  29.116  1.00  0.00     0.124 C 
HETATM   17  C16 UNL     1     -11.011 -42.382  28.919  1.00  0.00     0.073 C 
HETATM   18  C17 UNL     1     -10.837 -41.413  27.775  1.00  0.00     0.213 C 
HETATM   19  O2  UNL     1      -9.513 -41.490  27.429  1.00  0.00    -0.240 OA
HETATM   20  O3  UNL     1      -8.831 -41.937  28.431  1.00  0.00    -0.227 OA
ENDROOT
TORSDOF 0
ENDMDL
MODEL 2
REMARK VINA RESULT: -7.143389715     11.850     14.293
REMARK  0 active torsions:
REMARK  status: ('A' for Active; 'I' for Inactive)
ROOT
HETATM    1  C1  UNL     1     -21.618 -45.521  25.825  1.00  0.00     0.002 C 
HETATM    2  C2  UNL     1     -22.659 -44.818  25.029  1.00  0.00     0.001 C 
HETATM    3  C3  UNL     1     -22.302 -43.529  24.403  1.00  0.00     0.008 C 
HETATM    4  C4  UNL     1     -22.270 -42.316  25.242  1.00  0.00     0.026 C 
HETATM    5  C5  UNL     1     -23.020 -42.465  26.566  1.00  0.00     0.164 C 
HETATM    6  O1  UNL     1     -22.268 -42.910  27.591  1.00  0.00    -0.377 OA
HETATM    7  C6  UNL     1     -21.095 -43.564  27.347  1.00  0.00     0.127 C 
HETATM    8  C7  UNL     1     -21.395 -45.032  27.203  1.00  0.00     0.032 C 
HETATM    9  C8  UNL     1     -20.251 -43.090  26.262  1.00  0.00     0.023 C 
HETATM   10  C9  UNL     1     -18.914 -42.507  26.582  1.00  0.00     0.008 C 
HETATM   11  C10 UNL     1     -18.592 -41.836  25.256  1.00  0.00     0.001 C 
HETATM   12  C11 UNL     1     -19.939 -41.542  24.579  1.00  0.00     0.010 C 
HETATM   13  C12 UNL     1     -20.907 -41.844  25.645  1.00  0.00    -0.028 C 
HETATM   14  C13 UNL     1     -20.994 -40.722  26.631  1.00  0.00     0.013 C 
HETATM   15  C14 UNL     1     -22.354 -40.068  26.679  1.00  0.00     0.045 C 
HETATM   16  C15 UNL     1     -23.461 -41.032  26.930  1.00  0.00     0.124 C 
HETATM   17  C16 UNL     1     -24.629 -40.725  25.982  1.00  0.00     0.073 C 
HETATM   18  C17 UNL     1     -25.634 -40.147  26.949  1.00  0.00     0.213 C 
HETATM   19  O2  UNL     1     -24.997 -40.110  28.161  1.00  0.00    -0.240 OA
HETATM   20  O3  UNL     1     -24.032 -40.969  28.167  1.00  0.00    -0.227 OA
ENDROOT
TORSDOF 0
ENDMDL
MODEL 3
REMARK VINA RESULT: -7.118483711     11.621     15.004
REMARK  0 active torsions:
REMARK  status: ('A' for Active; 'I' for Inactive)
ROOT
HETATM    1  C1  UNL     1     -21.271 -38.546  21.443  1.00  0.00     0.002 C 
HETATM    2  C2  UNL     1     -19.937 -38.902  21.996  1.00  0.00     0.001 C 
HETATM    3  C3  UNL     1     -19.479 -40.299  21.859  1.00  0.00     0.008 C 
HETATM    4  C4  UNL     1     -20.019 -41.317  22.781  1.00  0.00     0.026 C 
HETATM    5  C5  UNL     1     -20.665 -40.728  24.035  1.00  0.00     0.164 C 
HETATM    6  O1  UNL     1     -21.983 -40.471  23.920  1.00  0.00    -0.377 OA
HETATM    7  C6  UNL     1     -22.552 -40.343  22.687  1.00  0.00     0.127 C 
HETATM    8  C7  UNL     1     -22.446 -38.902  22.267  1.00  0.00     0.032 C 
HETATM    9  C8  UNL     1     -22.110 -41.235  21.626  1.00  0.00     0.023 C 
HETATM   10  C9  UNL     1     -23.072 -42.231  21.067  1.00  0.00     0.008 C 
HETATM   11  C10 UNL     1     -22.109 -43.138  20.316  1.00  0.00     0.001 C 
HETATM   12  C11 UNL     1     -20.744 -42.988  21.006  1.00  0.00     0.010 C 
HETATM   13  C12 UNL     1     -21.076 -42.211  22.210  1.00  0.00    -0.028 C 
HETATM   14  C13 UNL     1     -21.676 -43.082  23.268  1.00  0.00     0.013 C 
HETATM   15  C14 UNL     1     -20.841 -43.164  24.523  1.00  0.00     0.045 C 
HETATM   16  C15 UNL     1     -20.521 -41.831  25.104  1.00  0.00     0.124 C 
HETATM   17  C16 UNL     1     -19.041 -41.795  25.512  1.00  0.00     0.073 C 
HETATM   18  C17 UNL     1     -19.161 -41.824  27.017  1.00  0.00     0.213 C 
HETATM   19  O2  UNL     1     -20.500 -41.943  27.276  1.00  0.00    -0.240 OA
HETATM   20  O3  UNL     1     -21.175 -41.516  26.259  1.00  0.00    -0.227 OA
ENDROOT
TORSDOF 0
ENDMDL
MODEL 4
REMARK VINA RESULT: -7.104003294     11.438     14.245
REMARK  0 active torsions:
REMARK  status: ('A' for Active; 'I' for Inactive)
ROOT
HETATM    1  C1  UNL     1     -20.144 -39.697  22.535  1.00  0.00     0.002 C 
HETATM    2  C2  UNL     1     -21.401 -39.675  23.329  1.00  0.00     0.001 C 
HETATM    3  C3  UNL     1     -21.374 -40.251  24.689  1.00  0.00     0.008 C 
HETATM    4  C4  UNL     1     -21.425 -41.717  24.841  1.00  0.00     0.026 C 
HETATM    5  C5  UNL     1     -21.924 -42.447  23.593  1.00  0.00     0.164 C 
HETATM    6  O1  UNL     1     -20.956 -42.804  22.727  1.00  0.00    -0.377 OA
HETATM    7  C6  UNL     1     -19.740 -42.188  22.764  1.00  0.00     0.127 C 
HETATM    8  C7  UNL     1     -19.799 -40.975  21.875  1.00  0.00     0.032 C 
HETATM    9  C8  UNL     1     -19.169 -41.862  24.062  1.00  0.00     0.023 C 
HETATM   10  C9  UNL     1     -17.920 -42.554  24.500  1.00  0.00     0.008 C 
HETATM   11  C10 UNL     1     -17.928 -42.203  25.980  1.00  0.00     0.001 C 
HETATM   12  C11 UNL     1     -19.394 -41.941  26.357  1.00  0.00     0.010 C 
HETATM   13  C12 UNL     1     -20.118 -42.380  25.154  1.00  0.00    -0.028 C 
HETATM   14  C13 UNL     1     -20.245 -43.870  25.113  1.00  0.00     0.013 C 
HETATM   15  C14 UNL     1     -21.675 -44.353  25.176  1.00  0.00     0.045 C 
HETATM   16  C15 UNL     1     -22.545 -43.754  24.127  1.00  0.00     0.124 C 
HETATM   17  C16 UNL     1     -23.881 -43.330  24.754  1.00  0.00     0.073 C 
HETATM   18  C17 UNL     1     -24.810 -44.368  24.172  1.00  0.00     0.213 C 
HETATM   19  O2  UNL     1     -24.010 -45.209  23.445  1.00  0.00    -0.240 OA
HETATM   20  O3  UNL     1     -22.920 -44.594  23.120  1.00  0.00    -0.227 OA
ENDROOT
TORSDOF 0
ENDMDL
MODEL 5
REMARK VINA RESULT: -7.080595535     10.618     14.277
REMARK  0 active torsions:
REMARK  status: ('A' for Active; 'I' for Inactive)
ROOT
HETATM    1  C1  UNL     1     -22.817 -42.520  22.686  1.00  0.00     0.002 C 
HETATM    2  C2  UNL     1     -22.154 -42.295  23.998  1.00  0.00     0.001 C 
HETATM    3  C3  UNL     1     -21.389 -41.045  24.186  1.00  0.00     0.008 C 
HETATM    4  C4  UNL     1     -20.038 -40.945  23.602  1.00  0.00     0.026 C 
HETATM    5  C5  UNL     1     -19.426 -42.298  23.235  1.00  0.00     0.164 C 
HETATM    6  O1  UNL     1     -19.684 -42.710  21.979  1.00  0.00    -0.377 OA
HETATM    7  C6  UNL     1     -20.733 -42.181  21.286  1.00  0.00     0.127 C 
HETATM    8  C7  UNL     1     -21.957 -43.003  21.584  1.00  0.00     0.032 C 
HETATM    9  C8  UNL     1     -21.007 -40.759  21.424  1.00  0.00     0.023 C 
HETATM   10  C9  UNL     1     -20.831 -39.867  20.240  1.00  0.00     0.008 C 
HETATM   11  C10 UNL     1     -20.850 -38.508  20.925  1.00  0.00     0.001 C 
HETATM   12  C11 UNL     1     -20.394 -38.747  22.373  1.00  0.00     0.010 C 
HETATM   13  C12 UNL     1     -19.936 -40.145  22.340  1.00  0.00    -0.028 C 
HETATM   14  C13 UNL     1     -18.570 -40.252  21.740  1.00  0.00     0.013 C 
HETATM   15  C14 UNL     1     -17.530 -40.772  22.704  1.00  0.00     0.045 C 
HETATM   16  C15 UNL     1     -17.902 -42.074  23.323  1.00  0.00     0.124 C 
HETATM   17  C16 UNL     1     -17.595 -42.029  24.827  1.00  0.00     0.073 C 
HETATM   18  C17 UNL     1     -16.400 -42.947  24.901  1.00  0.00     0.213 C 
HETATM   19  O2  UNL     1     -16.131 -43.305  23.606  1.00  0.00    -0.240 OA
HETATM   20  O3  UNL     1     -17.197 -43.158  22.889  1.00  0.00    -0.227 OA
ENDROOT
TORSDOF 0
ENDMDL
