MODEL 1
REMARK VINA RESULT: -13.315369914      0.000      0.000
REMARK  5 active torsions:
REMARK  status: ('A' for Active; 'I' for Inactive)
REMARK    1  A    between atoms: C2_2  and  N1_4 
REMARK    2  A    between atoms: N1_4  and  C4_6 
REMARK    3  A    between atoms: N7_22  and  C10_23 
REMARK    4  A    between atoms: N8_26  and  C13_27 
REMARK    5  A    between atoms: N9_30  and  C16_31 
ROOT
HETATM    1  C4  UNL     1     -18.940 -42.363  24.369  1.00  0.00     0.132 A 
HETATM    2  N2  UNL     1     -18.036 -42.415  23.341  1.00  0.00    -0.337 N 
ATOM      3  H2  UNL     1     -18.357 -42.232  22.391  1.00  0.00     0.168 HD
HETATM    4  C5  UNL     1     -16.745 -42.698  23.546  1.00  0.00     0.182 A 
HETATM    5  N3  UNL     1     -16.235 -42.953  24.769  1.00  0.00    -0.348 N 
ATOM      6  H3  UNL     1     -15.245 -43.167  24.889  1.00  0.00     0.167 HD
HETATM    7  C6  UNL     1     -17.053 -42.919  25.806  1.00  0.00     0.095 A 
HETATM    8  C7  UNL     1     -18.411 -42.623  25.609  1.00  0.00     0.106 A 
HETATM    9  N4  UNL     1     -19.218 -42.596  26.676  1.00  0.00    -0.359 N 
ATOM     10  H4  UNL     1     -20.208 -42.384  26.554  1.00  0.00     0.165 HD
HETATM   11  C8  UNL     1     -18.742 -42.845  27.902  1.00  0.00     0.122 A 
HETATM   12  C9  UNL     1     -17.409 -43.141  28.128  1.00  0.00     0.095 A 
HETATM   13  N5  UNL     1     -16.673 -43.424  29.206  1.00  0.00    -0.283 N 
ATOM     14  H5  UNL     1     -17.015 -43.477  30.166  1.00  0.00     0.188 HD
HETATM   15  N6  UNL     1     -15.440 -43.622  28.822  1.00  0.00    -0.239 N 
ATOM     16  H6  UNL     1     -14.671 -43.856  29.450  1.00  0.00     0.208 HD
HETATM   17  N7  UNL     1     -15.317 -43.478  27.492  1.00  0.00    -0.269 N 
HETATM   18  C29 UNL     1     -16.547 -43.177  27.052  1.00  0.00     0.111 A 
ENDROOT
BRANCH  17  19
HETATM   19  C10 UNL     1     -14.087 -43.633  26.789  1.00  0.00     0.113 C 
HETATM   20  C11 UNL     1     -12.969 -43.209  27.767  1.00  0.00     0.057 C 
HETATM   21  C12 UNL     1     -11.720 -43.954  27.363  1.00  0.00     0.275 C 
HETATM   22  N8  UNL     1     -11.776 -45.310  27.853  1.00  0.00     0.093 N 
HETATM   23  C27 UNL     1     -13.154 -45.766  27.758  1.00  0.00     0.275 C 
HETATM   24  C28 UNL     1     -13.844 -45.109  26.552  1.00  0.00     0.057 C 
BRANCH  22  25
HETATM   25  C13 UNL     1     -11.267 -45.451  29.203  1.00  0.00     0.226 C 
HETATM   26  C14 UNL     1     -10.538 -44.162  29.527  1.00  0.00     0.055 C 
HETATM   27  C15 UNL     1      -9.992 -44.133  30.926  1.00  0.00     0.125 C 
HETATM   28  N9  UNL     1     -11.126 -44.307  31.824  1.00  0.00    -0.380 N 
HETATM   29  C25 UNL     1     -11.883 -45.540  31.612  1.00  0.00     0.125 C 
HETATM   30  C26 UNL     1     -12.356 -45.692  30.190  1.00  0.00     0.055 C 
BRANCH  28  31
HETATM   31  C16 UNL     1     -11.495 -43.381  32.829  1.00  0.00     0.044 A 
HETATM   32  C17 UNL     1     -10.493 -42.817  33.615  1.00  0.00     0.047 A 
HETATM   33  C18 UNL     1     -10.787 -41.925  34.617  1.00  0.00     0.090 A 
HETATM   34  N10 UNL     1     -12.048 -41.557  34.882  1.00  0.00    -0.365 N 
HETATM   35  C19 UNL     1     -13.036 -42.086  34.138  1.00  0.00     0.044 A 
ATOM     36  H10 UNL     1     -12.254 -40.893  35.629  1.00  0.00     0.165 HD
HETATM   37  C20 UNL     1     -14.340 -41.697  34.415  1.00  0.00     0.030 A 
HETATM   38  C24 UNL     1     -12.784 -42.993  33.113  1.00  0.00     0.017 A 
HETATM   39  C21 UNL     1     -15.370 -42.218  33.669  1.00  0.00     0.002 A 
HETATM   40  C22 UNL     1     -15.108 -43.113  32.658  1.00  0.00     0.001 A 
HETATM   41  C23 UNL     1     -13.813 -43.514  32.365  1.00  0.00     0.016 A 
ENDBRANCH  28  31
ENDBRANCH  22  25
ENDBRANCH  17  19
BRANCH   1  42
HETATM   42  N1  UNL     1     -20.128 -42.089  24.077  1.00  0.00    -0.370 N 
ATOM     43  H1  UNL     1     -20.679 -42.923  23.877  1.00  0.00     0.161 HD
BRANCH  42  44
HETATM   44  C2  UNL     1     -20.882 -40.913  23.957  1.00  0.00     0.075 C 
HETATM   45  C1  UNL     1     -21.212 -40.680  22.489  1.00  0.00     0.031 C 
HETATM   46  C3  UNL     1     -22.221 -41.019  24.704  1.00  0.00     0.031 C 
ENDBRANCH  42  44
ENDBRANCH   1  42
TORSDOF 5
ENDMDL
MODEL 2
REMARK VINA RESULT: -13.131083848      1.358      1.968
REMARK  5 active torsions:
REMARK  status: ('A' for Active; 'I' for Inactive)
REMARK    1  A    between atoms: C2_2  and  N1_4 
REMARK    2  A    between atoms: N1_4  and  C4_6 
REMARK    3  A    between atoms: N7_22  and  C10_23 
REMARK    4  A    between atoms: N8_26  and  C13_27 
REMARK    5  A    between atoms: N9_30  and  C16_31 
ROOT
HETATM    1  C4  UNL     1     -18.992 -42.328  24.359  1.00  0.00     0.132 A 
HETATM    2  N2  UNL     1     -18.071 -42.339  23.345  1.00  0.00    -0.337 N 
ATOM      3  H2  UNL     1     -18.382 -42.148  22.393  1.00  0.00     0.168 HD
HETATM    4  C5  UNL     1     -16.777 -42.593  23.566  1.00  0.00     0.182 A 
HETATM    5  N3  UNL     1     -16.279 -42.856  24.792  1.00  0.00    -0.348 N 
ATOM      6  H3  UNL     1     -15.286 -43.046  24.924  1.00  0.00     0.167 HD
HETATM    7  C6  UNL     1     -17.114 -42.861  25.817  1.00  0.00     0.095 A 
HETATM    8  C7  UNL     1     -18.476 -42.596  25.603  1.00  0.00     0.106 A 
HETATM    9  N4  UNL     1     -19.299 -42.609  26.657  1.00  0.00    -0.359 N 
ATOM     10  H4  UNL     1     -20.293 -42.419  26.523  1.00  0.00     0.165 HD
HETATM   11  C8  UNL     1     -18.836 -42.867  27.886  1.00  0.00     0.122 A 
HETATM   12  C9  UNL     1     -17.500 -43.132  28.128  1.00  0.00     0.095 A 
HETATM   13  N5  UNL     1     -16.773 -43.416  29.213  1.00  0.00    -0.283 N 
ATOM     14  H5  UNL     1     -17.129 -43.494  30.166  1.00  0.00     0.188 HD
HETATM   15  N6  UNL     1     -15.530 -43.575  28.845  1.00  0.00    -0.239 N 
ATOM     16  H6  UNL     1     -14.765 -43.800  29.481  1.00  0.00     0.208 HD
HETATM   17  N7  UNL     1     -15.391 -43.405  27.519  1.00  0.00    -0.269 N 
HETATM   18  C29 UNL     1     -16.620 -43.127  27.065  1.00  0.00     0.111 A 
ENDROOT
BRANCH  17  19
HETATM   19  C10 UNL     1     -14.146 -43.516  26.834  1.00  0.00     0.113 C 
HETATM   20  C11 UNL     1     -13.043 -43.384  27.907  1.00  0.00     0.057 C 
HETATM   21  C12 UNL     1     -11.835 -44.132  27.396  1.00  0.00     0.275 C 
HETATM   22  N8  UNL     1     -12.010 -45.549  27.604  1.00  0.00     0.093 N 
HETATM   23  C27 UNL     1     -13.413 -45.866  27.382  1.00  0.00     0.275 C 
HETATM   24  C28 UNL     1     -14.002 -44.931  26.313  1.00  0.00     0.057 C 
BRANCH  22  25
HETATM   25  C13 UNL     1     -11.571 -45.994  28.912  1.00  0.00     0.226 C 
HETATM   26  C14 UNL     1     -10.067 -45.813  28.947  1.00  0.00     0.055 C 
HETATM   27  C15 UNL     1      -9.462 -46.186  30.270  1.00  0.00     0.125 C 
HETATM   28  N9  UNL     1     -10.092 -45.339  31.274  1.00  0.00    -0.380 N 
HETATM   29  C25 UNL     1     -11.547 -45.460  31.341  1.00  0.00     0.125 C 
HETATM   30  C26 UNL     1     -12.211 -45.219  30.011  1.00  0.00     0.055 C 
BRANCH  28  31
HETATM   31  C16 UNL     1      -9.386 -44.460  32.130  1.00  0.00     0.044 A 
HETATM   32  C17 UNL     1      -7.996 -44.522  32.150  1.00  0.00     0.047 A 
HETATM   33  C18 UNL     1      -7.254 -43.707  32.969  1.00  0.00     0.090 A 
HETATM   34  N10 UNL     1      -7.835 -42.817  33.786  1.00  0.00    -0.365 N 
HETATM   35  C19 UNL     1      -9.178 -42.735  33.788  1.00  0.00     0.044 A 
ATOM     36  H10 UNL     1      -7.273 -42.216  34.390  1.00  0.00     0.165 HD
HETATM   37  C20 UNL     1      -9.772 -41.807  34.633  1.00  0.00     0.030 A 
HETATM   38  C24 UNL     1      -9.968 -43.541  32.973  1.00  0.00     0.017 A 
HETATM   39  C21 UNL     1     -11.142 -41.698  34.654  1.00  0.00     0.002 A 
HETATM   40  C22 UNL     1     -11.912 -42.500  33.844  1.00  0.00     0.001 A 
HETATM   41  C23 UNL     1     -11.338 -43.432  32.993  1.00  0.00     0.016 A 
ENDBRANCH  28  31
ENDBRANCH  22  25
ENDBRANCH  17  19
BRANCH   1  42
HETATM   42  N1  UNL     1     -20.182 -42.079  24.053  1.00  0.00    -0.370 N 
ATOM     43  H1  UNL     1     -20.703 -42.922  23.810  1.00  0.00     0.161 HD
BRANCH  42  44
HETATM   44  C2  UNL     1     -20.970 -40.923  23.963  1.00  0.00     0.075 C 
HETATM   45  C1  UNL     1     -21.457 -40.764  22.529  1.00  0.00     0.031 C 
HETATM   46  C3  UNL     1     -22.221 -41.018  24.851  1.00  0.00     0.031 C 
ENDBRANCH  42  44
ENDBRANCH   1  42
TORSDOF 5
ENDMDL
MODEL 3
REMARK VINA RESULT: -13.094671381      1.043      2.207
REMARK  5 active torsions:
REMARK  status: ('A' for Active; 'I' for Inactive)
REMARK    1  A    between atoms: C2_2  and  N1_4 
REMARK    2  A    between atoms: N1_4  and  C4_6 
REMARK    3  A    between atoms: N7_22  and  C10_23 
REMARK    4  A    between atoms: N8_26  and  C13_27 
REMARK    5  A    between atoms: N9_30  and  C16_31 
ROOT
HETATM    1  C4  UNL     1     -18.871 -42.212  23.025  1.00  0.00     0.132 A 
HETATM    2  N2  UNL     1     -17.822 -42.260  22.144  1.00  0.00    -0.337 N 
ATOM      3  H2  UNL     1     -18.004 -42.118  21.151  1.00  0.00     0.168 HD
HETATM    4  C5  UNL     1     -16.568 -42.487  22.548  1.00  0.00     0.182 A 
HETATM    5  N3  UNL     1     -16.237 -42.686  23.840  1.00  0.00    -0.348 N 
ATOM      6  H3  UNL     1     -15.269 -42.858  24.113  1.00  0.00     0.167 HD
HETATM    7  C6  UNL     1     -17.201 -42.652  24.744  1.00  0.00     0.095 A 
HETATM    8  C7  UNL     1     -18.524 -42.414  24.338  1.00  0.00     0.106 A 
HETATM    9  N4  UNL     1     -19.481 -42.388  25.272  1.00  0.00    -0.359 N 
ATOM     10  H4  UNL     1     -20.448 -42.217  24.998  1.00  0.00     0.165 HD
HETATM   11  C8  UNL     1     -19.185 -42.582  26.563  1.00  0.00     0.122 A 
HETATM   12  C9  UNL     1     -17.891 -42.819  26.993  1.00  0.00     0.095 A 
HETATM   13  N5  UNL     1     -17.315 -43.042  28.178  1.00  0.00    -0.283 N 
ATOM     14  H5  UNL     1     -17.794 -43.080  29.078  1.00  0.00     0.188 HD
HETATM   15  N6  UNL     1     -16.033 -43.204  27.987  1.00  0.00    -0.239 N 
ATOM     16  H6  UNL     1     -15.358 -43.390  28.730  1.00  0.00     0.208 HD
HETATM   17  N7  UNL     1     -15.718 -43.095  26.685  1.00  0.00    -0.269 N 
HETATM   18  C29 UNL     1     -16.877 -42.854  26.059  1.00  0.00     0.111 A 
ENDROOT
BRANCH  17  19
HETATM   19  C10 UNL     1     -14.392 -43.223  26.179  1.00  0.00     0.113 C 
HETATM   20  C11 UNL     1     -13.443 -43.025  27.380  1.00  0.00     0.057 C 
HETATM   21  C12 UNL     1     -12.173 -43.781  27.073  1.00  0.00     0.275 C 
HETATM   22  N8  UNL     1     -12.366 -45.189  27.326  1.00  0.00     0.093 N 
HETATM   23  C27 UNL     1     -13.724 -45.534  26.935  1.00  0.00     0.275 C 
HETATM   24  C28 UNL     1     -14.171 -44.660  25.752  1.00  0.00     0.057 C 
BRANCH  22  25
HETATM   25  C13 UNL     1     -12.103 -45.564  28.701  1.00  0.00     0.226 C 
HETATM   26  C14 UNL     1     -11.055 -44.600  29.219  1.00  0.00     0.055 C 
HETATM   27  C15 UNL     1     -10.709 -44.829  30.663  1.00  0.00     0.125 C 
HETATM   28  N9  UNL     1     -11.945 -44.680  31.419  1.00  0.00    -0.380 N 
HETATM   29  C25 UNL     1     -13.016 -45.589  31.015  1.00  0.00     0.125 C 
HETATM   30  C26 UNL     1     -13.329 -45.498  29.545  1.00  0.00     0.055 C 
BRANCH  28  31
HETATM   31  C16 UNL     1     -12.130 -43.744  32.466  1.00  0.00     0.044 A 
HETATM   32  C17 UNL     1     -13.425 -43.333  32.770  1.00  0.00     0.047 A 
HETATM   33  C18 UNL     1     -13.670 -42.417  33.763  1.00  0.00     0.090 A 
HETATM   34  N10 UNL     1     -12.675 -41.879  34.483  1.00  0.00    -0.365 N 
HETATM   35  C19 UNL     1     -11.414 -42.259  34.210  1.00  0.00     0.044 A 
ATOM     36  H10 UNL     1     -12.870 -41.199  35.219  1.00  0.00     0.165 HD
HETATM   37  C20 UNL     1     -10.389 -41.700  34.963  1.00  0.00     0.030 A 
HETATM   38  C24 UNL     1     -11.120 -43.184  33.213  1.00  0.00     0.017 A 
HETATM   39  C21 UNL     1      -9.090 -42.072  34.710  1.00  0.00     0.002 A 
HETATM   40  C22 UNL     1      -8.813 -42.988  33.722  1.00  0.00     0.001 A 
HETATM   41  C23 UNL     1      -9.822 -43.557  32.960  1.00  0.00     0.016 A 
ENDBRANCH  28  31
ENDBRANCH  22  25
ENDBRANCH  17  19
BRANCH   1  42
HETATM   42  N1  UNL     1     -20.010 -41.992  22.551  1.00  0.00    -0.370 N 
ATOM     43  H1  UNL     1     -20.549 -42.849  22.427  1.00  0.00     0.161 HD
BRANCH  42  44
HETATM   44  C2  UNL     1     -20.723 -40.854  22.150  1.00  0.00     0.075 C 
HETATM   45  C1  UNL     1     -21.807 -40.558  23.177  1.00  0.00     0.031 C 
HETATM   46  C3  UNL     1     -19.820 -39.612  22.084  1.00  0.00     0.031 C 
ENDBRANCH  42  44
ENDBRANCH   1  42
TORSDOF 5
ENDMDL
MODEL 4
REMARK VINA RESULT: -12.497016985      1.735      3.068
REMARK  5 active torsions:
REMARK  status: ('A' for Active; 'I' for Inactive)
REMARK    1  A    between atoms: C2_2  and  N1_4 
REMARK    2  A    between atoms: N1_4  and  C4_6 
REMARK    3  A    between atoms: N7_22  and  C10_23 
REMARK    4  A    between atoms: N8_26  and  C13_27 
REMARK    5  A    between atoms: N9_30  and  C16_31 
ROOT
HETATM    1  C4  UNL     1     -18.418 -40.851  21.468  1.00  0.00     0.132 A 
HETATM    2  N2  UNL     1     -17.169 -40.557  20.988  1.00  0.00    -0.337 N 
ATOM      3  H2  UNL     1     -17.083 -40.085  20.089  1.00  0.00     0.168 HD
HETATM    4  C5  UNL     1     -16.058 -40.872  21.664  1.00  0.00     0.182 A 
HETATM    5  N3  UNL     1     -16.078 -41.497  22.859  1.00  0.00    -0.348 N 
ATOM      6  H3  UNL     1     -15.211 -41.722  23.347  1.00  0.00     0.167 HD
HETATM    7  C6  UNL     1     -17.252 -41.809  23.381  1.00  0.00     0.095 A 
HETATM    8  C7  UNL     1     -18.428 -41.486  22.685  1.00  0.00     0.106 A 
HETATM    9  N4  UNL     1     -19.602 -41.815  23.235  1.00  0.00    -0.359 N 
ATOM     10  H4  UNL     1     -20.469 -41.589  22.745  1.00  0.00     0.165 HD
HETATM   11  C8  UNL     1     -19.655 -42.436  24.419  1.00  0.00     0.122 A 
HETATM   12  C9  UNL     1     -18.514 -42.768  25.128  1.00  0.00     0.095 A 
HETATM   13  N5  UNL     1     -18.267 -43.371  26.295  1.00  0.00    -0.283 N 
ATOM     14  H5  UNL     1     -18.969 -43.733  26.940  1.00  0.00     0.188 HD
HETATM   15  N6  UNL     1     -16.973 -43.416  26.468  1.00  0.00    -0.239 N 
ATOM     16  H6  UNL     1     -16.515 -43.827  27.281  1.00  0.00     0.208 HD
HETATM   17  N7  UNL     1     -16.325 -42.852  25.435  1.00  0.00    -0.269 N 
HETATM   18  C29 UNL     1     -17.285 -42.444  24.593  1.00  0.00     0.111 A 
ENDROOT
BRANCH  17  19
HETATM   19  C10 UNL     1     -14.906 -42.755  25.349  1.00  0.00     0.113 C 
HETATM   20  C11 UNL     1     -14.388 -42.630  26.799  1.00  0.00     0.057 C 
HETATM   21  C12 UNL     1     -12.984 -43.186  26.818  1.00  0.00     0.275 C 
HETATM   22  N8  UNL     1     -13.027 -44.628  26.849  1.00  0.00     0.093 N 
HETATM   23  C27 UNL     1     -14.145 -45.062  26.025  1.00  0.00     0.275 C 
HETATM   24  C28 UNL     1     -14.356 -44.080  24.863  1.00  0.00     0.057 C 
BRANCH  22  25
HETATM   25  C13 UNL     1     -13.121 -45.168  28.191  1.00  0.00     0.226 C 
HETATM   26  C14 UNL     1     -11.813 -44.838  28.882  1.00  0.00     0.055 C 
HETATM   27  C15 UNL     1     -11.775 -45.292  30.314  1.00  0.00     0.125 C 
HETATM   28  N9  UNL     1     -12.882 -44.632  30.993  1.00  0.00    -0.380 N 
HETATM   29  C25 UNL     1     -14.197 -44.910  30.419  1.00  0.00     0.125 C 
HETATM   30  C26 UNL     1     -14.267 -44.592  28.949  1.00  0.00     0.055 C 
BRANCH  28  31
HETATM   31  C16 UNL     1     -12.734 -43.786  32.119  1.00  0.00     0.044 A 
HETATM   32  C17 UNL     1     -13.878 -43.254  32.706  1.00  0.00     0.047 A 
HETATM   33  C18 UNL     1     -13.802 -42.415  33.790  1.00  0.00     0.090 A 
HETATM   34  N10 UNL     1     -12.624 -42.071  34.331  1.00  0.00    -0.365 N 
HETATM   35  C19 UNL     1     -11.502 -42.572  33.783  1.00  0.00     0.044 A 
ATOM     36  H10 UNL     1     -12.580 -41.447  35.137  1.00  0.00     0.165 HD
HETATM   37  C20 UNL     1     -10.286 -42.216  34.352  1.00  0.00     0.030 A 
HETATM   38  C24 UNL     1     -11.533 -43.426  32.685  1.00  0.00     0.017 A 
HETATM   39  C21 UNL     1      -9.123 -42.715  33.817  1.00  0.00     0.002 A 
HETATM   40  C22 UNL     1      -9.167 -43.559  32.731  1.00  0.00     0.001 A 
HETATM   41  C23 UNL     1     -10.371 -43.926  32.150  1.00  0.00     0.016 A 
ENDBRANCH  28  31
ENDBRANCH  22  25
ENDBRANCH  17  19
BRANCH   1  42
HETATM   42  N1  UNL     1     -19.398 -40.515  20.763  1.00  0.00    -0.370 N 
ATOM     43  H1  UNL     1     -19.420 -41.010  19.871  1.00  0.00     0.161 HD
BRANCH  42  44
HETATM   44  C2  UNL     1     -20.472 -39.625  20.902  1.00  0.00     0.075 C 
HETATM   45  C1  UNL     1     -20.064 -38.495  21.837  1.00  0.00     0.031 C 
HETATM   46  C3  UNL     1     -20.852 -38.979  19.560  1.00  0.00     0.031 C 
ENDBRANCH  42  44
ENDBRANCH   1  42
TORSDOF 5
ENDMDL
MODEL 5
REMARK VINA RESULT: -12.434538928      2.077      3.351
REMARK  5 active torsions:
REMARK  status: ('A' for Active; 'I' for Inactive)
REMARK    1  A    between atoms: C2_2  and  N1_4 
REMARK    2  A    between atoms: N1_4  and  C4_6 
REMARK    3  A    between atoms: N7_22  and  C10_23 
REMARK    4  A    between atoms: N8_26  and  C13_27 
REMARK    5  A    between atoms: N9_30  and  C16_31 
ROOT
HETATM    1  C4  UNL     1     -19.375 -42.004  23.239  1.00  0.00     0.132 A 
HETATM    2  N2  UNL     1     -20.011 -42.757  24.191  1.00  0.00    -0.337 N 
ATOM      3  H2  UNL     1     -21.031 -42.778  24.205  1.00  0.00     0.168 HD
HETATM    4  C5  UNL     1     -19.335 -43.466  25.102  1.00  0.00     0.182 A 
HETATM    5  N3  UNL     1     -17.988 -43.496  25.157  1.00  0.00    -0.348 N 
ATOM      6  H3  UNL     1     -17.505 -44.046  25.867  1.00  0.00     0.167 HD
HETATM    7  C6  UNL     1     -17.311 -42.791  24.267  1.00  0.00     0.095 A 
HETATM    8  C7  UNL     1     -18.004 -42.042  23.303  1.00  0.00     0.106 A 
HETATM    9  N4  UNL     1     -17.295 -41.336  22.415  1.00  0.00    -0.359 N 
ATOM     10  H4  UNL     1     -17.780 -40.785  21.707  1.00  0.00     0.165 HD
HETATM   11  C8  UNL     1     -15.957 -41.345  22.444  1.00  0.00     0.122 A 
HETATM   12  C9  UNL     1     -15.246 -42.073  23.382  1.00  0.00     0.095 A 
HETATM   13  N5  UNL     1     -13.950 -42.265  23.645  1.00  0.00    -0.283 N 
ATOM     14  H5  UNL     1     -13.169 -41.854  23.134  1.00  0.00     0.188 HD
HETATM   15  N6  UNL     1     -13.854 -43.069  24.671  1.00  0.00    -0.239 N 
ATOM     16  H6  UNL     1     -12.973 -43.379  25.080  1.00  0.00     0.208 HD
HETATM   17  N7  UNL     1     -15.068 -43.433  25.117  1.00  0.00    -0.269 N 
HETATM   18  C29 UNL     1     -15.943 -42.813  24.314  1.00  0.00     0.111 A 
ENDROOT
BRANCH  17  19
HETATM   19  C10 UNL     1     -15.275 -44.307  26.223  1.00  0.00     0.113 C 
HETATM   20  C11 UNL     1     -13.987 -45.149  26.362  1.00  0.00     0.057 C 
HETATM   21  C12 UNL     1     -13.876 -45.555  27.812  1.00  0.00     0.275 C 
HETATM   22  N8  UNL     1     -13.364 -44.455  28.593  1.00  0.00     0.093 N 
HETATM   23  C27 UNL     1     -13.920 -43.224  28.054  1.00  0.00     0.275 C 
HETATM   24  C28 UNL     1     -15.327 -43.482  27.492  1.00  0.00     0.057 C 
BRANCH  22  25
HETATM   25  C13 UNL     1     -11.916 -44.406  28.630  1.00  0.00     0.226 C 
HETATM   26  C14 UNL     1     -11.542 -43.014  29.098  1.00  0.00     0.055 C 
HETATM   27  C15 UNL     1     -10.059 -42.821  29.239  1.00  0.00     0.125 C 
HETATM   28  N9  UNL     1      -9.596 -43.814  30.199  1.00  0.00    -0.380 N 
HETATM   29  C25 UNL     1      -9.883 -45.198  29.826  1.00  0.00     0.125 C 
HETATM   30  C26 UNL     1     -11.344 -45.432  29.548  1.00  0.00     0.055 C 
BRANCH  28  31
HETATM   31  C16 UNL     1      -8.920 -43.502  31.404  1.00  0.00     0.044 A 
HETATM   32  C17 UNL     1      -7.539 -43.670  31.455  1.00  0.00     0.047 A 
HETATM   33  C18 UNL     1      -6.827 -43.399  32.597  1.00  0.00     0.090 A 
HETATM   34  N10 UNL     1      -7.429 -42.963  33.713  1.00  0.00    -0.365 N 
HETATM   35  C19 UNL     1      -8.763 -42.792  33.692  1.00  0.00     0.044 A 
ATOM     36  H10 UNL     1      -6.889 -42.766  34.556  1.00  0.00     0.165 HD
HETATM   37  C20 UNL     1      -9.379 -42.335  34.850  1.00  0.00     0.030 A 
HETATM   38  C24 UNL     1      -9.523 -43.053  32.556  1.00  0.00     0.017 A 
HETATM   39  C21 UNL     1     -10.740 -42.148  34.857  1.00  0.00     0.002 A 
HETATM   40  C22 UNL     1     -11.481 -42.409  33.727  1.00  0.00     0.001 A 
HETATM   41  C23 UNL     1     -10.884 -42.865  32.561  1.00  0.00     0.016 A 
ENDBRANCH  28  31
ENDBRANCH  22  25
ENDBRANCH  17  19
BRANCH   1  42
HETATM   42  N1  UNL     1     -20.095 -41.376  22.428  1.00  0.00    -0.370 N 
ATOM     43  H1  UNL     1     -20.138 -41.831  21.516  1.00  0.00     0.161 HD
BRANCH  42  44
HETATM   44  C2  UNL     1     -20.855 -40.199  22.470  1.00  0.00     0.075 C 
HETATM   45  C1  UNL     1     -20.223 -39.164  21.550  1.00  0.00     0.031 C 
HETATM   46  C3  UNL     1     -22.288 -40.430  21.964  1.00  0.00     0.031 C 
ENDBRANCH  42  44
ENDBRANCH   1  42
TORSDOF 5
ENDMDL
