MODEL 1
REMARK VINA RESULT: -10.290941838      0.000      0.000
REMARK  4 active torsions:
REMARK  status: ('A' for Active; 'I' for Inactive)
REMARK    1  A    between atoms: C4_5  and  C5_6 
REMARK    2  A    between atoms: C5_6  and  N1_7 
REMARK    3  A    between atoms: N1_7  and  C6_9 
REMARK    4  A    between atoms: C19_29  and  N4_30 
ROOT
HETATM    1  C6  UNL     1     -15.786 -42.493  24.179  1.00  0.00     0.046 A 
HETATM    2  C7  UNL     1     -16.079 -42.092  22.885  1.00  0.00     0.117 A 
HETATM    3  N2  UNL     1     -17.365 -42.073  22.494  1.00  0.00    -0.365 N 
ATOM      4  H2  UNL     1     -17.577 -41.778  21.541  1.00  0.00     0.165 HD
HETATM    5  C8  UNL     1     -18.399 -42.430  23.310  1.00  0.00     0.043 A 
HETATM    6  C9  UNL     1     -18.171 -42.837  24.606  1.00  0.00     0.093 A 
HETATM    7  C10 UNL     1     -16.840 -42.856  25.010  1.00  0.00     0.069 A 
HETATM    8  O2  UNL     1     -19.189 -43.206  25.465  1.00  0.00    -0.349 OA
HETATM    9  C11 UNL     1     -20.228 -44.105  25.248  1.00  0.00     0.176 C 
HETATM   10  C12 UNL     1     -21.558 -43.698  25.804  1.00  0.00     0.029 C 
HETATM   11  C13 UNL     1     -21.524 -42.877  27.039  1.00  0.00     0.029 C 
HETATM   12  C14 UNL     1     -22.662 -41.842  26.977  1.00  0.00     0.180 C 
HETATM   13  O3  UNL     1     -23.817 -42.345  26.458  1.00  0.00    -0.304 OA
HETATM   14  C15 UNL     1     -24.578 -42.083  25.361  1.00  0.00     0.360 C 
HETATM   15  O4  UNL     1     -24.956 -43.082  24.681  1.00  0.00    -0.239 OA
HETATM   16  N3  UNL     1     -25.012 -40.828  24.872  1.00  0.00    -0.337 N 
ATOM     17  H3  UNL     1     -25.980 -40.762  24.557  1.00  0.00     0.164 HD
HETATM   18  C16 UNL     1     -24.206 -39.627  24.779  1.00  0.00     0.125 C 
HETATM   19  C17 UNL     1     -23.075 -39.765  23.794  1.00  0.00     0.022 C 
HETATM   20  C18 UNL     1     -23.504 -39.485  22.370  1.00  0.00     0.027 C 
HETATM   21  C19 UNL     1     -22.465 -38.629  21.740  1.00  0.00     0.083 C 
HETATM   22  C25 UNL     1     -21.128 -39.290  21.624  1.00  0.00     0.025 C 
HETATM   23  C26 UNL     1     -21.120 -40.735  21.297  1.00  0.00     0.002 C 
HETATM   24  C27 UNL     1     -19.733 -41.283  21.560  1.00  0.00     0.006 C 
HETATM   25  C28 UNL     1     -19.736 -42.330  22.671  1.00  0.00     0.060 C 
ENDROOT
BRANCH   1  26
HETATM   26  N1  UNL     1     -14.448 -42.523  24.664  1.00  0.00    -0.386 N 
ATOM     27  H1  UNL     1     -13.850 -41.707  24.528  1.00  0.00     0.159 HD
BRANCH  26  28
HETATM   28  C5  UNL     1     -13.921 -43.670  25.335  1.00  0.00     0.154 C 
BRANCH  28  29
HETATM   29  C4  UNL     1     -13.709 -43.446  26.815  1.00  0.00     0.166 C 
HETATM   30  C3  UNL     1     -14.701 -44.241  27.641  1.00  0.00     0.204 C 
HETATM   31  O1  UNL     1     -14.054 -45.423  27.924  1.00  0.00    -0.359 OA
HETATM   32  C2  UNL     1     -12.774 -45.329  27.420  1.00  0.00     0.256 C 
HETATM   33  C1  UNL     1     -11.846 -45.976  28.426  1.00  0.00     0.070 C 
HETATM   34  O5  UNL     1     -12.506 -43.992  27.240  1.00  0.00    -0.353 OA
ENDBRANCH  28  29
ENDBRANCH  26  28
ENDBRANCH   1  26
BRANCH  21  35
HETATM   35  N4  UNL     1     -22.847 -37.953  20.537  1.00  0.00    -0.385 N 
HETATM   36  C20 UNL     1     -23.933 -38.605  19.884  1.00  0.00     0.152 C 
HETATM   37  C21 UNL     1     -23.463 -39.168  18.575  1.00  0.00     0.292 C 
HETATM   38  N5  UNL     1     -23.124 -38.048  17.725  1.00  0.00     0.090 N 
HETATM   39  C22 UNL     1     -24.248 -37.393  17.135  1.00  0.00     0.310 C 
HETATM   40  C23 UNL     1     -22.155 -37.173  18.311  1.00  0.00     0.316 C 
HETATM   41  C24 UNL     1     -21.801 -37.469  19.730  1.00  0.00     0.088 C 
ENDBRANCH  21  35
TORSDOF 4
ENDMDL
MODEL 2
REMARK VINA RESULT: -9.993627943      4.374      7.194
REMARK  4 active torsions:
REMARK  status: ('A' for Active; 'I' for Inactive)
REMARK    1  A    between atoms: C4_5  and  C5_6 
REMARK    2  A    between atoms: C5_6  and  N1_7 
REMARK    3  A    between atoms: N1_7  and  C6_9 
REMARK    4  A    between atoms: C19_29  and  N4_30 
ROOT
HETATM    1  C6  UNL     1     -14.574 -45.154  30.176  1.00  0.00     0.046 A 
HETATM    2  C7  UNL     1     -15.734 -44.607  30.700  1.00  0.00     0.117 A 
HETATM    3  N2  UNL     1     -16.477 -43.805  29.920  1.00  0.00    -0.365 N 
ATOM      4  H2  UNL     1     -17.331 -43.404  30.310  1.00  0.00     0.165 HD
HETATM    5  C8  UNL     1     -16.146 -43.499  28.632  1.00  0.00     0.043 A 
HETATM    6  C9  UNL     1     -15.004 -44.012  28.054  1.00  0.00     0.093 A 
HETATM    7  C10 UNL     1     -14.237 -44.843  28.863  1.00  0.00     0.069 A 
HETATM    8  O2  UNL     1     -14.632 -43.729  26.754  1.00  0.00    -0.349 OA
HETATM    9  C11 UNL     1     -14.526 -42.491  26.128  1.00  0.00     0.176 C 
HETATM   10  C12 UNL     1     -15.003 -42.443  24.709  1.00  0.00     0.029 C 
HETATM   11  C13 UNL     1     -14.844 -43.694  23.926  1.00  0.00     0.029 C 
HETATM   12  C14 UNL     1     -16.055 -43.850  22.989  1.00  0.00     0.180 C 
HETATM   13  O3  UNL     1     -16.453 -42.674  22.427  1.00  0.00    -0.304 OA
HETATM   14  C15 UNL     1     -17.581 -41.914  22.473  1.00  0.00     0.360 C 
HETATM   15  O4  UNL     1     -17.421 -40.672  22.659  1.00  0.00    -0.239 OA
HETATM   16  N3  UNL     1     -18.927 -42.330  22.336  1.00  0.00    -0.337 N 
ATOM     17  H3  UNL     1     -19.535 -41.750  21.758  1.00  0.00     0.164 HD
HETATM   18  C16 UNL     1     -19.520 -43.504  22.944  1.00  0.00     0.125 C 
HETATM   19  C17 UNL     1     -19.564 -43.417  24.447  1.00  0.00     0.022 C 
HETATM   20  C18 UNL     1     -20.768 -42.653  24.953  1.00  0.00     0.027 C 
HETATM   21  C19 UNL     1     -21.342 -43.409  26.096  1.00  0.00     0.083 C 
HETATM   22  C25 UNL     1     -20.423 -43.516  27.272  1.00  0.00     0.025 C 
HETATM   23  C26 UNL     1     -19.589 -42.332  27.581  1.00  0.00     0.002 C 
HETATM   24  C27 UNL     1     -18.507 -42.742  28.557  1.00  0.00     0.006 C 
HETATM   25  C28 UNL     1     -17.111 -42.598  27.955  1.00  0.00     0.060 C 
ENDROOT
BRANCH   1  26
HETATM   26  N1  UNL     1     -13.748 -46.024  30.942  1.00  0.00    -0.386 N 
ATOM     27  H1  UNL     1     -13.869 -47.032  30.853  1.00  0.00     0.159 HD
BRANCH  26  28
HETATM   28  C5  UNL     1     -12.752 -45.516  31.833  1.00  0.00     0.154 C 
BRANCH  28  29
HETATM   29  C4  UNL     1     -11.638 -44.783  31.122  1.00  0.00     0.166 C 
HETATM   30  C3  UNL     1     -10.819 -43.951  32.090  1.00  0.00     0.204 C 
HETATM   31  O1  UNL     1      -9.778 -44.773  32.464  1.00  0.00    -0.359 OA
HETATM   32  C2  UNL     1      -9.883 -45.938  31.734  1.00  0.00     0.256 C 
HETATM   33  C1  UNL     1      -8.482 -46.350  31.340  1.00  0.00     0.070 C 
HETATM   34  O5  UNL     1     -10.678 -45.665  30.645  1.00  0.00    -0.353 OA
ENDBRANCH  28  29
ENDBRANCH  26  28
ENDBRANCH   1  26
BRANCH  21  35
HETATM   35  N4  UNL     1     -22.679 -43.063  26.475  1.00  0.00    -0.385 N 
HETATM   36  C20 UNL     1     -23.002 -41.724  26.115  1.00  0.00     0.152 C 
HETATM   37  C21 UNL     1     -23.195 -40.904  27.357  1.00  0.00     0.292 C 
HETATM   38  N5  UNL     1     -24.372 -41.413  28.026  1.00  0.00     0.090 N 
HETATM   39  C22 UNL     1     -25.609 -40.987  27.451  1.00  0.00     0.310 C 
HETATM   40  C23 UNL     1     -24.291 -42.812  28.313  1.00  0.00     0.316 C 
HETATM   41  C24 UNL     1     -23.110 -43.517  27.735  1.00  0.00     0.088 C 
ENDBRANCH  21  35
TORSDOF 4
ENDMDL
MODEL 3
REMARK VINA RESULT: -9.985474179      1.003      1.266
REMARK  4 active torsions:
REMARK  status: ('A' for Active; 'I' for Inactive)
REMARK    1  A    between atoms: C4_5  and  C5_6 
REMARK    2  A    between atoms: C5_6  and  N1_7 
REMARK    3  A    between atoms: N1_7  and  C6_9 
REMARK    4  A    between atoms: C19_29  and  N4_30 
ROOT
HETATM    1  C6  UNL     1     -16.313 -42.797  24.602  1.00  0.00     0.046 A 
HETATM    2  C7  UNL     1     -16.436 -42.692  23.226  1.00  0.00     0.117 A 
HETATM    3  N2  UNL     1     -17.667 -42.604  22.694  1.00  0.00    -0.365 N 
ATOM      4  H2  UNL     1     -17.754 -42.527  21.681  1.00  0.00     0.165 HD
HETATM    5  C8  UNL     1     -18.807 -42.614  23.445  1.00  0.00     0.043 A 
HETATM    6  C9  UNL     1     -18.750 -42.717  24.818  1.00  0.00     0.093 A 
HETATM    7  C10 UNL     1     -17.475 -42.807  25.366  1.00  0.00     0.069 A 
HETATM    8  O2  UNL     1     -19.879 -42.730  25.614  1.00  0.00    -0.349 OA
HETATM    9  C11 UNL     1     -21.022 -43.513  25.492  1.00  0.00     0.176 C 
HETATM   10  C12 UNL     1     -22.316 -42.815  25.781  1.00  0.00     0.029 C 
HETATM   11  C13 UNL     1     -22.257 -41.728  26.789  1.00  0.00     0.029 C 
HETATM   12  C14 UNL     1     -23.215 -40.602  26.358  1.00  0.00     0.180 C 
HETATM   13  O3  UNL     1     -24.387 -41.064  25.839  1.00  0.00    -0.304 OA
HETATM   14  C15 UNL     1     -25.007 -40.983  24.630  1.00  0.00     0.360 C 
HETATM   15  O4  UNL     1     -25.476 -42.061  24.160  1.00  0.00    -0.239 OA
HETATM   16  N3  UNL     1     -25.203 -39.840  23.818  1.00  0.00    -0.337 N 
ATOM     17  H3  UNL     1     -26.120 -39.730  23.386  1.00  0.00     0.164 HD
HETATM   18  C16 UNL     1     -24.218 -38.813  23.544  1.00  0.00     0.125 C 
HETATM   19  C17 UNL     1     -23.045 -39.333  22.755  1.00  0.00     0.022 C 
HETATM   20  C18 UNL     1     -23.309 -39.357  21.265  1.00  0.00     0.027 C 
HETATM   21  C19 UNL     1     -22.102 -38.823  20.580  1.00  0.00     0.083 C 
HETATM   22  C25 UNL     1     -20.877 -39.658  20.776  1.00  0.00     0.025 C 
HETATM   23  C26 UNL     1     -21.063 -41.128  20.794  1.00  0.00     0.002 C 
HETATM   24  C27 UNL     1     -19.803 -41.769  21.335  1.00  0.00     0.006 C 
HETATM   25  C28 UNL     1     -20.056 -42.502  22.650  1.00  0.00     0.060 C 
ENDROOT
BRANCH   1  26
HETATM   26  N1  UNL     1     -15.040 -42.880  25.232  1.00  0.00    -0.386 N 
ATOM     27  H1  UNL     1     -14.424 -42.067  25.219  1.00  0.00     0.159 HD
BRANCH  26  28
HETATM   28  C5  UNL     1     -14.604 -44.076  25.884  1.00  0.00     0.154 C 
BRANCH  28  29
HETATM   29  C4  UNL     1     -13.991 -43.822  27.242  1.00  0.00     0.166 C 
HETATM   30  C3  UNL     1     -14.590 -44.730  28.297  1.00  0.00     0.204 C 
HETATM   31  O1  UNL     1     -13.751 -45.822  28.336  1.00  0.00    -0.359 OA
HETATM   32  C2  UNL     1     -12.699 -45.571  27.481  1.00  0.00     0.256 C 
HETATM   33  C1  UNL     1     -11.444 -46.094  28.146  1.00  0.00     0.070 C 
HETATM   34  O5  UNL     1     -12.659 -44.212  27.274  1.00  0.00    -0.353 OA
ENDBRANCH  28  29
ENDBRANCH  26  28
ENDBRANCH   1  26
BRANCH  21  35
HETATM   35  N4  UNL     1     -22.278 -38.418  19.218  1.00  0.00    -0.385 N 
HETATM   36  C20 UNL     1     -22.306 -37.000  19.086  1.00  0.00     0.152 C 
HETATM   37  C21 UNL     1     -23.675 -36.565  18.647  1.00  0.00     0.292 C 
HETATM   38  N5  UNL     1     -23.876 -37.077  17.309  1.00  0.00     0.090 N 
HETATM   39  C22 UNL     1     -23.219 -36.329  16.285  1.00  0.00     0.310 C 
HETATM   40  C23 UNL     1     -23.709 -38.495  17.221  1.00  0.00     0.316 C 
HETATM   41  C24 UNL     1     -23.202 -39.158  18.458  1.00  0.00     0.088 C 
ENDBRANCH  21  35
TORSDOF 4
ENDMDL
MODEL 4
REMARK VINA RESULT: -9.820848405      4.417      7.300
REMARK  4 active torsions:
REMARK  status: ('A' for Active; 'I' for Inactive)
REMARK    1  A    between atoms: C4_5  and  C5_6 
REMARK    2  A    between atoms: C5_6  and  N1_7 
REMARK    3  A    between atoms: N1_7  and  C6_9 
REMARK    4  A    between atoms: C19_29  and  N4_30 
ROOT
HETATM    1  C6  UNL     1     -14.463 -45.168  30.157  1.00  0.00     0.046 A 
HETATM    2  C7  UNL     1     -15.604 -44.611  30.712  1.00  0.00     0.117 A 
HETATM    3  N2  UNL     1     -16.363 -43.805  29.950  1.00  0.00    -0.365 N 
ATOM      4  H2  UNL     1     -17.203 -43.397  30.363  1.00  0.00     0.165 HD
HETATM    5  C8  UNL     1     -16.065 -43.505  28.653  1.00  0.00     0.043 A 
HETATM    6  C9  UNL     1     -14.943 -44.027  28.045  1.00  0.00     0.093 A 
HETATM    7  C10 UNL     1     -14.160 -44.862  28.835  1.00  0.00     0.069 A 
HETATM    8  O2  UNL     1     -14.606 -43.750  26.734  1.00  0.00    -0.349 OA
HETATM    9  C11 UNL     1     -14.509 -42.514  26.103  1.00  0.00     0.176 C 
HETATM   10  C12 UNL     1     -15.024 -42.466  24.697  1.00  0.00     0.029 C 
HETATM   11  C13 UNL     1     -14.895 -43.720  23.914  1.00  0.00     0.029 C 
HETATM   12  C14 UNL     1     -16.133 -43.869  23.011  1.00  0.00     0.180 C 
HETATM   13  O3  UNL     1     -16.539 -42.692  22.457  1.00  0.00    -0.304 OA
HETATM   14  C15 UNL     1     -17.659 -41.923  22.532  1.00  0.00     0.360 C 
HETATM   15  O4  UNL     1     -17.485 -40.682  22.711  1.00  0.00    -0.239 OA
HETATM   16  N3  UNL     1     -19.011 -42.330  22.434  1.00  0.00    -0.337 N 
ATOM     17  H3  UNL     1     -19.631 -41.747  21.871  1.00  0.00     0.164 HD
HETATM   18  C16 UNL     1     -19.596 -43.499  23.061  1.00  0.00     0.125 C 
HETATM   19  C17 UNL     1     -19.597 -43.408  24.564  1.00  0.00     0.022 C 
HETATM   20  C18 UNL     1     -20.781 -42.634  25.101  1.00  0.00     0.027 C 
HETATM   21  C19 UNL     1     -21.329 -43.384  26.262  1.00  0.00     0.083 C 
HETATM   22  C25 UNL     1     -20.378 -43.495  27.412  1.00  0.00     0.025 C 
HETATM   23  C26 UNL     1     -19.527 -42.315  27.694  1.00  0.00     0.002 C 
HETATM   24  C27 UNL     1     -18.422 -42.731  28.642  1.00  0.00     0.006 C 
HETATM   25  C28 UNL     1     -17.043 -42.598  28.001  1.00  0.00     0.060 C 
ENDROOT
BRANCH   1  26
HETATM   26  N1  UNL     1     -13.621 -46.041  30.902  1.00  0.00    -0.386 N 
ATOM     27  H1  UNL     1     -13.728 -47.049  30.791  1.00  0.00     0.159 HD
BRANCH  26  28
HETATM   28  C5  UNL     1     -12.631 -45.538  31.802  1.00  0.00     0.154 C 
BRANCH  28  29
HETATM   29  C4  UNL     1     -11.518 -44.792  31.103  1.00  0.00     0.166 C 
HETATM   30  C3  UNL     1     -10.698 -43.977  32.084  1.00  0.00     0.204 C 
HETATM   31  O1  UNL     1      -9.657 -44.806  32.442  1.00  0.00    -0.359 OA
HETATM   32  C2  UNL     1      -9.763 -45.958  31.691  1.00  0.00     0.256 C 
HETATM   33  C1  UNL     1      -8.362 -46.362  31.287  1.00  0.00     0.070 C 
HETATM   34  O5  UNL     1     -10.559 -45.665  30.608  1.00  0.00    -0.353 OA
ENDBRANCH  28  29
ENDBRANCH  26  28
ENDBRANCH   1  26
BRANCH  21  35
HETATM   35  N4  UNL     1     -22.652 -43.028  26.677  1.00  0.00    -0.385 N 
HETATM   36  C20 UNL     1     -23.044 -43.725  27.856  1.00  0.00     0.152 C 
HETATM   37  C21 UNL     1     -24.166 -44.667  27.530  1.00  0.00     0.292 C 
HETATM   38  N5  UNL     1     -25.309 -43.860  27.167  1.00  0.00     0.090 N 
HETATM   39  C22 UNL     1     -26.003 -43.285  28.275  1.00  0.00     0.310 C 
HETATM   40  C23 UNL     1     -25.038 -42.957  26.091  1.00  0.00     0.316 C 
HETATM   41  C24 UNL     1     -23.612 -42.887  25.658  1.00  0.00     0.088 C 
ENDBRANCH  21  35
TORSDOF 4
ENDMDL
MODEL 5
REMARK VINA RESULT: -9.717238493      3.292      6.621
REMARK  4 active torsions:
REMARK  status: ('A' for Active; 'I' for Inactive)
REMARK    1  A    between atoms: C4_5  and  C5_6 
REMARK    2  A    between atoms: C5_6  and  N1_7 
REMARK    3  A    between atoms: N1_7  and  C6_9 
REMARK    4  A    between atoms: C19_29  and  N4_30 
ROOT
HETATM    1  C6  UNL     1     -15.658 -43.314  25.845  1.00  0.00     0.046 A 
HETATM    2  C7  UNL     1     -16.406 -43.192  27.005  1.00  0.00     0.117 A 
HETATM    3  N2  UNL     1     -17.697 -42.834  26.903  1.00  0.00    -0.365 N 
ATOM      4  H2  UNL     1     -18.245 -42.746  27.759  1.00  0.00     0.165 HD
HETATM    5  C8  UNL     1     -18.311 -42.584  25.710  1.00  0.00     0.043 A 
HETATM    6  C9  UNL     1     -17.620 -42.687  24.523  1.00  0.00     0.093 A 
HETATM    7  C10 UNL     1     -16.283 -43.058  24.630  1.00  0.00     0.069 A 
HETATM    8  O2  UNL     1     -18.203 -42.443  23.294  1.00  0.00    -0.349 OA
HETATM    9  C11 UNL     1     -18.954 -41.344  22.889  1.00  0.00     0.176 C 
HETATM   10  C12 UNL     1     -20.132 -41.653  22.019  1.00  0.00     0.029 C 
HETATM   11  C13 UNL     1     -19.992 -42.833  21.130  1.00  0.00     0.029 C 
HETATM   12  C14 UNL     1     -21.351 -43.551  21.042  1.00  0.00     0.180 C 
HETATM   13  O3  UNL     1     -22.408 -42.694  20.969  1.00  0.00    -0.304 OA
HETATM   14  C15 UNL     1     -23.488 -42.422  21.750  1.00  0.00     0.360 C 
HETATM   15  O4  UNL     1     -23.734 -41.200  21.973  1.00  0.00    -0.239 OA
HETATM   16  N3  UNL     1     -24.387 -43.334  22.355  1.00  0.00    -0.337 N 
ATOM     17  H3  UNL     1     -25.379 -43.105  22.309  1.00  0.00     0.164 HD
HETATM   18  C16 UNL     1     -24.024 -44.563  23.031  1.00  0.00     0.125 C 
HETATM   19  C17 UNL     1     -23.226 -44.319  24.285  1.00  0.00     0.022 C 
HETATM   20  C18 UNL     1     -24.100 -44.017  25.483  1.00  0.00     0.027 C 
HETATM   21  C19 UNL     1     -23.574 -44.792  26.638  1.00  0.00     0.083 C 
HETATM   22  C25 UNL     1     -22.192 -44.397  27.051  1.00  0.00     0.025 C 
HETATM   23  C26 UNL     1     -21.857 -42.955  26.980  1.00  0.00     0.002 C 
HETATM   24  C27 UNL     1     -20.355 -42.801  27.099  1.00  0.00     0.006 C 
HETATM   25  C28 UNL     1     -19.742 -42.208  25.833  1.00  0.00     0.060 C 
ENDROOT
BRANCH   1  26
HETATM   26  N1  UNL     1     -14.289 -43.702  25.879  1.00  0.00    -0.386 N 
ATOM     27  H1  UNL     1     -13.571 -43.019  25.635  1.00  0.00     0.159 HD
BRANCH  26  28
HETATM   28  C5  UNL     1     -13.895 -45.026  26.246  1.00  0.00     0.154 C 
BRANCH  28  29
HETATM   29  C4  UNL     1     -12.888 -45.055  27.373  1.00  0.00     0.166 C 
HETATM   30  C3  UNL     1     -12.861 -43.738  28.123  1.00  0.00     0.204 C 
HETATM   31  O1  UNL     1     -13.745 -43.911  29.166  1.00  0.00    -0.359 OA
HETATM   32  C2  UNL     1     -14.187 -45.217  29.126  1.00  0.00     0.256 C 
HETATM   33  C1  UNL     1     -14.271 -45.707  30.555  1.00  0.00     0.070 C 
HETATM   34  O5  UNL     1     -13.280 -45.930  28.377  1.00  0.00    -0.353 OA
ENDBRANCH  28  29
ENDBRANCH  26  28
ENDBRANCH   1  26
BRANCH  21  35
HETATM   35  N4  UNL     1     -24.459 -44.939  27.755  1.00  0.00    -0.385 N 
HETATM   36  C20 UNL     1     -25.427 -43.896  27.805  1.00  0.00     0.152 C 
HETATM   37  C21 UNL     1     -25.184 -43.046  29.018  1.00  0.00     0.292 C 
HETATM   38  N5  UNL     1     -25.449 -43.869  30.177  1.00  0.00     0.090 N 
HETATM   39  C22 UNL     1     -26.836 -44.042  30.474  1.00  0.00     0.310 C 
HETATM   40  C23 UNL     1     -24.673 -45.071  30.200  1.00  0.00     0.316 C 
HETATM   41  C24 UNL     1     -23.872 -45.339  28.970  1.00  0.00     0.088 C 
ENDBRANCH  21  35
TORSDOF 4
ENDMDL
