MODEL 1
REMARK VINA RESULT: -11.477589680      0.000      0.000
REMARK  5 active torsions:
REMARK  status: ('A' for Active; 'I' for Inactive)
REMARK    1  A    between atoms: C5_12  and  C6_13 
REMARK    2  A    between atoms: N4_15  and  C8_16 
REMARK    3  A    between atoms: N7_27  and  C15_28 
REMARK       I    between atoms: N8_31  and  C18_32 
REMARK    4  A    between atoms: C18_32  and  O2_34 
REMARK    5  A    between atoms: O2_34  and  C19_35 
ROOT
HETATM    1  N1  UNL     1     -15.976 -41.287  21.882  1.00  0.00    -0.385 N 
ATOM      2  H11 UNL     1     -15.466 -41.936  22.481  1.00  0.00     0.157 HD
ATOM      3  H12 UNL     1     -15.516 -40.765  21.136  1.00  0.00     0.157 HD
HETATM    4  C1  UNL     1     -17.223 -41.144  22.095  1.00  0.00     0.116 A 
HETATM    5  N2  UNL     1     -17.903 -40.280  21.297  1.00  0.00    -0.338 N 
ATOM      6  H2  UNL     1     -17.417 -39.771  20.558  1.00  0.00     0.168 HD
HETATM    7  C2  UNL     1     -19.200 -40.102  21.485  1.00  0.00     0.183 A 
HETATM    8  N3  UNL     1     -19.822 -40.775  22.455  1.00  0.00    -0.337 N 
ATOM      9  H3  UNL     1     -20.823 -40.622  22.580  1.00  0.00     0.168 HD
HETATM   10  C3  UNL     1     -19.207 -41.645  23.279  1.00  0.00     0.140 A 
HETATM   11  C4  UNL     1     -17.838 -41.842  23.091  1.00  0.00     0.083 A 
HETATM   12  C5  UNL     1     -17.414 -42.743  24.009  1.00  0.00     0.094 A 
HETATM   13  N6  UNL     1     -18.532 -43.077  24.737  1.00  0.00    -0.293 N 
ATOM     14  H6  UNL     1     -18.544 -43.739  25.513  1.00  0.00     0.187 HD
HETATM   15  N7  UNL     1     -19.582 -42.422  24.294  1.00  0.00    -0.270 N 
ENDROOT
BRANCH  15  16
HETATM   16  C15 UNL     1     -20.913 -42.546  24.843  1.00  0.00     0.113 C 
HETATM   17  C16 UNL     1     -21.194 -41.513  25.887  1.00  0.00     0.047 C 
HETATM   18  C17 UNL     1     -21.681 -42.168  27.164  1.00  0.00     0.130 C 
HETATM   19  N8  UNL     1     -22.709 -43.151  26.904  1.00  0.00    -0.328 N 
HETATM   20  C18 UNL     1     -23.934 -43.199  27.612  1.00  0.00     0.363 C 
HETATM   21  C27 UNL     1     -22.457 -44.122  25.872  1.00  0.00     0.130 C 
HETATM   22  O1  UNL     1     -24.769 -44.087  27.319  1.00  0.00    -0.238 OA
HETATM   23  C28 UNL     1     -21.032 -43.973  25.392  1.00  0.00     0.047 C 
BRANCH  20  24
HETATM   24  O2  UNL     1     -24.270 -42.314  28.622  1.00  0.00    -0.297 OA
BRANCH  24  25
HETATM   25  C19 UNL     1     -25.185 -41.265  28.505  1.00  0.00     0.162 C 
HETATM   26  C20 UNL     1     -25.829 -41.092  29.887  1.00  0.00     0.036 C 
HETATM   27  C21 UNL     1     -27.030 -40.202  29.684  1.00  0.00     0.038 C 
HETATM   28  C22 UNL     1     -26.916 -39.403  28.406  1.00  0.00     0.223 C 
HETATM   29  C23 UNL     1     -27.684 -38.097  28.652  1.00  0.00     0.037 C 
HETATM   30  N9  UNL     1     -25.584 -38.929  28.157  1.00  0.00     0.095 N 
HETATM   31  C24 UNL     1     -26.677 -37.280  29.434  1.00  0.00     0.032 C 
HETATM   32  C25 UNL     1     -25.325 -37.845  29.052  1.00  0.00     0.273 C 
HETATM   33  C26 UNL     1     -24.583 -39.949  28.138  1.00  0.00     0.305 C 
ENDBRANCH  24  25
ENDBRANCH  20  24
ENDBRANCH  15  16
BRANCH  12  34
HETATM   34  C6  UNL     1     -16.123 -43.320  24.288  1.00  0.00     0.078 A 
HETATM   35  C7  UNL     1     -15.539 -43.446  25.556  1.00  0.00     0.130 A 
HETATM   36  N4  UNL     1     -14.352 -44.020  25.441  1.00  0.00    -0.316 N 
HETATM   37  C14 UNL     1     -14.139 -44.275  24.142  1.00  0.00     0.188 A 
HETATM   38  N5  UNL     1     -15.205 -43.849  23.480  1.00  0.00    -0.349 N 
ATOM     39  H5  UNL     1     -15.312 -43.919  22.468  1.00  0.00     0.167 HD
BRANCH  36  40
HETATM   40  C8  UNL     1     -13.419 -44.334  26.509  1.00  0.00     0.039 A 
HETATM   41  C9  UNL     1     -12.658 -43.369  27.127  1.00  0.00     0.030 A 
HETATM   42  C10 UNL     1     -11.770 -43.681  28.145  1.00  0.00     0.002 A 
HETATM   43  C11 UNL     1     -11.620 -44.980  28.577  1.00  0.00     0.000 A 
HETATM   44  C12 UNL     1     -12.382 -45.948  27.960  1.00  0.00     0.002 A 
HETATM   45  C13 UNL     1     -13.276 -45.635  26.934  1.00  0.00     0.030 A 
ENDBRANCH  36  40
ENDBRANCH  12  34
TORSDOF 5
ENDMDL
MODEL 2
REMARK VINA RESULT: -11.297220428      4.204     11.579
REMARK  5 active torsions:
REMARK  status: ('A' for Active; 'I' for Inactive)
REMARK    1  A    between atoms: C5_12  and  C6_13 
REMARK    2  A    between atoms: N4_15  and  C8_16 
REMARK    3  A    between atoms: N7_27  and  C15_28 
REMARK       I    between atoms: N8_31  and  C18_32 
REMARK    4  A    between atoms: C18_32  and  O2_34 
REMARK    5  A    between atoms: O2_34  and  C19_35 
ROOT
HETATM    1  N1  UNL     1     -18.668 -41.445  22.574  1.00  0.00    -0.385 N 
ATOM      2  H11 UNL     1     -19.492 -41.642  23.142  1.00  0.00     0.157 HD
ATOM      3  H12 UNL     1     -18.735 -40.981  21.668  1.00  0.00     0.157 HD
HETATM    4  C1  UNL     1     -17.535 -41.801  23.034  1.00  0.00     0.116 A 
HETATM    5  N2  UNL     1     -16.438 -41.538  22.276  1.00  0.00    -0.338 N 
ATOM      6  H2  UNL     1     -16.535 -41.072  21.374  1.00  0.00     0.168 HD
HETATM    7  C2  UNL     1     -15.242 -41.892  22.718  1.00  0.00     0.183 A 
HETATM    8  N3  UNL     1     -15.131 -42.500  23.900  1.00  0.00    -0.337 N 
ATOM      9  H3  UNL     1     -14.198 -42.762  24.219  1.00  0.00     0.168 HD
HETATM   10  C3  UNL     1     -16.178 -42.789  24.697  1.00  0.00     0.140 A 
HETATM   11  C4  UNL     1     -17.445 -42.421  24.244  1.00  0.00     0.083 A 
HETATM   12  C5  UNL     1     -18.350 -42.795  25.180  1.00  0.00     0.094 A 
HETATM   13  N6  UNL     1     -17.617 -43.382  26.183  1.00  0.00    -0.293 N 
ATOM     14  H6  UNL     1     -18.011 -43.773  27.039  1.00  0.00     0.187 HD
HETATM   15  N7  UNL     1     -16.337 -43.371  25.885  1.00  0.00    -0.270 N 
ENDROOT
BRANCH  15  16
HETATM   16  C15 UNL     1     -15.297 -43.911  26.730  1.00  0.00     0.113 C 
HETATM   17  C16 UNL     1     -14.439 -42.841  27.327  1.00  0.00     0.047 C 
HETATM   18  C17 UNL     1     -12.975 -43.113  27.043  1.00  0.00     0.130 C 
HETATM   19  N8  UNL     1     -12.621 -44.487  27.325  1.00  0.00    -0.328 N 
HETATM   20  C18 UNL     1     -11.493 -44.854  28.097  1.00  0.00     0.363 C 
HETATM   21  C27 UNL     1     -13.468 -45.517  26.785  1.00  0.00     0.130 C 
HETATM   22  O1  UNL     1     -11.263 -46.071  28.291  1.00  0.00    -0.238 OA
HETATM   23  C28 UNL     1     -14.488 -44.887  25.866  1.00  0.00     0.047 C 
BRANCH  20  24
HETATM   24  O2  UNL     1     -10.618 -43.940  28.658  1.00  0.00    -0.297 OA
BRANCH  24  25
HETATM   25  C19 UNL     1      -9.733 -44.208  29.705  1.00  0.00     0.162 C 
HETATM   26  C20 UNL     1      -8.641 -43.132  29.638  1.00  0.00     0.036 C 
HETATM   27  C21 UNL     1      -7.528 -43.604  30.541  1.00  0.00     0.038 C 
HETATM   28  C22 UNL     1      -8.024 -44.619  31.544  1.00  0.00     0.223 C 
HETATM   29  C23 UNL     1      -7.134 -44.460  32.784  1.00  0.00     0.037 C 
HETATM   30  N9  UNL     1      -9.325 -44.307  32.063  1.00  0.00     0.095 N 
HETATM   31  C24 UNL     1      -7.752 -43.257  33.465  1.00  0.00     0.032 C 
HETATM   32  C25 UNL     1      -9.187 -43.222  32.983  1.00  0.00     0.273 C 
HETATM   33  C26 UNL     1     -10.336 -44.130  31.069  1.00  0.00     0.305 C 
ENDBRANCH  24  25
ENDBRANCH  20  24
ENDBRANCH  15  16
BRANCH  12  34
HETATM   34  C6  UNL     1     -19.784 -42.676  25.253  1.00  0.00     0.078 A 
HETATM   35  C7  UNL     1     -20.491 -41.569  25.743  1.00  0.00     0.130 A 
HETATM   36  N4  UNL     1     -21.791 -41.803  25.663  1.00  0.00    -0.316 N 
HETATM   37  C14 UNL     1     -21.960 -43.024  25.136  1.00  0.00     0.188 A 
HETATM   38  N5  UNL     1     -20.754 -43.521  24.902  1.00  0.00    -0.349 N 
ATOM     39  H5  UNL     1     -20.586 -44.443  24.500  1.00  0.00     0.167 HD
BRANCH  36  40
HETATM   40  C8  UNL     1     -22.870 -40.918  26.063  1.00  0.00     0.039 A 
HETATM   41  C9  UNL     1     -23.630 -40.227  25.148  1.00  0.00     0.030 A 
HETATM   42  C10 UNL     1     -24.658 -39.383  25.541  1.00  0.00     0.002 A 
HETATM   43  C11 UNL     1     -24.956 -39.208  26.875  1.00  0.00     0.000 A 
HETATM   44  C12 UNL     1     -24.196 -39.900  27.793  1.00  0.00     0.002 A 
HETATM   45  C13 UNL     1     -23.160 -40.749  27.397  1.00  0.00     0.030 A 
ENDBRANCH  36  40
ENDBRANCH  12  34
TORSDOF 5
ENDMDL
MODEL 3
REMARK VINA RESULT: -11.259783588      4.128     11.254
REMARK  5 active torsions:
REMARK  status: ('A' for Active; 'I' for Inactive)
REMARK    1  A    between atoms: C5_12  and  C6_13 
REMARK    2  A    between atoms: N4_15  and  C8_16 
REMARK    3  A    between atoms: N7_27  and  C15_28 
REMARK       I    between atoms: N8_31  and  C18_32 
REMARK    4  A    between atoms: C18_32  and  O2_34 
REMARK    5  A    between atoms: O2_34  and  C19_35 
ROOT
HETATM    1  N1  UNL     1     -17.261 -42.809  22.814  1.00  0.00    -0.385 N 
ATOM      2  H11 UNL     1     -18.226 -42.777  23.144  1.00  0.00     0.157 HD
ATOM      3  H12 UNL     1     -17.028 -42.752  21.823  1.00  0.00     0.157 HD
HETATM    4  C1  UNL     1     -16.342 -42.927  23.688  1.00  0.00     0.116 A 
HETATM    5  N2  UNL     1     -15.057 -42.970  23.248  1.00  0.00    -0.338 N 
ATOM      6  H2  UNL     1     -14.854 -42.909  22.250  1.00  0.00     0.168 HD
HETATM    7  C2  UNL     1     -14.073 -43.092  24.123  1.00  0.00     0.183 A 
HETATM    8  N3  UNL     1     -14.356 -43.169  25.425  1.00  0.00    -0.337 N 
ATOM      9  H3  UNL     1     -13.580 -43.261  26.080  1.00  0.00     0.168 HD
HETATM   10  C3  UNL     1     -15.606 -43.132  25.924  1.00  0.00     0.140 A 
HETATM   11  C4  UNL     1     -16.654 -43.004  25.012  1.00  0.00     0.083 A 
HETATM   12  C5  UNL     1     -17.816 -42.987  25.708  1.00  0.00     0.094 A 
HETATM   13  N6  UNL     1     -17.453 -43.104  27.029  1.00  0.00    -0.293 N 
ATOM     14  H6  UNL     1     -18.106 -43.124  27.812  1.00  0.00     0.187 HD
HETATM   15  N7  UNL     1     -16.146 -43.188  27.141  1.00  0.00    -0.270 N 
ENDROOT
BRANCH  15  16
HETATM   16  C15 UNL     1     -15.441 -43.321  28.395  1.00  0.00     0.113 C 
HETATM   17  C16 UNL     1     -14.137 -44.037  28.239  1.00  0.00     0.047 C 
HETATM   18  C17 UNL     1     -14.050 -45.199  29.208  1.00  0.00     0.130 C 
HETATM   19  N8  UNL     1     -14.444 -44.813  30.545  1.00  0.00    -0.328 N 
HETATM   20  C18 UNL     1     -13.678 -45.114  31.696  1.00  0.00     0.363 C 
HETATM   21  C27 UNL     1     -15.679 -44.090  30.693  1.00  0.00     0.130 C 
HETATM   22  O1  UNL     1     -14.097 -44.740  32.817  1.00  0.00    -0.238 OA
HETATM   23  C28 UNL     1     -16.389 -44.046  29.360  1.00  0.00     0.047 C 
BRANCH  20  24
HETATM   24  O2  UNL     1     -12.479 -45.806  31.660  1.00  0.00    -0.297 OA
BRANCH  24  25
HETATM   25  C19 UNL     1     -11.220 -45.254  31.903  1.00  0.00     0.162 C 
HETATM   26  C20 UNL     1     -10.192 -46.254  31.357  1.00  0.00     0.036 C 
HETATM   27  C21 UNL     1      -8.854 -45.825  31.906  1.00  0.00     0.038 C 
HETATM   28  C22 UNL     1      -8.871 -44.376  32.334  1.00  0.00     0.223 C 
HETATM   29  C23 UNL     1      -7.439 -43.859  32.144  1.00  0.00     0.037 C 
HETATM   30  N9  UNL     1      -9.617 -43.535  31.442  1.00  0.00     0.095 N 
HETATM   31  C24 UNL     1      -7.398 -43.579  30.657  1.00  0.00     0.032 C 
HETATM   32  C25 UNL     1      -8.840 -43.346  30.257  1.00  0.00     0.273 C 
HETATM   33  C26 UNL     1     -10.966 -43.951  31.218  1.00  0.00     0.305 C 
ENDBRANCH  24  25
ENDBRANCH  20  24
ENDBRANCH  15  16
BRANCH  12  34
HETATM   34  C6  UNL     1     -19.195 -42.877  25.304  1.00  0.00     0.078 A 
HETATM   35  C7  UNL     1     -20.001 -41.738  25.439  1.00  0.00     0.130 A 
HETATM   36  N4  UNL     1     -21.210 -41.991  24.964  1.00  0.00    -0.316 N 
HETATM   37  C14 UNL     1     -21.224 -43.257  24.522  1.00  0.00     0.188 A 
HETATM   38  N5  UNL     1     -20.016 -43.760  24.736  1.00  0.00    -0.349 N 
ATOM     39  H5  UNL     1     -19.745 -44.713  24.493  1.00  0.00     0.167 HD
BRANCH  36  40
HETATM   40  C8  UNL     1     -22.343 -41.085  24.914  1.00  0.00     0.039 A 
HETATM   41  C9  UNL     1     -22.777 -40.516  23.739  1.00  0.00     0.030 A 
HETATM   42  C10 UNL     1     -23.860 -39.651  23.702  1.00  0.00     0.002 A 
HETATM   43  C11 UNL     1     -24.544 -39.330  24.854  1.00  0.00     0.000 A 
HETATM   44  C12 UNL     1     -24.112 -39.899  26.032  1.00  0.00     0.002 A 
HETATM   45  C13 UNL     1     -23.021 -40.770  26.069  1.00  0.00     0.030 A 
ENDBRANCH  36  40
ENDBRANCH  12  34
TORSDOF 5
ENDMDL
MODEL 4
REMARK VINA RESULT: -11.070389725      0.752      1.189
REMARK  5 active torsions:
REMARK  status: ('A' for Active; 'I' for Inactive)
REMARK    1  A    between atoms: C5_12  and  C6_13 
REMARK    2  A    between atoms: N4_15  and  C8_16 
REMARK    3  A    between atoms: N7_27  and  C15_28 
REMARK       I    between atoms: N8_31  and  C18_32 
REMARK    4  A    between atoms: C18_32  and  O2_34 
REMARK    5  A    between atoms: O2_34  and  C19_35 
ROOT
HETATM    1  N1  UNL     1     -16.039 -41.125  21.727  1.00  0.00    -0.385 N 
ATOM      2  H11 UNL     1     -15.581 -41.802  22.337  1.00  0.00     0.157 HD
ATOM      3  H12 UNL     1     -15.523 -40.589  21.029  1.00  0.00     0.157 HD
HETATM    4  C1  UNL     1     -17.295 -40.964  21.863  1.00  0.00     0.116 A 
HETATM    5  N2  UNL     1     -17.906 -40.063  21.051  1.00  0.00    -0.338 N 
ATOM      6  H2  UNL     1     -17.364 -39.541  20.362  1.00  0.00     0.168 HD
HETATM    7  C2  UNL     1     -19.209 -39.866  21.160  1.00  0.00     0.183 A 
HETATM    8  N3  UNL     1     -19.906 -40.557  22.065  1.00  0.00    -0.337 N 
ATOM      9  H3  UNL     1     -20.909 -40.388  22.129  1.00  0.00     0.168 HD
HETATM   10  C3  UNL     1     -19.360 -41.463  22.899  1.00  0.00     0.140 A 
HETATM   11  C4  UNL     1     -17.986 -41.681  22.794  1.00  0.00     0.083 A 
HETATM   12  C5  UNL     1     -17.639 -42.618  23.708  1.00  0.00     0.094 A 
HETATM   13  N6  UNL     1     -18.807 -42.952  24.351  1.00  0.00    -0.293 N 
ATOM     14  H6  UNL     1     -18.882 -43.638  25.102  1.00  0.00     0.187 HD
HETATM   15  N7  UNL     1     -19.814 -42.264  23.863  1.00  0.00    -0.270 N 
ENDROOT
BRANCH  15  16
HETATM   16  C15 UNL     1     -21.180 -42.379  24.319  1.00  0.00     0.113 C 
HETATM   17  C16 UNL     1     -21.415 -41.638  25.597  1.00  0.00     0.047 C 
HETATM   18  C17 UNL     1     -22.038 -42.551  26.633  1.00  0.00     0.130 C 
HETATM   19  N8  UNL     1     -23.145 -43.306  26.087  1.00  0.00    -0.328 N 
HETATM   20  C18 UNL     1     -24.406 -43.403  26.721  1.00  0.00     0.363 C 
HETATM   21  C27 UNL     1     -22.933 -43.987  24.837  1.00  0.00     0.130 C 
HETATM   22  O1  UNL     1     -25.308 -44.080  26.174  1.00  0.00    -0.238 OA
HETATM   23  C28 UNL     1     -21.475 -43.878  24.455  1.00  0.00     0.047 C 
BRANCH  20  24
HETATM   24  O2  UNL     1     -24.708 -42.788  27.924  1.00  0.00    -0.297 OA
BRANCH  24  25
HETATM   25  C19 UNL     1     -24.666 -41.412  28.161  1.00  0.00     0.162 C 
HETATM   26  C20 UNL     1     -25.296 -40.739  26.935  1.00  0.00     0.036 C 
HETATM   27  C21 UNL     1     -24.957 -39.273  27.037  1.00  0.00     0.038 C 
HETATM   28  C22 UNL     1     -24.602 -38.886  28.454  1.00  0.00     0.223 C 
HETATM   29  C23 UNL     1     -25.010 -37.415  28.607  1.00  0.00     0.037 C 
HETATM   30  N9  UNL     1     -25.426 -39.532  29.436  1.00  0.00     0.095 N 
HETATM   31  C24 UNL     1     -26.501 -37.523  28.846  1.00  0.00     0.032 C 
HETATM   32  C25 UNL     1     -26.713 -38.911  29.413  1.00  0.00     0.273 C 
HETATM   33  C26 UNL     1     -25.443 -40.959  29.353  1.00  0.00     0.305 C 
ENDBRANCH  24  25
ENDBRANCH  20  24
ENDBRANCH  15  16
BRANCH  12  34
HETATM   34  C6  UNL     1     -16.379 -43.228  24.052  1.00  0.00     0.078 A 
HETATM   35  C7  UNL     1     -15.815 -43.278  25.334  1.00  0.00     0.130 A 
HETATM   36  N4  UNL     1     -14.655 -43.912  25.284  1.00  0.00    -0.316 N 
HETATM   37  C14 UNL     1     -14.440 -44.280  24.013  1.00  0.00     0.188 A 
HETATM   38  N5  UNL     1     -15.478 -43.862  23.302  1.00  0.00    -0.349 N 
ATOM     39  H5  UNL     1     -15.576 -44.008  22.297  1.00  0.00     0.167 HD
BRANCH  36  40
HETATM   40  C8  UNL     1     -13.750 -44.181  26.387  1.00  0.00     0.039 A 
HETATM   41  C9  UNL     1     -13.138 -43.175  27.097  1.00  0.00     0.030 A 
HETATM   42  C10 UNL     1     -12.275 -43.443  28.149  1.00  0.00     0.002 A 
HETATM   43  C11 UNL     1     -12.000 -44.740  28.521  1.00  0.00     0.000 A 
HETATM   44  C12 UNL     1     -12.612 -45.750  27.812  1.00  0.00     0.002 A 
HETATM   45  C13 UNL     1     -13.481 -45.480  26.752  1.00  0.00     0.030 A 
ENDBRANCH  36  40
ENDBRANCH  12  34
TORSDOF 5
ENDMDL
MODEL 5
REMARK VINA RESULT: -11.069293797      4.746      6.398
REMARK  5 active torsions:
REMARK  status: ('A' for Active; 'I' for Inactive)
REMARK    1  A    between atoms: C5_12  and  C6_13 
REMARK    2  A    between atoms: N4_15  and  C8_16 
REMARK    3  A    between atoms: N7_27  and  C15_28 
REMARK       I    between atoms: N8_31  and  C18_32 
REMARK    4  A    between atoms: C18_32  and  O2_34 
REMARK    5  A    between atoms: O2_34  and  C19_35 
ROOT
HETATM    1  N1  UNL     1     -18.484 -43.204  26.386  1.00  0.00    -0.385 N 
ATOM      2  H11 UNL     1     -17.581 -43.489  26.008  1.00  0.00     0.157 HD
ATOM      3  H12 UNL     1     -18.789 -43.477  27.321  1.00  0.00     0.157 HD
HETATM    4  C1  UNL     1     -19.235 -42.489  25.646  1.00  0.00     0.116 A 
HETATM    5  N2  UNL     1     -20.439 -42.111  26.150  1.00  0.00    -0.338 N 
ATOM      6  H2  UNL     1     -20.716 -42.398  27.089  1.00  0.00     0.168 HD
HETATM    7  C2  UNL     1     -21.248 -41.368  25.414  1.00  0.00     0.183 A 
HETATM    8  N3  UNL     1     -20.870 -41.000  24.188  1.00  0.00    -0.337 N 
ATOM      9  H3  UNL     1     -21.511 -40.426  23.640  1.00  0.00     0.168 HD
HETATM   10  C3  UNL     1     -19.692 -41.341  23.631  1.00  0.00     0.140 A 
HETATM   11  C4  UNL     1     -18.828 -42.125  24.397  1.00  0.00     0.083 A 
HETATM   12  C5  UNL     1     -17.712 -42.356  23.666  1.00  0.00     0.094 A 
HETATM   13  N6  UNL     1     -17.917 -41.709  22.470  1.00  0.00    -0.293 N 
ATOM     14  H6  UNL     1     -17.254 -41.693  21.696  1.00  0.00     0.187 HD
HETATM   15  N7  UNL     1     -19.089 -41.114  22.465  1.00  0.00    -0.270 N 
ENDROOT
BRANCH  15  16
HETATM   16  C15 UNL     1     -19.611 -40.347  21.357  1.00  0.00     0.113 C 
HETATM   17  C16 UNL     1     -19.796 -38.904  21.705  1.00  0.00     0.047 C 
HETATM   18  C17 UNL     1     -21.209 -38.458  21.388  1.00  0.00     0.130 C 
HETATM   19  N8  UNL     1     -21.623 -38.886  20.069  1.00  0.00    -0.328 N 
HETATM   20  C18 UNL     1     -22.221 -38.018  19.125  1.00  0.00     0.363 C 
HETATM   21  C27 UNL     1     -21.409 -40.265  19.719  1.00  0.00     0.130 C 
HETATM   22  O1  UNL     1     -22.548 -38.475  18.004  1.00  0.00    -0.238 OA
HETATM   23  C28 UNL     1     -20.926 -41.015  20.937  1.00  0.00     0.047 C 
BRANCH  20  24
HETATM   24  O2  UNL     1     -22.471 -36.677  19.366  1.00  0.00    -0.297 OA
BRANCH  24  25
HETATM   25  C19 UNL     1     -23.683 -36.150  19.816  1.00  0.00     0.162 C 
HETATM   26  C20 UNL     1     -24.432 -35.654  18.572  1.00  0.00     0.036 C 
HETATM   27  C21 UNL     1     -25.568 -34.800  19.077  1.00  0.00     0.038 C 
HETATM   28  C22 UNL     1     -25.899 -35.115  20.517  1.00  0.00     0.223 C 
HETATM   29  C23 UNL     1     -27.397 -34.824  20.682  1.00  0.00     0.037 C 
HETATM   30  N9  UNL     1     -25.828 -36.517  20.815  1.00  0.00     0.095 N 
HETATM   31  C24 UNL     1     -28.027 -36.073  20.103  1.00  0.00     0.032 C 
HETATM   32  C25 UNL     1     -26.974 -37.151  20.242  1.00  0.00     0.273 C 
HETATM   33  C26 UNL     1     -24.577 -37.132  20.499  1.00  0.00     0.305 C 
ENDBRANCH  24  25
ENDBRANCH  20  24
ENDBRANCH  15  16
BRANCH  12  34
HETATM   34  C6  UNL     1     -16.502 -43.091  23.936  1.00  0.00     0.078 A 
HETATM   35  C7  UNL     1     -15.858 -43.181  25.178  1.00  0.00     0.130 A 
HETATM   36  N4  UNL     1     -14.777 -43.935  25.063  1.00  0.00    -0.316 N 
HETATM   37  C14 UNL     1     -14.690 -44.343  23.788  1.00  0.00     0.188 A 
HETATM   38  N5  UNL     1     -15.726 -43.827  23.141  1.00  0.00    -0.349 N 
ATOM     39  H5  UNL     1     -15.909 -43.977  22.149  1.00  0.00     0.167 HD
BRANCH  36  40
HETATM   40  C8  UNL     1     -13.830 -44.281  26.108  1.00  0.00     0.039 A 
HETATM   41  C9  UNL     1     -13.577 -45.584  26.467  1.00  0.00     0.030 A 
HETATM   42  C10 UNL     1     -12.671 -45.904  27.467  1.00  0.00     0.002 A 
HETATM   43  C11 UNL     1     -11.988 -44.916  28.141  1.00  0.00     0.000 A 
HETATM   44  C12 UNL     1     -12.240 -43.610  27.783  1.00  0.00     0.002 A 
HETATM   45  C13 UNL     1     -13.152 -43.288  26.776  1.00  0.00     0.030 A 
ENDBRANCH  36  40
ENDBRANCH  12  34
TORSDOF 5
ENDMDL
