MODEL 1
REMARK VINA RESULT: -11.911340844      0.000      0.000
REMARK  5 active torsions:
REMARK  status: ('A' for Active; 'I' for Inactive)
REMARK    1  A    between atoms: N3_9  and  C6_11 
REMARK    2  A    between atoms: C9_14  and  N4_15 
REMARK    3  A    between atoms: N4_15  and  C10_16 
REMARK    4  A    between atoms: C16_27  and  N8_28 
REMARK    5  A    between atoms: N9_31  and  C19_32 
ROOT
HETATM    1  N1  UNL     1     -27.833 -43.608  28.806  1.00  0.00    -0.191 NA
HETATM    2  C1  UNL     1     -26.729 -43.782  28.491  1.00  0.00     0.099 C 
HETATM    3  C2  UNL     1     -25.351 -43.988  28.125  1.00  0.00     0.049 A 
HETATM    4  C3  UNL     1     -24.929 -45.255  27.816  1.00  0.00     0.040 A 
HETATM    5  C4  UNL     1     -23.611 -45.428  27.474  1.00  0.00     0.091 A 
HETATM    6  N2  UNL     1     -22.734 -44.388  27.435  1.00  0.00    -0.352 N 
ATOM      7  H2  UNL     1     -21.763 -44.561  27.175  1.00  0.00     0.166 HD
HETATM    8  C5  UNL     1     -23.125 -43.139  27.734  1.00  0.00     0.106 A 
HETATM    9  N3  UNL     1     -22.292 -42.186  27.705  1.00  0.00    -0.342 N 
ATOM     10  H3  UNL     1     -22.617 -41.247  27.935  1.00  0.00     0.167 HD
HETATM   11  C29 UNL     1     -24.435 -42.938  28.079  1.00  0.00     0.071 A 
ENDROOT
BRANCH   9  12
HETATM   12  C6  UNL     1     -20.921 -42.368  27.363  1.00  0.00     0.033 A 
HETATM   13  C7  UNL     1     -19.985 -42.681  28.318  1.00  0.00     0.033 A 
HETATM   14  C8  UNL     1     -18.677 -42.886  27.973  1.00  0.00     0.047 A 
HETATM   15  C9  UNL     1     -18.216 -42.790  26.639  1.00  0.00     0.107 A 
HETATM   16  C27 UNL     1     -19.207 -42.466  25.698  1.00  0.00     0.047 A 
HETATM   17  C28 UNL     1     -20.517 -42.262  26.052  1.00  0.00     0.033 A 
BRANCH  15  18
HETATM   18  N4  UNL     1     -16.959 -43.008  26.337  1.00  0.00    -0.402 NA
BRANCH  18  19
HETATM   19  C10 UNL     1     -15.831 -43.185  26.048  1.00  0.00     0.159 A 
HETATM   20  C11 UNL     1     -15.344 -42.912  24.771  1.00  0.00     0.102 A 
HETATM   21  C12 UNL     1     -16.226 -42.420  23.724  1.00  0.00     0.104 C 
HETATM   22  C13 UNL     1     -14.013 -43.117  24.527  1.00  0.00     0.114 A 
HETATM   23  N5  UNL     1     -16.928 -42.039  22.888  1.00  0.00    -0.191 NA
HETATM   24  N6  UNL     1     -13.158 -43.564  25.443  1.00  0.00    -0.361 N 
HETATM   25  C14 UNL     1     -13.563 -43.844  26.680  1.00  0.00     0.079 A 
ATOM     26  H6  UNL     1     -12.177 -43.695  25.194  1.00  0.00     0.165 HD
HETATM   27  C15 UNL     1     -12.670 -44.312  27.653  1.00  0.00     0.138 A 
HETATM   28  C26 UNL     1     -14.883 -43.658  26.982  1.00  0.00     0.119 A 
HETATM   29  N7  UNL     1     -13.167 -44.562  28.868  1.00  0.00    -0.200 N 
HETATM   30  C16 UNL     1     -14.463 -44.396  29.213  1.00  0.00     0.680 A 
ATOM     31  H7  UNL     1     -12.525 -44.903  29.583  1.00  0.00     0.183 HD
HETATM   32  N11 UNL     1     -15.283 -43.943  28.243  1.00  0.00    -0.186 N 
ATOM     33  H11 UNL     1     -16.267 -43.806  28.474  1.00  0.00     0.184 HD
BRANCH  30  34
HETATM   34  N8  UNL     1     -14.920 -44.675  30.531  1.00  0.00    -0.214 N 
HETATM   35  C17 UNL     1     -15.645 -43.630  31.225  1.00  0.00     0.161 C 
HETATM   36  C18 UNL     1     -14.796 -43.114  32.348  1.00  0.00     0.145 C 
HETATM   37  N9  UNL     1     -13.745 -44.110  32.620  1.00  0.00    -0.364 N 
HETATM   38  C24 UNL     1     -14.038 -45.505  32.575  1.00  0.00     0.145 C 
HETATM   39  C25 UNL     1     -14.695 -45.914  31.241  1.00  0.00     0.161 C 
BRANCH  37  40
HETATM   40  C19 UNL     1     -12.459 -43.588  32.933  1.00  0.00     0.102 A 
HETATM   41  C20 UNL     1     -11.333 -44.118  32.368  1.00  0.00     0.048 A 
HETATM   42  C21 UNL     1     -10.084 -43.595  32.695  1.00  0.00     0.005 A 
HETATM   43  C22 UNL     1     -10.003 -42.557  33.574  1.00  0.00     0.017 A 
HETATM   44  C23 UNL     1     -11.167 -42.065  34.109  1.00  0.00     0.089 A 
HETATM   45  N10 UNL     1     -12.363 -42.543  33.818  1.00  0.00    -0.352 N 
ATOM     46  H10 UNL     1     -13.199 -42.142  34.241  1.00  0.00     0.166 HD
ENDBRANCH  37  40
ENDBRANCH  30  34
ENDBRANCH  18  19
ENDBRANCH  15  18
ENDBRANCH   9  12
TORSDOF 5
ENDMDL
MODEL 2
REMARK VINA RESULT: -11.469117025      2.502      3.395
REMARK  5 active torsions:
REMARK  status: ('A' for Active; 'I' for Inactive)
REMARK    1  A    between atoms: N3_9  and  C6_11 
REMARK    2  A    between atoms: C9_14  and  N4_15 
REMARK    3  A    between atoms: N4_15  and  C10_16 
REMARK    4  A    between atoms: C16_27  and  N8_28 
REMARK    5  A    between atoms: N9_31  and  C19_32 
ROOT
HETATM    1  N1  UNL     1     -27.292 -45.242  31.480  1.00  0.00    -0.191 NA
HETATM    2  C1  UNL     1     -26.497 -44.784  30.769  1.00  0.00     0.099 C 
HETATM    3  C2  UNL     1     -25.511 -44.241  29.870  1.00  0.00     0.049 A 
HETATM    4  C3  UNL     1     -25.796 -43.082  29.195  1.00  0.00     0.040 A 
HETATM    5  C4  UNL     1     -24.844 -42.584  28.341  1.00  0.00     0.091 A 
HETATM    6  N2  UNL     1     -23.647 -43.204  28.158  1.00  0.00    -0.352 N 
ATOM      7  H2  UNL     1     -22.966 -42.799  27.514  1.00  0.00     0.166 HD
HETATM    8  C5  UNL     1     -23.346 -44.339  28.809  1.00  0.00     0.106 A 
HETATM    9  N3  UNL     1     -22.231 -44.908  28.616  1.00  0.00    -0.342 N 
ATOM     10  H3  UNL     1     -22.028 -45.769  29.124  1.00  0.00     0.167 HD
HETATM   11  C29 UNL     1     -24.278 -44.858  29.667  1.00  0.00     0.071 A 
ENDROOT
BRANCH   9  12
HETATM   12  C6  UNL     1     -21.248 -44.398  27.719  1.00  0.00     0.033 A 
HETATM   13  C7  UNL     1     -20.307 -43.488  28.137  1.00  0.00     0.033 A 
HETATM   14  C8  UNL     1     -19.348 -43.030  27.276  1.00  0.00     0.047 A 
HETATM   15  C9  UNL     1     -19.268 -43.454  25.929  1.00  0.00     0.107 A 
HETATM   16  C27 UNL     1     -20.250 -44.382  25.546  1.00  0.00     0.047 A 
HETATM   17  C28 UNL     1     -21.208 -44.836  26.416  1.00  0.00     0.033 A 
BRANCH  15  18
HETATM   18  N4  UNL     1     -18.327 -43.008  25.131  1.00  0.00    -0.402 NA
BRANCH  18  19
HETATM   19  C10 UNL     1     -17.466 -42.623  24.426  1.00  0.00     0.159 A 
HETATM   20  C11 UNL     1     -17.721 -41.802  23.330  1.00  0.00     0.102 A 
HETATM   21  C12 UNL     1     -19.079 -41.408  22.990  1.00  0.00     0.104 C 
HETATM   22  C13 UNL     1     -16.660 -41.373  22.579  1.00  0.00     0.114 A 
HETATM   23  N5  UNL     1     -20.161 -41.103  22.713  1.00  0.00    -0.191 NA
HETATM   24  N6  UNL     1     -15.396 -41.699  22.840  1.00  0.00    -0.361 N 
HETATM   25  C14 UNL     1     -15.089 -42.481  23.873  1.00  0.00     0.079 A 
ATOM     26  H6  UNL     1     -14.651 -41.344  22.240  1.00  0.00     0.165 HD
HETATM   27  C15 UNL     1     -13.762 -42.826  24.158  1.00  0.00     0.138 A 
HETATM   28  C26 UNL     1     -16.110 -42.940  24.658  1.00  0.00     0.119 A 
HETATM   29  N7  UNL     1     -13.550 -43.613  25.217  1.00  0.00    -0.200 N 
HETATM   30  C16 UNL     1     -14.524 -44.092  26.021  1.00  0.00     0.680 A 
ATOM     31  H7  UNL     1     -12.587 -43.870  25.433  1.00  0.00     0.183 HD
HETATM   32  N11 UNL     1     -15.785 -43.731  25.706  1.00  0.00    -0.186 N 
ATOM     33  H11 UNL     1     -16.543 -44.076  26.296  1.00  0.00     0.184 HD
BRANCH  30  34
HETATM   34  N8  UNL     1     -14.224 -44.919  27.139  1.00  0.00    -0.214 N 
HETATM   35  C17 UNL     1     -14.650 -44.462  28.446  1.00  0.00     0.161 C 
HETATM   36  C18 UNL     1     -13.439 -44.086  29.246  1.00  0.00     0.145 C 
HETATM   37  N9  UNL     1     -12.262 -44.703  28.612  1.00  0.00    -0.364 N 
HETATM   38  C24 UNL     1     -12.337 -46.021  28.072  1.00  0.00     0.145 C 
HETATM   39  C25 UNL     1     -13.502 -46.171  27.073  1.00  0.00     0.161 C 
BRANCH  37  40
HETATM   40  C19 UNL     1     -11.080 -43.913  28.591  1.00  0.00     0.102 A 
HETATM   41  C20 UNL     1     -10.984 -42.818  27.778  1.00  0.00     0.048 A 
HETATM   42  C21 UNL     1      -9.813 -42.063  27.770  1.00  0.00     0.005 A 
HETATM   43  C22 UNL     1      -8.778 -42.427  28.576  1.00  0.00     0.017 A 
HETATM   44  C23 UNL     1      -8.930 -43.535  29.372  1.00  0.00     0.089 A 
HETATM   45  N10 UNL     1     -10.027 -44.268  29.399  1.00  0.00    -0.352 N 
ATOM     46  H10 UNL     1     -10.093 -45.083  30.008  1.00  0.00     0.166 HD
ENDBRANCH  37  40
ENDBRANCH  30  34
ENDBRANCH  18  19
ENDBRANCH  15  18
ENDBRANCH   9  12
TORSDOF 5
ENDMDL
MODEL 3
REMARK VINA RESULT: -11.455322527      1.275      1.847
REMARK  5 active torsions:
REMARK  status: ('A' for Active; 'I' for Inactive)
REMARK    1  A    between atoms: N3_9  and  C6_11 
REMARK    2  A    between atoms: C9_14  and  N4_15 
REMARK    3  A    between atoms: N4_15  and  C10_16 
REMARK    4  A    between atoms: C16_27  and  N8_28 
REMARK    5  A    between atoms: N9_31  and  C19_32 
ROOT
HETATM    1  N1  UNL     1     -27.977 -40.703  27.863  1.00  0.00    -0.191 NA
HETATM    2  C1  UNL     1     -26.850 -40.743  27.588  1.00  0.00     0.099 C 
HETATM    3  C2  UNL     1     -25.455 -40.820  27.235  1.00  0.00     0.049 A 
HETATM    4  C3  UNL     1     -24.924 -39.854  26.419  1.00  0.00     0.040 A 
HETATM    5  C4  UNL     1     -23.594 -39.949  26.092  1.00  0.00     0.091 A 
HETATM    6  N2  UNL     1     -22.809 -40.960  26.554  1.00  0.00    -0.352 N 
ATOM      7  H2  UNL     1     -21.825 -40.992  26.287  1.00  0.00     0.166 HD
HETATM    8  C5  UNL     1     -23.308 -41.916  27.354  1.00  0.00     0.106 A 
HETATM    9  N3  UNL     1     -22.565 -42.856  27.764  1.00  0.00    -0.342 N 
ATOM     10  H3  UNL     1     -22.969 -43.568  28.371  1.00  0.00     0.167 HD
HETATM   11  C29 UNL     1     -24.632 -41.845  27.696  1.00  0.00     0.071 A 
ENDROOT
BRANCH   9  12
HETATM   12  C6  UNL     1     -21.188 -42.961  27.413  1.00  0.00     0.033 A 
HETATM   13  C7  UNL     1     -20.801 -43.346  26.153  1.00  0.00     0.033 A 
HETATM   14  C8  UNL     1     -19.477 -43.412  25.818  1.00  0.00     0.047 A 
HETATM   15  C9  UNL     1     -18.443 -43.095  26.730  1.00  0.00     0.107 A 
HETATM   16  C27 UNL     1     -18.885 -42.708  28.006  1.00  0.00     0.047 A 
HETATM   17  C28 UNL     1     -20.215 -42.645  28.333  1.00  0.00     0.033 A 
BRANCH  15  18
HETATM   18  N4  UNL     1     -17.182 -43.152  26.375  1.00  0.00    -0.402 NA
BRANCH  18  19
HETATM   19  C10 UNL     1     -16.056 -43.195  26.032  1.00  0.00     0.159 A 
HETATM   20  C11 UNL     1     -15.662 -42.842  24.743  1.00  0.00     0.102 A 
HETATM   21  C12 UNL     1     -16.641 -42.432  23.748  1.00  0.00     0.104 C 
HETATM   22  C13 UNL     1     -14.329 -42.890  24.436  1.00  0.00     0.114 A 
HETATM   23  N5  UNL     1     -17.419 -42.115  22.953  1.00  0.00    -0.191 NA
HETATM   24  N6  UNL     1     -13.388 -43.257  25.302  1.00  0.00    -0.361 N 
HETATM   25  C14 UNL     1     -13.702 -43.606  26.548  1.00  0.00     0.079 A 
ATOM     26  H6  UNL     1     -12.412 -43.270  25.007  1.00  0.00     0.165 HD
HETATM   27  C15 UNL     1     -12.718 -43.989  27.469  1.00  0.00     0.138 A 
HETATM   28  C26 UNL     1     -15.019 -43.577  26.911  1.00  0.00     0.119 A 
HETATM   29  N7  UNL     1     -13.128 -44.320  28.697  1.00  0.00    -0.200 N 
HETATM   30  C16 UNL     1     -14.416 -44.308  29.103  1.00  0.00     0.680 A 
ATOM     31  H7  UNL     1     -12.419 -44.600  29.374  1.00  0.00     0.183 HD
HETATM   32  N11 UNL     1     -15.326 -43.931  28.181  1.00  0.00    -0.186 N 
ATOM     33  H11 UNL     1     -16.307 -43.911  28.458  1.00  0.00     0.184 HD
BRANCH  30  34
HETATM   34  N8  UNL     1     -14.778 -44.664  30.432  1.00  0.00    -0.214 N 
HETATM   35  C17 UNL     1     -15.407 -43.648  31.251  1.00  0.00     0.161 C 
HETATM   36  C18 UNL     1     -14.453 -43.240  32.333  1.00  0.00     0.145 C 
HETATM   37  N9  UNL     1     -13.422 -44.284  32.452  1.00  0.00    -0.364 N 
HETATM   38  C24 UNL     1     -13.769 -45.663  32.336  1.00  0.00     0.145 C 
HETATM   39  C25 UNL     1     -14.544 -45.957  31.035  1.00  0.00     0.161 C 
BRANCH  37  40
HETATM   40  C19 UNL     1     -12.097 -43.827  32.693  1.00  0.00     0.102 A 
HETATM   41  C20 UNL     1     -11.021 -44.507  32.198  1.00  0.00     0.048 A 
HETATM   42  C21 UNL     1      -9.732 -44.043  32.453  1.00  0.00     0.005 A 
HETATM   43  C22 UNL     1      -9.563 -42.913  33.194  1.00  0.00     0.017 A 
HETATM   44  C23 UNL     1     -10.680 -42.270  33.665  1.00  0.00     0.089 A 
HETATM   45  N10 UNL     1     -11.912 -42.689  33.439  1.00  0.00    -0.352 N 
ATOM     46  H10 UNL     1     -12.711 -42.176  33.811  1.00  0.00     0.166 HD
ENDBRANCH  37  40
ENDBRANCH  30  34
ENDBRANCH  18  19
ENDBRANCH  15  18
ENDBRANCH   9  12
TORSDOF 5
ENDMDL
MODEL 4
REMARK VINA RESULT: -11.377212418      3.283     10.047
REMARK  5 active torsions:
REMARK  status: ('A' for Active; 'I' for Inactive)
REMARK    1  A    between atoms: N3_9  and  C6_11 
REMARK    2  A    between atoms: C9_14  and  N4_15 
REMARK    3  A    between atoms: N4_15  and  C10_16 
REMARK    4  A    between atoms: C16_27  and  N8_28 
REMARK    5  A    between atoms: N9_31  and  C19_32 
ROOT
HETATM    1  N1  UNL     1     -11.235 -46.206  28.101  1.00  0.00    -0.191 NA
HETATM    2  C1  UNL     1     -12.195 -45.616  27.823  1.00  0.00     0.099 C 
HETATM    3  C2  UNL     1     -13.395 -44.907  27.460  1.00  0.00     0.049 A 
HETATM    4  C3  UNL     1     -14.272 -44.539  28.448  1.00  0.00     0.040 A 
HETATM    5  C4  UNL     1     -15.411 -43.867  28.079  1.00  0.00     0.091 A 
HETATM    6  N2  UNL     1     -15.680 -43.565  26.780  1.00  0.00    -0.352 N 
ATOM      7  H2  UNL     1     -16.538 -43.063  26.549  1.00  0.00     0.166 HD
HETATM    8  C5  UNL     1     -14.836 -43.915  25.796  1.00  0.00     0.106 A 
HETATM    9  N3  UNL     1     -15.109 -43.635  24.592  1.00  0.00    -0.342 N 
ATOM     10  H3  UNL     1     -14.449 -43.912  23.865  1.00  0.00     0.167 HD
HETATM   11  C29 UNL     1     -13.692 -44.586  26.136  1.00  0.00     0.071 A 
ENDROOT
BRANCH   9  12
HETATM   12  C6  UNL     1     -16.298 -42.950  24.208  1.00  0.00     0.033 A 
HETATM   13  C7  UNL     1     -16.361 -42.233  23.039  1.00  0.00     0.033 A 
HETATM   14  C8  UNL     1     -17.517 -41.605  22.665  1.00  0.00     0.047 A 
HETATM   15  C9  UNL     1     -18.697 -41.655  23.444  1.00  0.00     0.107 A 
HETATM   16  C27 UNL     1     -18.586 -42.397  24.631  1.00  0.00     0.047 A 
HETATM   17  C28 UNL     1     -17.422 -43.023  24.998  1.00  0.00     0.033 A 
BRANCH  15  18
HETATM   18  N4  UNL     1     -19.796 -41.056  23.052  1.00  0.00    -0.402 NA
BRANCH  18  19
HETATM   19  C10 UNL     1     -20.788 -40.513  22.724  1.00  0.00     0.159 A 
HETATM   20  C11 UNL     1     -20.912 -39.887  21.485  1.00  0.00     0.102 A 
HETATM   21  C12 UNL     1     -19.798 -39.851  20.550  1.00  0.00     0.104 C 
HETATM   22  C13 UNL     1     -22.110 -39.306  21.168  1.00  0.00     0.114 A 
HETATM   23  N5  UNL     1     -18.909 -39.814  19.810  1.00  0.00    -0.191 NA
HETATM   24  N6  UNL     1     -23.164 -39.306  21.980  1.00  0.00    -0.361 N 
HETATM   25  C14 UNL     1     -23.107 -39.887  23.177  1.00  0.00     0.079 A 
ATOM     26  H6  UNL     1     -24.028 -38.854  21.682  1.00  0.00     0.165 HD
HETATM   27  C15 UNL     1     -24.212 -39.896  24.038  1.00  0.00     0.138 A 
HETATM   28  C26 UNL     1     -21.935 -40.484  23.547  1.00  0.00     0.119 A 
HETATM   29  N7  UNL     1     -24.063 -40.507  25.217  1.00  0.00    -0.200 N 
HETATM   30  C16 UNL     1     -22.925 -41.108  25.628  1.00  0.00     0.680 A 
ATOM     31  H7  UNL     1     -24.862 -40.519  25.850  1.00  0.00     0.183 HD
HETATM   32  N11 UNL     1     -21.890 -41.074  24.764  1.00  0.00    -0.186 N 
ATOM     33  H11 UNL     1     -21.017 -41.521  25.045  1.00  0.00     0.184 HD
BRANCH  30  34
HETATM   34  N8  UNL     1     -22.841 -41.748  26.896  1.00  0.00    -0.214 N 
HETATM   35  C17 UNL     1     -21.521 -41.957  27.455  1.00  0.00     0.161 C 
HETATM   36  C18 UNL     1     -21.216 -43.425  27.441  1.00  0.00     0.145 C 
HETATM   37  N9  UNL     1     -22.485 -44.154  27.281  1.00  0.00    -0.364 N 
HETATM   38  C24 UNL     1     -23.666 -43.711  27.949  1.00  0.00     0.145 C 
HETATM   39  C25 UNL     1     -23.972 -42.228  27.657  1.00  0.00     0.161 C 
BRANCH  37  40
HETATM   40  C19 UNL     1     -22.442 -45.304  26.444  1.00  0.00     0.102 A 
HETATM   41  C20 UNL     1     -21.248 -45.872  26.098  1.00  0.00     0.048 A 
HETATM   42  C21 UNL     1     -21.230 -46.994  25.273  1.00  0.00     0.005 A 
HETATM   43  C22 UNL     1     -22.407 -47.511  24.822  1.00  0.00     0.017 A 
HETATM   44  C23 UNL     1     -23.575 -46.899  25.202  1.00  0.00     0.089 A 
HETATM   45  N10 UNL     1     -23.620 -45.835  25.983  1.00  0.00    -0.352 N 
ATOM     46  H10 UNL     1     -24.514 -45.416  26.238  1.00  0.00     0.166 HD
ENDBRANCH  37  40
ENDBRANCH  30  34
ENDBRANCH  18  19
ENDBRANCH  15  18
ENDBRANCH   9  12
TORSDOF 5
ENDMDL
MODEL 5
REMARK VINA RESULT: -11.276261306      3.723     10.694
REMARK  5 active torsions:
REMARK  status: ('A' for Active; 'I' for Inactive)
REMARK    1  A    between atoms: N3_9  and  C6_11 
REMARK    2  A    between atoms: C9_14  and  N4_15 
REMARK    3  A    between atoms: N4_15  and  C10_16 
REMARK    4  A    between atoms: C16_27  and  N8_28 
REMARK    5  A    between atoms: N9_31  and  C19_32 
ROOT
HETATM    1  N1  UNL     1     -10.251 -45.817  30.101  1.00  0.00    -0.191 NA
HETATM    2  C1  UNL     1     -11.086 -45.697  29.304  1.00  0.00     0.099 C 
HETATM    3  C2  UNL     1     -12.109 -45.523  28.304  1.00  0.00     0.049 A 
HETATM    4  C3  UNL     1     -12.274 -46.493  27.350  1.00  0.00     0.040 A 
HETATM    5  C4  UNL     1     -13.253 -46.305  26.405  1.00  0.00     0.091 A 
HETATM    6  N2  UNL     1     -14.046 -45.199  26.400  1.00  0.00    -0.352 N 
ATOM      7  H2  UNL     1     -14.762 -45.100  25.680  1.00  0.00     0.166 HD
HETATM    8  C5  UNL     1     -13.902 -44.237  27.325  1.00  0.00     0.106 A 
HETATM    9  N3  UNL     1     -14.641 -43.210  27.297  1.00  0.00    -0.342 N 
ATOM     10  H3  UNL     1     -14.511 -42.495  28.013  1.00  0.00     0.167 HD
HETATM   11  C29 UNL     1     -12.933 -44.400  28.279  1.00  0.00     0.071 A 
ENDROOT
BRANCH   9  12
HETATM   12  C6  UNL     1     -15.648 -43.009  26.308  1.00  0.00     0.033 A 
HETATM   13  C7  UNL     1     -16.982 -43.081  26.626  1.00  0.00     0.033 A 
HETATM   14  C8  UNL     1     -17.939 -42.855  25.675  1.00  0.00     0.047 A 
HETATM   15  C9  UNL     1     -17.622 -42.540  24.333  1.00  0.00     0.107 A 
HETATM   16  C27 UNL     1     -16.246 -42.479  24.055  1.00  0.00     0.047 A 
HETATM   17  C28 UNL     1     -15.293 -42.708  25.014  1.00  0.00     0.033 A 
BRANCH  15  18
HETATM   18  N4  UNL     1     -18.562 -42.313  23.448  1.00  0.00    -0.402 NA
BRANCH  18  19
HETATM   19  C10 UNL     1     -19.400 -42.084  22.653  1.00  0.00     0.159 A 
HETATM   20  C11 UNL     1     -19.180 -41.232  21.572  1.00  0.00     0.102 A 
HETATM   21  C12 UNL     1     -17.902 -40.559  21.399  1.00  0.00     0.104 C 
HETATM   22  C13 UNL     1     -20.197 -41.044  20.676  1.00  0.00     0.114 A 
HETATM   23  N5  UNL     1     -16.889 -40.015  21.266  1.00  0.00    -0.191 NA
HETATM   24  N6  UNL     1     -21.386 -41.632  20.781  1.00  0.00    -0.361 N 
HETATM   25  C14 UNL     1     -21.657 -42.456  21.791  1.00  0.00     0.079 A 
ATOM     26  H6  UNL     1     -22.101 -41.448  20.076  1.00  0.00     0.165 HD
HETATM   27  C15 UNL     1     -22.904 -43.082  21.908  1.00  0.00     0.138 A 
HETATM   28  C26 UNL     1     -20.678 -42.680  22.718  1.00  0.00     0.119 A 
HETATM   29  N7  UNL     1     -23.084 -43.895  22.953  1.00  0.00    -0.200 N 
HETATM   30  C16 UNL     1     -22.149 -44.148  23.895  1.00  0.00     0.680 A 
ATOM     31  H7  UNL     1     -23.989 -44.356  23.047  1.00  0.00     0.183 HD
HETATM   32  N11 UNL     1     -20.964 -43.522  23.738  1.00  0.00    -0.186 N 
ATOM     33  H11 UNL     1     -20.237 -43.694  24.433  1.00  0.00     0.184 HD
BRANCH  30  34
HETATM   34  N8  UNL     1     -22.407 -45.033  24.978  1.00  0.00    -0.214 N 
HETATM   35  C17 UNL     1     -21.267 -45.564  25.697  1.00  0.00     0.161 C 
HETATM   36  C18 UNL     1     -21.147 -47.029  25.402  1.00  0.00     0.145 C 
HETATM   37  N9  UNL     1     -22.435 -47.493  24.859  1.00  0.00    -0.364 N 
HETATM   38  C24 UNL     1     -23.665 -47.005  25.393  1.00  0.00     0.145 C 
HETATM   39  C25 UNL     1     -23.721 -45.464  25.399  1.00  0.00     0.161 C 
BRANCH  37  40
HETATM   40  C19 UNL     1     -22.360 -48.443  23.803  1.00  0.00     0.102 A 
HETATM   41  C20 UNL     1     -22.335 -48.037  22.498  1.00  0.00     0.048 A 
HETATM   42  C21 UNL     1     -22.267 -48.987  21.480  1.00  0.00     0.005 A 
HETATM   43  C22 UNL     1     -22.225 -50.309  21.802  1.00  0.00     0.017 A 
HETATM   44  C23 UNL     1     -22.253 -50.658  23.129  1.00  0.00     0.089 A 
HETATM   45  N10 UNL     1     -22.317 -49.780  24.113  1.00  0.00    -0.352 N 
ATOM     46  H10 UNL     1     -22.335 -50.088  25.084  1.00  0.00     0.166 HD
ENDBRANCH  37  40
ENDBRANCH  30  34
ENDBRANCH  18  19
ENDBRANCH  15  18
ENDBRANCH   9  12
TORSDOF 5
ENDMDL
