MODEL 1
REMARK VINA RESULT: -11.654798235      0.000      0.000
REMARK  6 active torsions:
REMARK  status: ('A' for Active; 'I' for Inactive)
REMARK    1  A    between atoms: C3_3  and  C4_4 
REMARK    2  A    between atoms: C4_4  and  C6_7 
REMARK    3  A    between atoms: C11_15  and  C12_16 
REMARK    4  A    between atoms: C13_17  and  C14_18 
REMARK    5  A    between atoms: C16_23  and  N4_24 
REMARK       I    between atoms: N4_24  and  C17_26 
REMARK       I    between atoms: C17_26  and  N5_28 
REMARK    6  A    between atoms: C20_31  and  C21_32 
ROOT
HETATM    1  C4  UNL     1     -20.459 -42.940  25.443  1.00  0.00     0.178 C 
HETATM    2  C5  UNL     1     -20.899 -42.588  26.794  1.00  0.00     0.075 C 
HETATM    3  N1  UNL     1     -21.269 -42.293  27.863  1.00  0.00    -0.196 NA
ENDROOT
BRANCH   1   4
HETATM    4  C3  UNL     1     -19.004 -42.888  25.309  1.00  0.00     0.057 A 
HETATM    5  C2  UNL     1     -18.248 -42.594  24.223  1.00  0.00     0.056 A 
HETATM    6  C1  UNL     1     -18.704 -42.229  22.849  1.00  0.00     0.072 C 
HETATM    7  N7  UNL     1     -16.950 -42.682  24.600  1.00  0.00    -0.241 N 
HETATM    8  C10 UNL     1     -16.901 -43.024  25.897  1.00  0.00     0.148 A 
HETATM    9  N6  UNL     1     -15.818 -42.498  23.942  1.00  0.00    -0.301 N 
HETATM   10  N2  UNL     1     -18.162 -43.150  26.331  1.00  0.00    -0.340 N 
HETATM   11  C11 UNL     1     -15.677 -43.175  26.512  1.00  0.00     0.091 A 
ATOM     12  H2  UNL     1     -18.441 -43.403  27.278  1.00  0.00     0.167 HD
HETATM   13  C16 UNL     1     -14.460 -42.987  25.840  1.00  0.00     0.075 A 
HETATM   14  C28 UNL     1     -14.586 -42.641  24.523  1.00  0.00     0.139 A 
ATOM     15  H6  UNL     1     -15.865 -42.237  22.957  1.00  0.00     0.186 HD
BRANCH  11  16
HETATM   16  C12 UNL     1     -15.655 -43.540  27.889  1.00  0.00    -0.058 C 
HETATM   17  C13 UNL     1     -15.641 -43.858  29.056  1.00  0.00    -0.066 C 
BRANCH  17  18
HETATM   18  C14 UNL     1     -15.641 -44.248  30.478  1.00  0.00     0.290 A 
HETATM   19  C15 UNL     1     -14.354 -44.367  31.174  1.00  0.00     0.279 A 
HETATM   20  N3  UNL     1     -15.021 -45.557  30.678  1.00  0.00    -0.056 N 
ATOM     21  H32 UNL     1     -15.322 -46.437  31.096  1.00  0.00     0.278 HD
ATOM     22  H31 UNL     1     -14.754 -46.326  30.063  1.00  0.00     0.278 HD
ENDBRANCH  17  18
ENDBRANCH  11  16
BRANCH  13  23
HETATM   23  N4  UNL     1     -13.287 -43.169  26.577  1.00  0.00    -0.306 N 
HETATM   24  C17 UNL     1     -12.879 -44.399  27.125  1.00  0.00     0.323 C 
HETATM   25  O1  UNL     1     -13.494 -45.481  27.036  1.00  0.00    -0.247 OA
HETATM   26  N5  UNL     1     -11.636 -44.491  27.879  1.00  0.00    -0.334 N 
HETATM   27  C18 UNL     1     -10.885 -43.270  28.008  1.00  0.00     0.128 C 
HETATM   28  C27 UNL     1     -11.278 -45.752  28.415  1.00  0.00     0.128 C 
HETATM   29  C19 UNL     1      -9.569 -43.437  28.664  1.00  0.00     0.025 C 
HETATM   30  C20 UNL     1      -9.456 -44.541  29.662  1.00  0.00    -0.007 C 
HETATM   31  C26 UNL     1     -10.036 -45.839  29.192  1.00  0.00     0.025 C 
ATOM     32  H4  UNL     1     -12.687 -42.358  26.727  1.00  0.00     0.171 HD
BRANCH  30  33
HETATM   33  C21 UNL     1      -9.892 -44.164  31.049  1.00  0.00    -0.006 C 
HETATM   34  C22 UNL     1      -8.738 -43.651  31.866  1.00  0.00     0.031 C 
HETATM   35  C23 UNL     1      -9.244 -43.580  33.313  1.00  0.00     0.168 C 
HETATM   36  O2  UNL     1     -10.310 -42.690  33.387  1.00  0.00    -0.391 OA
HETATM   37  C24 UNL     1     -11.394 -43.118  32.623  1.00  0.00     0.168 C 
HETATM   38  C25 UNL     1     -11.009 -43.188  31.137  1.00  0.00     0.031 C 
ENDBRANCH  30  33
ENDBRANCH  13  23
ENDBRANCH   1   4
BRANCH   1  39
HETATM   39  C6  UNL     1     -21.028 -44.285  25.020  1.00  0.00    -0.028 A 
HETATM   40  C7  UNL     1     -20.997 -45.369  25.803  1.00  0.00     0.016 A 
HETATM   41  C8  UNL     1     -21.537 -46.526  25.308  1.00  0.00     0.050 A 
HETATM   42  S1  UNL     1     -22.072 -46.063  23.757  1.00  0.00    -0.113 SA
HETATM   43  C9  UNL     1     -21.600 -44.425  23.781  1.00  0.00     0.058 A 
ENDBRANCH   1  39
TORSDOF 6
ENDMDL
MODEL 2
REMARK VINA RESULT: -11.103469771      2.692      4.798
REMARK  6 active torsions:
REMARK  status: ('A' for Active; 'I' for Inactive)
REMARK    1  A    between atoms: C3_3  and  C4_4 
REMARK    2  A    between atoms: C4_4  and  C6_7 
REMARK    3  A    between atoms: C11_15  and  C12_16 
REMARK    4  A    between atoms: C13_17  and  C14_18 
REMARK    5  A    between atoms: C16_23  and  N4_24 
REMARK       I    between atoms: N4_24  and  C17_26 
REMARK       I    between atoms: C17_26  and  N5_28 
REMARK    6  A    between atoms: C20_31  and  C21_32 
ROOT
HETATM    1  C4  UNL     1     -21.978 -40.786  23.680  1.00  0.00     0.178 C 
HETATM    2  C5  UNL     1     -22.981 -41.746  23.218  1.00  0.00     0.075 C 
HETATM    3  N1  UNL     1     -23.800 -42.495  22.848  1.00  0.00    -0.196 NA
ENDROOT
BRANCH   1   4
HETATM    4  C3  UNL     1     -21.193 -41.307  24.799  1.00  0.00     0.057 A 
HETATM    5  C2  UNL     1     -21.521 -41.402  26.110  1.00  0.00     0.056 A 
HETATM    6  C1  UNL     1     -22.794 -41.001  26.779  1.00  0.00     0.072 C 
HETATM    7  N7  UNL     1     -20.459 -41.949  26.751  1.00  0.00    -0.241 N 
HETATM    8  C10 UNL     1     -19.492 -42.190  25.853  1.00  0.00     0.148 A 
HETATM    9  N6  UNL     1     -20.248 -42.257  28.020  1.00  0.00    -0.301 N 
HETATM   10  N2  UNL     1     -19.944 -41.795  24.655  1.00  0.00    -0.340 N 
HETATM   11  C11 UNL     1     -18.304 -42.749  26.270  1.00  0.00     0.091 A 
ATOM     12  H2  UNL     1     -19.428 -41.853  23.777  1.00  0.00     0.167 HD
HETATM   13  C16 UNL     1     -18.051 -43.086  27.609  1.00  0.00     0.075 A 
HETATM   14  C28 UNL     1     -19.080 -42.814  28.467  1.00  0.00     0.139 A 
ATOM     15  H6  UNL     1     -20.990 -42.071  28.695  1.00  0.00     0.186 HD
BRANCH  11  16
HETATM   16  C12 UNL     1     -17.294 -42.993  25.296  1.00  0.00    -0.058 C 
HETATM   17  C13 UNL     1     -16.429 -43.198  24.475  1.00  0.00    -0.066 C 
BRANCH  17  18
HETATM   18  C14 UNL     1     -15.367 -43.433  23.480  1.00  0.00     0.290 A 
HETATM   19  C15 UNL     1     -14.546 -44.644  23.602  1.00  0.00     0.279 A 
HETATM   20  N3  UNL     1     -14.037 -43.374  24.086  1.00  0.00    -0.056 N 
ATOM     21  H32 UNL     1     -13.194 -42.826  23.915  1.00  0.00     0.278 HD
ATOM     22  H31 UNL     1     -13.669 -43.041  24.978  1.00  0.00     0.278 HD
ENDBRANCH  17  18
ENDBRANCH  11  16
BRANCH  13  23
HETATM   23  N4  UNL     1     -16.806 -43.650  27.903  1.00  0.00    -0.306 N 
HETATM   24  C17 UNL     1     -16.239 -43.690  29.189  1.00  0.00     0.323 C 
HETATM   25  O1  UNL     1     -16.752 -43.235  30.231  1.00  0.00    -0.247 OA
HETATM   26  N5  UNL     1     -14.933 -44.302  29.398  1.00  0.00    -0.334 N 
HETATM   27  C18 UNL     1     -14.299 -44.847  28.227  1.00  0.00     0.128 C 
HETATM   28  C27 UNL     1     -14.406 -44.307  30.712  1.00  0.00     0.128 C 
HETATM   29  C19 UNL     1     -13.041 -45.574  28.506  1.00  0.00     0.025 C 
HETATM   30  C20 UNL     1     -12.253 -45.118  29.689  1.00  0.00    -0.007 C 
HETATM   31  C26 UNL     1     -13.082 -44.906  30.918  1.00  0.00     0.025 C 
ATOM     32  H4  UNL     1     -16.275 -44.060  27.134  1.00  0.00     0.171 HD
BRANCH  30  33
HETATM   33  C21 UNL     1     -11.315 -43.981  29.402  1.00  0.00    -0.006 C 
HETATM   34  C22 UNL     1      -9.879 -44.413  29.518  1.00  0.00     0.031 C 
HETATM   35  C23 UNL     1      -9.047 -43.123  29.491  1.00  0.00     0.168 C 
HETATM   36  O2  UNL     1      -9.249 -42.467  28.282  1.00  0.00    -0.391 OA
HETATM   37  C24 UNL     1     -10.575 -42.071  28.124  1.00  0.00     0.168 C 
HETATM   38  C25 UNL     1     -11.503 -43.296  28.096  1.00  0.00     0.031 C 
ENDBRANCH  30  33
ENDBRANCH  13  23
ENDBRANCH   1   4
BRANCH   1  39
HETATM   39  C6  UNL     1     -21.101 -40.321  22.528  1.00  0.00    -0.028 A 
HETATM   40  C7  UNL     1     -20.658 -39.064  22.409  1.00  0.00     0.016 A 
HETATM   41  C8  UNL     1     -19.880 -38.765  21.324  1.00  0.00     0.050 A 
HETATM   42  S1  UNL     1     -19.790 -40.255  20.498  1.00  0.00    -0.113 SA
HETATM   43  C9  UNL     1     -20.736 -41.208  21.548  1.00  0.00     0.058 A 
ENDBRANCH   1  39
TORSDOF 6
ENDMDL
MODEL 3
REMARK VINA RESULT: -10.796109857      1.153      1.336
REMARK  6 active torsions:
REMARK  status: ('A' for Active; 'I' for Inactive)
REMARK    1  A    between atoms: C3_3  and  C4_4 
REMARK    2  A    between atoms: C4_4  and  C6_7 
REMARK    3  A    between atoms: C11_15  and  C12_16 
REMARK    4  A    between atoms: C13_17  and  C14_18 
REMARK    5  A    between atoms: C16_23  and  N4_24 
REMARK       I    between atoms: N4_24  and  C17_26 
REMARK       I    between atoms: C17_26  and  N5_28 
REMARK    6  A    between atoms: C20_31  and  C21_32 
ROOT
HETATM    1  C4  UNL     1     -20.518 -43.091  25.221  1.00  0.00     0.178 C 
HETATM    2  C5  UNL     1     -21.177 -41.786  25.158  1.00  0.00     0.075 C 
HETATM    3  N1  UNL     1     -21.720 -40.752  25.093  1.00  0.00    -0.196 NA
ENDROOT
BRANCH   1   4
HETATM    4  C3  UNL     1     -19.063 -42.977  25.122  1.00  0.00     0.057 A 
HETATM    5  C2  UNL     1     -18.296 -42.633  24.060  1.00  0.00     0.056 A 
HETATM    6  C1  UNL     1     -18.734 -42.262  22.681  1.00  0.00     0.072 C 
HETATM    7  N7  UNL     1     -17.004 -42.675  24.466  1.00  0.00    -0.241 N 
HETATM    8  C10 UNL     1     -16.970 -43.038  25.758  1.00  0.00     0.148 A 
HETATM    9  N6  UNL     1     -15.866 -42.433  23.837  1.00  0.00    -0.301 N 
HETATM   10  N2  UNL     1     -18.235 -43.223  26.159  1.00  0.00    -0.340 N 
HETATM   11  C11 UNL     1     -15.756 -43.151  26.398  1.00  0.00     0.091 A 
ATOM     12  H2  UNL     1     -18.525 -43.505  27.095  1.00  0.00     0.167 HD
HETATM   13  C16 UNL     1     -14.532 -42.901  25.758  1.00  0.00     0.075 A 
HETATM   14  C28 UNL     1     -14.643 -42.536  24.445  1.00  0.00     0.139 A 
ATOM     15  H6  UNL     1     -15.901 -42.156  22.856  1.00  0.00     0.186 HD
BRANCH  11  16
HETATM   16  C12 UNL     1     -15.750 -43.540  27.769  1.00  0.00    -0.058 C 
HETATM   17  C13 UNL     1     -15.739 -43.878  28.930  1.00  0.00    -0.066 C 
BRANCH  17  18
HETATM   18  C14 UNL     1     -15.730 -44.306  30.341  1.00  0.00     0.290 A 
HETATM   19  C15 UNL     1     -14.454 -44.304  31.067  1.00  0.00     0.279 A 
HETATM   20  N3  UNL     1     -14.976 -45.545  30.523  1.00  0.00    -0.056 N 
ATOM     21  H32 UNL     1     -15.190 -46.465  30.910  1.00  0.00     0.278 HD
ATOM     22  H31 UNL     1     -14.613 -46.263  29.896  1.00  0.00     0.278 HD
ENDBRANCH  17  18
ENDBRANCH  11  16
BRANCH  13  23
HETATM   23  N4  UNL     1     -13.370 -43.049  26.520  1.00  0.00    -0.306 N 
HETATM   24  C17 UNL     1     -12.921 -44.272  27.049  1.00  0.00     0.323 C 
HETATM   25  O1  UNL     1     -13.483 -45.377  26.920  1.00  0.00    -0.247 OA
HETATM   26  N5  UNL     1     -11.692 -44.327  27.831  1.00  0.00    -0.334 N 
HETATM   27  C18 UNL     1     -11.000 -43.078  28.006  1.00  0.00     0.128 C 
HETATM   28  C27 UNL     1     -11.291 -45.583  28.346  1.00  0.00     0.128 C 
HETATM   29  C19 UNL     1      -9.694 -43.202  28.691  1.00  0.00     0.025 C 
HETATM   30  C20 UNL     1      -9.555 -44.324  29.665  1.00  0.00    -0.007 C 
HETATM   31  C26 UNL     1     -10.064 -45.635  29.151  1.00  0.00     0.025 C 
ATOM     32  H4  UNL     1     -12.811 -42.216  26.703  1.00  0.00     0.171 HD
BRANCH  30  33
HETATM   33  C21 UNL     1     -10.040 -44.000  31.049  1.00  0.00    -0.006 C 
HETATM   34  C22 UNL     1      -8.911 -43.549  31.934  1.00  0.00     0.031 C 
HETATM   35  C23 UNL     1      -9.474 -43.532  33.362  1.00  0.00     0.168 C 
HETATM   36  O2  UNL     1     -10.525 -42.625  33.434  1.00  0.00    -0.391 OA
HETATM   37  C24 UNL     1     -11.584 -42.994  32.609  1.00  0.00     0.168 C 
HETATM   38  C25 UNL     1     -11.141 -43.006  31.137  1.00  0.00     0.031 C 
ENDBRANCH  30  33
ENDBRANCH  13  23
ENDBRANCH   1   4
BRANCH   1  39
HETATM   39  C6  UNL     1     -20.953 -43.859  26.459  1.00  0.00    -0.028 A 
HETATM   40  C7  UNL     1     -21.231 -45.168  26.445  1.00  0.00     0.016 A 
HETATM   41  C8  UNL     1     -21.619 -45.747  27.622  1.00  0.00     0.050 A 
HETATM   42  S1  UNL     1     -21.585 -44.442  28.718  1.00  0.00    -0.113 SA
HETATM   43  C9  UNL     1     -21.081 -43.206  27.658  1.00  0.00     0.058 A 
ENDBRANCH   1  39
TORSDOF 6
ENDMDL
MODEL 4
REMARK VINA RESULT: -10.592126603      2.403      4.366
REMARK  6 active torsions:
REMARK  status: ('A' for Active; 'I' for Inactive)
REMARK    1  A    between atoms: C3_3  and  C4_4 
REMARK    2  A    between atoms: C4_4  and  C6_7 
REMARK    3  A    between atoms: C11_15  and  C12_16 
REMARK    4  A    between atoms: C13_17  and  C14_18 
REMARK    5  A    between atoms: C16_23  and  N4_24 
REMARK       I    between atoms: N4_24  and  C17_26 
REMARK       I    between atoms: C17_26  and  N5_28 
REMARK    6  A    between atoms: C20_31  and  C21_32 
ROOT
HETATM    1  C4  UNL     1     -20.012 -41.402  22.648  1.00  0.00     0.178 C 
HETATM    2  C5  UNL     1     -20.308 -39.981  22.463  1.00  0.00     0.075 C 
HETATM    3  N1  UNL     1     -20.530 -38.845  22.297  1.00  0.00    -0.196 NA
ENDROOT
BRANCH   1   4
HETATM    4  C3  UNL     1     -19.806 -41.742  24.055  1.00  0.00     0.057 A 
HETATM    5  C2  UNL     1     -20.671 -41.663  25.096  1.00  0.00     0.056 A 
HETATM    6  C1  UNL     1     -22.093 -41.211  25.087  1.00  0.00     0.072 C 
HETATM    7  N7  UNL     1     -20.010 -42.087  26.200  1.00  0.00    -0.241 N 
HETATM    8  C10 UNL     1     -18.758 -42.422  25.851  1.00  0.00     0.148 A 
HETATM    9  N6  UNL     1     -20.379 -42.210  27.464  1.00  0.00    -0.301 N 
HETATM   10  N2  UNL     1     -18.635 -42.210  24.534  1.00  0.00    -0.340 N 
HETATM   11  C11 UNL     1     -17.888 -42.885  26.813  1.00  0.00     0.091 A 
ATOM     12  H2  UNL     1     -17.793 -42.374  23.983  1.00  0.00     0.167 HD
HETATM   13  C16 UNL     1     -18.250 -43.027  28.162  1.00  0.00     0.075 A 
HETATM   14  C28 UNL     1     -19.538 -42.667  28.445  1.00  0.00     0.139 A 
ATOM     15  H6  UNL     1     -21.333 -41.955  27.720  1.00  0.00     0.186 HD
BRANCH  11  16
HETATM   16  C12 UNL     1     -16.565 -43.233  26.415  1.00  0.00    -0.058 C 
HETATM   17  C13 UNL     1     -15.439 -43.531  26.086  1.00  0.00    -0.066 C 
BRANCH  17  18
HETATM   18  C14 UNL     1     -14.062 -43.885  25.699  1.00  0.00     0.290 A 
HETATM   19  C15 UNL     1     -13.385 -44.967  26.425  1.00  0.00     0.279 A 
HETATM   20  N3  UNL     1     -13.108 -43.583  26.765  1.00  0.00    -0.056 N 
ATOM     21  H32 UNL     1     -12.263 -43.016  26.831  1.00  0.00     0.278 HD
ATOM     22  H31 UNL     1     -13.142 -43.035  27.624  1.00  0.00     0.278 HD
ENDBRANCH  17  18
ENDBRANCH  11  16
BRANCH  13  23
HETATM   23  N4  UNL     1     -17.275 -43.510  29.039  1.00  0.00    -0.306 N 
HETATM   24  C17 UNL     1     -16.906 -42.876  30.239  1.00  0.00     0.323 C 
HETATM   25  O1  UNL     1     -17.383 -41.813  30.683  1.00  0.00    -0.247 OA
HETATM   26  N5  UNL     1     -15.877 -43.458  31.091  1.00  0.00    -0.334 N 
HETATM   27  C18 UNL     1     -15.295 -44.689  30.625  1.00  0.00     0.128 C 
HETATM   28  C27 UNL     1     -15.539 -42.774  32.283  1.00  0.00     0.128 C 
HETATM   29  C19 UNL     1     -14.354 -45.312  31.582  1.00  0.00     0.025 C 
HETATM   30  C20 UNL     1     -13.617 -44.387  32.492  1.00  0.00    -0.007 C 
HETATM   31  C26 UNL     1     -14.488 -43.350  33.131  1.00  0.00     0.025 C 
ATOM     32  H4  UNL     1     -16.800 -44.378  28.792  1.00  0.00     0.171 HD
BRANCH  30  33
HETATM   33  C21 UNL     1     -12.355 -43.822  31.905  1.00  0.00    -0.006 C 
HETATM   34  C22 UNL     1     -11.167 -44.686  32.225  1.00  0.00     0.031 C 
HETATM   35  C23 UNL     1      -9.930 -43.866  31.830  1.00  0.00     0.168 C 
HETATM   36  O2  UNL     1      -9.969 -43.599  30.465  1.00  0.00    -0.391 OA
HETATM   37  C24 UNL     1     -11.071 -42.819  30.123  1.00  0.00     0.168 C 
HETATM   38  C25 UNL     1     -12.377 -43.565  30.441  1.00  0.00     0.031 C 
ENDBRANCH  30  33
ENDBRANCH  13  23
ENDBRANCH   1   4
BRANCH   1  39
HETATM   39  C6  UNL     1     -21.079 -42.268  21.996  1.00  0.00    -0.028 A 
HETATM   40  C7  UNL     1     -21.007 -43.603  21.950  1.00  0.00     0.016 A 
HETATM   41  C8  UNL     1     -22.026 -44.273  21.329  1.00  0.00     0.050 A 
HETATM   42  S1  UNL     1     -23.059 -43.013  20.827  1.00  0.00    -0.113 SA
HETATM   43  C9  UNL     1     -22.174 -41.680  21.416  1.00  0.00     0.058 A 
ENDBRANCH   1  39
TORSDOF 6
ENDMDL
MODEL 5
REMARK VINA RESULT: -10.580129521      2.464      3.252
REMARK  6 active torsions:
REMARK  status: ('A' for Active; 'I' for Inactive)
REMARK    1  A    between atoms: C3_3  and  C4_4 
REMARK    2  A    between atoms: C4_4  and  C6_7 
REMARK    3  A    between atoms: C11_15  and  C12_16 
REMARK    4  A    between atoms: C13_17  and  C14_18 
REMARK    5  A    between atoms: C16_23  and  N4_24 
REMARK       I    between atoms: N4_24  and  C17_26 
REMARK       I    between atoms: C17_26  and  N5_28 
REMARK    6  A    between atoms: C20_31  and  C21_32 
ROOT
HETATM    1  C4  UNL     1     -21.775 -41.587  23.251  1.00  0.00     0.178 C 
HETATM    2  C5  UNL     1     -22.089 -40.248  22.749  1.00  0.00     0.075 C 
HETATM    3  N1  UNL     1     -22.357 -39.189  22.333  1.00  0.00    -0.196 NA
ENDROOT
BRANCH   1   4
HETATM    4  C3  UNL     1     -20.333 -41.821  23.324  1.00  0.00     0.057 A 
HETATM    5  C2  UNL     1     -19.406 -41.802  22.336  1.00  0.00     0.056 A 
HETATM    6  C1  UNL     1     -19.605 -41.523  20.884  1.00  0.00     0.072 C 
HETATM    7  N7  UNL     1     -18.208 -42.085  22.904  1.00  0.00    -0.241 N 
HETATM    8  C10 UNL     1     -18.389 -42.276  24.220  1.00  0.00     0.148 A 
HETATM    9  N6  UNL     1     -16.990 -42.193  22.401  1.00  0.00    -0.301 N 
HETATM   10  N2  UNL     1     -19.694 -42.114  24.476  1.00  0.00    -0.340 N 
HETATM   11  C11 UNL     1     -17.307 -42.579  25.016  1.00  0.00     0.091 A 
ATOM     12  H2  UNL     1     -20.134 -42.198  25.393  1.00  0.00     0.167 HD
HETATM   13  C16 UNL     1     -16.002 -42.701  24.512  1.00  0.00     0.075 A 
HETATM   14  C28 UNL     1     -15.893 -42.493  23.165  1.00  0.00     0.139 A 
ATOM     15  H6  UNL     1     -16.861 -42.045  21.400  1.00  0.00     0.186 HD
BRANCH  11  16
HETATM   16  C12 UNL     1     -17.529 -42.778  26.409  1.00  0.00    -0.058 C 
HETATM   17  C13 UNL     1     -17.726 -42.950  27.590  1.00  0.00    -0.066 C 
BRANCH  17  18
HETATM   18  C14 UNL     1     -17.981 -43.148  29.028  1.00  0.00     0.290 A 
HETATM   19  C15 UNL     1     -17.437 -42.171  29.980  1.00  0.00     0.279 A 
HETATM   20  N3  UNL     1     -16.747 -43.430  29.761  1.00  0.00    -0.056 N 
ATOM     21  H32 UNL     1     -16.428 -44.187  30.364  1.00  0.00     0.278 HD
ATOM     22  H31 UNL     1     -15.798 -43.691  29.494  1.00  0.00     0.278 HD
ENDBRANCH  17  18
ENDBRANCH  11  16
BRANCH  13  23
HETATM   23  N4  UNL     1     -14.990 -43.010  25.424  1.00  0.00    -0.306 N 
HETATM   24  C17 UNL     1     -14.460 -44.300  25.611  1.00  0.00     0.323 C 
HETATM   25  O1  UNL     1     -14.810 -45.331  25.003  1.00  0.00    -0.247 OA
HETATM   26  N5  UNL     1     -13.402 -44.524  26.587  1.00  0.00    -0.334 N 
HETATM   27  C18 UNL     1     -12.957 -43.364  27.313  1.00  0.00     0.128 C 
HETATM   28  C27 UNL     1     -12.910 -45.843  26.740  1.00  0.00     0.128 C 
HETATM   29  C19 UNL     1     -11.795 -43.612  28.195  1.00  0.00     0.025 C 
HETATM   30  C20 UNL     1     -11.663 -44.990  28.753  1.00  0.00    -0.007 C 
HETATM   31  C26 UNL     1     -11.859 -46.073  27.737  1.00  0.00     0.025 C 
ATOM     32  H4  UNL     1     -14.612 -42.252  25.992  1.00  0.00     0.171 HD
BRANCH  30  33
HETATM   33  C21 UNL     1     -12.437 -45.218  30.020  1.00  0.00    -0.006 C 
HETATM   34  C22 UNL     1     -12.430 -43.994  30.894  1.00  0.00     0.031 C 
HETATM   35  C23 UNL     1     -12.990 -44.441  32.252  1.00  0.00     0.168 C 
HETATM   36  O2  UNL     1     -14.293 -44.899  32.086  1.00  0.00    -0.391 OA
HETATM   37  C24 UNL     1     -14.346 -46.020  31.262  1.00  0.00     0.168 C 
HETATM   38  C25 UNL     1     -13.841 -45.675  29.851  1.00  0.00     0.031 C 
ENDBRANCH  30  33
ENDBRANCH  13  23
ENDBRANCH   1   4
BRANCH   1  39
HETATM   39  C6  UNL     1     -22.469 -41.844  24.580  1.00  0.00    -0.028 A 
HETATM   40  C7  UNL     1     -22.601 -40.908  25.526  1.00  0.00     0.016 A 
HETATM   41  C8  UNL     1     -23.241 -41.262  26.683  1.00  0.00     0.050 A 
HETATM   42  S1  UNL     1     -23.639 -42.898  26.413  1.00  0.00    -0.113 SA
HETATM   43  C9  UNL     1     -22.987 -43.085  24.849  1.00  0.00     0.058 A 
ENDBRANCH   1  39
TORSDOF 6
ENDMDL
