MODEL 1
REMARK VINA RESULT: -7.865065501      0.000      0.000
REMARK  9 active torsions:
REMARK  status: ('A' for Active; 'I' for Inactive)
REMARK    1  A    between atoms: C2_2  and  C3_3 
REMARK    2  A    between atoms: C3_3  and  C4_4 
REMARK    3  A    between atoms: C4_4  and  S1_5 
REMARK    4  A    between atoms: S1_5  and  C5_6 
REMARK    5  A    between atoms: C8_9  and  C9_10 
REMARK    6  A    between atoms: C12_13  and  C13_14 
REMARK    7  A    between atoms: C14_15  and  C15_16 
REMARK    8  A    between atoms: C17_20  and  N2_21 
REMARK    9  A    between atoms: C18_26  and  N4_27 
ROOT
HETATM    1  C9  UNL     1     -20.129  26.903 -16.402  1.00  0.00     0.014 A 
HETATM    2  C10 UNL     1     -20.436  26.045 -17.420  1.00  0.00     0.018 A 
HETATM    3  C11 UNL     1     -21.045  24.896 -17.097  1.00  0.00     0.020 A 
HETATM    4  C12 UNL     1     -21.314  24.666 -15.776  1.00  0.00     0.005 A 
HETATM    5  S2  UNL     1     -20.696  26.084 -15.025  1.00  0.00    -0.093 SA
ENDROOT
BRANCH   4   6
HETATM    6  C13 UNL     1     -21.969  23.499 -15.134  1.00  0.00     0.020 C 
HETATM    7  C14 UNL     1     -23.275  23.474 -15.116  1.00  0.00     0.018 C 
BRANCH   7   8
HETATM    8  C15 UNL     1     -23.993  22.367 -14.508  1.00  0.00     0.024 A 
HETATM    9  C16 UNL     1     -24.208  21.186 -15.189  1.00  0.00     0.121 A 
HETATM   10  N1  UNL     1     -24.886  20.171 -14.588  1.00  0.00    -0.201 N 
HETATM   11  C17 UNL     1     -25.342  20.327 -13.333  1.00  0.00     0.677 A 
ATOM     12  H1  UNL     1     -25.048  19.296 -15.087  1.00  0.00     0.183 HD
HETATM   13  N3  UNL     1     -25.158  21.451 -12.637  1.00  0.00    -0.177 N 
HETATM   14  C18 UNL     1     -24.479  22.476 -13.230  1.00  0.00     0.126 A 
ATOM     15  H3  UNL     1     -25.516  21.541 -11.687  1.00  0.00     0.186 HD
BRANCH  11  16
HETATM   16  N2  UNL     1     -25.993  19.343 -12.767  1.00  0.00    -0.234 N 
ATOM     17  H22 UNL     1     -25.753  18.387 -13.027  1.00  0.00     0.174 HD
ATOM     18  H21 UNL     1     -26.719  19.559 -12.083  1.00  0.00     0.174 HD
ENDBRANCH  11  16
BRANCH  14  19
HETATM   19  N4  UNL     1     -24.343  23.517 -12.502  1.00  0.00    -0.384 N 
ATOM     20  H42 UNL     1     -25.161  23.757 -11.943  1.00  0.00     0.157 HD
ATOM     21  H41 UNL     1     -23.492  24.080 -12.467  1.00  0.00     0.157 HD
ENDBRANCH  14  19
ENDBRANCH   7   8
ENDBRANCH   4   6
BRANCH   1  22
HETATM   22  C8  UNL     1     -19.462  28.231 -16.453  1.00  0.00     0.225 C 
HETATM   23  C7  UNL     1     -19.862  29.131 -15.312  1.00  0.00     0.039 C 
HETATM   24  C6  UNL     1     -18.766  30.205 -15.237  1.00  0.00     0.019 C 
HETATM   25  C5  UNL     1     -18.354  30.605 -16.656  1.00  0.00     0.073 C 
HETATM   26  C19 UNL     1     -19.410  30.291 -17.664  1.00  0.00     0.248 C 
HETATM   27  N5  UNL     1     -19.772  28.890 -17.688  1.00  0.00    -0.065 N 
ATOM     28  H52 UNL     1     -19.342  28.411 -18.479  1.00  0.00     0.278 HD
ATOM     29  H51 UNL     1     -20.753  28.765 -17.937  1.00  0.00     0.278 HD
BRANCH  25  30
HETATM   30  S1  UNL     1     -18.041  32.386 -16.624  1.00  0.00    -0.163 SA
BRANCH  30  31
HETATM   31  C4  UNL     1     -18.275  32.954 -14.901  1.00  0.00     0.074 C 
BRANCH  31  32
HETATM   32  C3  UNL     1     -17.065  33.812 -14.526  1.00  0.00     0.010 C 
BRANCH  32  33
HETATM   33  C2  UNL     1     -16.635  34.476 -15.840  1.00  0.00    -0.004 C 
HETATM   34  C1  UNL     1     -16.852  35.976 -15.711  1.00  0.00     0.005 C 
ENDBRANCH  32  33
ENDBRANCH  31  32
ENDBRANCH  30  31
ENDBRANCH  25  30
ENDBRANCH   1  22
TORSDOF 9
ENDMDL
MODEL 2
REMARK VINA RESULT: -7.766306337      4.214      6.636
REMARK  9 active torsions:
REMARK  status: ('A' for Active; 'I' for Inactive)
REMARK    1  A    between atoms: C2_2  and  C3_3 
REMARK    2  A    between atoms: C3_3  and  C4_4 
REMARK    3  A    between atoms: C4_4  and  S1_5 
REMARK    4  A    between atoms: S1_5  and  C5_6 
REMARK    5  A    between atoms: C8_9  and  C9_10 
REMARK    6  A    between atoms: C12_13  and  C13_14 
REMARK    7  A    between atoms: C14_15  and  C15_16 
REMARK    8  A    between atoms: C17_20  and  N2_21 
REMARK    9  A    between atoms: C18_26  and  N4_27 
ROOT
HETATM    1  C9  UNL     1     -17.473  32.695 -14.738  1.00  0.00     0.014 A 
HETATM    2  C10 UNL     1     -16.714  32.293 -13.676  1.00  0.00     0.018 A 
HETATM    3  C11 UNL     1     -16.678  30.981 -13.404  1.00  0.00     0.020 A 
HETATM    4  C12 UNL     1     -17.402  30.143 -14.206  1.00  0.00     0.005 A 
HETATM    5  S2  UNL     1     -18.116  31.236 -15.325  1.00  0.00    -0.093 SA
ENDROOT
BRANCH   4   6
HETATM    6  C13 UNL     1     -17.549  28.668 -14.142  1.00  0.00     0.020 C 
HETATM    7  C14 UNL     1     -18.456  28.117 -14.906  1.00  0.00     0.018 C 
BRANCH   7   8
HETATM    8  C15 UNL     1     -18.662  26.679 -14.903  1.00  0.00     0.024 A 
HETATM    9  C16 UNL     1     -17.819  25.829 -15.589  1.00  0.00     0.121 A 
HETATM   10  N1  UNL     1     -18.045  24.487 -15.565  1.00  0.00    -0.201 N 
HETATM   11  C17 UNL     1     -19.089  24.000 -14.873  1.00  0.00     0.677 A 
ATOM     12  H1  UNL     1     -17.425  23.854 -16.070  1.00  0.00     0.183 HD
HETATM   13  N3  UNL     1     -19.930  24.785 -14.197  1.00  0.00    -0.177 N 
HETATM   14  C18 UNL     1     -19.714  26.133 -14.213  1.00  0.00     0.126 A 
ATOM     15  H3  UNL     1     -20.715  24.388 -13.680  1.00  0.00     0.186 HD
BRANCH  11  16
HETATM   16  N2  UNL     1     -19.295  22.708 -14.859  1.00  0.00    -0.234 N 
ATOM     17  H22 UNL     1     -18.547  22.100 -14.527  1.00  0.00     0.174 HD
ATOM     18  H21 UNL     1     -20.193  22.347 -15.178  1.00  0.00     0.174 HD
ENDBRANCH  11  16
BRANCH  14  19
HETATM   19  N4  UNL     1     -20.560  26.817 -13.543  1.00  0.00    -0.384 N 
ATOM     20  H42 UNL     1     -20.158  27.587 -13.009  1.00  0.00     0.157 HD
ATOM     21  H41 UNL     1     -21.562  26.627 -13.528  1.00  0.00     0.157 HD
ENDBRANCH  14  19
ENDBRANCH   7   8
ENDBRANCH   4   6
BRANCH   1  22
HETATM   22  C8  UNL     1     -17.703  34.064 -15.273  1.00  0.00     0.225 C 
HETATM   23  C7  UNL     1     -18.156  34.062 -16.711  1.00  0.00     0.039 C 
HETATM   24  C6  UNL     1     -18.797  35.440 -16.937  1.00  0.00     0.019 C 
HETATM   25  C5  UNL     1     -17.975  36.505 -16.206  1.00  0.00     0.073 C 
HETATM   26  C19 UNL     1     -16.574  36.060 -15.944  1.00  0.00     0.248 C 
HETATM   27  N5  UNL     1     -16.502  34.839 -15.170  1.00  0.00    -0.065 N 
ATOM     28  H52 UNL     1     -16.270  35.033 -14.196  1.00  0.00     0.278 HD
ATOM     29  H51 UNL     1     -15.683  34.288 -15.425  1.00  0.00     0.278 HD
BRANCH  25  30
HETATM   30  S1  UNL     1     -17.970  37.973 -17.263  1.00  0.00    -0.163 SA
BRANCH  30  31
HETATM   31  C4  UNL     1     -18.757  39.329 -16.322  1.00  0.00     0.074 C 
BRANCH  31  32
HETATM   32  C3  UNL     1     -17.908  39.584 -15.075  1.00  0.00     0.010 C 
BRANCH  32  33
HETATM   33  C2  UNL     1     -16.494  39.837 -15.610  1.00  0.00    -0.004 C 
HETATM   34  C1  UNL     1     -16.036  41.204 -15.126  1.00  0.00     0.005 C 
ENDBRANCH  32  33
ENDBRANCH  31  32
ENDBRANCH  30  31
ENDBRANCH  25  30
ENDBRANCH   1  22
TORSDOF 9
ENDMDL
MODEL 3
REMARK VINA RESULT: -7.696323677      4.218      6.704
REMARK  9 active torsions:
REMARK  status: ('A' for Active; 'I' for Inactive)
REMARK    1  A    between atoms: C2_2  and  C3_3 
REMARK    2  A    between atoms: C3_3  and  C4_4 
REMARK    3  A    between atoms: C4_4  and  S1_5 
REMARK    4  A    between atoms: S1_5  and  C5_6 
REMARK    5  A    between atoms: C8_9  and  C9_10 
REMARK    6  A    between atoms: C12_13  and  C13_14 
REMARK    7  A    between atoms: C14_15  and  C15_16 
REMARK    8  A    between atoms: C17_20  and  N2_21 
REMARK    9  A    between atoms: C18_26  and  N4_27 
ROOT
HETATM    1  C9  UNL     1     -17.494  32.697 -14.782  1.00  0.00     0.014 A 
HETATM    2  C10 UNL     1     -16.734  32.307 -13.715  1.00  0.00     0.018 A 
HETATM    3  C11 UNL     1     -16.696  30.998 -13.430  1.00  0.00     0.020 A 
HETATM    4  C12 UNL     1     -17.418  30.151 -14.224  1.00  0.00     0.005 A 
HETATM    5  S2  UNL     1     -18.133  31.230 -15.355  1.00  0.00    -0.093 SA
ENDROOT
BRANCH   4   6
HETATM    6  C13 UNL     1     -17.561  28.675 -14.145  1.00  0.00     0.020 C 
HETATM    7  C14 UNL     1     -18.455  28.113 -14.916  1.00  0.00     0.018 C 
BRANCH   7   8
HETATM    8  C15 UNL     1     -18.658  26.675 -14.900  1.00  0.00     0.024 A 
HETATM    9  C16 UNL     1     -17.822  25.822 -15.592  1.00  0.00     0.121 A 
HETATM   10  N1  UNL     1     -18.044  24.479 -15.555  1.00  0.00    -0.201 N 
HETATM   11  C17 UNL     1     -19.077  23.995 -14.843  1.00  0.00     0.677 A 
ATOM     12  H1  UNL     1     -17.430  23.844 -16.065  1.00  0.00     0.183 HD
HETATM   13  N3  UNL     1     -19.909  24.783 -14.160  1.00  0.00    -0.177 N 
HETATM   14  C18 UNL     1     -19.697  26.131 -14.189  1.00  0.00     0.126 A 
ATOM     15  H3  UNL     1     -20.685  24.387 -13.629  1.00  0.00     0.186 HD
BRANCH  11  16
HETATM   16  N2  UNL     1     -19.279  22.703 -14.816  1.00  0.00    -0.234 N 
ATOM     17  H22 UNL     1     -19.577  22.275 -13.940  1.00  0.00     0.174 HD
ATOM     18  H21 UNL     1     -19.134  22.161 -15.668  1.00  0.00     0.174 HD
ENDBRANCH  11  16
BRANCH  14  19
HETATM   19  N4  UNL     1     -20.535  26.818 -13.511  1.00  0.00    -0.384 N 
ATOM     20  H42 UNL     1     -20.343  26.858 -12.511  1.00  0.00     0.157 HD
ATOM     21  H41 UNL     1     -21.339  27.297 -13.917  1.00  0.00     0.157 HD
ENDBRANCH  14  19
ENDBRANCH   7   8
ENDBRANCH   4   6
BRANCH   1  22
HETATM   22  C8  UNL     1     -17.726  34.059 -15.331  1.00  0.00     0.225 C 
HETATM   23  C7  UNL     1     -18.212  34.041 -16.758  1.00  0.00     0.039 C 
HETATM   24  C6  UNL     1     -18.848  35.420 -16.989  1.00  0.00     0.019 C 
HETATM   25  C5  UNL     1     -18.002  36.488 -16.293  1.00  0.00     0.073 C 
HETATM   26  C19 UNL     1     -16.598  36.037 -16.057  1.00  0.00     0.248 C 
HETATM   27  N5  UNL     1     -16.518  34.827 -15.267  1.00  0.00    -0.065 N 
ATOM     28  H52 UNL     1     -16.261  35.033 -14.302  1.00  0.00     0.278 HD
ATOM     29  H51 UNL     1     -15.709  34.265 -15.533  1.00  0.00     0.278 HD
BRANCH  25  30
HETATM   30  S1  UNL     1     -18.010  37.941 -17.371  1.00  0.00    -0.163 SA
BRANCH  30  31
HETATM   31  C4  UNL     1     -18.663  37.415 -18.996  1.00  0.00     0.074 C 
BRANCH  31  32
HETATM   32  C3  UNL     1     -17.472  37.253 -19.944  1.00  0.00     0.010 C 
BRANCH  32  33
HETATM   33  C2  UNL     1     -17.248  38.650 -20.534  1.00  0.00    -0.004 C 
HETATM   34  C1  UNL     1     -16.375  38.513 -21.771  1.00  0.00     0.005 C 
ENDBRANCH  32  33
ENDBRANCH  31  32
ENDBRANCH  30  31
ENDBRANCH  25  30
ENDBRANCH   1  22
TORSDOF 9
ENDMDL
MODEL 4
REMARK VINA RESULT: -7.681451592      4.538     11.730
REMARK  9 active torsions:
REMARK  status: ('A' for Active; 'I' for Inactive)
REMARK    1  A    between atoms: C2_2  and  C3_3 
REMARK    2  A    between atoms: C3_3  and  C4_4 
REMARK    3  A    between atoms: C4_4  and  S1_5 
REMARK    4  A    between atoms: S1_5  and  C5_6 
REMARK    5  A    between atoms: C8_9  and  C9_10 
REMARK    6  A    between atoms: C12_13  and  C13_14 
REMARK    7  A    between atoms: C14_15  and  C15_16 
REMARK    8  A    between atoms: C17_20  and  N2_21 
REMARK    9  A    between atoms: C18_26  and  N4_27 
ROOT
HETATM    1  C9  UNL     1     -17.984  29.048 -15.045  1.00  0.00     0.014 A 
HETATM    2  C10 UNL     1     -17.155  29.365 -14.007  1.00  0.00     0.018 A 
HETATM    3  C11 UNL     1     -16.899  30.663 -13.796  1.00  0.00     0.020 A 
HETATM    4  C12 UNL     1     -17.483  31.573 -14.633  1.00  0.00     0.005 A 
HETATM    5  S2  UNL     1     -18.381  30.566 -15.698  1.00  0.00    -0.093 SA
ENDROOT
BRANCH   4   6
HETATM    6  C13 UNL     1     -17.380  33.054 -14.638  1.00  0.00     0.020 C 
HETATM    7  C14 UNL     1     -17.467  33.662 -15.792  1.00  0.00     0.018 C 
BRANCH   7   8
HETATM    8  C15 UNL     1     -17.377  35.109 -15.884  1.00  0.00     0.024 A 
HETATM    9  C16 UNL     1     -16.390  35.813 -15.223  1.00  0.00     0.121 A 
HETATM   10  N1  UNL     1     -16.338  37.168 -15.330  1.00  0.00    -0.201 N 
HETATM   11  C17 UNL     1     -17.249  37.812 -16.081  1.00  0.00     0.677 A 
ATOM     12  H1  UNL     1     -15.612  37.693 -14.844  1.00  0.00     0.183 HD
HETATM   13  N3  UNL     1     -18.219  37.172 -16.737  1.00  0.00    -0.177 N 
HETATM   14  C18 UNL     1     -18.282  35.812 -16.637  1.00  0.00     0.126 A 
ATOM     15  H3  UNL     1     -18.897  37.686 -17.299  1.00  0.00     0.186 HD
BRANCH  11  16
HETATM   16  N2  UNL     1     -17.188  39.115 -16.176  1.00  0.00    -0.234 N 
ATOM     17  H22 UNL     1     -16.362  39.590 -15.814  1.00  0.00     0.174 HD
ATOM     18  H21 UNL     1     -17.963  39.617 -16.608  1.00  0.00     0.174 HD
ENDBRANCH  11  16
BRANCH  14  19
HETATM   19  N4  UNL     1     -19.237  35.272 -17.292  1.00  0.00    -0.384 N 
ATOM     20  H42 UNL     1     -19.417  35.689 -18.205  1.00  0.00     0.157 HD
ATOM     21  H41 UNL     1     -19.789  34.485 -16.949  1.00  0.00     0.157 HD
ENDBRANCH  14  19
ENDBRANCH   7   8
ENDBRANCH   4   6
BRANCH   1  22
HETATM   22  C8  UNL     1     -18.444  27.714 -15.515  1.00  0.00     0.225 C 
HETATM   23  C7  UNL     1     -19.694  27.246 -14.816  1.00  0.00     0.039 C 
HETATM   24  C6  UNL     1     -20.283  26.153 -15.722  1.00  0.00     0.019 C 
HETATM   25  C5  UNL     1     -19.144  25.303 -16.291  1.00  0.00     0.073 C 
HETATM   26  C19 UNL     1     -17.904  25.386 -15.464  1.00  0.00     0.248 C 
HETATM   27  N5  UNL     1     -17.412  26.740 -15.314  1.00  0.00    -0.065 N 
ATOM     28  H52 UNL     1     -16.616  26.913 -15.927  1.00  0.00     0.278 HD
ATOM     29  H51 UNL     1     -16.954  26.869 -14.412  1.00  0.00     0.278 HD
BRANCH  25  30
HETATM   30  S1  UNL     1     -19.742  23.597 -16.337  1.00  0.00    -0.163 SA
BRANCH  30  31
HETATM   31  C4  UNL     1     -21.056  23.441 -15.074  1.00  0.00     0.074 C 
BRANCH  31  32
HETATM   32  C3  UNL     1     -20.375  23.238 -13.718  1.00  0.00     0.010 C 
BRANCH  32  33
HETATM   33  C2  UNL     1     -21.266  23.983 -12.718  1.00  0.00    -0.004 C 
HETATM   34  C1  UNL     1     -20.370  24.682 -11.707  1.00  0.00     0.005 C 
ENDBRANCH  32  33
ENDBRANCH  31  32
ENDBRANCH  30  31
ENDBRANCH  25  30
ENDBRANCH   1  22
TORSDOF 9
ENDMDL
MODEL 5
REMARK VINA RESULT: -7.632951705      4.136      6.747
REMARK  9 active torsions:
REMARK  status: ('A' for Active; 'I' for Inactive)
REMARK    1  A    between atoms: C2_2  and  C3_3 
REMARK    2  A    between atoms: C3_3  and  C4_4 
REMARK    3  A    between atoms: C4_4  and  S1_5 
REMARK    4  A    between atoms: S1_5  and  C5_6 
REMARK    5  A    between atoms: C8_9  and  C9_10 
REMARK    6  A    between atoms: C12_13  and  C13_14 
REMARK    7  A    between atoms: C14_15  and  C15_16 
REMARK    8  A    between atoms: C17_20  and  N2_21 
REMARK    9  A    between atoms: C18_26  and  N4_27 
ROOT
HETATM    1  C9  UNL     1     -17.524  32.626 -14.728  1.00  0.00     0.014 A 
HETATM    2  C10 UNL     1     -16.687  32.171 -13.748  1.00  0.00     0.018 A 
HETATM    3  C11 UNL     1     -16.724  30.863 -13.462  1.00  0.00     0.020 A 
HETATM    4  C12 UNL     1     -17.594  30.080 -14.169  1.00  0.00     0.005 A 
HETATM    5  S2  UNL     1     -18.338  31.218 -15.221  1.00  0.00    -0.093 SA
ENDROOT
BRANCH   4   6
HETATM    6  C13 UNL     1     -17.847  28.621 -14.069  1.00  0.00     0.020 C 
HETATM    7  C14 UNL     1     -18.425  28.036 -15.085  1.00  0.00     0.018 C 
BRANCH   7   8
HETATM    8  C15 UNL     1     -18.707  26.611 -15.066  1.00  0.00     0.024 A 
HETATM    9  C16 UNL     1     -19.950  26.127 -14.710  1.00  0.00     0.121 A 
HETATM   10  N1  UNL     1     -20.177  24.785 -14.702  1.00  0.00    -0.201 N 
HETATM   11  C17 UNL     1     -19.188  23.941 -15.042  1.00  0.00     0.677 A 
ATOM     12  H1  UNL     1     -21.093  24.422 -14.438  1.00  0.00     0.183 HD
HETATM   13  N3  UNL     1     -17.972  24.365 -15.393  1.00  0.00    -0.177 N 
HETATM   14  C18 UNL     1     -17.732  25.708 -15.405  1.00  0.00     0.126 A 
ATOM     15  H3  UNL     1     -17.241  23.701 -15.646  1.00  0.00     0.186 HD
BRANCH  11  16
HETATM   16  N2  UNL     1     -19.420  22.654 -15.030  1.00  0.00    -0.234 N 
ATOM     17  H22 UNL     1     -18.925  22.077 -14.350  1.00  0.00     0.174 HD
ATOM     18  H21 UNL     1     -20.085  22.264 -15.697  1.00  0.00     0.174 HD
ENDBRANCH  11  16
BRANCH  14  19
HETATM   19  N4  UNL     1     -16.546  26.036 -15.751  1.00  0.00    -0.384 N 
ATOM     20  H42 UNL     1     -16.484  26.532 -16.640  1.00  0.00     0.157 HD
ATOM     21  H41 UNL     1     -15.714  25.828 -15.199  1.00  0.00     0.157 HD
ENDBRANCH  14  19
ENDBRANCH   7   8
ENDBRANCH   4   6
BRANCH   1  22
HETATM   22  C8  UNL     1     -17.703  34.005 -15.255  1.00  0.00     0.225 C 
HETATM   23  C7  UNL     1     -18.165  34.028 -16.690  1.00  0.00     0.039 C 
HETATM   24  C6  UNL     1     -18.753  35.431 -16.906  1.00  0.00     0.019 C 
HETATM   25  C5  UNL     1     -17.886  36.459 -16.175  1.00  0.00     0.073 C 
HETATM   26  C19 UNL     1     -16.501  35.959 -15.924  1.00  0.00     0.248 C 
HETATM   27  N5  UNL     1     -16.473  34.733 -15.156  1.00  0.00    -0.065 N 
ATOM     28  H52 UNL     1     -16.227  34.912 -14.183  1.00  0.00     0.278 HD
ATOM     29  H51 UNL     1     -15.677  34.151 -15.419  1.00  0.00     0.278 HD
BRANCH  25  30
HETATM   30  S1  UNL     1     -17.829  37.931 -17.225  1.00  0.00    -0.163 SA
BRANCH  30  31
HETATM   31  C4  UNL     1     -18.774  39.247 -16.376  1.00  0.00     0.074 C 
BRANCH  31  32
HETATM   32  C3  UNL     1     -17.980  39.661 -15.135  1.00  0.00     0.010 C 
BRANCH  32  33
HETATM   33  C2  UNL     1     -16.528  39.764 -15.616  1.00  0.00    -0.004 C 
HETATM   34  C1  UNL     1     -15.975  41.112 -15.182  1.00  0.00     0.005 C 
ENDBRANCH  32  33
ENDBRANCH  31  32
ENDBRANCH  30  31
ENDBRANCH  25  30
ENDBRANCH   1  22
TORSDOF 9
ENDMDL
