MODEL 1
REMARK VINA RESULT: -8.056322789      0.000      0.000
REMARK  9 active torsions:
REMARK  status: ('A' for Active; 'I' for Inactive)
REMARK    1  A    between atoms: N1_5  and  C5_6 
REMARK    2  A    between atoms: C6_7  and  O1_8 
REMARK    3  A    between atoms: C6_7  and  C7_10 
REMARK    4  A    between atoms: C7_10  and  C8_11 
REMARK    5  A    between atoms: C8_11  and  C9_12 
REMARK    6  A    between atoms: C9_12  and  C10_13 
REMARK    7  A    between atoms: C10_13  and  C12_15 
REMARK    8  A    between atoms: C12_15  and  O2_16 
REMARK    9  A    between atoms: C17_22  and  O3_23 
ROOT
HETATM    1  C1  UNL     1     -21.972  22.867 -15.263  1.00  0.00     0.050 C 
HETATM    2  C2  UNL     1     -21.288  24.178 -15.524  1.00  0.00    -0.035 A 
HETATM    3  C3  UNL     1     -20.961  24.622 -16.754  1.00  0.00     0.057 A 
HETATM    4  C4  UNL     1     -20.282  25.860 -16.668  1.00  0.00     0.108 A 
HETATM    5  N1  UNL     1     -20.165  26.173 -15.347  1.00  0.00    -0.309 N 
HETATM    6  C13 UNL     1     -20.807  25.153 -14.652  1.00  0.00     0.031 A 
HETATM    7  C14 UNL     1     -21.369  25.053 -13.224  1.00  0.00     0.057 C 
HETATM    8  C15 UNL     1     -20.668  23.892 -12.614  1.00  0.00     0.020 C 
HETATM    9  C16 UNL     1     -22.830  24.888 -13.111  1.00  0.00     0.015 C 
HETATM   10  C17 UNL     1     -23.899  25.626 -13.763  1.00  0.00     0.040 C 
HETATM   11  C18 UNL     1     -23.725  26.884 -14.525  1.00  0.00     0.068 C 
HETATM   12  C19 UNL     1     -24.123  26.813 -15.972  1.00  0.00     0.033 C 
HETATM   13  C20 UNL     1     -24.119  28.042 -16.752  1.00  0.00    -0.026 C 
HETATM   14  C21 UNL     1     -23.201  28.540 -17.589  1.00  0.00    -0.006 C 
HETATM   15  C22 UNL     1     -22.043  27.902 -17.843  1.00  0.00    -0.008 C 
HETATM   16  C23 UNL     1     -20.713  27.850 -18.438  1.00  0.00     0.148 C 
HETATM   17  N2  UNL     1     -20.107  26.628 -17.903  1.00  0.00    -0.372 N 
ATOM     18  H2  UNL     1     -19.410  26.223 -18.527  1.00  0.00     0.161 HD
ENDROOT
BRANCH   5  19
HETATM   19  C5  UNL     1     -19.272  27.224 -14.706  1.00  0.00     0.130 C 
HETATM   20  C6  UNL     1     -19.632  28.574 -14.463  1.00  0.00     0.059 C 
BRANCH  20  21
HETATM   21  O1  UNL     1     -20.732  28.869 -13.648  1.00  0.00    -0.364 OA
ATOM     22  H1  UNL     1     -21.142  29.725 -13.695  1.00  0.00     0.217 HD
ENDBRANCH  20  21
BRANCH  20  23
HETATM   23  C7  UNL     1     -19.476  29.679 -15.449  1.00  0.00     0.066 C 
BRANCH  23  24
HETATM   24  C8  UNL     1     -18.247  30.531 -15.194  1.00  0.00     0.007 C 
BRANCH  24  25
HETATM   25  C9  UNL     1     -18.161  31.768 -16.005  1.00  0.00     0.007 C 
BRANCH  25  26
HETATM   26  C10 UNL     1     -18.214  33.007 -15.115  1.00  0.00     0.005 C 
HETATM   27  C11 UNL     1     -17.038  33.030 -14.175  1.00  0.00     0.012 C 
BRANCH  26  28
HETATM   28  C12 UNL     1     -18.122  34.270 -15.959  1.00  0.00     0.168 C 
BRANCH  28  29
HETATM   29  O2  UNL     1     -19.057  34.121 -16.989  1.00  0.00    -0.400 OA
ATOM     30  H2  UNL     1     -18.556  33.993 -17.786  1.00  0.00     0.209 HD
ENDBRANCH  28  29
ENDBRANCH  26  28
ENDBRANCH  25  26
ENDBRANCH  24  25
ENDBRANCH  23  24
ENDBRANCH  20  23
ENDBRANCH   5  19
BRANCH  10  31
HETATM   31  O3  UNL     1     -24.872  24.858 -14.446  1.00  0.00    -0.365 OA
ATOM     32  H3  UNL     1     -25.481  25.338 -14.996  1.00  0.00     0.217 HD
ENDBRANCH  10  31
TORSDOF 9
ENDMDL
MODEL 2
REMARK VINA RESULT: -8.053308871      2.346      4.330
REMARK  9 active torsions:
REMARK  status: ('A' for Active; 'I' for Inactive)
REMARK    1  A    between atoms: N1_5  and  C5_6 
REMARK    2  A    between atoms: C6_7  and  O1_8 
REMARK    3  A    between atoms: C6_7  and  C7_10 
REMARK    4  A    between atoms: C7_10  and  C8_11 
REMARK    5  A    between atoms: C8_11  and  C9_12 
REMARK    6  A    between atoms: C9_12  and  C10_13 
REMARK    7  A    between atoms: C10_13  and  C12_15 
REMARK    8  A    between atoms: C12_15  and  O2_16 
REMARK    9  A    between atoms: C17_22  and  O3_23 
ROOT
HETATM    1  C1  UNL     1     -21.654  25.799 -12.646  1.00  0.00     0.050 C 
HETATM    2  C2  UNL     1     -20.852  26.886 -13.304  1.00  0.00    -0.035 A 
HETATM    3  C3  UNL     1     -19.780  27.475 -12.738  1.00  0.00     0.057 A 
HETATM    4  C4  UNL     1     -19.273  28.493 -13.579  1.00  0.00     0.108 A 
HETATM    5  N1  UNL     1     -20.073  28.549 -14.682  1.00  0.00    -0.309 N 
HETATM    6  C13 UNL     1     -21.021  27.544 -14.521  1.00  0.00     0.031 A 
HETATM    7  C14 UNL     1     -21.953  26.819 -15.505  1.00  0.00     0.057 C 
HETATM    8  C15 UNL     1     -23.324  27.045 -14.976  1.00  0.00     0.020 C 
HETATM    9  C16 UNL     1     -21.706  25.376 -15.691  1.00  0.00     0.015 C 
HETATM   10  C17 UNL     1     -20.459  24.675 -15.946  1.00  0.00     0.040 C 
HETATM   11  C18 UNL     1     -19.176  25.321 -16.305  1.00  0.00     0.068 C 
HETATM   12  C19 UNL     1     -18.053  25.091 -15.334  1.00  0.00     0.033 C 
HETATM   13  C20 UNL     1     -16.723  25.570 -15.687  1.00  0.00    -0.026 C 
HETATM   14  C21 UNL     1     -16.077  26.688 -15.334  1.00  0.00    -0.006 C 
HETATM   15  C22 UNL     1     -16.632  27.608 -14.523  1.00  0.00    -0.008 C 
HETATM   16  C23 UNL     1     -16.625  28.914 -13.875  1.00  0.00     0.148 C 
HETATM   17  N2  UNL     1     -17.952  29.041 -13.266  1.00  0.00    -0.372 N 
ATOM     18  H2  UNL     1     -17.956  29.643 -12.443  1.00  0.00     0.161 HD
ENDROOT
BRANCH   5  19
HETATM   19  C5  UNL     1     -20.148  29.646 -15.732  1.00  0.00     0.130 C 
HETATM   20  C6  UNL     1     -19.238  29.824 -16.805  1.00  0.00     0.059 C 
BRANCH  20  21
HETATM   21  O1  UNL     1     -19.054  28.801 -17.744  1.00  0.00    -0.364 OA
ATOM     22  H1  UNL     1     -18.289  28.806 -18.308  1.00  0.00     0.217 HD
ENDBRANCH  20  21
BRANCH  20  23
HETATM   23  C7  UNL     1     -17.973  30.605 -16.717  1.00  0.00     0.066 C 
BRANCH  23  24
HETATM   24  C8  UNL     1     -18.065  31.773 -15.753  1.00  0.00     0.007 C 
BRANCH  24  25
HETATM   25  C9  UNL     1     -18.107  33.111 -16.389  1.00  0.00     0.007 C 
BRANCH  25  26
HETATM   26  C10 UNL     1     -17.802  34.207 -15.370  1.00  0.00     0.005 C 
HETATM   27  C11 UNL     1     -16.864  33.694 -14.310  1.00  0.00     0.012 C 
BRANCH  26  28
HETATM   28  C12 UNL     1     -17.100  35.377 -16.045  1.00  0.00     0.168 C 
BRANCH  28  29
HETATM   29  O2  UNL     1     -15.825  35.450 -15.475  1.00  0.00    -0.400 OA
ATOM     30  H2  UNL     1     -15.245  35.761 -16.160  1.00  0.00     0.209 HD
ENDBRANCH  28  29
ENDBRANCH  26  28
ENDBRANCH  25  26
ENDBRANCH  24  25
ENDBRANCH  23  24
ENDBRANCH  20  23
ENDBRANCH   5  19
BRANCH  10  31
HETATM   31  O3  UNL     1     -20.153  23.596 -15.082  1.00  0.00    -0.365 OA
ATOM     32  H3  UNL     1     -19.800  23.823 -14.229  1.00  0.00     0.217 HD
ENDBRANCH  10  31
TORSDOF 9
ENDMDL
MODEL 3
REMARK VINA RESULT: -8.030802879      2.608      3.584
REMARK  9 active torsions:
REMARK  status: ('A' for Active; 'I' for Inactive)
REMARK    1  A    between atoms: N1_5  and  C5_6 
REMARK    2  A    between atoms: C6_7  and  O1_8 
REMARK    3  A    between atoms: C6_7  and  C7_10 
REMARK    4  A    between atoms: C7_10  and  C8_11 
REMARK    5  A    between atoms: C8_11  and  C9_12 
REMARK    6  A    between atoms: C9_12  and  C10_13 
REMARK    7  A    between atoms: C10_13  and  C12_15 
REMARK    8  A    between atoms: C12_15  and  O2_16 
REMARK    9  A    between atoms: C17_22  and  O3_23 
ROOT
HETATM    1  C1  UNL     1     -20.819  23.601 -12.608  1.00  0.00     0.050 C 
HETATM    2  C2  UNL     1     -20.845  23.976 -14.062  1.00  0.00    -0.035 A 
HETATM    3  C3  UNL     1     -20.529  23.130 -15.062  1.00  0.00     0.057 A 
HETATM    4  C4  UNL     1     -20.599  23.791 -16.310  1.00  0.00     0.108 A 
HETATM    5  N1  UNL     1     -20.942  25.088 -16.069  1.00  0.00    -0.309 N 
HETATM    6  C13 UNL     1     -21.119  25.188 -14.692  1.00  0.00     0.031 A 
HETATM    7  C14 UNL     1     -21.848  26.211 -13.805  1.00  0.00     0.057 C 
HETATM    8  C15 UNL     1     -20.810  26.716 -12.867  1.00  0.00     0.020 C 
HETATM    9  C16 UNL     1     -23.014  25.705 -13.056  1.00  0.00     0.015 C 
HETATM   10  C17 UNL     1     -24.140  24.911 -13.520  1.00  0.00     0.040 C 
HETATM   11  C18 UNL     1     -24.459  24.633 -14.939  1.00  0.00     0.068 C 
HETATM   12  C19 UNL     1     -24.445  23.181 -15.322  1.00  0.00     0.033 C 
HETATM   13  C20 UNL     1     -24.889  22.813 -16.660  1.00  0.00    -0.026 C 
HETATM   14  C21 UNL     1     -24.189  22.555 -17.771  1.00  0.00    -0.006 C 
HETATM   15  C22 UNL     1     -22.844  22.608 -17.797  1.00  0.00    -0.008 C 
HETATM   16  C23 UNL     1     -21.575  22.580 -18.514  1.00  0.00     0.148 C 
HETATM   17  N2  UNL     1     -20.570  22.966 -17.520  1.00  0.00    -0.372 N 
ATOM     18  H2  UNL     1     -19.648  22.575 -17.713  1.00  0.00     0.161 HD
ENDROOT
BRANCH   5  19
HETATM   19  C5  UNL     1     -20.858  26.273 -17.017  1.00  0.00     0.130 C 
HETATM   20  C6  UNL     1     -19.988  27.383 -16.875  1.00  0.00     0.059 C 
BRANCH  20  21
HETATM   21  O1  UNL     1     -18.602  27.186 -16.841  1.00  0.00    -0.364 OA
ATOM     22  H1  UNL     1     -18.016  27.934 -16.824  1.00  0.00     0.217 HD
ENDBRANCH  20  21
BRANCH  20  23
HETATM   23  C7  UNL     1     -20.301  28.604 -16.081  1.00  0.00     0.066 C 
BRANCH  23  24
HETATM   24  C8  UNL     1     -19.073  29.441 -15.775  1.00  0.00     0.007 C 
BRANCH  24  25
HETATM   25  C9  UNL     1     -18.566  29.327 -14.388  1.00  0.00     0.007 C 
BRANCH  25  26
HETATM   26  C10 UNL     1     -17.051  29.519 -14.345  1.00  0.00     0.005 C 
HETATM   27  C11 UNL     1     -16.665  30.397 -13.185  1.00  0.00     0.012 C 
BRANCH  26  28
HETATM   28  C12 UNL     1     -16.353  28.183 -14.134  1.00  0.00     0.168 C 
BRANCH  28  29
HETATM   29  O2  UNL     1     -15.996  27.723 -15.406  1.00  0.00    -0.400 OA
ATOM     30  H2  UNL     1     -15.123  28.056 -15.573  1.00  0.00     0.209 HD
ENDBRANCH  28  29
ENDBRANCH  26  28
ENDBRANCH  25  26
ENDBRANCH  24  25
ENDBRANCH  23  24
ENDBRANCH  20  23
ENDBRANCH   5  19
BRANCH  10  31
HETATM   31  O3  UNL     1     -24.423  23.731 -12.791  1.00  0.00    -0.365 OA
ATOM     32  H3  UNL     1     -24.134  22.913 -13.180  1.00  0.00     0.217 HD
ENDBRANCH  10  31
TORSDOF 9
ENDMDL
MODEL 4
REMARK VINA RESULT: -8.006671962      2.869      5.026
REMARK  9 active torsions:
REMARK  status: ('A' for Active; 'I' for Inactive)
REMARK    1  A    between atoms: N1_5  and  C5_6 
REMARK    2  A    between atoms: C6_7  and  O1_8 
REMARK    3  A    between atoms: C6_7  and  C7_10 
REMARK    4  A    between atoms: C7_10  and  C8_11 
REMARK    5  A    between atoms: C8_11  and  C9_12 
REMARK    6  A    between atoms: C9_12  and  C10_13 
REMARK    7  A    between atoms: C10_13  and  C12_15 
REMARK    8  A    between atoms: C12_15  and  O2_16 
REMARK    9  A    between atoms: C17_22  and  O3_23 
ROOT
HETATM    1  C1  UNL     1     -23.757  28.282 -17.111  1.00  0.00     0.050 C 
HETATM    2  C2  UNL     1     -23.223  27.414 -16.008  1.00  0.00    -0.035 A 
HETATM    3  C3  UNL     1     -23.962  26.984 -14.967  1.00  0.00     0.057 A 
HETATM    4  C4  UNL     1     -23.166  26.231 -14.073  1.00  0.00     0.108 A 
HETATM    5  N1  UNL     1     -21.894  26.221 -14.564  1.00  0.00    -0.309 N 
HETATM    6  C13 UNL     1     -21.942  26.923 -15.764  1.00  0.00     0.031 A 
HETATM    7  C14 UNL     1     -21.004  26.976 -16.982  1.00  0.00     0.057 C 
HETATM    8  C15 UNL     1     -20.634  28.410 -17.122  1.00  0.00     0.020 C 
HETATM    9  C16 UNL     1     -21.557  26.462 -18.249  1.00  0.00     0.015 C 
HETATM   10  C17 UNL     1     -22.264  25.220 -18.516  1.00  0.00     0.040 C 
HETATM   11  C18 UNL     1     -22.374  24.084 -17.574  1.00  0.00     0.068 C 
HETATM   12  C19 UNL     1     -23.776  23.733 -17.160  1.00  0.00     0.033 C 
HETATM   13  C20 UNL     1     -23.981  22.539 -16.351  1.00  0.00    -0.026 C 
HETATM   14  C21 UNL     1     -24.134  22.397 -15.029  1.00  0.00    -0.006 C 
HETATM   15  C22 UNL     1     -24.115  23.449 -14.190  1.00  0.00    -0.008 C 
HETATM   16  C23 UNL     1     -24.099  24.016 -12.847  1.00  0.00     0.148 C 
HETATM   17  N2  UNL     1     -23.852  25.448 -13.044  1.00  0.00    -0.372 N 
ATOM     18  H2  UNL     1     -24.244  26.025 -12.300  1.00  0.00     0.161 HD
ENDROOT
BRANCH   5  19
HETATM   19  C5  UNL     1     -20.614  25.818 -13.849  1.00  0.00     0.130 C 
HETATM   20  C6  UNL     1     -20.334  26.032 -12.476  1.00  0.00     0.059 C 
BRANCH  20  21
HETATM   21  O1  UNL     1     -21.172  25.481 -11.497  1.00  0.00    -0.364 OA
ATOM     22  H1  UNL     1     -21.668  26.051 -10.921  1.00  0.00     0.217 HD
ENDBRANCH  20  21
BRANCH  20  23
HETATM   23  C7  UNL     1     -19.730  27.275 -11.922  1.00  0.00     0.066 C 
BRANCH  23  24
HETATM   24  C8  UNL     1     -19.274  28.242 -12.999  1.00  0.00     0.007 C 
BRANCH  24  25
HETATM   25  C9  UNL     1     -17.808  28.435 -13.089  1.00  0.00     0.007 C 
BRANCH  25  26
HETATM   26  C10 UNL     1     -17.300  28.098 -14.489  1.00  0.00     0.005 C 
HETATM   27  C11 UNL     1     -17.501  29.267 -15.417  1.00  0.00     0.012 C 
BRANCH  26  28
HETATM   28  C12 UNL     1     -15.804  27.818 -14.457  1.00  0.00     0.168 C 
BRANCH  28  29
HETATM   29  O2  UNL     1     -15.529  27.034 -15.582  1.00  0.00    -0.400 OA
ATOM     30  H2  UNL     1     -15.569  27.618 -16.330  1.00  0.00     0.209 HD
ENDBRANCH  28  29
ENDBRANCH  26  28
ENDBRANCH  25  26
ENDBRANCH  24  25
ENDBRANCH  23  24
ENDBRANCH  20  23
ENDBRANCH   5  19
BRANCH  10  31
HETATM   31  O3  UNL     1     -23.509  25.333 -19.180  1.00  0.00    -0.365 OA
ATOM     32  H3  UNL     1     -24.147  24.652 -19.001  1.00  0.00     0.217 HD
ENDBRANCH  10  31
TORSDOF 9
ENDMDL
MODEL 5
REMARK VINA RESULT: -7.952951143      1.964      4.071
REMARK  9 active torsions:
REMARK  status: ('A' for Active; 'I' for Inactive)
REMARK    1  A    between atoms: N1_5  and  C5_6 
REMARK    2  A    between atoms: C6_7  and  O1_8 
REMARK    3  A    between atoms: C6_7  and  C7_10 
REMARK    4  A    between atoms: C7_10  and  C8_11 
REMARK    5  A    between atoms: C8_11  and  C9_12 
REMARK    6  A    between atoms: C9_12  and  C10_13 
REMARK    7  A    between atoms: C10_13  and  C12_15 
REMARK    8  A    between atoms: C12_15  and  O2_16 
REMARK    9  A    between atoms: C17_22  and  O3_23 
ROOT
HETATM    1  C1  UNL     1     -24.111  25.733 -16.211  1.00  0.00     0.050 C 
HETATM    2  C2  UNL     1     -22.753  26.263 -15.850  1.00  0.00    -0.035 A 
HETATM    3  C3  UNL     1     -22.545  27.249 -14.954  1.00  0.00     0.057 A 
HETATM    4  C4  UNL     1     -21.169  27.560 -14.872  1.00  0.00     0.108 A 
HETATM    5  N1  UNL     1     -20.513  26.763 -15.762  1.00  0.00    -0.309 N 
HETATM    6  C13 UNL     1     -21.486  25.951 -16.338  1.00  0.00     0.031 A 
HETATM    7  C14 UNL     1     -21.416  24.620 -17.105  1.00  0.00     0.057 C 
HETATM    8  C15 UNL     1     -22.060  24.896 -18.416  1.00  0.00     0.020 C 
HETATM    9  C16 UNL     1     -22.054  23.461 -16.452  1.00  0.00     0.015 C 
HETATM   10  C17 UNL     1     -21.931  22.983 -15.085  1.00  0.00     0.040 C 
HETATM   11  C18 UNL     1     -20.928  23.456 -14.104  1.00  0.00     0.068 C 
HETATM   12  C19 UNL     1     -21.497  24.093 -12.868  1.00  0.00     0.033 C 
HETATM   13  C20 UNL     1     -20.583  24.453 -11.792  1.00  0.00    -0.026 C 
HETATM   14  C21 UNL     1     -20.020  25.626 -11.482  1.00  0.00    -0.006 C 
HETATM   15  C22 UNL     1     -20.248  26.741 -12.201  1.00  0.00    -0.008 C 
HETATM   16  C23 UNL     1     -19.973  28.136 -12.523  1.00  0.00     0.148 C 
HETATM   17  N2  UNL     1     -20.725  28.395 -13.754  1.00  0.00    -0.372 N 
ATOM     18  H2  UNL     1     -20.999  29.373 -13.854  1.00  0.00     0.161 HD
ENDROOT
BRANCH   5  19
HETATM   19  C5  UNL     1     -19.089  26.902 -16.277  1.00  0.00     0.130 C 
HETATM   20  C6  UNL     1     -17.914  26.607 -15.541  1.00  0.00     0.059 C 
BRANCH  20  21
HETATM   21  O1  UNL     1     -17.711  25.317 -15.034  1.00  0.00    -0.364 OA
ATOM     22  H1  UNL     1     -18.193  24.583 -15.395  1.00  0.00     0.217 HD
ENDBRANCH  20  21
BRANCH  20  23
HETATM   23  C7  UNL     1     -17.215  27.572 -14.646  1.00  0.00     0.066 C 
BRANCH  23  24
HETATM   24  C8  UNL     1     -17.039  28.941 -15.275  1.00  0.00     0.007 C 
BRANCH  24  25
HETATM   25  C9  UNL     1     -17.522  30.076 -14.455  1.00  0.00     0.007 C 
BRANCH  25  26
HETATM   26  C10 UNL     1     -18.530  30.919 -15.233  1.00  0.00     0.005 C 
HETATM   27  C11 UNL     1     -18.114  32.366 -15.236  1.00  0.00     0.012 C 
BRANCH  26  28
HETATM   28  C12 UNL     1     -18.578  30.476 -16.689  1.00  0.00     0.168 C 
BRANCH  28  29
HETATM   29  O2  UNL     1     -19.931  30.311 -17.003  1.00  0.00    -0.400 OA
ATOM     30  H2  UNL     1     -20.026  29.414 -17.303  1.00  0.00     0.209 HD
ENDBRANCH  28  29
ENDBRANCH  26  28
ENDBRANCH  25  26
ENDBRANCH  24  25
ENDBRANCH  23  24
ENDBRANCH  20  23
ENDBRANCH   5  19
BRANCH  10  31
HETATM   31  O3  UNL     1     -23.140  22.777 -14.377  1.00  0.00    -0.365 OA
ATOM     32  H3  UNL     1     -23.135  23.008 -13.455  1.00  0.00     0.217 HD
ENDBRANCH  10  31
TORSDOF 9
ENDMDL
