MODEL 1
REMARK VINA RESULT: -7.550925392      0.000      0.000
REMARK  8 active torsions:
REMARK  status: ('A' for Active; 'I' for Inactive)
REMARK    1  A    between atoms: C3_3  and  C4_4 
REMARK    2  A    between atoms: C4_4  and  N1_5 
REMARK    3  A    between atoms: C4_4  and  C16_21 
REMARK    4  A    between atoms: N1_5  and  C5_7 
REMARK    5  A    between atoms: C5_7  and  C6_8 
REMARK    6  A    between atoms: C5_7  and  C13_15 
REMARK    7  A    between atoms: C6_8  and  C7_9 
REMARK    8  A    between atoms: C20_32  and  N6_33 
ROOT
HETATM    1  C4  UNL     1     -21.525  26.150 -13.255  1.00  0.00     0.132 C 
ENDROOT
BRANCH   1   2
HETATM    2  C3  UNL     1     -21.528  24.883 -14.002  1.00  0.00     0.059 A 
HETATM    3  C2  UNL     1     -22.683  24.113 -14.063  1.00  0.00     0.007 A 
HETATM    4  C1  UNL     1     -23.904  24.459 -13.326  1.00  0.00     0.054 C 
HETATM    5  C20 UNL     1     -22.667  22.946 -14.807  1.00  0.00     0.122 A 
HETATM    6  N5  UNL     1     -21.583  22.543 -15.459  1.00  0.00    -0.177 N 
HETATM    7  C19 UNL     1     -20.467  23.277 -15.408  1.00  0.00     0.677 A 
ATOM      8  H5  UNL     1     -21.602  21.677 -15.997  1.00  0.00     0.185 HD
HETATM    9  N3  UNL     1     -20.477  24.435 -14.674  1.00  0.00    -0.193 N 
HETATM   10  N4  UNL     1     -19.429  22.890 -16.042  1.00  0.00    -0.234 N 
ATOM     11  H3  UNL     1     -19.621  24.987 -14.643  1.00  0.00     0.184 HD
ATOM     12  H42 UNL     1     -18.578  23.449 -16.002  1.00  0.00     0.174 HD
ATOM     13  H41 UNL     1     -19.422  22.028 -16.588  1.00  0.00     0.174 HD
BRANCH   5  14
HETATM   14  N6  UNL     1     -23.731  22.229 -14.838  1.00  0.00    -0.385 N 
ATOM     15  H62 UNL     1     -24.129  21.877 -13.968  1.00  0.00     0.157 HD
ATOM     16  H61 UNL     1     -24.166  22.047 -15.743  1.00  0.00     0.157 HD
ENDBRANCH   5  14
ENDBRANCH   1   2
BRANCH   1  17
HETATM   17  N1  UNL     1     -21.336  27.341 -13.955  1.00  0.00    -0.401 N 
ATOM     18  H1  UNL     1     -21.687  28.177 -13.487  1.00  0.00     0.154 HD
BRANCH  17  19
HETATM   19  C5  UNL     1     -20.747  27.564 -15.181  1.00  0.00     0.135 C 
BRANCH  19  20
HETATM   20  C6  UNL     1     -20.078  28.962 -15.092  1.00  0.00     0.036 C 
BRANCH  20  21
HETATM   21  C7  UNL     1     -18.743  29.053 -15.714  1.00  0.00    -0.012 C 
HETATM   22  C8  UNL     1     -17.934  30.158 -15.158  1.00  0.00     0.005 C 
HETATM   23  C9  UNL     1     -17.118  29.840 -13.942  1.00  0.00     0.000 C 
HETATM   24  C10 UNL     1     -16.307  28.589 -14.175  1.00  0.00     0.000 C 
HETATM   25  C11 UNL     1     -17.279  27.452 -14.425  1.00  0.00     0.000 C 
HETATM   26  C12 UNL     1     -18.060  27.686 -15.673  1.00  0.00     0.005 C 
ENDBRANCH  20  21
ENDBRANCH  19  20
BRANCH  19  27
HETATM   27  C13 UNL     1     -21.866  27.893 -16.189  1.00  0.00     0.073 A 
HETATM   28  N2  UNL     1     -23.160  27.887 -16.044  1.00  0.00    -0.361 N 
HETATM   29  C14 UNL     1     -23.930  28.214 -17.033  1.00  0.00     0.096 A 
ATOM     30  H2  UNL     1     -23.569  27.622 -15.148  1.00  0.00     0.165 HD
HETATM   31  C15 UNL     1     -23.324  28.558 -18.217  1.00  0.00     0.068 A 
HETATM   32  S1  UNL     1     -21.673  28.387 -17.811  1.00  0.00    -0.085 SA
ENDBRANCH  19  27
ENDBRANCH  17  19
ENDBRANCH   1  17
BRANCH   1  33
HETATM   33  C16 UNL     1     -20.170  26.080 -12.433  1.00  0.00     0.006 C 
HETATM   34  C17 UNL     1     -20.349  25.071 -11.341  1.00  0.00     0.012 C 
HETATM   35  C18 UNL     1     -19.863  27.436 -11.845  1.00  0.00     0.012 C 
ENDBRANCH   1  33
TORSDOF 8
ENDMDL
MODEL 2
REMARK VINA RESULT: -7.469801540      2.410      3.792
REMARK  8 active torsions:
REMARK  status: ('A' for Active; 'I' for Inactive)
REMARK    1  A    between atoms: C3_3  and  C4_4 
REMARK    2  A    between atoms: C4_4  and  N1_5 
REMARK    3  A    between atoms: C4_4  and  C16_21 
REMARK    4  A    between atoms: N1_5  and  C5_7 
REMARK    5  A    between atoms: C5_7  and  C6_8 
REMARK    6  A    between atoms: C5_7  and  C13_15 
REMARK    7  A    between atoms: C6_8  and  C7_9 
REMARK    8  A    between atoms: C20_32  and  N6_33 
ROOT
HETATM    1  C4  UNL     1     -22.652  24.150 -13.798  1.00  0.00     0.132 C 
ENDROOT
BRANCH   1   2
HETATM    2  C3  UNL     1     -23.722  23.291 -13.270  1.00  0.00     0.059 A 
HETATM    3  C2  UNL     1     -24.605  23.785 -12.318  1.00  0.00     0.007 A 
HETATM    4  C1  UNL     1     -24.466  25.121 -11.727  1.00  0.00     0.054 C 
HETATM    5  C20 UNL     1     -25.628  22.967 -11.869  1.00  0.00     0.122 A 
HETATM    6  N5  UNL     1     -25.785  21.728 -12.320  1.00  0.00    -0.177 N 
HETATM    7  C19 UNL     1     -24.942  21.244 -13.238  1.00  0.00     0.677 A 
ATOM      8  H5  UNL     1     -26.547  21.149 -11.969  1.00  0.00     0.185 HD
HETATM    9  N3  UNL     1     -23.929  22.051 -13.687  1.00  0.00    -0.193 N 
HETATM   10  N4  UNL     1     -25.102  20.056 -13.674  1.00  0.00    -0.234 N 
ATOM     11  H3  UNL     1     -23.293  21.671 -14.388  1.00  0.00     0.184 HD
ATOM     12  H42 UNL     1     -24.459  19.686 -14.374  1.00  0.00     0.174 HD
ATOM     13  H41 UNL     1     -25.856  19.456 -13.340  1.00  0.00     0.174 HD
BRANCH   5  14
HETATM   14  N6  UNL     1     -26.424  23.423 -10.972  1.00  0.00    -0.385 N 
ATOM     15  H62 UNL     1     -26.064  23.653 -10.046  1.00  0.00     0.157 HD
ATOM     16  H61 UNL     1     -27.403  23.564 -11.220  1.00  0.00     0.157 HD
ENDBRANCH   5  14
ENDBRANCH   1   2
BRANCH   1  17
HETATM   17  N1  UNL     1     -22.208  23.944 -15.104  1.00  0.00    -0.401 N 
ATOM     18  H1  UNL     1     -21.888  22.996 -15.305  1.00  0.00     0.154 HD
BRANCH  17  19
HETATM   19  C5  UNL     1     -22.135  24.822 -16.164  1.00  0.00     0.135 C 
BRANCH  19  20
HETATM   20  C6  UNL     1     -22.280  26.244 -15.559  1.00  0.00     0.036 C 
BRANCH  20  21
HETATM   21  C7  UNL     1     -21.246  27.208 -15.980  1.00  0.00    -0.012 C 
HETATM   22  C8  UNL     1     -21.088  28.323 -15.022  1.00  0.00     0.005 C 
HETATM   23  C9  UNL     1     -20.127  28.100 -13.893  1.00  0.00     0.000 C 
HETATM   24  C10 UNL     1     -18.806  27.604 -14.428  1.00  0.00     0.000 C 
HETATM   25  C11 UNL     1     -19.060  26.281 -15.124  1.00  0.00     0.000 C 
HETATM   26  C12 UNL     1     -19.950  26.465 -16.306  1.00  0.00     0.005 C 
ENDBRANCH  20  21
ENDBRANCH  19  20
BRANCH  19  27
HETATM   27  C13 UNL     1     -23.469  24.746 -16.932  1.00  0.00     0.073 A 
HETATM   28  N2  UNL     1     -24.470  23.925 -16.802  1.00  0.00    -0.361 N 
HETATM   29  C14 UNL     1     -25.518  24.047 -17.555  1.00  0.00     0.096 A 
ATOM     30  H2  UNL     1     -24.431  23.181 -16.105  1.00  0.00     0.165 HD
HETATM   31  C15 UNL     1     -25.515  25.064 -18.479  1.00  0.00     0.068 A 
HETATM   32  S1  UNL     1     -23.989  25.778 -18.188  1.00  0.00    -0.085 SA
ENDBRANCH  19  27
ENDBRANCH  17  19
ENDBRANCH   1  17
BRANCH   1  33
HETATM   33  C16 UNL     1     -21.375  23.678 -12.981  1.00  0.00     0.006 C 
HETATM   34  C17 UNL     1     -20.807  24.877 -12.288  1.00  0.00     0.012 C 
HETATM   35  C18 UNL     1     -20.357  23.091 -13.928  1.00  0.00     0.012 C 
ENDBRANCH   1  33
TORSDOF 8
ENDMDL
MODEL 3
REMARK VINA RESULT: -7.393282249      3.142      5.207
REMARK  8 active torsions:
REMARK  status: ('A' for Active; 'I' for Inactive)
REMARK    1  A    between atoms: C3_3  and  C4_4 
REMARK    2  A    between atoms: C4_4  and  N1_5 
REMARK    3  A    between atoms: C4_4  and  C16_21 
REMARK    4  A    between atoms: N1_5  and  C5_7 
REMARK    5  A    between atoms: C5_7  and  C6_8 
REMARK    6  A    between atoms: C5_7  and  C13_15 
REMARK    7  A    between atoms: C6_8  and  C7_9 
REMARK    8  A    between atoms: C20_32  and  N6_33 
ROOT
HETATM    1  C4  UNL     1     -18.592  28.953 -14.196  1.00  0.00     0.132 C 
ENDROOT
BRANCH   1   2
HETATM    2  C3  UNL     1     -19.445  27.765 -14.349  1.00  0.00     0.059 A 
HETATM    3  C2  UNL     1     -20.124  27.249 -13.252  1.00  0.00     0.007 A 
HETATM    4  C1  UNL     1     -19.958  27.785 -11.895  1.00  0.00     0.054 C 
HETATM    5  C20 UNL     1     -20.951  26.155 -13.434  1.00  0.00     0.122 A 
HETATM    6  N5  UNL     1     -21.111  25.586 -14.623  1.00  0.00    -0.177 N 
HETATM    7  C19 UNL     1     -20.463  26.074 -15.685  1.00  0.00     0.677 A 
ATOM      8  H5  UNL     1     -21.726  24.778 -14.725  1.00  0.00     0.185 HD
HETATM    9  N3  UNL     1     -19.644  27.159 -15.510  1.00  0.00    -0.193 N 
HETATM   10  N4  UNL     1     -20.625  25.529 -16.827  1.00  0.00    -0.234 N 
ATOM     11  H3  UNL     1     -19.156  27.525 -16.328  1.00  0.00     0.184 HD
ATOM     12  H42 UNL     1     -20.131  25.901 -17.637  1.00  0.00     0.174 HD
ATOM     13  H41 UNL     1     -21.235  24.722 -16.957  1.00  0.00     0.174 HD
BRANCH   5  14
HETATM   14  N6  UNL     1     -21.556  25.671 -12.411  1.00  0.00    -0.385 N 
ATOM     15  H62 UNL     1     -21.028  25.463 -11.563  1.00  0.00     0.157 HD
ATOM     16  H61 UNL     1     -22.564  25.525 -12.468  1.00  0.00     0.157 HD
ENDBRANCH   5  14
ENDBRANCH   1   2
BRANCH   1  17
HETATM   17  N1  UNL     1     -18.213  29.659 -15.337  1.00  0.00    -0.401 N 
ATOM     18  H1  UNL     1     -17.348  29.341 -15.774  1.00  0.00     0.154 HD
BRANCH  17  19
HETATM   19  C5  UNL     1     -18.828  30.720 -15.968  1.00  0.00     0.135 C 
BRANCH  19  20
HETATM   20  C6  UNL     1     -18.330  30.697 -17.438  1.00  0.00     0.036 C 
BRANCH  20  21
HETATM   21  C7  UNL     1     -19.397  30.721 -18.456  1.00  0.00    -0.012 C 
HETATM   22  C8  UNL     1     -18.867  30.876 -19.828  1.00  0.00     0.005 C 
HETATM   23  C9  UNL     1     -18.494  29.615 -20.546  1.00  0.00     0.000 C 
HETATM   24  C10 UNL     1     -19.629  28.623 -20.472  1.00  0.00     0.000 C 
HETATM   25  C11 UNL     1     -19.866  28.303 -19.009  1.00  0.00     0.000 C 
HETATM   26  C12 UNL     1     -20.318  29.515 -18.267  1.00  0.00     0.005 C 
ENDBRANCH  20  21
ENDBRANCH  19  20
BRANCH  19  27
HETATM   27  C13 UNL     1     -18.137  32.014 -15.496  1.00  0.00     0.073 A 
HETATM   28  N2  UNL     1     -17.397  32.241 -14.449  1.00  0.00    -0.361 N 
HETATM   29  C14 UNL     1     -16.897  33.418 -14.244  1.00  0.00     0.096 A 
ATOM     30  H2  UNL     1     -17.211  31.488 -13.786  1.00  0.00     0.165 HD
HETATM   31  C15 UNL     1     -17.183  34.394 -15.168  1.00  0.00     0.068 A 
HETATM   32  S1  UNL     1     -18.159  33.532 -16.275  1.00  0.00    -0.085 SA
ENDBRANCH  19  27
ENDBRANCH  17  19
ENDBRANCH   1  17
BRANCH   1  33
HETATM   33  C16 UNL     1     -17.194  28.340 -13.759  1.00  0.00     0.006 C 
HETATM   34  C17 UNL     1     -16.531  29.322 -12.844  1.00  0.00     0.012 C 
HETATM   35  C18 UNL     1     -16.341  28.105 -14.981  1.00  0.00     0.012 C 
ENDBRANCH   1  33
TORSDOF 8
ENDMDL
MODEL 4
REMARK VINA RESULT: -7.315529883      1.853      2.592
REMARK  8 active torsions:
REMARK  status: ('A' for Active; 'I' for Inactive)
REMARK    1  A    between atoms: C3_3  and  C4_4 
REMARK    2  A    between atoms: C4_4  and  N1_5 
REMARK    3  A    between atoms: C4_4  and  C16_21 
REMARK    4  A    between atoms: N1_5  and  C5_7 
REMARK    5  A    between atoms: C5_7  and  C6_8 
REMARK    6  A    between atoms: C5_7  and  C13_15 
REMARK    7  A    between atoms: C6_8  and  C7_9 
REMARK    8  A    between atoms: C20_32  and  N6_33 
ROOT
HETATM    1  C4  UNL     1     -20.554  27.052 -14.163  1.00  0.00     0.132 C 
ENDROOT
BRANCH   1   2
HETATM    2  C3  UNL     1     -19.857  25.978 -14.886  1.00  0.00     0.059 A 
HETATM    3  C2  UNL     1     -20.582  24.939 -15.457  1.00  0.00     0.007 A 
HETATM    4  C1  UNL     1     -22.034  24.804 -15.294  1.00  0.00     0.054 C 
HETATM    5  C20 UNL     1     -19.903  23.963 -16.167  1.00  0.00     0.122 A 
HETATM    6  N5  UNL     1     -18.584  23.992 -16.313  1.00  0.00    -0.177 N 
HETATM    7  C19 UNL     1     -17.877  24.987 -15.769  1.00  0.00     0.677 A 
ATOM      8  H5  UNL     1     -18.112  23.257 -16.839  1.00  0.00     0.185 HD
HETATM    9  N3  UNL     1     -18.545  25.957 -15.067  1.00  0.00    -0.193 N 
HETATM   10  N4  UNL     1     -16.610  25.014 -15.919  1.00  0.00    -0.234 N 
ATOM     11  H3  UNL     1     -17.995  26.712 -14.658  1.00  0.00     0.184 HD
ATOM     12  H42 UNL     1     -16.071  25.774 -15.503  1.00  0.00     0.174 HD
ATOM     13  H41 UNL     1     -16.114  24.293 -16.441  1.00  0.00     0.174 HD
BRANCH   5  14
HETATM   14  N6  UNL     1     -20.578  22.995 -16.670  1.00  0.00    -0.385 N 
ATOM     15  H62 UNL     1     -20.133  22.089 -16.814  1.00  0.00     0.157 HD
ATOM     16  H61 UNL     1     -21.560  23.156 -16.896  1.00  0.00     0.157 HD
ENDBRANCH   5  14
ENDBRANCH   1   2
BRANCH   1  17
HETATM   17  N1  UNL     1     -20.486  28.352 -14.665  1.00  0.00    -0.401 N 
ATOM     18  H1  UNL     1     -21.020  29.045 -14.140  1.00  0.00     0.154 HD
BRANCH  17  19
HETATM   19  C5  UNL     1     -19.810  28.845 -15.761  1.00  0.00     0.135 C 
BRANCH  19  20
HETATM   20  C6  UNL     1     -19.476  30.326 -15.433  1.00  0.00     0.036 C 
BRANCH  20  21
HETATM   21  C7  UNL     1     -18.072  30.712 -15.665  1.00  0.00    -0.012 C 
HETATM   22  C8  UNL     1     -17.910  32.169 -15.860  1.00  0.00     0.005 C 
HETATM   23  C9  UNL     1     -17.716  32.990 -14.621  1.00  0.00     0.000 C 
HETATM   24  C10 UNL     1     -16.619  32.394 -13.773  1.00  0.00     0.000 C 
HETATM   25  C11 UNL     1     -17.054  30.997 -13.373  1.00  0.00     0.000 C 
HETATM   26  C12 UNL     1     -17.184  30.119 -14.570  1.00  0.00     0.005 C 
ENDBRANCH  20  21
ENDBRANCH  19  20
BRANCH  19  27
HETATM   27  C13 UNL     1     -20.836  29.070 -16.888  1.00  0.00     0.073 A 
HETATM   28  N2  UNL     1     -20.807  29.881 -17.905  1.00  0.00    -0.361 N 
HETATM   29  C14 UNL     1     -21.786  29.901 -18.754  1.00  0.00     0.096 A 
ATOM     30  H2  UNL     1     -20.010  30.504 -18.035  1.00  0.00     0.165 HD
HETATM   31  C15 UNL     1     -22.835  29.042 -18.527  1.00  0.00     0.068 A 
HETATM   32  S1  UNL     1     -22.324  28.260 -17.096  1.00  0.00    -0.085 SA
ENDBRANCH  19  27
ENDBRANCH  17  19
ENDBRANCH   1  17
BRANCH   1  33
HETATM   33  C16 UNL     1     -19.695  27.211 -12.838  1.00  0.00     0.006 C 
HETATM   34  C17 UNL     1     -20.150  26.162 -11.871  1.00  0.00     0.012 C 
HETATM   35  C18 UNL     1     -19.910  28.586 -12.256  1.00  0.00     0.012 C 
ENDBRANCH   1  33
TORSDOF 8
ENDMDL
MODEL 5
REMARK VINA RESULT: -7.292841219      2.711      5.297
REMARK  8 active torsions:
REMARK  status: ('A' for Active; 'I' for Inactive)
REMARK    1  A    between atoms: C3_3  and  C4_4 
REMARK    2  A    between atoms: C4_4  and  N1_5 
REMARK    3  A    between atoms: C4_4  and  C16_21 
REMARK    4  A    between atoms: N1_5  and  C5_7 
REMARK    5  A    between atoms: C5_7  and  C6_8 
REMARK    6  A    between atoms: C5_7  and  C13_15 
REMARK    7  A    between atoms: C6_8  and  C7_9 
REMARK    8  A    between atoms: C20_32  and  N6_33 
ROOT
HETATM    1  C4  UNL     1     -22.724  24.865 -12.882  1.00  0.00     0.132 C 
ENDROOT
BRANCH   1   2
HETATM    2  C3  UNL     1     -23.778  23.866 -12.647  1.00  0.00     0.059 A 
HETATM    3  C2  UNL     1     -24.811  24.140 -11.760  1.00  0.00     0.007 A 
HETATM    4  C1  UNL     1     -24.859  25.366 -10.954  1.00  0.00     0.054 C 
HETATM    5  C20 UNL     1     -25.811  23.197 -11.589  1.00  0.00     0.122 A 
HETATM    6  N5  UNL     1     -25.807  22.043 -12.246  1.00  0.00    -0.177 N 
HETATM    7  C19 UNL     1     -24.818  21.770 -13.103  1.00  0.00     0.677 A 
ATOM      8  H5  UNL     1     -26.556  21.368 -12.097  1.00  0.00     0.185 HD
HETATM    9  N3  UNL     1     -23.827  22.701 -13.277  1.00  0.00    -0.193 N 
HETATM   10  N4  UNL     1     -24.822  20.663 -13.737  1.00  0.00    -0.234 N 
ATOM     11  H3  UNL     1     -23.078  22.483 -13.934  1.00  0.00     0.184 HD
ATOM     12  H42 UNL     1     -24.067  20.455 -14.390  1.00  0.00     0.174 HD
ATOM     13  H41 UNL     1     -25.560  19.971 -13.607  1.00  0.00     0.174 HD
BRANCH   5  14
HETATM   14  N6  UNL     1     -26.748  23.448 -10.750  1.00  0.00    -0.385 N 
ATOM     15  H62 UNL     1     -26.853  24.392 -10.377  1.00  0.00     0.157 HD
ATOM     16  H61 UNL     1     -27.383  22.693 -10.492  1.00  0.00     0.157 HD
ENDBRANCH   5  14
ENDBRANCH   1   2
BRANCH   1  17
HETATM   17  N1  UNL     1     -22.616  25.441 -14.148  1.00  0.00    -0.401 N 
ATOM     18  H1  UNL     1     -22.050  24.914 -14.813  1.00  0.00     0.154 HD
BRANCH  17  19
HETATM   19  C5  UNL     1     -23.155  26.611 -14.638  1.00  0.00     0.135 C 
BRANCH  19  20
HETATM   20  C6  UNL     1     -23.769  26.258 -16.020  1.00  0.00     0.036 C 
BRANCH  20  21
HETATM   21  C7  UNL     1     -23.619  24.848 -16.425  1.00  0.00    -0.012 C 
HETATM   22  C8  UNL     1     -24.916  24.144 -16.515  1.00  0.00     0.005 C 
HETATM   23  C9  UNL     1     -25.632  24.231 -17.829  1.00  0.00     0.000 C 
HETATM   24  C10 UNL     1     -24.695  23.865 -18.954  1.00  0.00     0.000 C 
HETATM   25  C11 UNL     1     -23.556  24.866 -18.948  1.00  0.00     0.000 C 
HETATM   26  C12 UNL     1     -22.764  24.762 -17.690  1.00  0.00     0.005 C 
ENDBRANCH  20  21
ENDBRANCH  19  20
BRANCH  19  27
HETATM   27  C13 UNL     1     -21.991  27.505 -15.108  1.00  0.00     0.073 A 
HETATM   28  N2  UNL     1     -21.732  28.003 -16.283  1.00  0.00    -0.361 N 
HETATM   29  C14 UNL     1     -20.690  28.752 -16.460  1.00  0.00     0.096 A 
ATOM     30  H2  UNL     1     -22.352  27.801 -17.068  1.00  0.00     0.165 HD
HETATM   31  C15 UNL     1     -19.889  28.987 -15.368  1.00  0.00     0.068 A 
HETATM   32  S1  UNL     1     -20.709  28.105 -14.155  1.00  0.00    -0.085 SA
ENDBRANCH  19  27
ENDBRANCH  17  19
ENDBRANCH   1  17
BRANCH   1  33
HETATM   33  C16 UNL     1     -21.394  24.001 -12.843  1.00  0.00     0.006 C 
HETATM   34  C17 UNL     1     -20.546  24.519 -11.723  1.00  0.00     0.012 C 
HETATM   35  C18 UNL     1     -20.663  24.136 -14.156  1.00  0.00     0.012 C 
ENDBRANCH   1  33
TORSDOF 8
ENDMDL
