MODEL 1
REMARK VINA RESULT: -7.016561414      0.000      0.000
REMARK  9 active torsions:
REMARK  status: ('A' for Active; 'I' for Inactive)
REMARK    1  A    between atoms: C2_2  and  N1_3 
REMARK    2  A    between atoms: N1_3  and  C3_4 
REMARK    3  A    between atoms: N1_3  and  C5_6 
REMARK    4  A    between atoms: C5_6  and  C6_7 
REMARK    5  A    between atoms: C7_9  and  C8_10 
REMARK    6  A    between atoms: C11_16  and  N3_17 
REMARK    7  A    between atoms: C12_22  and  N5_23 
REMARK    8  A    between atoms: C15_28  and  C16_29 
REMARK    9  A    between atoms: C16_29  and  C17_30 
ROOT
HETATM    1  C8  UNL     1     -24.083  24.367 -12.847  1.00  0.00     0.004 A 
HETATM    2  C9  UNL     1     -24.711  24.881 -11.725  1.00  0.00     0.065 A 
HETATM    3  S2  UNL     1     -25.647  23.609 -11.146  1.00  0.00    -0.082 SA
HETATM    4  C10 UNL     1     -25.253  22.430 -12.313  1.00  0.00     0.105 A 
HETATM    5  N2  UNL     1     -25.650  21.134 -12.501  1.00  0.00    -0.185 N 
ATOM      6  H2  UNL     1     -26.304  20.713 -11.841  1.00  0.00     0.185 HD
HETATM    7  C11 UNL     1     -25.202  20.409 -13.527  1.00  0.00     0.678 A 
HETATM    8  N4  UNL     1     -24.356  20.985 -14.366  1.00  0.00    -0.176 N 
ATOM      9  H4  UNL     1     -24.006  20.444 -15.158  1.00  0.00     0.186 HD
HETATM   10  C12 UNL     1     -23.939  22.256 -14.216  1.00  0.00     0.128 A 
HETATM   11  C13 UNL     1     -24.377  23.069 -13.150  1.00  0.00     0.054 A 
ENDROOT
BRANCH   1  12
HETATM   12  C7  UNL     1     -23.187  25.326 -13.591  1.00  0.00     0.017 A 
HETATM   13  S1  UNL     1     -21.515  25.556 -13.598  1.00  0.00    -0.092 SA
HETATM   14  C6  UNL     1     -21.358  26.776 -14.788  1.00  0.00     0.007 A 
HETATM   15  C15 UNL     1     -22.653  26.977 -15.155  1.00  0.00    -0.042 A 
HETATM   16  C14 UNL     1     -23.594  26.230 -14.539  1.00  0.00     0.028 A 
BRANCH  14  17
HETATM   17  C5  UNL     1     -20.062  27.359 -15.311  1.00  0.00     0.168 C 
BRANCH  17  18
HETATM   18  N1  UNL     1     -19.651  28.472 -14.512  1.00  0.00    -0.389 N 
BRANCH  18  19
HETATM   19  C2  UNL     1     -19.541  29.707 -15.165  1.00  0.00     0.118 C 
HETATM   20  C1  UNL     1     -19.619  29.578 -16.696  1.00  0.00     0.026 C 
ENDBRANCH  18  19
BRANCH  18  21
HETATM   21  C3  UNL     1     -18.733  28.120 -13.509  1.00  0.00     0.054 C 
HETATM   22  C4  UNL     1     -17.485  28.966 -13.469  1.00  0.00     0.054 C 
ENDBRANCH  18  21
ENDBRANCH  17  18
ENDBRANCH  14  17
BRANCH  15  23
HETATM   23  C16 UNL     1     -23.078  28.034 -16.173  1.00  0.00     0.043 C 
BRANCH  23  24
HETATM   24  C17 UNL     1     -22.863  27.578 -17.568  1.00  0.00    -0.019 C 
HETATM   25  C18 UNL     1     -23.731  26.494 -18.097  1.00  0.00     0.010 C 
HETATM   26  C19 UNL     1     -22.866  28.784 -18.539  1.00  0.00     0.010 C 
ENDBRANCH  23  24
ENDBRANCH  15  23
ENDBRANCH   1  12
BRANCH  10  27
HETATM   27  N5  UNL     1     -23.145  22.672 -15.118  1.00  0.00    -0.384 N 
ATOM     28  H52 UNL     1     -23.400  22.706 -16.106  1.00  0.00     0.157 HD
ATOM     29  H51 UNL     1     -22.223  22.953 -14.786  1.00  0.00     0.157 HD
ENDBRANCH  10  27
BRANCH   7  30
HETATM   30  N3  UNL     1     -25.577  19.189 -13.705  1.00  0.00    -0.234 N 
ATOM     31  H32 UNL     1     -26.240  18.750 -13.066  1.00  0.00     0.174 HD
ATOM     32  H31 UNL     1     -25.223  18.630 -14.482  1.00  0.00     0.174 HD
ENDBRANCH   7  30
TORSDOF 9
ENDMDL
MODEL 2
REMARK VINA RESULT: -7.004181573      0.779      1.148
REMARK  9 active torsions:
REMARK  status: ('A' for Active; 'I' for Inactive)
REMARK    1  A    between atoms: C2_2  and  N1_3 
REMARK    2  A    between atoms: N1_3  and  C3_4 
REMARK    3  A    between atoms: N1_3  and  C5_6 
REMARK    4  A    between atoms: C5_6  and  C6_7 
REMARK    5  A    between atoms: C7_9  and  C8_10 
REMARK    6  A    between atoms: C11_16  and  N3_17 
REMARK    7  A    between atoms: C12_22  and  N5_23 
REMARK    8  A    between atoms: C15_28  and  C16_29 
REMARK    9  A    between atoms: C16_29  and  C17_30 
ROOT
HETATM    1  C8  UNL     1     -24.134  24.318 -12.932  1.00  0.00     0.004 A 
HETATM    2  C9  UNL     1     -24.708  24.814 -11.773  1.00  0.00     0.065 A 
HETATM    3  S2  UNL     1     -25.579  23.518 -11.147  1.00  0.00    -0.082 SA
HETATM    4  C10 UNL     1     -25.225  22.352 -12.340  1.00  0.00     0.105 A 
HETATM    5  N2  UNL     1     -25.601  21.048 -12.511  1.00  0.00    -0.185 N 
ATOM      6  H2  UNL     1     -26.206  20.609 -11.817  1.00  0.00     0.185 HD
HETATM    7  C11 UNL     1     -25.196  20.337 -13.565  1.00  0.00     0.678 A 
HETATM    8  N4  UNL     1     -24.414  20.936 -14.449  1.00  0.00    -0.176 N 
ATOM      9  H4  UNL     1     -24.097  20.407 -15.262  1.00  0.00     0.186 HD
HETATM   10  C12 UNL     1     -24.019  22.217 -14.317  1.00  0.00     0.128 A 
HETATM   11  C13 UNL     1     -24.414  23.015 -13.224  1.00  0.00     0.054 A 
ENDROOT
BRANCH   1  12
HETATM   12  C7  UNL     1     -23.305  25.301 -13.722  1.00  0.00     0.017 A 
HETATM   13  S1  UNL     1     -21.646  25.603 -13.788  1.00  0.00    -0.092 SA
HETATM   14  C6  UNL     1     -21.581  26.806 -15.003  1.00  0.00     0.007 A 
HETATM   15  C15 UNL     1     -22.895  26.944 -15.330  1.00  0.00    -0.042 A 
HETATM   16  C14 UNL     1     -23.782  26.169 -14.671  1.00  0.00     0.028 A 
BRANCH  14  17
HETATM   17  C5  UNL     1     -20.329  27.434 -15.579  1.00  0.00     0.168 C 
BRANCH  17  18
HETATM   18  N1  UNL     1     -19.295  27.495 -14.592  1.00  0.00    -0.389 N 
BRANCH  18  19
HETATM   19  C2  UNL     1     -19.312  28.601 -13.732  1.00  0.00     0.118 C 
HETATM   20  C1  UNL     1     -19.646  28.219 -12.279  1.00  0.00     0.026 C 
ENDBRANCH  18  19
BRANCH  18  21
HETATM   21  C3  UNL     1     -18.073  26.970 -15.043  1.00  0.00     0.054 C 
HETATM   22  C4  UNL     1     -16.880  27.868 -14.824  1.00  0.00     0.054 C 
ENDBRANCH  18  21
ENDBRANCH  17  18
ENDBRANCH  14  17
BRANCH  15  23
HETATM   23  C16 UNL     1     -23.398  27.963 -16.351  1.00  0.00     0.043 C 
BRANCH  23  24
HETATM   24  C17 UNL     1     -23.066  27.565 -17.742  1.00  0.00    -0.019 C 
HETATM   25  C18 UNL     1     -23.857  26.476 -18.371  1.00  0.00     0.010 C 
HETATM   26  C19 UNL     1     -23.037  28.805 -18.668  1.00  0.00     0.010 C 
ENDBRANCH  23  24
ENDBRANCH  15  23
ENDBRANCH   1  12
BRANCH  10  27
HETATM   27  N5  UNL     1     -23.289  22.655 -15.261  1.00  0.00    -0.384 N 
ATOM     28  H52 UNL     1     -22.543  23.334 -15.112  1.00  0.00     0.157 HD
ATOM     29  H51 UNL     1     -23.517  22.293 -16.187  1.00  0.00     0.157 HD
ENDBRANCH  10  27
BRANCH   7  30
HETATM   30  N3  UNL     1     -25.552  19.109 -13.727  1.00  0.00    -0.234 N 
ATOM     31  H32 UNL     1     -26.381  18.874 -14.272  1.00  0.00     0.174 HD
ATOM     32  H31 UNL     1     -25.019  18.342 -13.316  1.00  0.00     0.174 HD
ENDBRANCH   7  30
TORSDOF 9
ENDMDL
MODEL 3
REMARK VINA RESULT: -6.982226210      1.364      3.364
REMARK  9 active torsions:
REMARK  status: ('A' for Active; 'I' for Inactive)
REMARK    1  A    between atoms: C2_2  and  N1_3 
REMARK    2  A    between atoms: N1_3  and  C3_4 
REMARK    3  A    between atoms: N1_3  and  C5_6 
REMARK    4  A    between atoms: C5_6  and  C6_7 
REMARK    5  A    between atoms: C7_9  and  C8_10 
REMARK    6  A    between atoms: C11_16  and  N3_17 
REMARK    7  A    between atoms: C12_22  and  N5_23 
REMARK    8  A    between atoms: C15_28  and  C16_29 
REMARK    9  A    between atoms: C16_29  and  C17_30 
ROOT
HETATM    1  C8  UNL     1     -24.102  24.458 -13.158  1.00  0.00     0.004 A 
HETATM    2  C9  UNL     1     -24.589  25.019 -11.989  1.00  0.00     0.065 A 
HETATM    3  S2  UNL     1     -25.413  23.763 -11.232  1.00  0.00    -0.082 SA
HETATM    4  C10 UNL     1     -25.148  22.533 -12.382  1.00  0.00     0.105 A 
HETATM    5  N2  UNL     1     -25.537  21.223 -12.454  1.00  0.00    -0.185 N 
ATOM      6  H2  UNL     1     -26.090  20.825 -11.694  1.00  0.00     0.185 HD
HETATM    7  C11 UNL     1     -25.211  20.454 -13.494  1.00  0.00     0.678 A 
HETATM    8  N4  UNL     1     -24.495  21.000 -14.464  1.00  0.00    -0.176 N 
ATOM      9  H4  UNL     1     -24.239  20.426 -15.268  1.00  0.00     0.186 HD
HETATM   10  C12 UNL     1     -24.091  22.284 -14.431  1.00  0.00     0.128 A 
HETATM   11  C13 UNL     1     -24.404  23.143 -13.357  1.00  0.00     0.054 A 
ENDROOT
BRANCH   1  12
HETATM   12  C7  UNL     1     -23.332  25.393 -14.059  1.00  0.00     0.017 A 
HETATM   13  S1  UNL     1     -23.774  26.293 -15.417  1.00  0.00    -0.092 SA
HETATM   14  C6  UNL     1     -22.318  27.130 -15.743  1.00  0.00     0.007 A 
HETATM   15  C15 UNL     1     -21.503  26.667 -14.755  1.00  0.00    -0.042 A 
HETATM   16  C14 UNL     1     -22.026  25.774 -13.889  1.00  0.00     0.028 A 
BRANCH  14  17
HETATM   17  C5  UNL     1     -22.103  28.176 -16.816  1.00  0.00     0.168 C 
BRANCH  17  18
HETATM   18  N1  UNL     1     -21.726  27.560 -18.052  1.00  0.00    -0.389 N 
BRANCH  18  19
HETATM   19  C2  UNL     1     -20.359  27.562 -18.362  1.00  0.00     0.118 C 
HETATM   20  C1  UNL     1     -19.639  28.827 -17.863  1.00  0.00     0.026 C 
ENDBRANCH  18  19
BRANCH  18  21
HETATM   21  C3  UNL     1     -22.681  27.733 -19.066  1.00  0.00     0.054 C 
HETATM   22  C4  UNL     1     -22.948  29.169 -19.444  1.00  0.00     0.054 C 
ENDBRANCH  18  21
ENDBRANCH  17  18
ENDBRANCH  14  17
BRANCH  15  23
HETATM   23  C16 UNL     1     -20.034  27.068 -14.629  1.00  0.00     0.043 C 
BRANCH  23  24
HETATM   24  C17 UNL     1     -19.861  28.285 -13.798  1.00  0.00    -0.019 C 
HETATM   25  C18 UNL     1     -19.737  28.123 -12.327  1.00  0.00     0.010 C 
HETATM   26  C19 UNL     1     -18.695  29.149 -14.339  1.00  0.00     0.010 C 
ENDBRANCH  23  24
ENDBRANCH  15  23
ENDBRANCH   1  12
BRANCH  10  27
HETATM   27  N5  UNL     1     -23.431  22.667 -15.449  1.00  0.00    -0.384 N 
ATOM     28  H52 UNL     1     -22.839  23.497 -15.442  1.00  0.00     0.157 HD
ATOM     29  H51 UNL     1     -23.553  22.093 -16.284  1.00  0.00     0.157 HD
ENDBRANCH  10  27
BRANCH   7  30
HETATM   30  N3  UNL     1     -25.578  19.220 -13.562  1.00  0.00    -0.234 N 
ATOM     31  H32 UNL     1     -26.150  18.807 -12.826  1.00  0.00     0.174 HD
ATOM     32  H31 UNL     1     -25.309  18.626 -14.346  1.00  0.00     0.174 HD
ENDBRANCH   7  30
TORSDOF 9
ENDMDL
MODEL 4
REMARK VINA RESULT: -6.927557039      1.796      3.531
REMARK  9 active torsions:
REMARK  status: ('A' for Active; 'I' for Inactive)
REMARK    1  A    between atoms: C2_2  and  N1_3 
REMARK    2  A    between atoms: N1_3  and  C3_4 
REMARK    3  A    between atoms: N1_3  and  C5_6 
REMARK    4  A    between atoms: C5_6  and  C6_7 
REMARK    5  A    between atoms: C7_9  and  C8_10 
REMARK    6  A    between atoms: C11_16  and  N3_17 
REMARK    7  A    between atoms: C12_22  and  N5_23 
REMARK    8  A    between atoms: C15_28  and  C16_29 
REMARK    9  A    between atoms: C16_29  and  C17_30 
ROOT
HETATM    1  C8  UNL     1     -22.613  24.807 -14.116  1.00  0.00     0.004 A 
HETATM    2  C9  UNL     1     -23.125  25.504 -13.034  1.00  0.00     0.065 A 
HETATM    3  S2  UNL     1     -24.247  24.453 -12.350  1.00  0.00    -0.082 SA
HETATM    4  C10 UNL     1     -24.075  23.138 -13.421  1.00  0.00     0.105 A 
HETATM    5  N2  UNL     1     -24.684  21.915 -13.503  1.00  0.00    -0.185 N 
ATOM      6  H2  UNL     1     -25.385  21.661 -12.808  1.00  0.00     0.185 HD
HETATM    7  C11 UNL     1     -24.381  21.049 -14.471  1.00  0.00     0.678 A 
HETATM    8  N4  UNL     1     -23.468  21.411 -15.359  1.00  0.00    -0.176 N 
ATOM      9  H4  UNL     1     -23.228  20.760 -16.107  1.00  0.00     0.186 HD
HETATM   10  C12 UNL     1     -22.845  22.603 -15.314  1.00  0.00     0.128 A 
HETATM   11  C13 UNL     1     -23.122  23.557 -14.313  1.00  0.00     0.054 A 
ENDROOT
BRANCH   1  12
HETATM   12  C7  UNL     1     -21.586  25.545 -14.940  1.00  0.00     0.017 A 
HETATM   13  S1  UNL     1     -21.711  26.543 -16.295  1.00  0.00    -0.092 SA
HETATM   14  C6  UNL     1     -20.080  27.014 -16.506  1.00  0.00     0.007 A 
HETATM   15  C15 UNL     1     -19.465  26.356 -15.484  1.00  0.00    -0.042 A 
HETATM   16  C14 UNL     1     -20.241  25.601 -14.678  1.00  0.00     0.028 A 
BRANCH  14  17
HETATM   17  C5  UNL     1     -19.553  27.993 -17.533  1.00  0.00     0.168 C 
BRANCH  17  18
HETATM   18  N1  UNL     1     -20.157  29.280 -17.360  1.00  0.00    -0.389 N 
BRANCH  18  19
HETATM   19  C2  UNL     1     -20.729  29.862 -18.499  1.00  0.00     0.118 C 
HETATM   20  C1  UNL     1     -22.259  29.702 -18.543  1.00  0.00     0.026 C 
ENDBRANCH  18  19
BRANCH  18  21
HETATM   21  C3  UNL     1     -19.490  30.078 -16.417  1.00  0.00     0.054 C 
HETATM   22  C4  UNL     1     -18.203  30.693 -16.908  1.00  0.00     0.054 C 
ENDBRANCH  18  21
ENDBRANCH  17  18
ENDBRANCH  14  17
BRANCH  15  23
HETATM   23  C16 UNL     1     -17.955  26.394 -15.257  1.00  0.00     0.043 C 
BRANCH  23  24
HETATM   24  C17 UNL     1     -17.507  27.704 -14.722  1.00  0.00    -0.019 C 
HETATM   25  C18 UNL     1     -18.106  28.189 -13.453  1.00  0.00     0.010 C 
HETATM   26  C19 UNL     1     -15.962  27.755 -14.636  1.00  0.00     0.010 C 
ENDBRANCH  23  24
ENDBRANCH  15  23
ENDBRANCH   1  12
BRANCH  10  27
HETATM   27  N5  UNL     1     -22.012  22.811 -16.251  1.00  0.00    -0.384 N 
ATOM     28  H52 UNL     1     -21.383  22.088 -16.602  1.00  0.00     0.157 HD
ATOM     29  H51 UNL     1     -22.001  23.764 -16.616  1.00  0.00     0.157 HD
ENDBRANCH  10  27
BRANCH   7  30
HETATM   30  N3  UNL     1     -24.955  19.898 -14.549  1.00  0.00    -0.234 N 
ATOM     31  H32 UNL     1     -25.901  19.763 -14.192  1.00  0.00     0.174 HD
ATOM     32  H31 UNL     1     -24.484  19.094 -14.964  1.00  0.00     0.174 HD
ENDBRANCH   7  30
TORSDOF 9
ENDMDL
MODEL 5
REMARK VINA RESULT: -6.841741396      1.505      1.962
REMARK  9 active torsions:
REMARK  status: ('A' for Active; 'I' for Inactive)
REMARK    1  A    between atoms: C2_2  and  N1_3 
REMARK    2  A    between atoms: N1_3  and  C3_4 
REMARK    3  A    between atoms: N1_3  and  C5_6 
REMARK    4  A    between atoms: C5_6  and  C6_7 
REMARK    5  A    between atoms: C7_9  and  C8_10 
REMARK    6  A    between atoms: C11_16  and  N3_17 
REMARK    7  A    between atoms: C12_22  and  N5_23 
REMARK    8  A    between atoms: C15_28  and  C16_29 
REMARK    9  A    between atoms: C16_29  and  C17_30 
ROOT
HETATM    1  C8  UNL     1     -22.756  25.175 -13.754  1.00  0.00     0.004 A 
HETATM    2  C9  UNL     1     -23.429  25.670 -12.649  1.00  0.00     0.065 A 
HETATM    3  S2  UNL     1     -24.490  24.438 -12.217  1.00  0.00    -0.082 SA
HETATM    4  C10 UNL     1     -24.090  23.300 -13.422  1.00  0.00     0.105 A 
HETATM    5  N2  UNL     1     -24.559  22.049 -13.717  1.00  0.00    -0.185 N 
ATOM      6  H2  UNL     1     -25.287  21.639 -13.132  1.00  0.00     0.185 HD
HETATM    7  C11 UNL     1     -24.085  21.352 -14.752  1.00  0.00     0.678 A 
HETATM    8  N4  UNL     1     -23.142  21.913 -15.492  1.00  0.00    -0.176 N 
ATOM      9  H4  UNL     1     -22.772  21.393 -16.289  1.00  0.00     0.186 HD
HETATM   10  C12 UNL     1     -22.653  23.140 -15.236  1.00  0.00     0.128 A 
HETATM   11  C13 UNL     1     -23.113  23.922 -14.156  1.00  0.00     0.054 A 
ENDROOT
BRANCH   1  12
HETATM   12  C7  UNL     1     -21.745  26.108 -14.373  1.00  0.00     0.017 A 
HETATM   13  S1  UNL     1     -20.092  26.336 -14.115  1.00  0.00    -0.092 SA
HETATM   14  C6  UNL     1     -19.736  27.515 -15.303  1.00  0.00     0.007 A 
HETATM   15  C15 UNL     1     -20.953  27.706 -15.882  1.00  0.00    -0.042 A 
HETATM   16  C14 UNL     1     -21.986  26.981 -15.404  1.00  0.00     0.028 A 
BRANCH  14  17
HETATM   17  C5  UNL     1     -18.368  28.079 -15.628  1.00  0.00     0.168 C 
BRANCH  17  18
HETATM   18  N1  UNL     1     -17.982  29.057 -14.656  1.00  0.00    -0.389 N 
BRANCH  18  19
HETATM   19  C2  UNL     1     -18.150  30.400 -15.017  1.00  0.00     0.118 C 
HETATM   20  C1  UNL     1     -18.117  30.615 -16.540  1.00  0.00     0.026 C 
ENDBRANCH  18  19
BRANCH  18  21
HETATM   21  C3  UNL     1     -16.871  28.664 -13.893  1.00  0.00     0.054 C 
HETATM   22  C4  UNL     1     -15.910  27.743 -14.604  1.00  0.00     0.054 C 
ENDBRANCH  18  21
ENDBRANCH  17  18
ENDBRANCH  14  17
BRANCH  15  23
HETATM   23  C16 UNL     1     -21.199  28.729 -16.989  1.00  0.00     0.043 C 
BRANCH  23  24
HETATM   24  C17 UNL     1     -21.253  28.094 -18.330  1.00  0.00    -0.019 C 
HETATM   25  C18 UNL     1     -22.447  28.338 -19.178  1.00  0.00     0.010 C 
HETATM   26  C19 UNL     1     -19.961  28.402 -19.127  1.00  0.00     0.010 C 
ENDBRANCH  23  24
ENDBRANCH  15  23
ENDBRANCH   1  12
BRANCH  10  27
HETATM   27  N5  UNL     1     -21.769  23.548 -16.053  1.00  0.00    -0.384 N 
ATOM     28  H52 UNL     1     -21.597  24.538 -16.231  1.00  0.00     0.157 HD
ATOM     29  H51 UNL     1     -21.253  22.812 -16.536  1.00  0.00     0.157 HD
ENDBRANCH  10  27
BRANCH   7  30
HETATM   30  N3  UNL     1     -24.527  20.174 -15.029  1.00  0.00    -0.234 N 
ATOM     31  H32 UNL     1     -25.527  20.004 -15.131  1.00  0.00     0.174 HD
ATOM     32  H31 UNL     1     -23.895  19.383 -15.153  1.00  0.00     0.174 HD
ENDBRANCH   7  30
TORSDOF 9
ENDMDL
