MODEL 1
REMARK VINA RESULT: -8.290902544      0.000      0.000
REMARK  10 active torsions:
REMARK  status: ('A' for Active; 'I' for Inactive)
REMARK    1  A    between atoms: C2_2  and  C4_4 
REMARK    2  A    between atoms: C5_5  and  O1_6 
REMARK    3  A    between atoms: C6_8  and  O2_9 
REMARK    4  A    between atoms: O2_9  and  C7_10 
REMARK    5  A    between atoms: C9_19  and  O3_20 
REMARK    6  A    between atoms: C12_24  and  C14_26 
REMARK    7  A    between atoms: C14_26  and  C15_27 
REMARK    8  A    between atoms: C15_27  and  C16_28 
REMARK    9  A    between atoms: C17_29  and  C18_30 
REMARK   10  A    between atoms: C18_30  and  C19_31 
ROOT
HETATM    1  C4  UNL     1     -22.136  26.382 -15.088  1.00  0.00     0.053 C 
HETATM    2  C5  UNL     1     -23.307  25.800 -14.348  1.00  0.00     0.157 C 
HETATM    3  C6  UNL     1     -22.989  24.307 -14.463  1.00  0.00     0.164 C 
HETATM    4  C10 UNL     1     -21.488  24.267 -14.115  1.00  0.00     0.022 C 
HETATM    5  C11 UNL     1     -20.842  23.087 -14.760  1.00  0.00     0.013 C 
HETATM    6  C12 UNL     1     -20.981  25.595 -14.593  1.00  0.00    -0.028 C 
HETATM    7  C13 UNL     1     -19.826  25.418 -15.534  1.00  0.00     0.016 C 
ENDROOT
BRANCH   3   8
HETATM    8  O2  UNL     1     -23.711  23.525 -13.653  1.00  0.00    -0.324 OA
BRANCH   8   9
HETATM    9  C7  UNL     1     -24.256  22.312 -13.661  1.00  0.00     0.195 A 
HETATM   10  N1  UNL     1     -24.073  21.460 -14.739  1.00  0.00    -0.276 N 
HETATM   11  N2  UNL     1     -24.693  20.330 -14.533  1.00  0.00    -0.281 N 
ATOM     12  H1  UNL     1     -23.531  21.684 -15.574  1.00  0.00     0.189 HD
HETATM   13  C8  UNL     1     -25.314  20.326 -13.360  1.00  0.00     0.152 A 
ATOM     14  H2  UNL     1     -24.700  19.550 -15.190  1.00  0.00     0.188 HD
HETATM   15  N3  UNL     1     -26.011  19.409 -12.824  1.00  0.00    -0.382 N 
HETATM   16  C9  UNL     1     -25.037  21.592 -12.797  1.00  0.00     0.164 A 
ATOM     17  H32 UNL     1     -26.211  18.495 -13.230  1.00  0.00     0.157 HD
ATOM     18  H31 UNL     1     -26.488  19.406 -11.922  1.00  0.00     0.157 HD
BRANCH  16  19
HETATM   19  O3  UNL     1     -25.520  21.957 -11.567  1.00  0.00    -0.354 OA
ATOM     20  H3  UNL     1     -26.422  22.062 -11.289  1.00  0.00     0.218 HD
ENDBRANCH  16  19
ENDBRANCH   8   9
ENDBRANCH   3   8
BRANCH   2  21
HETATM   21  O1  UNL     1     -24.544  26.164 -14.747  1.00  0.00    -0.392 OA
ATOM     22  H1  UNL     1     -24.624  26.952 -15.271  1.00  0.00     0.210 HD
ENDBRANCH   2  21
BRANCH   1  23
HETATM   23  C2  UNL     1     -22.289  26.550 -16.526  1.00  0.00    -0.086 C 
HETATM   24  C1  UNL     1     -22.445  25.617 -17.448  1.00  0.00     0.014 C 
HETATM   25  C3  UNL     1     -22.330  27.974 -17.041  1.00  0.00     0.043 C 
ENDBRANCH   1  23
BRANCH   6  26
HETATM   26  C14 UNL     1     -20.416  26.322 -13.368  1.00  0.00     0.014 C 
BRANCH  26  27
HETATM   27  C15 UNL     1     -20.650  27.813 -13.446  1.00  0.00     0.027 C 
BRANCH  27  28
HETATM   28  C16 UNL     1     -19.318  28.436 -13.668  1.00  0.00    -0.030 C 
HETATM   29  C17 UNL     1     -19.110  29.096 -14.797  1.00  0.00    -0.027 C 
BRANCH  29  30
HETATM   30  C18 UNL     1     -17.800  29.755 -15.105  1.00  0.00     0.054 C 
BRANCH  30  31
HETATM   31  C19 UNL     1     -18.123  31.184 -15.442  1.00  0.00    -0.021 C 
HETATM   32  C20 UNL     1     -17.609  32.175 -14.758  1.00  0.00    -0.091 C 
HETATM   33  C21 UNL     1     -16.681  31.905 -13.617  1.00  0.00     0.042 C 
HETATM   34  C22 UNL     1     -17.959  33.570 -15.130  1.00  0.00     0.042 C 
ENDBRANCH  30  31
ENDBRANCH  29  30
ENDBRANCH  27  28
ENDBRANCH  26  27
ENDBRANCH   6  26
TORSDOF 10
ENDMDL
MODEL 2
REMARK VINA RESULT: -8.250042311      2.999      3.908
REMARK  10 active torsions:
REMARK  status: ('A' for Active; 'I' for Inactive)
REMARK    1  A    between atoms: C2_2  and  C4_4 
REMARK    2  A    between atoms: C5_5  and  O1_6 
REMARK    3  A    between atoms: C6_8  and  O2_9 
REMARK    4  A    between atoms: O2_9  and  C7_10 
REMARK    5  A    between atoms: C9_19  and  O3_20 
REMARK    6  A    between atoms: C12_24  and  C14_26 
REMARK    7  A    between atoms: C14_26  and  C15_27 
REMARK    8  A    between atoms: C15_27  and  C16_28 
REMARK    9  A    between atoms: C17_29  and  C18_30 
REMARK   10  A    between atoms: C18_30  and  C19_31 
ROOT
HETATM    1  C4  UNL     1     -19.421  28.667 -15.395  1.00  0.00     0.053 C 
HETATM    2  C5  UNL     1     -20.637  27.897 -14.965  1.00  0.00     0.157 C 
HETATM    3  C6  UNL     1     -20.157  26.466 -15.213  1.00  0.00     0.164 C 
HETATM    4  C10 UNL     1     -18.742  26.487 -14.602  1.00  0.00     0.022 C 
HETATM    5  C11 UNL     1     -17.880  25.466 -15.266  1.00  0.00     0.013 C 
HETATM    6  C12 UNL     1     -18.295  27.905 -14.802  1.00  0.00    -0.028 C 
HETATM    7  C13 UNL     1     -16.984  27.954 -15.529  1.00  0.00     0.016 C 
ENDROOT
BRANCH   3   8
HETATM    8  O2  UNL     1     -20.926  25.521 -14.660  1.00  0.00    -0.324 OA
BRANCH   8   9
HETATM    9  C7  UNL     1     -22.005  25.438 -13.887  1.00  0.00     0.195 A 
HETATM   10  N1  UNL     1     -23.276  25.531 -14.433  1.00  0.00    -0.276 N 
HETATM   11  N2  UNL     1     -24.180  25.424 -13.497  1.00  0.00    -0.281 N 
ATOM     12  H1  UNL     1     -23.477  25.664 -15.425  1.00  0.00     0.189 HD
HETATM   13  C8  UNL     1     -23.622  25.258 -12.304  1.00  0.00     0.152 A 
ATOM     14  H2  UNL     1     -25.186  25.462 -13.661  1.00  0.00     0.188 HD
HETATM   15  N3  UNL     1     -24.179  25.119 -11.171  1.00  0.00    -0.382 N 
HETATM   16  C9  UNL     1     -22.231  25.266 -12.548  1.00  0.00     0.164 A 
ATOM     17  H32 UNL     1     -25.184  25.113 -10.994  1.00  0.00     0.157 HD
ATOM     18  H31 UNL     1     -23.751  24.992 -10.253  1.00  0.00     0.157 HD
BRANCH  16  19
HETATM   19  O3  UNL     1     -21.319  25.118 -11.535  1.00  0.00    -0.354 OA
ATOM     20  H3  UNL     1     -21.309  25.528 -10.678  1.00  0.00     0.218 HD
ENDBRANCH  16  19
ENDBRANCH   8   9
ENDBRANCH   3   8
BRANCH   2  21
HETATM   21  O1  UNL     1     -21.817  28.222 -15.536  1.00  0.00    -0.392 OA
ATOM     22  H1  UNL     1     -22.610  28.026 -15.050  1.00  0.00     0.210 HD
ENDBRANCH   2  21
BRANCH   1  23
HETATM   23  C2  UNL     1     -19.339  29.031 -16.802  1.00  0.00    -0.086 C 
HETATM   24  C1  UNL     1     -19.628  28.293 -17.857  1.00  0.00     0.014 C 
HETATM   25  C3  UNL     1     -18.922  30.454 -17.110  1.00  0.00     0.043 C 
ENDBRANCH   1  23
BRANCH   6  26
HETATM   26  C14 UNL     1     -18.025  28.485 -13.409  1.00  0.00     0.014 C 
BRANCH  26  27
HETATM   27  C15 UNL     1     -16.606  28.986 -13.279  1.00  0.00     0.027 C 
BRANCH  27  28
HETATM   28  C16 UNL     1     -16.698  30.450 -13.034  1.00  0.00    -0.030 C 
HETATM   29  C17 UNL     1     -16.955  31.247 -14.059  1.00  0.00    -0.027 C 
BRANCH  29  30
HETATM   30  C18 UNL     1     -17.065  32.734 -13.904  1.00  0.00     0.054 C 
BRANCH  30  31
HETATM   31  C19 UNL     1     -18.026  33.192 -14.966  1.00  0.00    -0.021 C 
HETATM   32  C20 UNL     1     -17.705  34.143 -15.807  1.00  0.00    -0.091 C 
HETATM   33  C21 UNL     1     -16.364  34.801 -15.728  1.00  0.00     0.042 C 
HETATM   34  C22 UNL     1     -18.689  34.560 -16.837  1.00  0.00     0.042 C 
ENDBRANCH  30  31
ENDBRANCH  29  30
ENDBRANCH  27  28
ENDBRANCH  26  27
ENDBRANCH   6  26
TORSDOF 10
ENDMDL
MODEL 3
REMARK VINA RESULT: -8.222752127      2.063      2.570
REMARK  10 active torsions:
REMARK  status: ('A' for Active; 'I' for Inactive)
REMARK    1  A    between atoms: C2_2  and  C4_4 
REMARK    2  A    between atoms: C5_5  and  O1_6 
REMARK    3  A    between atoms: C6_8  and  O2_9 
REMARK    4  A    between atoms: O2_9  and  C7_10 
REMARK    5  A    between atoms: C9_19  and  O3_20 
REMARK    6  A    between atoms: C12_24  and  C14_26 
REMARK    7  A    between atoms: C14_26  and  C15_27 
REMARK    8  A    between atoms: C15_27  and  C16_28 
REMARK    9  A    between atoms: C17_29  and  C18_30 
REMARK   10  A    between atoms: C18_30  and  C19_31 
ROOT
HETATM    1  C4  UNL     1     -20.602  27.504 -15.173  1.00  0.00     0.053 C 
HETATM    2  C5  UNL     1     -21.783  27.397 -14.252  1.00  0.00     0.157 C 
HETATM    3  C6  UNL     1     -21.672  25.930 -13.832  1.00  0.00     0.164 C 
HETATM    4  C10 UNL     1     -20.168  25.794 -13.522  1.00  0.00     0.022 C 
HETATM    5  C11 UNL     1     -19.728  24.382 -13.716  1.00  0.00     0.013 C 
HETATM    6  C12 UNL     1     -19.528  26.781 -14.453  1.00  0.00    -0.028 C 
HETATM    7  C13 UNL     1     -18.474  26.117 -15.291  1.00  0.00     0.016 C 
ENDROOT
BRANCH   3   8
HETATM    8  O2  UNL     1     -22.431  25.596 -12.783  1.00  0.00    -0.324 OA
BRANCH   8   9
HETATM    9  C7  UNL     1     -23.459  24.798 -12.507  1.00  0.00     0.195 A 
HETATM   10  N1  UNL     1     -23.661  23.630 -13.225  1.00  0.00    -0.276 N 
HETATM   11  N2  UNL     1     -24.722  23.008 -12.787  1.00  0.00    -0.281 N 
ATOM     12  H1  UNL     1     -23.067  23.303 -13.987  1.00  0.00     0.189 HD
HETATM   13  C8  UNL     1     -25.294  23.671 -11.788  1.00  0.00     0.152 A 
ATOM     14  H2  UNL     1     -25.068  22.125 -13.163  1.00  0.00     0.188 HD
HETATM   15  N3  UNL     1     -26.332  23.375 -11.120  1.00  0.00    -0.382 N 
HETATM   16  C9  UNL     1     -24.489  24.818 -11.605  1.00  0.00     0.164 A 
ATOM     17  H32 UNL     1     -26.914  22.548 -11.251  1.00  0.00     0.157 HD
ATOM     18  H31 UNL     1     -26.772  23.885 -10.352  1.00  0.00     0.157 HD
BRANCH  16  19
HETATM   19  O3  UNL     1     -24.773  25.753 -10.645  1.00  0.00    -0.354 OA
ATOM     20  H3  UNL     1     -25.178  25.630  -9.795  1.00  0.00     0.218 HD
ENDBRANCH  16  19
ENDBRANCH   8   9
ENDBRANCH   3   8
BRANCH   2  21
HETATM   21  O1  UNL     1     -22.988  27.775 -14.731  1.00  0.00    -0.392 OA
ATOM     22  H1  UNL     1     -23.382  28.557 -14.364  1.00  0.00     0.210 HD
ENDBRANCH   2  21
BRANCH   1  23
HETATM   23  C2  UNL     1     -20.832  27.178 -16.574  1.00  0.00    -0.086 C 
HETATM   24  C1  UNL     1     -21.321  26.063 -17.085  1.00  0.00     0.014 C 
HETATM   25  C3  UNL     1     -20.526  28.265 -17.582  1.00  0.00     0.043 C 
ENDBRANCH   1  23
BRANCH   6  26
HETATM   26  C14 UNL     1     -18.788  27.799 -13.579  1.00  0.00     0.014 C 
BRANCH  26  27
HETATM   27  C15 UNL     1     -17.467  28.205 -14.190  1.00  0.00     0.027 C 
BRANCH  27  28
HETATM   28  C16 UNL     1     -17.510  29.683 -14.343  1.00  0.00    -0.030 C 
HETATM   29  C17 UNL     1     -16.754  30.423 -13.548  1.00  0.00    -0.027 C 
BRANCH  29  30
HETATM   30  C18 UNL     1     -16.735  31.920 -13.632  1.00  0.00     0.054 C 
BRANCH  30  31
HETATM   31  C19 UNL     1     -17.644  32.283 -14.773  1.00  0.00    -0.021 C 
HETATM   32  C20 UNL     1     -17.593  33.466 -15.330  1.00  0.00    -0.091 C 
HETATM   33  C21 UNL     1     -16.621  34.491 -14.840  1.00  0.00     0.042 C 
HETATM   34  C22 UNL     1     -18.513  33.777 -16.454  1.00  0.00     0.042 C 
ENDBRANCH  30  31
ENDBRANCH  29  30
ENDBRANCH  27  28
ENDBRANCH  26  27
ENDBRANCH   6  26
TORSDOF 10
ENDMDL
MODEL 4
REMARK VINA RESULT: -8.212313816      2.047      2.439
REMARK  10 active torsions:
REMARK  status: ('A' for Active; 'I' for Inactive)
REMARK    1  A    between atoms: C2_2  and  C4_4 
REMARK    2  A    between atoms: C5_5  and  O1_6 
REMARK    3  A    between atoms: C6_8  and  O2_9 
REMARK    4  A    between atoms: O2_9  and  C7_10 
REMARK    5  A    between atoms: C9_19  and  O3_20 
REMARK    6  A    between atoms: C12_24  and  C14_26 
REMARK    7  A    between atoms: C14_26  and  C15_27 
REMARK    8  A    between atoms: C15_27  and  C16_28 
REMARK    9  A    between atoms: C17_29  and  C18_30 
REMARK   10  A    between atoms: C18_30  and  C19_31 
ROOT
HETATM    1  C4  UNL     1     -22.270  27.641 -15.788  1.00  0.00     0.053 C 
HETATM    2  C5  UNL     1     -22.905  27.128 -14.528  1.00  0.00     0.157 C 
HETATM    3  C6  UNL     1     -22.495  25.655 -14.595  1.00  0.00     0.164 C 
HETATM    4  C10 UNL     1     -21.004  25.749 -14.975  1.00  0.00     0.022 C 
HETATM    5  C11 UNL     1     -20.579  24.516 -15.698  1.00  0.00     0.013 C 
HETATM    6  C12 UNL     1     -20.930  27.007 -15.790  1.00  0.00    -0.028 C 
HETATM    7  C13 UNL     1     -20.306  26.739 -17.128  1.00  0.00     0.016 C 
ENDROOT
BRANCH   3   8
HETATM    8  O2  UNL     1     -22.679  24.978 -13.456  1.00  0.00    -0.324 OA
BRANCH   8   9
HETATM    9  C7  UNL     1     -23.680  24.611 -12.662  1.00  0.00     0.195 A 
HETATM   10  N1  UNL     1     -24.129  25.450 -11.654  1.00  0.00    -0.276 N 
HETATM   11  N2  UNL     1     -25.113  24.890 -11.004  1.00  0.00    -0.281 N 
ATOM     12  H1  UNL     1     -23.746  26.373 -11.450  1.00  0.00     0.189 HD
HETATM   13  C8  UNL     1     -25.395  23.688 -11.495  1.00  0.00     0.152 A 
ATOM     14  H2  UNL     1     -25.604  25.320 -10.220  1.00  0.00     0.188 HD
HETATM   15  N3  UNL     1     -26.280  22.857 -11.122  1.00  0.00    -0.382 N 
HETATM   16  C9  UNL     1     -24.480  23.505 -12.556  1.00  0.00     0.164 A 
ATOM     17  H32 UNL     1     -26.941  22.989 -10.356  1.00  0.00     0.157 HD
ATOM     18  H31 UNL     1     -26.497  21.934 -11.498  1.00  0.00     0.157 HD
BRANCH  16  19
HETATM   19  O3  UNL     1     -24.470  22.361 -13.310  1.00  0.00    -0.354 OA
ATOM     20  H3  UNL     1     -23.899  21.605 -13.238  1.00  0.00     0.218 HD
ENDBRANCH  16  19
ENDBRANCH   8   9
ENDBRANCH   3   8
BRANCH   2  21
HETATM   21  O1  UNL     1     -24.224  27.357 -14.354  1.00  0.00    -0.392 OA
ATOM     22  H1  UNL     1     -24.767  27.420 -15.131  1.00  0.00     0.210 HD
ENDBRANCH   2  21
BRANCH   1  23
HETATM   23  C2  UNL     1     -23.069  27.565 -17.003  1.00  0.00    -0.086 C 
HETATM   24  C1  UNL     1     -23.701  26.520 -17.503  1.00  0.00     0.014 C 
HETATM   25  C3  UNL     1     -23.252  28.855 -17.776  1.00  0.00     0.043 C 
ENDBRANCH   1  23
BRANCH   6  26
HETATM   26  C14 UNL     1     -19.968  27.951 -15.061  1.00  0.00     0.014 C 
BRANCH  26  27
HETATM   27  C15 UNL     1     -18.536  27.481 -15.168  1.00  0.00     0.027 C 
BRANCH  27  28
HETATM   28  C16 UNL     1     -17.683  28.685 -14.982  1.00  0.00    -0.030 C 
HETATM   29  C17 UNL     1     -18.273  29.863 -14.850  1.00  0.00    -0.027 C 
BRANCH  29  30
HETATM   30  C18 UNL     1     -17.493  31.128 -14.658  1.00  0.00     0.054 C 
BRANCH  30  31
HETATM   31  C19 UNL     1     -18.091  32.132 -15.605  1.00  0.00    -0.021 C 
HETATM   32  C20 UNL     1     -17.823  33.409 -15.496  1.00  0.00    -0.091 C 
HETATM   33  C21 UNL     1     -16.910  33.901 -14.419  1.00  0.00     0.042 C 
HETATM   34  C22 UNL     1     -18.439  34.361 -16.455  1.00  0.00     0.042 C 
ENDBRANCH  30  31
ENDBRANCH  29  30
ENDBRANCH  27  28
ENDBRANCH  26  27
ENDBRANCH   6  26
TORSDOF 10
ENDMDL
MODEL 5
REMARK VINA RESULT: -8.210305921      2.062      2.444
REMARK  10 active torsions:
REMARK  status: ('A' for Active; 'I' for Inactive)
REMARK    1  A    between atoms: C2_2  and  C4_4 
REMARK    2  A    between atoms: C5_5  and  O1_6 
REMARK    3  A    between atoms: C6_8  and  O2_9 
REMARK    4  A    between atoms: O2_9  and  C7_10 
REMARK    5  A    between atoms: C9_19  and  O3_20 
REMARK    6  A    between atoms: C12_24  and  C14_26 
REMARK    7  A    between atoms: C14_26  and  C15_27 
REMARK    8  A    between atoms: C15_27  and  C16_28 
REMARK    9  A    between atoms: C17_29  and  C18_30 
REMARK   10  A    between atoms: C18_30  and  C19_31 
ROOT
HETATM    1  C4  UNL     1     -20.816  27.307 -15.023  1.00  0.00     0.053 C 
HETATM    2  C5  UNL     1     -22.029  27.249 -14.140  1.00  0.00     0.157 C 
HETATM    3  C6  UNL     1     -21.932  25.807 -13.637  1.00  0.00     0.164 C 
HETATM    4  C10 UNL     1     -20.440  25.691 -13.266  1.00  0.00     0.022 C 
HETATM    5  C11 UNL     1     -19.994  24.271 -13.367  1.00  0.00     0.013 C 
HETATM    6  C12 UNL     1     -19.767  26.626 -14.227  1.00  0.00    -0.028 C 
HETATM    7  C13 UNL     1     -18.685  25.920 -14.989  1.00  0.00     0.016 C 
ENDROOT
BRANCH   3   8
HETATM    8  O2  UNL     1     -22.728  25.529 -12.598  1.00  0.00    -0.324 OA
BRANCH   8   9
HETATM    9  C7  UNL     1     -23.749  24.729 -12.309  1.00  0.00     0.195 A 
HETATM   10  N1  UNL     1     -24.025  23.620 -13.094  1.00  0.00    -0.276 N 
HETATM   11  N2  UNL     1     -25.065  22.983 -12.627  1.00  0.00    -0.281 N 
ATOM     12  H1  UNL     1     -23.492  23.342 -13.918  1.00  0.00     0.189 HD
HETATM   13  C8  UNL     1     -25.551  23.578 -11.545  1.00  0.00     0.152 A 
ATOM     14  H2  UNL     1     -25.454  22.136 -13.041  1.00  0.00     0.188 HD
HETATM   15  N3  UNL     1     -26.547  23.249 -10.827  1.00  0.00    -0.382 N 
HETATM   16  C9  UNL     1     -24.713  24.696 -11.337  1.00  0.00     0.164 A 
ATOM     17  H32 UNL     1     -27.152  22.442 -10.977  1.00  0.00     0.157 HD
ATOM     18  H31 UNL     1     -26.921  23.707  -9.996  1.00  0.00     0.157 HD
BRANCH  16  19
HETATM   19  O3  UNL     1     -24.911  25.562 -10.293  1.00  0.00    -0.354 OA
ATOM     20  H3  UNL     1     -24.993  25.369  -9.367  1.00  0.00     0.218 HD
ENDBRANCH  16  19
ENDBRANCH   8   9
ENDBRANCH   3   8
BRANCH   2  21
HETATM   21  O1  UNL     1     -23.215  27.597 -14.681  1.00  0.00    -0.392 OA
ATOM     22  H1  UNL     1     -24.002  27.395 -14.188  1.00  0.00     0.210 HD
ENDBRANCH   2  21
BRANCH   1  23
HETATM   23  C2  UNL     1     -20.996  26.905 -16.411  1.00  0.00    -0.086 C 
HETATM   24  C1  UNL     1     -21.388  25.734 -16.879  1.00  0.00     0.014 C 
HETATM   25  C3  UNL     1     -20.758  27.969 -17.462  1.00  0.00     0.043 C 
ENDBRANCH   1  23
BRANCH   6  26
HETATM   26  C14 UNL     1     -19.059  27.693 -13.384  1.00  0.00     0.014 C 
BRANCH  26  27
HETATM   27  C15 UNL     1     -17.750  28.119 -14.008  1.00  0.00     0.027 C 
BRANCH  27  28
HETATM   28  C16 UNL     1     -17.918  29.542 -14.406  1.00  0.00    -0.030 C 
HETATM   29  C17 UNL     1     -18.252  29.812 -15.658  1.00  0.00    -0.027 C 
BRANCH  29  30
HETATM   30  C18 UNL     1     -18.442  31.216 -16.147  1.00  0.00     0.054 C 
BRANCH  30  31
HETATM   31  C19 UNL     1     -17.670  32.093 -15.200  1.00  0.00    -0.021 C 
HETATM   32  C20 UNL     1     -17.653  33.395 -15.342  1.00  0.00    -0.091 C 
HETATM   33  C21 UNL     1     -18.408  34.043 -16.458  1.00  0.00     0.042 C 
HETATM   34  C22 UNL     1     -16.875  34.217 -14.382  1.00  0.00     0.042 C 
ENDBRANCH  30  31
ENDBRANCH  29  30
ENDBRANCH  27  28
ENDBRANCH  26  27
ENDBRANCH   6  26
TORSDOF 10
ENDMDL
