MODEL 1
REMARK VINA RESULT: -5.629450051      0.000      0.000
REMARK  5 active torsions:
REMARK  status: ('A' for Active; 'I' for Inactive)
REMARK    1  A    between atoms: C6_7  and  N1_8 
REMARK    2  A    between atoms: C7_9  and  C8_10 
REMARK    3  A    between atoms: C8_10  and  O1_11 
REMARK    4  A    between atoms: C9_13  and  C10_14 
REMARK    5  A    between atoms: C14_20  and  O2_22 
ROOT
HETATM    1  N1  UNL     1       6.898   5.620  23.415  1.00  0.00    -0.370 N 
HETATM    2  C7  UNL     1       5.753   4.805  23.588  1.00  0.00     0.119 C 
HETATM    3  C9  UNL     1       4.984   5.898  22.876  1.00  0.00     0.099 C 
HETATM    4  C14 UNL     1       6.366   6.276  22.368  1.00  0.00     0.136 C 
HETATM    5  C15 UNL     1       6.505   5.802  20.953  1.00  0.00     0.071 C 
ENDROOT
BRANCH   1   6
HETATM    6  C6  UNL     1       8.133   5.258  23.869  1.00  0.00     0.087 C 
HETATM    7  C2  UNL     1       9.227   6.187  24.122  1.00  0.00     0.013 C 
HETATM    8  C1  UNL     1       8.886   7.539  24.682  1.00  0.00     0.012 C 
HETATM    9  C3  UNL     1      10.196   6.409  22.978  1.00  0.00     0.080 C 
HETATM   10  S1  UNL     1      11.239   4.891  22.920  1.00  0.00    -0.169 SA
HETATM   11  C4  UNL     1      10.047   3.641  23.556  1.00  0.00     0.076 C 
HETATM   12  C5  UNL     1       8.696   4.116  22.995  1.00  0.00     0.035 C 
ENDBRANCH   1   6
BRANCH   2  13
HETATM   13  C8  UNL     1       5.197   4.632  24.964  1.00  0.00     0.190 C 
BRANCH  13  14
HETATM   14  O1  UNL     1       4.646   3.385  25.163  1.00  0.00    -0.399 OA
ATOM     15  H1  UNL     1       5.083   2.896  25.851  1.00  0.00     0.209 HD
ENDBRANCH  13  14
ENDBRANCH   2  13
BRANCH   4  16
HETATM   16  O2  UNL     1       6.339   7.697  22.340  1.00  0.00    -0.371 OA
ATOM     17  H2  UNL     1       6.972   8.184  21.826  1.00  0.00     0.212 HD
ENDBRANCH   4  16
BRANCH   3  18
HETATM   18  C10 UNL     1       3.989   5.469  21.907  1.00  0.00    -0.031 A 
HETATM   19  C11 UNL     1       3.423   6.355  20.981  1.00  0.00     0.026 A 
HETATM   20  C12 UNL     1       2.499   5.700  20.193  1.00  0.00     0.088 A 
HETATM   21  N2  UNL     1       2.490   4.439  20.619  1.00  0.00    -0.375 N 
HETATM   22  C13 UNL     1       3.372   4.276  21.642  1.00  0.00     0.095 A 
ATOM     23  H2  UNL     1       1.905   3.699  20.233  1.00  0.00     0.164 HD
ENDBRANCH   3  18
TORSDOF 5
ENDMDL
MODEL 2
REMARK VINA RESULT: -5.452613971      2.809      6.110
REMARK  5 active torsions:
REMARK  status: ('A' for Active; 'I' for Inactive)
REMARK    1  A    between atoms: C6_7  and  N1_8 
REMARK    2  A    between atoms: C7_9  and  C8_10 
REMARK    3  A    between atoms: C8_10  and  O1_11 
REMARK    4  A    between atoms: C9_13  and  C10_14 
REMARK    5  A    between atoms: C14_20  and  O2_22 
ROOT
HETATM    1  N1  UNL     1       8.095   6.791  22.891  1.00  0.00    -0.370 N 
HETATM    2  C7  UNL     1       9.423   6.976  23.348  1.00  0.00     0.119 C 
HETATM    3  C9  UNL     1       9.009   6.192  24.576  1.00  0.00     0.099 C 
HETATM    4  C14 UNL     1       7.904   5.700  23.655  1.00  0.00     0.136 C 
HETATM    5  C15 UNL     1       8.243   4.314  23.196  1.00  0.00     0.071 C 
ENDROOT
BRANCH   1   6
HETATM    6  C6  UNL     1       7.651   7.292  21.702  1.00  0.00     0.087 C 
HETATM    7  C2  UNL     1       6.377   6.946  21.082  1.00  0.00     0.013 C 
HETATM    8  C1  UNL     1       5.195   6.725  21.983  1.00  0.00     0.012 C 
HETATM    9  C3  UNL     1       6.403   5.803  20.089  1.00  0.00     0.080 C 
HETATM   10  S1  UNL     1       7.179   6.494  18.567  1.00  0.00    -0.169 SA
HETATM   11  C4  UNL     1       8.285   7.767  19.305  1.00  0.00     0.076 C 
HETATM   12  C5  UNL     1       8.744   7.124  20.624  1.00  0.00     0.035 C 
ENDBRANCH   1   6
BRANCH   2  13
HETATM   13  C8  UNL     1       9.854   8.345  23.763  1.00  0.00     0.190 C 
BRANCH  13  14
HETATM   14  O1  UNL     1      10.850   8.856  22.961  1.00  0.00    -0.399 OA
ATOM     15  H1  UNL     1      11.664   8.370  23.030  1.00  0.00     0.209 HD
ENDBRANCH  13  14
ENDBRANCH   2  13
BRANCH   4  16
HETATM   16  O2  UNL     1       6.771   5.601  24.509  1.00  0.00    -0.371 OA
ATOM     17  H2  UNL     1       6.834   5.162  25.349  1.00  0.00     0.212 HD
ENDBRANCH   4  16
BRANCH   3  18
HETATM   18  C10 UNL     1       9.965   5.222  25.082  1.00  0.00    -0.031 A 
HETATM   19  C11 UNL     1       9.722   4.474  26.242  1.00  0.00     0.026 A 
HETATM   20  C12 UNL     1      10.791   3.644  26.510  1.00  0.00     0.088 A 
HETATM   21  N2  UNL     1      11.676   3.871  25.542  1.00  0.00    -0.375 N 
HETATM   22  C13 UNL     1      11.206   4.809  24.677  1.00  0.00     0.095 A 
ATOM     23  H2  UNL     1      12.580   3.406  25.461  1.00  0.00     0.164 HD
ENDBRANCH   3  18
TORSDOF 5
ENDMDL
MODEL 3
REMARK VINA RESULT: -5.412616748      2.737      5.944
REMARK  5 active torsions:
REMARK  status: ('A' for Active; 'I' for Inactive)
REMARK    1  A    between atoms: C6_7  and  N1_8 
REMARK    2  A    between atoms: C7_9  and  C8_10 
REMARK    3  A    between atoms: C8_10  and  O1_11 
REMARK    4  A    between atoms: C9_13  and  C10_14 
REMARK    5  A    between atoms: C14_20  and  O2_22 
ROOT
HETATM    1  N1  UNL     1       5.854   6.352  22.453  1.00  0.00    -0.370 N 
HETATM    2  C7  UNL     1       7.242   6.412  22.175  1.00  0.00     0.119 C 
HETATM    3  C9  UNL     1       7.453   6.078  23.637  1.00  0.00     0.099 C 
HETATM    4  C14 UNL     1       6.027   5.561  23.528  1.00  0.00     0.136 C 
HETATM    5  C15 UNL     1       6.064   4.066  23.442  1.00  0.00     0.071 C 
ENDROOT
BRANCH   1   6
HETATM    6  C6  UNL     1       4.904   6.583  21.501  1.00  0.00     0.087 C 
HETATM    7  C2  UNL     1       3.479   6.723  21.772  1.00  0.00     0.013 C 
HETATM    8  C1  UNL     1       3.069   7.418  23.039  1.00  0.00     0.012 C 
HETATM    9  C3  UNL     1       2.649   5.459  21.667  1.00  0.00     0.080 C 
HETATM   10  S1  UNL     1       2.473   5.139  19.860  1.00  0.00    -0.169 SA
HETATM   11  C4  UNL     1       4.044   5.869  19.237  1.00  0.00     0.076 C 
HETATM   12  C5  UNL     1       5.053   5.558  20.355  1.00  0.00     0.035 C 
ENDBRANCH   1   6
BRANCH   2  13
HETATM   13  C8  UNL     1       7.857   7.742  21.883  1.00  0.00     0.190 C 
BRANCH  13  14
HETATM   14  O1  UNL     1       8.053   7.955  20.537  1.00  0.00    -0.399 OA
ATOM     15  H1  UNL     1       8.708   8.620  20.361  1.00  0.00     0.209 HD
ENDBRANCH  13  14
ENDBRANCH   2  13
BRANCH   4  16
HETATM   16  O2  UNL     1       5.447   5.902  24.780  1.00  0.00    -0.371 OA
ATOM     17  H2  UNL     1       5.808   6.607  25.306  1.00  0.00     0.212 HD
ENDBRANCH   4  16
BRANCH   3  18
HETATM   18  C10 UNL     1       8.508   5.127  23.942  1.00  0.00    -0.031 A 
HETATM   19  C11 UNL     1       8.852   4.795  25.260  1.00  0.00     0.026 A 
HETATM   20  C12 UNL     1       9.890   3.888  25.270  1.00  0.00     0.088 A 
HETATM   21  N2  UNL     1      10.185   3.661  23.992  1.00  0.00    -0.375 N 
HETATM   22  C13 UNL     1       9.373   4.389  23.180  1.00  0.00     0.095 A 
ATOM     23  H2  UNL     1      10.916   3.029  23.667  1.00  0.00     0.164 HD
ENDBRANCH   3  18
TORSDOF 5
ENDMDL
MODEL 4
REMARK VINA RESULT: -5.388513453      1.499      1.869
REMARK  5 active torsions:
REMARK  status: ('A' for Active; 'I' for Inactive)
REMARK    1  A    between atoms: C6_7  and  N1_8 
REMARK    2  A    between atoms: C7_9  and  C8_10 
REMARK    3  A    between atoms: C8_10  and  O1_11 
REMARK    4  A    between atoms: C9_13  and  C10_14 
REMARK    5  A    between atoms: C14_20  and  O2_22 
ROOT
HETATM    1  N1  UNL     1       7.645   4.649  23.990  1.00  0.00    -0.370 N 
HETATM    2  C7  UNL     1       6.358   4.058  23.989  1.00  0.00     0.119 C 
HETATM    3  C9  UNL     1       5.821   5.454  23.754  1.00  0.00     0.099 C 
HETATM    4  C14 UNL     1       7.240   5.712  23.274  1.00  0.00     0.136 C 
HETATM    5  C15 UNL     1       7.244   5.735  21.776  1.00  0.00     0.071 C 
ENDROOT
BRANCH   1   6
HETATM    6  C6  UNL     1       8.786   3.924  24.182  1.00  0.00     0.087 C 
HETATM    7  C2  UNL     1       9.465   3.772  25.462  1.00  0.00     0.013 C 
HETATM    8  C1  UNL     1       8.617   3.671  26.699  1.00  0.00     0.012 C 
HETATM    9  C3  UNL     1      10.570   4.766  25.758  1.00  0.00     0.080 C 
HETATM   10  S1  UNL     1      11.995   4.235  24.718  1.00  0.00    -0.169 SA
HETATM   11  C4  UNL     1      11.107   3.471  23.298  1.00  0.00     0.076 C 
HETATM   12  C5  UNL     1       9.852   4.346  23.147  1.00  0.00     0.035 C 
ENDBRANCH   1   6
BRANCH   2  13
HETATM   13  C8  UNL     1       5.809   3.533  25.276  1.00  0.00     0.190 C 
BRANCH  13  14
HETATM   14  O1  UNL     1       4.537   3.022  25.144  1.00  0.00    -0.399 OA
ATOM     15  H1  UNL     1       4.267   2.938  24.237  1.00  0.00     0.209 HD
ENDBRANCH  13  14
ENDBRANCH   2  13
BRANCH   4  16
HETATM   16  O2  UNL     1       7.513   7.034  23.721  1.00  0.00    -0.371 OA
ATOM     17  H2  UNL     1       6.849   7.712  23.665  1.00  0.00     0.212 HD
ENDBRANCH   4  16
BRANCH   3  18
HETATM   18  C10 UNL     1       4.737   5.582  22.796  1.00  0.00    -0.031 A 
HETATM   19  C11 UNL     1       4.155   6.821  22.493  1.00  0.00     0.026 A 
HETATM   20  C12 UNL     1       3.142   6.661  21.570  1.00  0.00     0.088 A 
HETATM   21  N2  UNL     1       3.094   5.357  21.307  1.00  0.00    -0.375 N 
HETATM   22  C13 UNL     1       4.037   4.692  22.027  1.00  0.00     0.095 A 
ATOM     23  H2  UNL     1       2.443   4.918  20.657  1.00  0.00     0.164 HD
ENDBRANCH   3  18
TORSDOF 5
ENDMDL
MODEL 5
REMARK VINA RESULT: -5.336080912      6.748      8.389
REMARK  5 active torsions:
REMARK  status: ('A' for Active; 'I' for Inactive)
REMARK    1  A    between atoms: C6_7  and  N1_8 
REMARK    2  A    between atoms: C7_9  and  C8_10 
REMARK    3  A    between atoms: C8_10  and  O1_11 
REMARK    4  A    between atoms: C9_13  and  C10_14 
REMARK    5  A    between atoms: C14_20  and  O2_22 
ROOT
HETATM    1  N1  UNL     1       9.743   9.091  16.129  1.00  0.00    -0.370 N 
HETATM    2  C7  UNL     1       8.737   9.406  17.075  1.00  0.00     0.119 C 
HETATM    3  C9  UNL     1       8.141   8.052  16.750  1.00  0.00     0.099 C 
HETATM    4  C14 UNL     1       9.547   7.766  16.249  1.00  0.00     0.136 C 
HETATM    5  C15 UNL     1      10.258   6.926  17.266  1.00  0.00     0.071 C 
ENDROOT
BRANCH   1   6
HETATM    6  C6  UNL     1      10.763   9.948  15.829  1.00  0.00     0.087 C 
HETATM    7  C2  UNL     1      11.513   9.935  14.580  1.00  0.00     0.013 C 
HETATM    8  C1  UNL     1      10.768   9.613  13.315  1.00  0.00     0.012 C 
HETATM    9  C3  UNL     1      12.786   9.113  14.570  1.00  0.00     0.080 C 
HETATM   10  S1  UNL     1      14.013  10.101  15.525  1.00  0.00    -0.169 SA
HETATM   11  C4  UNL     1      12.897  10.986  16.690  1.00  0.00     0.076 C 
HETATM   12  C5  UNL     1      11.792   9.957  16.981  1.00  0.00     0.035 C 
ENDBRANCH   1   6
BRANCH   2  13
HETATM   13  C8  UNL     1       7.745  10.471  16.739  1.00  0.00     0.190 C 
BRANCH  13  14
HETATM   14  O1  UNL     1       7.459  11.290  17.809  1.00  0.00    -0.399 OA
ATOM     15  H1  UNL     1       7.435  12.210  17.572  1.00  0.00     0.209 HD
ENDBRANCH  13  14
ENDBRANCH   2  13
BRANCH   4  16
HETATM   16  O2  UNL     1       9.338   6.956  15.099  1.00  0.00    -0.371 OA
ATOM     17  H2  UNL     1       8.459   6.755  14.801  1.00  0.00     0.212 HD
ENDBRANCH   4  16
BRANCH   3  18
HETATM   18  C10 UNL     1       7.638   7.276  17.871  1.00  0.00    -0.031 A 
HETATM   19  C11 UNL     1       6.719   6.232  17.699  1.00  0.00     0.026 A 
HETATM   20  C12 UNL     1       6.395   5.673  18.918  1.00  0.00     0.088 A 
HETATM   21  N2  UNL     1       7.094   6.353  19.824  1.00  0.00    -0.375 N 
HETATM   22  C13 UNL     1       7.844   7.315  19.223  1.00  0.00     0.095 A 
ATOM     23  H2  UNL     1       7.071   6.177  20.828  1.00  0.00     0.164 HD
ENDBRANCH   3  18
TORSDOF 5
ENDMDL
