MODEL 1
REMARK VINA RESULT: -5.643337047      0.000      0.000
REMARK  6 active torsions:
REMARK  status: ('A' for Active; 'I' for Inactive)
REMARK    1  A    between atoms: C9_10  and  O2_11 
REMARK    2  A    between atoms: C13_16  and  O3_17 
REMARK    3  A    between atoms: C13_16  and  C14_19 
REMARK    4  A    between atoms: C14_19  and  C15_20 
REMARK    5  A    between atoms: C15_20  and  C16_21 
REMARK    6  A    between atoms: C16_21  and  O4_23 
ROOT
HETATM    1  C1  UNL     1      11.743   6.346  17.433  1.00  0.00     0.013 C 
HETATM    2  C2  UNL     1      10.917   7.224  17.355  1.00  0.00    -0.097 C 
HETATM    3  C3  UNL     1       9.891   8.297  17.235  1.00  0.00     0.110 C 
HETATM    4  C4  UNL     1       9.575   8.695  18.630  1.00  0.00     0.041 C 
HETATM    5  C5  UNL     1      10.512   9.343  16.398  1.00  0.00     0.150 C 
HETATM    6  O1  UNL     1      11.395  10.009  16.957  1.00  0.00    -0.296 OA
HETATM    7  C6  UNL     1      10.189   9.659  14.997  1.00  0.00     0.092 C 
HETATM    8  C7  UNL     1       8.716   9.532  14.689  1.00  0.00    -0.005 C 
HETATM    9  C8  UNL     1       8.489   8.918  13.317  1.00  0.00     0.019 C 
HETATM   10  C9  UNL     1       8.102  10.938  14.588  1.00  0.00     0.127 C 
HETATM   11  C10 UNL     1       6.864  10.866  15.491  1.00  0.00     0.033 C 
HETATM   12  C11 UNL     1       7.462   9.982  16.605  1.00  0.00     0.011 C 
HETATM   13  C12 UNL     1       7.948   8.840  15.759  1.00  0.00     0.033 C 
HETATM   14  C13 UNL     1       8.692   7.761  16.443  1.00  0.00     0.087 C 
ENDROOT
BRANCH  14  15
HETATM   15  O3  UNL     1       9.240   6.959  15.450  1.00  0.00    -0.387 OA
ATOM     16  H3  UNL     1       8.546   6.843  14.812  1.00  0.00     0.210 HD
ENDBRANCH  14  15
BRANCH  14  17
HETATM   17  C14 UNL     1       7.853   6.888  17.322  1.00  0.00     0.043 C 
BRANCH  17  18
HETATM   18  C15 UNL     1       6.553   6.426  16.799  1.00  0.00     0.034 C 
BRANCH  18  19
HETATM   19  C16 UNL     1       5.530   5.826  17.663  1.00  0.00     0.114 C 
HETATM   20  C17 UNL     1       6.059   5.826  19.142  1.00  0.00     0.039 C 
BRANCH  19  21
HETATM   21  O4  UNL     1       4.321   6.483  17.819  1.00  0.00    -0.396 OA
ATOM     22  H4  UNL     1       3.521   6.034  17.572  1.00  0.00     0.210 HD
ENDBRANCH  19  21
ENDBRANCH  18  19
ENDBRANCH  17  18
ENDBRANCH  14  17
BRANCH  10  23
HETATM   23  O2  UNL     1       7.727  11.274  13.315  1.00  0.00    -0.395 OA
ATOM     24  H2  UNL     1       8.251  11.972  12.942  1.00  0.00     0.210 HD
ENDBRANCH  10  23
TORSDOF 6
ENDMDL
MODEL 2
REMARK VINA RESULT: -5.308639161      6.908      8.835
REMARK  6 active torsions:
REMARK  status: ('A' for Active; 'I' for Inactive)
REMARK    1  A    between atoms: C9_10  and  O2_11 
REMARK    2  A    between atoms: C13_16  and  O3_17 
REMARK    3  A    between atoms: C13_16  and  C14_19 
REMARK    4  A    between atoms: C14_19  and  C15_20 
REMARK    5  A    between atoms: C15_20  and  C16_21 
REMARK    6  A    between atoms: C16_21  and  O4_23 
ROOT
HETATM    1  C1  UNL     1      11.578   1.533  25.268  1.00  0.00     0.013 C 
HETATM    2  C2  UNL     1      11.216   2.684  25.315  1.00  0.00    -0.097 C 
HETATM    3  C3  UNL     1      10.767   4.104  25.347  1.00  0.00     0.110 C 
HETATM    4  C4  UNL     1      10.157   4.292  26.688  1.00  0.00     0.041 C 
HETATM    5  C5  UNL     1      11.978   4.905  25.079  1.00  0.00     0.150 C 
HETATM    6  O1  UNL     1      12.791   4.960  26.012  1.00  0.00    -0.296 OA
HETATM    7  C6  UNL     1      12.301   5.627  23.836  1.00  0.00     0.092 C 
HETATM    8  C7  UNL     1      11.090   6.252  23.186  1.00  0.00    -0.005 C 
HETATM    9  C8  UNL     1      11.144   6.119  21.673  1.00  0.00     0.019 C 
HETATM   10  C9  UNL     1      11.112   7.769  23.440  1.00  0.00     0.127 C 
HETATM   11  C10 UNL     1       9.705   8.076  23.967  1.00  0.00     0.033 C 
HETATM   12  C11 UNL     1       9.509   6.800  24.813  1.00  0.00     0.011 C 
HETATM   13  C12 UNL     1       9.802   5.774  23.756  1.00  0.00     0.033 C 
HETATM   14  C13 UNL     1       9.809   4.356  24.175  1.00  0.00     0.087 C 
ENDROOT
BRANCH  14  15
HETATM   15  O3  UNL     1      10.332   3.627  23.115  1.00  0.00    -0.387 OA
ATOM     16  H3  UNL     1       9.703   3.727  22.409  1.00  0.00     0.210 HD
ENDBRANCH  14  15
BRANCH  14  17
HETATM   17  C14 UNL     1       8.460   3.795  24.494  1.00  0.00     0.043 C 
BRANCH  17  18
HETATM   18  C15 UNL     1       7.302   4.311  23.741  1.00  0.00     0.034 C 
BRANCH  18  19
HETATM   19  C16 UNL     1       5.920   4.108  24.192  1.00  0.00     0.114 C 
HETATM   20  C17 UNL     1       4.952   4.821  23.180  1.00  0.00     0.039 C 
BRANCH  19  21
HETATM   21  O4  UNL     1       5.400   2.826  24.190  1.00  0.00    -0.396 OA
ATOM     22  H4  UNL     1       4.474   2.708  24.014  1.00  0.00     0.210 HD
ENDBRANCH  19  21
ENDBRANCH  18  19
ENDBRANCH  17  18
ENDBRANCH  14  17
BRANCH  10  23
HETATM   23  O2  UNL     1      11.354   8.503  22.311  1.00  0.00    -0.395 OA
ATOM     24  H2  UNL     1      10.807   8.251  21.576  1.00  0.00     0.210 HD
ENDBRANCH  10  23
TORSDOF 6
ENDMDL
MODEL 3
REMARK VINA RESULT: -5.239894664      1.609      4.317
REMARK  6 active torsions:
REMARK  status: ('A' for Active; 'I' for Inactive)
REMARK    1  A    between atoms: C9_10  and  O2_11 
REMARK    2  A    between atoms: C13_16  and  O3_17 
REMARK    3  A    between atoms: C13_16  and  C14_19 
REMARK    4  A    between atoms: C14_19  and  C15_20 
REMARK    5  A    between atoms: C15_20  and  C16_21 
REMARK    6  A    between atoms: C16_21  and  O4_23 
ROOT
HETATM    1  C1  UNL     1       7.275  10.980  16.292  1.00  0.00     0.013 C 
HETATM    2  C2  UNL     1       8.099  10.098  16.261  1.00  0.00    -0.097 C 
HETATM    3  C3  UNL     1       9.115   9.009  16.249  1.00  0.00     0.110 C 
HETATM    4  C4  UNL     1       8.995   8.376  14.911  1.00  0.00     0.041 C 
HETATM    5  C5  UNL     1      10.405   9.671  16.528  1.00  0.00     0.150 C 
HETATM    6  O1  UNL     1      10.863  10.346  15.595  1.00  0.00    -0.296 OA
HETATM    7  C6  UNL     1      11.177   9.607  17.780  1.00  0.00     0.092 C 
HETATM    8  C7  UNL     1      11.119   8.249  18.439  1.00  0.00    -0.005 C 
HETATM    9  C8  UNL     1      11.011   8.373  19.950  1.00  0.00     0.019 C 
HETATM   10  C9  UNL     1      12.453   7.521  18.206  1.00  0.00     0.127 C 
HETATM   11  C10 UNL     1      12.034   6.141  17.684  1.00  0.00     0.033 C 
HETATM   12  C11 UNL     1      10.838   6.592  16.820  1.00  0.00     0.011 C 
HETATM   13  C12 UNL     1      10.075   7.359  17.863  1.00  0.00     0.033 C 
HETATM   14  C13 UNL     1       8.850   8.059  17.424  1.00  0.00     0.087 C 
ENDROOT
BRANCH  14  15
HETATM   15  O3  UNL     1       8.459   8.881  18.474  1.00  0.00    -0.387 OA
ATOM     16  H3  UNL     1       9.267   9.137  18.904  1.00  0.00     0.210 HD
ENDBRANCH  14  15
BRANCH  14  17
HETATM   17  C14 UNL     1       7.701   7.158  17.099  1.00  0.00     0.043 C 
BRANCH  17  18
HETATM   18  C15 UNL     1       7.240   6.222  18.141  1.00  0.00     0.034 C 
BRANCH  18  19
HETATM   19  C16 UNL     1       5.837   5.809  18.258  1.00  0.00     0.114 C 
HETATM   20  C17 UNL     1       5.412   5.901  19.768  1.00  0.00     0.039 C 
BRANCH  19  21
HETATM   21  O4  UNL     1       4.860   6.589  17.665  1.00  0.00    -0.396 OA
ATOM     22  H4  UNL     1       4.617   6.411  16.764  1.00  0.00     0.210 HD
ENDBRANCH  19  21
ENDBRANCH  18  19
ENDBRANCH  17  18
ENDBRANCH  14  17
BRANCH  10  23
HETATM   23  O2  UNL     1      13.197   7.378  19.345  1.00  0.00    -0.395 OA
ATOM     24  H2  UNL     1      12.687   7.469  20.141  1.00  0.00     0.210 HD
ENDBRANCH  10  23
TORSDOF 6
ENDMDL
MODEL 4
REMARK VINA RESULT: -5.175692072      2.669      4.965
REMARK  6 active torsions:
REMARK  status: ('A' for Active; 'I' for Inactive)
REMARK    1  A    between atoms: C9_10  and  O2_11 
REMARK    2  A    between atoms: C13_16  and  O3_17 
REMARK    3  A    between atoms: C13_16  and  C14_19 
REMARK    4  A    between atoms: C14_19  and  C15_20 
REMARK    5  A    between atoms: C15_20  and  C16_21 
REMARK    6  A    between atoms: C16_21  and  O4_23 
ROOT
HETATM    1  C1  UNL     1      14.965   8.944  16.281  1.00  0.00     0.013 C 
HETATM    2  C2  UNL     1      13.876   8.838  16.791  1.00  0.00    -0.097 C 
HETATM    3  C3  UNL     1      12.524   8.693  17.397  1.00  0.00     0.110 C 
HETATM    4  C4  UNL     1      12.727   8.882  18.856  1.00  0.00     0.041 C 
HETATM    5  C5  UNL     1      11.683   9.708  16.734  1.00  0.00     0.150 C 
HETATM    6  O1  UNL     1      11.901  10.879  17.076  1.00  0.00    -0.296 OA
HETATM    7  C6  UNL     1      10.635   9.466  15.727  1.00  0.00     0.092 C 
HETATM    8  C7  UNL     1       9.845   8.205  15.991  1.00  0.00    -0.005 C 
HETATM    9  C8  UNL     1       9.539   7.466  14.699  1.00  0.00     0.019 C 
HETATM   10  C9  UNL     1       8.466   8.587  16.553  1.00  0.00     0.127 C 
HETATM   11  C10 UNL     1       8.320   7.706  17.800  1.00  0.00     0.033 C 
HETATM   12  C11 UNL     1       9.784   7.771  18.283  1.00  0.00     0.011 C 
HETATM   13  C12 UNL     1      10.464   7.326  17.020  1.00  0.00     0.033 C 
HETATM   14  C13 UNL     1      11.943   7.326  17.012  1.00  0.00     0.087 C 
ENDROOT
BRANCH  14  15
HETATM   15  O3  UNL     1      12.338   7.121  15.696  1.00  0.00    -0.387 OA
ATOM     16  H3  UNL     1      11.697   6.520  15.335  1.00  0.00     0.210 HD
ENDBRANCH  14  15
BRANCH  14  17
HETATM   17  C14 UNL     1      12.568   6.255  17.848  1.00  0.00     0.043 C 
BRANCH  17  18
HETATM   18  C15 UNL     1      13.274   5.161  17.156  1.00  0.00     0.034 C 
BRANCH  18  19
HETATM   19  C16 UNL     1      14.737   5.111  17.058  1.00  0.00     0.114 C 
HETATM   20  C17 UNL     1      15.349   5.823  18.318  1.00  0.00     0.039 C 
BRANCH  19  21
HETATM   21  O4  UNL     1      15.368   3.881  17.122  1.00  0.00    -0.396 OA
ATOM     22  H4  UNL     1      16.307   3.840  16.984  1.00  0.00     0.210 HD
ENDBRANCH  19  21
ENDBRANCH  18  19
ENDBRANCH  17  18
ENDBRANCH  14  17
BRANCH  10  23
HETATM   23  O2  UNL     1       7.439   8.334  15.685  1.00  0.00    -0.395 OA
ATOM     24  H2  UNL     1       6.582   8.389  16.092  1.00  0.00     0.210 HD
ENDBRANCH  10  23
TORSDOF 6
ENDMDL
MODEL 5
REMARK VINA RESULT: -5.164742213      1.593      4.210
REMARK  6 active torsions:
REMARK  status: ('A' for Active; 'I' for Inactive)
REMARK    1  A    between atoms: C9_10  and  O2_11 
REMARK    2  A    between atoms: C13_16  and  O3_17 
REMARK    3  A    between atoms: C13_16  and  C14_19 
REMARK    4  A    between atoms: C14_19  and  C15_20 
REMARK    5  A    between atoms: C15_20  and  C16_21 
REMARK    6  A    between atoms: C16_21  and  O4_23 
ROOT
HETATM    1  C1  UNL     1       7.430  10.763  14.776  1.00  0.00     0.013 C 
HETATM    2  C2  UNL     1       8.348   9.985  14.875  1.00  0.00    -0.097 C 
HETATM    3  C3  UNL     1       9.482   9.032  15.022  1.00  0.00     0.110 C 
HETATM    4  C4  UNL     1       9.344   8.081  13.890  1.00  0.00     0.041 C 
HETATM    5  C5  UNL     1      10.701   9.864  15.011  1.00  0.00     0.150 C 
HETATM    6  O1  UNL     1      11.010  10.331  13.906  1.00  0.00    -0.296 OA
HETATM    7  C6  UNL     1      11.562  10.185  16.163  1.00  0.00     0.092 C 
HETATM    8  C7  UNL     1      11.711   9.032  17.126  1.00  0.00    -0.005 C 
HETATM    9  C8  UNL     1      11.696   9.511  18.568  1.00  0.00     0.019 C 
HETATM   10  C9  UNL     1      13.102   8.403  16.943  1.00  0.00     0.127 C 
HETATM   11  C10 UNL     1      12.814   6.903  16.805  1.00  0.00     0.033 C 
HETATM   12  C11 UNL     1      11.515   7.008  15.979  1.00  0.00     0.011 C 
HETATM   13  C12 UNL     1      10.742   7.929  16.880  1.00  0.00     0.033 C 
HETATM   14  C13 UNL     1       9.414   8.378  16.409  1.00  0.00     0.087 C 
ENDROOT
BRANCH  14  15
HETATM   15  O3  UNL     1       9.004   9.389  17.268  1.00  0.00    -0.387 OA
ATOM     16  H3  UNL     1       9.680  10.055  17.210  1.00  0.00     0.210 HD
ENDBRANCH  14  15
BRANCH  14  17
HETATM   17  C14 UNL     1       8.361   7.316  16.418  1.00  0.00     0.043 C 
BRANCH  17  18
HETATM   18  C15 UNL     1       7.754   6.956  17.713  1.00  0.00     0.034 C 
BRANCH  18  19
HETATM   19  C16 UNL     1       6.573   6.091  17.811  1.00  0.00     0.114 C 
HETATM   20  C17 UNL     1       6.263   5.835  19.330  1.00  0.00     0.039 C 
BRANCH  19  21
HETATM   21  O4  UNL     1       5.352   6.576  17.375  1.00  0.00    -0.396 OA
ATOM     22  H4  UNL     1       5.335   7.371  16.854  1.00  0.00     0.210 HD
ENDBRANCH  19  21
ENDBRANCH  18  19
ENDBRANCH  17  18
ENDBRANCH  14  17
BRANCH  10  23
HETATM   23  O2  UNL     1      13.936   8.617  18.007  1.00  0.00    -0.395 OA
ATOM     24  H2  UNL     1      14.571   7.922  18.132  1.00  0.00     0.210 HD
ENDBRANCH  10  23
TORSDOF 6
ENDMDL
