MODEL 1
REMARK VINA RESULT: -7.279143268      0.000      0.000
REMARK  6 active torsions:
REMARK  status: ('A' for Active; 'I' for Inactive)
REMARK    1  A    between atoms: C2_2  and  C3_3 
REMARK    2  A    between atoms: C3_3  and  O1_4 
REMARK    3  A    between atoms: C3_3  and  C4_6 
REMARK    4  A    between atoms: C4_6  and  O2_7 
REMARK    5  A    between atoms: C7_12  and  C8_13 
REMARK    6  A    between atoms: C12_17  and  O4_18 
ROOT
HETATM    1  C4  UNL     1       5.038   5.926  22.397  1.00  0.00     0.199 C 
HETATM    2  O3  UNL     1       5.278   5.480  23.677  1.00  0.00    -0.352 OA
HETATM    3  C5  UNL     1       6.350   4.597  23.616  1.00  0.00     0.178 C 
HETATM    4  C6  UNL     1       7.236   5.117  22.484  1.00  0.00     0.032 C 
HETATM    5  C7  UNL     1       8.502   5.669  23.092  1.00  0.00    -0.028 C 
HETATM    6  C10 UNL     1       8.281   6.268  24.464  1.00  0.00     0.013 C 
HETATM    7  C11 UNL     1       9.167   7.459  24.617  1.00  0.00     0.033 C 
HETATM    8  C12 UNL     1       9.809   7.709  23.298  1.00  0.00     0.123 C 
HETATM    9  C13 UNL     1       9.194   6.714  22.325  1.00  0.00     0.023 C 
HETATM   10  C14 UNL     1       8.352   7.509  21.367  1.00  0.00     0.009 C 
HETATM   11  C15 UNL     1       6.909   7.434  21.725  1.00  0.00     0.015 C 
HETATM   12  C16 UNL     1       6.384   6.024  21.709  1.00  0.00     0.022 C 
HETATM   13  C17 UNL     1       6.260   5.636  20.233  1.00  0.00     0.021 C 
ENDROOT
BRANCH   1  14
HETATM   14  C3  UNL     1       4.040   5.101  21.694  1.00  0.00     0.203 C 
BRANCH  14  15
HETATM   15  C2  UNL     1       2.919   5.898  21.162  1.00  0.00    -0.000 C 
HETATM   16  C1  UNL     1       2.503   6.031  19.946  1.00  0.00     0.009 C 
ENDBRANCH  14  15
BRANCH  14  17
HETATM   17  O1  UNL     1       3.500   4.057  22.418  1.00  0.00    -0.386 OA
ATOM     18  H1  UNL     1       3.544   3.280  21.873  1.00  0.00     0.210 HD
ENDBRANCH  14  17
ENDBRANCH   1  14
BRANCH   1  19
HETATM   19  O2  UNL     1       4.542   7.229  22.444  1.00  0.00    -0.362 OA
ATOM     20  H2  UNL     1       4.926   7.651  23.204  1.00  0.00     0.213 HD
ENDBRANCH   1  19
BRANCH   5  21
HETATM   21  C8  UNL     1       9.316   4.404  23.302  1.00  0.00     0.006 C 
HETATM   22  C9  UNL     1       9.778   4.125  24.662  1.00  0.00     0.006 C 
ENDBRANCH   5  21
BRANCH   8  23
HETATM   23  O4  UNL     1      11.198   7.651  23.314  1.00  0.00    -0.395 OA
ATOM     24  H4  UNL     1      11.610   7.837  22.478  1.00  0.00     0.210 HD
ENDBRANCH   8  23
TORSDOF 6
ENDMDL
MODEL 2
REMARK VINA RESULT: -5.893783509      1.411      1.564
REMARK  6 active torsions:
REMARK  status: ('A' for Active; 'I' for Inactive)
REMARK    1  A    between atoms: C2_2  and  C3_3 
REMARK    2  A    between atoms: C3_3  and  O1_4 
REMARK    3  A    between atoms: C3_3  and  C4_6 
REMARK    4  A    between atoms: C4_6  and  O2_7 
REMARK    5  A    between atoms: C7_12  and  C8_13 
REMARK    6  A    between atoms: C12_17  and  O4_18 
ROOT
HETATM    1  C4  UNL     1       5.843   5.025  23.479  1.00  0.00     0.199 C 
HETATM    2  O3  UNL     1       6.552   4.791  24.636  1.00  0.00    -0.352 OA
HETATM    3  C5  UNL     1       7.798   4.296  24.268  1.00  0.00     0.178 C 
HETATM    4  C6  UNL     1       8.124   4.975  22.937  1.00  0.00     0.032 C 
HETATM    5  C7  UNL     1       9.248   5.955  23.170  1.00  0.00    -0.028 C 
HETATM    6  C10 UNL     1       9.216   6.566  24.554  1.00  0.00     0.013 C 
HETATM    7  C11 UNL     1       9.663   7.987  24.462  1.00  0.00     0.033 C 
HETATM    8  C12 UNL     1       9.807   8.317  23.018  1.00  0.00     0.123 C 
HETATM    9  C13 UNL     1       9.320   7.098  22.248  1.00  0.00     0.023 C 
HETATM   10  C14 UNL     1       8.038   7.495  21.573  1.00  0.00     0.009 C 
HETATM   11  C15 UNL     1       6.853   6.991  22.322  1.00  0.00     0.015 C 
HETATM   12  C16 UNL     1       6.843   5.491  22.442  1.00  0.00     0.022 C 
HETATM   13  C17 UNL     1       6.464   4.959  21.056  1.00  0.00     0.021 C 
ENDROOT
BRANCH   1  14
HETATM   14  C3  UNL     1       5.027   3.866  23.078  1.00  0.00     0.203 C 
BRANCH  14  15
HETATM   15  C2  UNL     1       3.585   4.174  23.038  1.00  0.00    -0.000 C 
HETATM   16  C1  UNL     1       2.735   4.029  22.075  1.00  0.00     0.009 C 
ENDBRANCH  14  15
BRANCH  14  17
HETATM   17  O1  UNL     1       5.185   2.723  23.836  1.00  0.00    -0.386 OA
ATOM     18  H1  UNL     1       6.024   2.341  23.605  1.00  0.00     0.210 HD
ENDBRANCH  14  17
ENDBRANCH   1  14
BRANCH   1  19
HETATM   19  O2  UNL     1       4.975   6.098  23.676  1.00  0.00    -0.362 OA
ATOM     20  H2  UNL     1       4.867   6.534  22.839  1.00  0.00     0.213 HD
ENDBRANCH   1  19
BRANCH   5  21
HETATM   21  C8  UNL     1      10.461   5.041  23.131  1.00  0.00     0.006 C 
HETATM   22  C9  UNL     1      11.352   5.065  24.290  1.00  0.00     0.006 C 
ENDBRANCH   5  21
BRANCH   8  23
HETATM   23  O4  UNL     1      11.086   8.709  22.642  1.00  0.00    -0.395 OA
ATOM     24  H4  UNL     1      11.305   8.523  21.736  1.00  0.00     0.210 HD
ENDBRANCH   8  23
TORSDOF 6
ENDMDL
MODEL 3
REMARK VINA RESULT: -5.778116257      1.545      5.792
REMARK  6 active torsions:
REMARK  status: ('A' for Active; 'I' for Inactive)
REMARK    1  A    between atoms: C2_2  and  C3_3 
REMARK    2  A    between atoms: C3_3  and  O1_4 
REMARK    3  A    between atoms: C3_3  and  C4_6 
REMARK    4  A    between atoms: C4_6  and  O2_7 
REMARK    5  A    between atoms: C7_12  and  C8_13 
REMARK    6  A    between atoms: C12_17  and  O4_18 
ROOT
HETATM    1  C4  UNL     1       8.005   6.482  23.142  1.00  0.00     0.199 C 
HETATM    2  O3  UNL     1       7.535   7.524  22.374  1.00  0.00    -0.352 OA
HETATM    3  C5  UNL     1       7.062   6.983  21.183  1.00  0.00     0.178 C 
HETATM    4  C6  UNL     1       6.519   5.603  21.555  1.00  0.00     0.032 C 
HETATM    5  C7  UNL     1       5.015   5.640  21.437  1.00  0.00    -0.028 C 
HETATM    6  C10 UNL     1       4.435   6.999  21.765  1.00  0.00     0.013 C 
HETATM    7  C11 UNL     1       3.130   6.807  22.464  1.00  0.00     0.033 C 
HETATM    8  C12 UNL     1       2.974   5.351  22.727  1.00  0.00     0.123 C 
HETATM    9  C13 UNL     1       4.270   4.692  22.277  1.00  0.00     0.023 C 
HETATM   10  C14 UNL     1       4.965   4.210  23.518  1.00  0.00     0.009 C 
HETATM   11  C15 UNL     1       6.053   5.140  23.926  1.00  0.00     0.015 C 
HETATM   12  C16 UNL     1       7.107   5.295  22.863  1.00  0.00     0.022 C 
HETATM   13  C17 UNL     1       7.917   3.995  22.879  1.00  0.00     0.021 C 
ENDROOT
BRANCH   1  14
HETATM   14  C3  UNL     1       9.442   6.236  22.933  1.00  0.00     0.203 C 
BRANCH  14  15
HETATM   15  C2  UNL     1      10.217   6.303  24.186  1.00  0.00    -0.000 C 
HETATM   16  C1  UNL     1      11.099   5.484  24.657  1.00  0.00     0.009 C 
ENDBRANCH  14  15
BRANCH  14  17
HETATM   17  O1  UNL     1      10.069   7.053  22.014  1.00  0.00    -0.386 OA
ATOM     18  H1  UNL     1       9.393   7.540  21.557  1.00  0.00     0.210 HD
ENDBRANCH  14  17
ENDBRANCH   1  14
BRANCH   1  19
HETATM   19  O2  UNL     1       7.826   6.782  24.492  1.00  0.00    -0.362 OA
ATOM     20  H2  UNL     1       7.441   6.018  24.904  1.00  0.00     0.213 HD
ENDBRANCH   1  19
BRANCH   5  21
HETATM   21  C8  UNL     1       4.822   5.441  19.943  1.00  0.00     0.006 C 
HETATM   22  C9  UNL     1       3.714   6.156  19.311  1.00  0.00     0.006 C 
ENDBRANCH   5  21
BRANCH   8  23
HETATM   23  O4  UNL     1       1.852   4.778  22.139  1.00  0.00    -0.395 OA
ATOM     24  H4  UNL     1       1.107   5.362  22.062  1.00  0.00     0.210 HD
ENDBRANCH   8  23
TORSDOF 6
ENDMDL
MODEL 4
REMARK VINA RESULT: -5.553897731      2.413      5.680
REMARK  6 active torsions:
REMARK  status: ('A' for Active; 'I' for Inactive)
REMARK    1  A    between atoms: C2_2  and  C3_3 
REMARK    2  A    between atoms: C3_3  and  O1_4 
REMARK    3  A    between atoms: C3_3  and  C4_6 
REMARK    4  A    between atoms: C4_6  and  O2_7 
REMARK    5  A    between atoms: C7_12  and  C8_13 
REMARK    6  A    between atoms: C12_17  and  O4_18 
ROOT
HETATM    1  C4  UNL     1       6.078   4.359  24.825  1.00  0.00     0.199 C 
HETATM    2  O3  UNL     1       6.396   5.690  24.676  1.00  0.00    -0.352 OA
HETATM    3  C5  UNL     1       6.795   5.878  23.357  1.00  0.00     0.178 C 
HETATM    4  C6  UNL     1       5.970   4.881  22.542  1.00  0.00     0.032 C 
HETATM    5  C7  UNL     1       4.970   5.657  21.721  1.00  0.00    -0.028 C 
HETATM    6  C10 UNL     1       4.505   6.924  22.405  1.00  0.00     0.013 C 
HETATM    7  C11 UNL     1       3.064   7.141  22.086  1.00  0.00     0.033 C 
HETATM    8  C12 UNL     1       2.583   5.938  21.354  1.00  0.00     0.123 C 
HETATM    9  C13 UNL     1       3.738   4.947  21.350  1.00  0.00     0.023 C 
HETATM   10  C14 UNL     1       3.332   3.805  22.237  1.00  0.00     0.009 C 
HETATM   11  C15 UNL     1       3.961   3.913  23.582  1.00  0.00     0.015 C 
HETATM   12  C16 UNL     1       5.465   3.908  23.516  1.00  0.00     0.022 C 
HETATM   13  C17 UNL     1       5.870   2.465  23.204  1.00  0.00     0.021 C 
ENDROOT
BRANCH   1  14
HETATM   14  C3  UNL     1       7.225   3.557  25.283  1.00  0.00     0.203 C 
BRANCH  14  15
HETATM   15  C2  UNL     1       6.962   2.866  26.559  1.00  0.00    -0.000 C 
HETATM   16  C1  UNL     1       7.788   2.463  27.467  1.00  0.00     0.009 C 
ENDBRANCH  14  15
BRANCH  14  17
HETATM   17  O1  UNL     1       8.422   4.232  25.416  1.00  0.00    -0.386 OA
ATOM     18  H1  UNL     1       8.635   4.605  24.569  1.00  0.00     0.210 HD
ENDBRANCH  14  17
ENDBRANCH   1  14
BRANCH   1  19
HETATM   19  O2  UNL     1       5.070   4.227  25.780  1.00  0.00    -0.362 OA
ATOM     20  H2  UNL     1       5.287   4.802  26.504  1.00  0.00     0.213 HD
ENDBRANCH   1  19
BRANCH   5  21
HETATM   21  C8  UNL     1       5.820   6.095  20.540  1.00  0.00     0.006 C 
HETATM   22  C9  UNL     1       5.387   5.667  19.210  1.00  0.00     0.006 C 
ENDBRANCH   5  21
BRANCH   8  23
HETATM   23  O4  UNL     1       2.097   6.197  20.077  1.00  0.00    -0.395 OA
ATOM     24  H4  UNL     1       2.007   5.428  19.527  1.00  0.00     0.210 HD
ENDBRANCH   8  23
TORSDOF 6
ENDMDL
MODEL 5
REMARK VINA RESULT: -5.417916500      1.759      5.694
REMARK  6 active torsions:
REMARK  status: ('A' for Active; 'I' for Inactive)
REMARK    1  A    between atoms: C2_2  and  C3_3 
REMARK    2  A    between atoms: C3_3  and  O1_4 
REMARK    3  A    between atoms: C3_3  and  C4_6 
REMARK    4  A    between atoms: C4_6  and  O2_7 
REMARK    5  A    between atoms: C7_12  and  C8_13 
REMARK    6  A    between atoms: C12_17  and  O4_18 
ROOT
HETATM    1  C4  UNL     1       7.109   5.207  22.982  1.00  0.00     0.199 C 
HETATM    2  O3  UNL     1       6.201   4.585  23.810  1.00  0.00    -0.352 OA
HETATM    3  C5  UNL     1       5.164   5.483  24.039  1.00  0.00     0.178 C 
HETATM    4  C6  UNL     1       5.048   6.301  22.752  1.00  0.00     0.032 C 
HETATM    5  C7  UNL     1       3.762   5.917  22.063  1.00  0.00    -0.028 C 
HETATM    6  C10 UNL     1       3.381   4.471  22.295  1.00  0.00     0.013 C 
HETATM    7  C11 UNL     1       2.752   3.935  21.053  1.00  0.00     0.033 C 
HETATM    8  C12 UNL     1       2.890   4.975  19.997  1.00  0.00     0.123 C 
HETATM    9  C13 UNL     1       3.724   6.094  20.605  1.00  0.00     0.023 C 
HETATM   10  C14 UNL     1       5.048   6.082  19.895  1.00  0.00     0.009 C 
HETATM   11  C15 UNL     1       6.095   5.409  20.712  1.00  0.00     0.015 C 
HETATM   12  C16 UNL     1       6.311   6.083  22.040  1.00  0.00     0.022 C 
HETATM   13  C17 UNL     1       7.074   7.376  21.737  1.00  0.00     0.021 C 
ENDROOT
BRANCH   1  14
HETATM   14  C3  UNL     1       8.166   5.905  23.735  1.00  0.00     0.203 C 
BRANCH  14  15
HETATM   15  C2  UNL     1       9.496   5.756  23.115  1.00  0.00    -0.000 C 
HETATM   16  C1  UNL     1      10.509   6.557  23.130  1.00  0.00     0.009 C 
ENDBRANCH  14  15
BRANCH  14  17
HETATM   17  O1  UNL     1       8.288   5.562  25.066  1.00  0.00    -0.386 OA
ATOM     18  H1  UNL     1       7.955   6.288  25.580  1.00  0.00     0.210 HD
ENDBRANCH  14  17
ENDBRANCH   1  14
BRANCH   1  19
HETATM   19  O2  UNL     1       7.731   4.253  22.177  1.00  0.00    -0.362 OA
ATOM     20  H2  UNL     1       7.488   3.398  22.510  1.00  0.00     0.213 HD
ENDBRANCH   1  19
BRANCH   5  21
HETATM   21  C8  UNL     1       2.748   6.755  22.823  1.00  0.00     0.006 C 
HETATM   22  C9  UNL     1       3.100   8.149  23.092  1.00  0.00     0.006 C 
ENDBRANCH   5  21
BRANCH   8  23
HETATM   23  O4  UNL     1       1.685   5.430  19.476  1.00  0.00    -0.395 OA
ATOM     24  H4  UNL     1       1.472   5.084  18.617  1.00  0.00     0.210 HD
ENDBRANCH   8  23
TORSDOF 6
ENDMDL
