MODEL 1
REMARK VINA RESULT: -7.971436205      0.000      0.000
REMARK  4 active torsions:
REMARK  status: ('A' for Active; 'I' for Inactive)
REMARK    1  A    between atoms: C3_5  and  N2_6 
REMARK    2  A    between atoms: C7_14  and  C8_15 
REMARK    3  A    between atoms: C8_15  and  N4_16 
REMARK    4  A    between atoms: N4_16  and  C10_18 
ROOT
HETATM    1  C1  UNL     1       5.695   5.462  16.842  1.00  0.00     0.069 C 
HETATM    2  C2  UNL     1       6.868   6.304  17.219  1.00  0.00     0.031 A 
HETATM    3  N1  UNL     1       7.701   6.816  16.296  1.00  0.00    -0.196 N 
ATOM      4  H1  UNL     1       7.541   6.640  15.304  1.00  0.00     0.184 HD
HETATM    5  C3  UNL     1       8.752   7.566  16.691  1.00  0.00     0.676 A 
HETATM    6  N3  UNL     1       8.945   7.784  17.994  1.00  0.00    -0.194 N 
ATOM      7  H3  UNL     1       9.743   8.352  18.277  1.00  0.00     0.184 HD
HETATM    8  C4  UNL     1       8.127   7.282  18.967  1.00  0.00     0.060 A 
HETATM    9  C5  UNL     1       7.068   6.528  18.559  1.00  0.00    -0.009 A 
HETATM   10  C6  UNL     1       6.120   5.994  19.614  1.00  0.00     0.077 C 
HETATM   11  C7  UNL     1       6.851   5.993  20.895  1.00  0.00     0.218 C 
HETATM   12  N5  UNL     1       7.269   7.363  21.185  1.00  0.00    -0.064 N 
ATOM     13  H51 UNL     1       7.404   7.544  22.180  1.00  0.00     0.278 HD
ATOM     14  H52 UNL     1       6.533   8.053  21.032  1.00  0.00     0.278 HD
HETATM   15  C16 UNL     1       8.467   7.603  20.382  1.00  0.00     0.291 C 
ENDROOT
BRANCH  11  16
HETATM   16  C8  UNL     1       6.265   5.316  22.073  1.00  0.00     0.305 C 
BRANCH  16  17
HETATM   17  N4  UNL     1       5.363   6.036  22.904  1.00  0.00     0.090 N 
HETATM   18  C9  UNL     1       5.516   5.421  24.256  1.00  0.00     0.310 C 
BRANCH  17  19
HETATM   19  C10 UNL     1       3.941   5.847  22.564  1.00  0.00     0.222 C 
HETATM   20  C11 UNL     1       3.791   4.386  22.213  1.00  0.00     0.036 C 
HETATM   21  C12 UNL     1       2.455   4.095  21.575  1.00  0.00     0.002 C 
HETATM   22  C13 UNL     1       2.453   4.817  20.262  1.00  0.00     0.000 C 
HETATM   23  C14 UNL     1       2.526   6.280  20.498  1.00  0.00     0.002 C 
HETATM   24  C15 UNL     1       3.473   6.777  21.516  1.00  0.00     0.036 C 
ENDBRANCH  17  19
ENDBRANCH  16  17
ENDBRANCH  11  16
BRANCH   5  25
HETATM   25  N2  UNL     1       9.522   8.049  15.754  1.00  0.00    -0.234 N 
ATOM     26  H22 UNL     1       9.173   8.546  14.935  1.00  0.00     0.174 HD
ATOM     27  H21 UNL     1      10.526   7.905  15.859  1.00  0.00     0.174 HD
ENDBRANCH   5  25
TORSDOF 4
ENDMDL
MODEL 2
REMARK VINA RESULT: -7.505975410      3.061      4.049
REMARK  4 active torsions:
REMARK  status: ('A' for Active; 'I' for Inactive)
REMARK    1  A    between atoms: C3_5  and  N2_6 
REMARK    2  A    between atoms: C7_14  and  C8_15 
REMARK    3  A    between atoms: C8_15  and  N4_16 
REMARK    4  A    between atoms: N4_16  and  C10_18 
ROOT
HETATM    1  C1  UNL     1       9.156   8.497  20.141  1.00  0.00     0.069 C 
HETATM    2  C2  UNL     1       9.849   8.101  21.402  1.00  0.00     0.031 A 
HETATM    3  N1  UNL     1      11.117   8.467  21.661  1.00  0.00    -0.196 N 
ATOM      4  H1  UNL     1      11.635   9.035  20.990  1.00  0.00     0.184 HD
HETATM    5  C3  UNL     1      11.700   8.077  22.814  1.00  0.00     0.676 A 
HETATM    6  N3  UNL     1      11.006   7.333  23.677  1.00  0.00    -0.194 N 
ATOM      7  H3  UNL     1      11.459   7.045  24.544  1.00  0.00     0.184 HD
HETATM    8  C4  UNL     1       9.717   6.936  23.456  1.00  0.00     0.060 A 
HETATM    9  C5  UNL     1       9.135   7.335  22.290  1.00  0.00    -0.009 A 
HETATM   10  C6  UNL     1       7.693   6.945  22.038  1.00  0.00     0.077 C 
HETATM   11  C7  UNL     1       7.401   5.782  22.897  1.00  0.00     0.218 C 
HETATM   12  N5  UNL     1       7.622   6.172  24.288  1.00  0.00    -0.064 N 
ATOM     13  H51 UNL     1       7.084   5.619  24.955  1.00  0.00     0.278 HD
ATOM     14  H52 UNL     1       7.219   7.079  24.524  1.00  0.00     0.278 HD
HETATM   15  C16 UNL     1       9.066   6.103  24.506  1.00  0.00     0.291 C 
ENDROOT
BRANCH  11  16
HETATM   16  C8  UNL     1       6.139   5.031  22.710  1.00  0.00     0.305 C 
BRANCH  16  17
HETATM   17  N4  UNL     1       5.060   5.264  23.607  1.00  0.00     0.090 N 
HETATM   18  C9  UNL     1       4.902   3.982  24.356  1.00  0.00     0.310 C 
BRANCH  17  19
HETATM   19  C10 UNL     1       3.758   5.477  22.949  1.00  0.00     0.222 C 
HETATM   20  C11 UNL     1       3.371   4.143  22.358  1.00  0.00     0.036 C 
HETATM   21  C12 UNL     1       2.199   4.263  21.415  1.00  0.00     0.002 C 
HETATM   22  C13 UNL     1       2.680   5.081  20.254  1.00  0.00     0.000 C 
HETATM   23  C14 UNL     1       3.024   6.448  20.717  1.00  0.00     0.002 C 
HETATM   24  C15 UNL     1       3.782   6.590  21.977  1.00  0.00     0.036 C 
ENDBRANCH  17  19
ENDBRANCH  16  17
ENDBRANCH  11  16
BRANCH   5  25
HETATM   25  N2  UNL     1      12.928   8.470  23.020  1.00  0.00    -0.234 N 
ATOM     26  H22 UNL     1      13.464   9.026  22.354  1.00  0.00     0.174 HD
ATOM     27  H21 UNL     1      13.364   8.189  23.899  1.00  0.00     0.174 HD
ENDBRANCH   5  25
TORSDOF 4
ENDMDL
MODEL 3
REMARK VINA RESULT: -7.449901054      3.403      6.218
REMARK  4 active torsions:
REMARK  status: ('A' for Active; 'I' for Inactive)
REMARK    1  A    between atoms: C3_5  and  N2_6 
REMARK    2  A    between atoms: C7_14  and  C8_15 
REMARK    3  A    between atoms: C8_15  and  N4_16 
REMARK    4  A    between atoms: N4_16  and  C10_18 
ROOT
HETATM    1  C1  UNL     1       3.302   3.790  23.339  1.00  0.00     0.069 C 
HETATM    2  C2  UNL     1       3.671   4.650  22.177  1.00  0.00     0.031 A 
HETATM    3  N1  UNL     1       2.796   4.934  21.197  1.00  0.00    -0.196 N 
ATOM      4  H1  UNL     1       1.846   4.564  21.233  1.00  0.00     0.184 HD
HETATM    5  C3  UNL     1       3.183   5.713  20.164  1.00  0.00     0.676 A 
HETATM    6  N3  UNL     1       4.431   6.185  20.135  1.00  0.00    -0.194 N 
ATOM      7  H3  UNL     1       4.709   6.772  19.348  1.00  0.00     0.184 HD
HETATM    8  C4  UNL     1       5.355   5.922  21.107  1.00  0.00     0.060 A 
HETATM    9  C5  UNL     1       4.955   5.136  22.146  1.00  0.00    -0.009 A 
HETATM   10  C6  UNL     1       5.946   4.862  23.259  1.00  0.00     0.077 C 
HETATM   11  C7  UNL     1       7.294   5.098  22.710  1.00  0.00     0.218 C 
HETATM   12  N5  UNL     1       7.365   6.484  22.249  1.00  0.00    -0.064 N 
ATOM     13  H51 UNL     1       8.313   6.860  22.238  1.00  0.00     0.278 HD
ATOM     14  H52 UNL     1       6.974   7.152  22.913  1.00  0.00     0.278 HD
HETATM   15  C16 UNL     1       6.712   6.513  20.941  1.00  0.00     0.291 C 
ENDROOT
BRANCH  11  16
HETATM   16  C8  UNL     1       8.485   4.697  23.490  1.00  0.00     0.305 C 
BRANCH  16  17
HETATM   17  N4  UNL     1       8.490   4.906  24.897  1.00  0.00     0.090 N 
HETATM   18  C9  UNL     1       9.591   5.888  25.133  1.00  0.00     0.310 C 
BRANCH  17  19
HETATM   19  C10 UNL     1       8.868   3.720  25.686  1.00  0.00     0.222 C 
HETATM   20  C11 UNL     1       7.572   3.085  26.125  1.00  0.00     0.036 C 
HETATM   21  C12 UNL     1       7.792   2.020  27.172  1.00  0.00     0.002 C 
HETATM   22  C13 UNL     1       8.312   2.731  28.386  1.00  0.00     0.000 C 
HETATM   23  C14 UNL     1       9.630   3.338  28.081  1.00  0.00     0.002 C 
HETATM   24  C15 UNL     1       9.796   4.039  26.792  1.00  0.00     0.036 C 
ENDBRANCH  17  19
ENDBRANCH  16  17
ENDBRANCH  11  16
BRANCH   5  25
HETATM   25  N2  UNL     1       2.290   5.967  19.246  1.00  0.00    -0.234 N 
ATOM     26  H22 UNL     1       1.307   6.151  19.447  1.00  0.00     0.174 HD
ATOM     27  H21 UNL     1       2.609   5.970  18.277  1.00  0.00     0.174 HD
ENDBRANCH   5  25
TORSDOF 4
ENDMDL
MODEL 4
REMARK VINA RESULT: -7.379285445      2.705      4.858
REMARK  4 active torsions:
REMARK  status: ('A' for Active; 'I' for Inactive)
REMARK    1  A    between atoms: C3_5  and  N2_6 
REMARK    2  A    between atoms: C7_14  and  C8_15 
REMARK    3  A    between atoms: C8_15  and  N4_16 
REMARK    4  A    between atoms: N4_16  and  C10_18 
ROOT
HETATM    1  C1  UNL     1       2.492   5.736  19.896  1.00  0.00     0.069 C 
HETATM    2  C2  UNL     1       3.875   5.886  19.356  1.00  0.00     0.031 A 
HETATM    3  N1  UNL     1       4.125   5.893  18.035  1.00  0.00    -0.196 N 
ATOM      4  H1  UNL     1       3.360   5.799  17.367  1.00  0.00     0.184 HD
HETATM    5  C3  UNL     1       5.396   6.025  17.600  1.00  0.00     0.676 A 
HETATM    6  N3  UNL     1       6.383   6.144  18.491  1.00  0.00    -0.194 N 
ATOM      7  H3  UNL     1       7.337   6.243  18.147  1.00  0.00     0.184 HD
HETATM    8  C4  UNL     1       6.176   6.141  19.842  1.00  0.00     0.060 A 
HETATM    9  C5  UNL     1       4.890   6.008  20.273  1.00  0.00    -0.009 A 
HETATM   10  C6  UNL     1       4.627   6.043  21.764  1.00  0.00     0.077 C 
HETATM   11  C7  UNL     1       5.895   5.704  22.438  1.00  0.00     0.218 C 
HETATM   12  N5  UNL     1       6.901   6.688  22.041  1.00  0.00    -0.064 N 
ATOM     13  H51 UNL     1       7.652   6.798  22.723  1.00  0.00     0.278 HD
ATOM     14  H52 UNL     1       6.563   7.649  22.072  1.00  0.00     0.278 HD
HETATM   15  C16 UNL     1       7.372   6.278  20.719  1.00  0.00     0.291 C 
ENDROOT
BRANCH  11  16
HETATM   16  C8  UNL     1       5.904   5.437  23.893  1.00  0.00     0.305 C 
BRANCH  16  17
HETATM   17  N4  UNL     1       6.318   4.157  24.356  1.00  0.00     0.090 N 
HETATM   18  C9  UNL     1       5.079   3.532  24.908  1.00  0.00     0.310 C 
BRANCH  17  19
HETATM   19  C10 UNL     1       7.257   4.196  25.491  1.00  0.00     0.222 C 
HETATM   20  C11 UNL     1       8.571   4.677  24.925  1.00  0.00     0.036 C 
HETATM   21  C12 UNL     1       9.704   4.504  25.906  1.00  0.00     0.002 C 
HETATM   22  C13 UNL     1       9.874   3.027  26.091  1.00  0.00     0.000 C 
HETATM   23  C14 UNL     1       8.653   2.459  26.714  1.00  0.00     0.002 C 
HETATM   24  C15 UNL     1       7.339   2.909  26.212  1.00  0.00     0.036 C 
ENDBRANCH  17  19
ENDBRANCH  16  17
ENDBRANCH  11  16
BRANCH   5  25
HETATM   25  N2  UNL     1       5.582   6.037  16.307  1.00  0.00    -0.234 N 
ATOM     26  H22 UNL     1       5.776   6.883  15.772  1.00  0.00     0.174 HD
ATOM     27  H21 UNL     1       5.517   5.143  15.820  1.00  0.00     0.174 HD
ENDBRANCH   5  25
TORSDOF 4
ENDMDL
MODEL 5
REMARK VINA RESULT: -7.232795891      3.594      6.294
REMARK  4 active torsions:
REMARK  status: ('A' for Active; 'I' for Inactive)
REMARK    1  A    between atoms: C3_5  and  N2_6 
REMARK    2  A    between atoms: C7_14  and  C8_15 
REMARK    3  A    between atoms: C8_15  and  N4_16 
REMARK    4  A    between atoms: N4_16  and  C10_18 
ROOT
HETATM    1  C1  UNL     1       7.097   2.978  25.996  1.00  0.00     0.069 C 
HETATM    2  C2  UNL     1       8.381   3.739  25.997  1.00  0.00     0.031 A 
HETATM    3  N1  UNL     1       9.307   3.568  26.957  1.00  0.00    -0.196 N 
ATOM      4  H1  UNL     1       9.148   2.901  27.711  1.00  0.00     0.184 HD
HETATM    5  C3  UNL     1      10.449   4.286  26.914  1.00  0.00     0.676 A 
HETATM    6  N3  UNL     1      10.638   5.155  25.919  1.00  0.00    -0.194 N 
ATOM      7  H3  UNL     1      11.505   5.691  25.900  1.00  0.00     0.184 HD
HETATM    8  C4  UNL     1       9.724   5.363  24.924  1.00  0.00     0.060 A 
HETATM    9  C5  UNL     1       8.575   4.633  24.973  1.00  0.00    -0.009 A 
HETATM   10  C6  UNL     1       7.563   4.813  23.860  1.00  0.00     0.077 C 
HETATM   11  C7  UNL     1       7.832   6.122  23.235  1.00  0.00     0.218 C 
HETATM   12  N5  UNL     1       9.203   6.114  22.726  1.00  0.00    -0.064 N 
ATOM     13  H51 UNL     1       9.353   6.764  21.955  1.00  0.00     0.278 HD
ATOM     14  H52 UNL     1       9.442   5.262  22.220  1.00  0.00     0.278 HD
HETATM   15  C16 UNL     1      10.066   6.369  23.879  1.00  0.00     0.291 C 
ENDROOT
BRANCH  11  16
HETATM   16  C8  UNL     1       6.868   6.682  22.262  1.00  0.00     0.305 C 
BRANCH  16  17
HETATM   17  N4  UNL     1       6.097   5.792  21.464  1.00  0.00     0.090 N 
HETATM   18  C9  UNL     1       6.446   6.143  20.055  1.00  0.00     0.310 C 
BRANCH  17  19
HETATM   19  C10 UNL     1       4.641   6.001  21.555  1.00  0.00     0.222 C 
HETATM   20  C11 UNL     1       4.101   4.824  22.330  1.00  0.00     0.036 C 
HETATM   21  C12 UNL     1       2.595   4.750  22.266  1.00  0.00     0.002 C 
HETATM   22  C13 UNL     1       2.252   4.468  20.835  1.00  0.00     0.000 C 
HETATM   23  C14 UNL     1       2.680   5.607  19.986  1.00  0.00     0.002 C 
HETATM   24  C15 UNL     1       4.008   6.204  20.235  1.00  0.00     0.036 C 
ENDBRANCH  17  19
ENDBRANCH  16  17
ENDBRANCH  11  16
BRANCH   5  25
HETATM   25  N2  UNL     1      11.320   4.073  27.864  1.00  0.00    -0.234 N 
ATOM     26  H22 UNL     1      11.064   3.862  28.829  1.00  0.00     0.174 HD
ATOM     27  H21 UNL     1      12.306   4.131  27.611  1.00  0.00     0.174 HD
ENDBRANCH   5  25
TORSDOF 4
ENDMDL
