MODEL 1
REMARK VINA RESULT: -7.531485023      0.000      0.000
REMARK  6 active torsions:
REMARK  status: ('A' for Active; 'I' for Inactive)
REMARK    1  A    between atoms: C3_6  and  C4_7 
REMARK    2  A    between atoms: C4_7  and  C5_8 
REMARK    3  A    between atoms: C5_8  and  O2_9 
REMARK    4  A    between atoms: N4_18  and  C8_20 
REMARK    5  A    between atoms: C8_20  and  C9_21 
REMARK    6  A    between atoms: C8_20  and  C14_26 
ROOT
HETATM    1  O1  UNL     1      -3.815   8.008  13.595  1.00  0.00    -0.264 OA
HETATM    2  C1  UNL     1      -4.874   7.665  14.233  1.00  0.00     0.290 A 
HETATM    3  N1  UNL     1      -4.969   6.402  14.684  1.00  0.00    -0.316 N 
ATOM      4  H1  UNL     1      -4.197   5.761  14.504  1.00  0.00     0.169 HD
HETATM    5  C2  UNL     1      -6.058   5.937  15.376  1.00  0.00     0.095 A 
HETATM    6  C3  UNL     1      -6.242   4.668  15.860  1.00  0.00     0.032 A 
HETATM    7  S1  UNL     1      -7.809   4.785  16.586  1.00  0.00    -0.015 SA
HETATM    8  N2  UNL     1      -8.179   6.383  16.271  1.00  0.00    -0.310 N 
ATOM      9  H2  UNL     1      -9.027   6.888  16.529  1.00  0.00     0.176 HD
HETATM   10  C6  UNL     1      -7.116   6.856  15.608  1.00  0.00     0.141 A 
HETATM   11  N3  UNL     1      -6.971   8.132  15.127  1.00  0.00    -0.322 N 
ATOM     12  H3  UNL     1      -7.727   8.797  15.291  1.00  0.00     0.169 HD
HETATM   13  C7  UNL     1      -5.895   8.553  14.457  1.00  0.00     0.172 A 
HETATM   14  N4  UNL     1      -5.759   9.752  14.008  1.00  0.00    -0.366 N 
ATOM     15  H4  UNL     1      -4.913  10.018  13.503  1.00  0.00     0.161 HD
ENDROOT
BRANCH  14  16
HETATM   16  C8  UNL     1      -6.853  10.756  14.231  1.00  0.00     0.091 C 
BRANCH  16  17
HETATM   17  C9  UNL     1      -7.074  10.677  15.700  1.00  0.00     0.009 C 
HETATM   18  C10 UNL     1      -8.600  10.739  15.905  1.00  0.00     0.007 C 
HETATM   19  C11 UNL     1      -8.888  11.612  17.060  1.00  0.00     0.000 C 
HETATM   20  C12 UNL     1      -7.585  11.847  17.734  1.00  0.00     0.000 C 
HETATM   21  C13 UNL     1      -6.636  11.858  16.517  1.00  0.00     0.007 C 
ENDBRANCH  16  17
BRANCH  16  22
HETATM   22  C14 UNL     1      -6.435  12.033  13.642  1.00  0.00     0.009 A 
HETATM   23  C15 UNL     1      -6.639  12.237  12.137  1.00  0.00     0.007 A 
HETATM   24  C16 UNL     1      -7.318  13.109  13.195  1.00  0.00     0.007 A 
ENDBRANCH  16  22
ENDBRANCH  14  16
BRANCH   6  25
HETATM   25  C4  UNL     1      -5.373   3.463  15.857  1.00  0.00     0.076 C 
BRANCH  25  26
HETATM   26  C5  UNL     1      -6.128   2.209  15.579  1.00  0.00     0.169 C 
BRANCH  26  27
HETATM   27  O2  UNL     1      -5.922   1.272  16.553  1.00  0.00    -0.401 OA
ATOM     28  H2  UNL     1      -6.150   0.400  16.253  1.00  0.00     0.209 HD
ENDBRANCH  26  27
ENDBRANCH  25  26
ENDBRANCH   6  25
TORSDOF 6
ENDMDL
MODEL 2
REMARK VINA RESULT: -7.143870153      0.770      2.852
REMARK  6 active torsions:
REMARK  status: ('A' for Active; 'I' for Inactive)
REMARK    1  A    between atoms: C3_6  and  C4_7 
REMARK    2  A    between atoms: C4_7  and  C5_8 
REMARK    3  A    between atoms: C5_8  and  O2_9 
REMARK    4  A    between atoms: N4_18  and  C8_20 
REMARK    5  A    between atoms: C8_20  and  C9_21 
REMARK    6  A    between atoms: C8_20  and  C14_26 
ROOT
HETATM    1  O1  UNL     1      -3.357   7.857  13.676  1.00  0.00    -0.264 OA
HETATM    2  C1  UNL     1      -4.464   7.603  14.271  1.00  0.00     0.290 A 
HETATM    3  N1  UNL     1      -4.699   6.344  14.680  1.00  0.00    -0.316 N 
ATOM      4  H1  UNL     1      -3.988   5.634  14.503  1.00  0.00     0.169 HD
HETATM    5  C2  UNL     1      -5.851   5.971  15.325  1.00  0.00     0.095 A 
HETATM    6  C3  UNL     1      -6.174   4.714  15.764  1.00  0.00     0.032 A 
HETATM    7  S1  UNL     1      -7.745   4.966  16.447  1.00  0.00    -0.015 SA
HETATM    8  N2  UNL     1      -7.945   6.601  16.170  1.00  0.00    -0.310 N 
ATOM      9  H2  UNL     1      -8.747   7.181  16.417  1.00  0.00     0.176 HD
HETATM   10  C6  UNL     1      -6.819   6.984  15.553  1.00  0.00     0.141 A 
HETATM   11  N3  UNL     1      -6.533   8.251  15.117  1.00  0.00    -0.322 N 
ATOM     12  H3  UNL     1      -7.225   8.984  15.278  1.00  0.00     0.169 HD
HETATM   13  C7  UNL     1      -5.400   8.581  14.492  1.00  0.00     0.172 A 
HETATM   14  N4  UNL     1      -5.131   9.773  14.084  1.00  0.00    -0.366 N 
ATOM     15  H4  UNL     1      -4.248   9.967  13.613  1.00  0.00     0.161 HD
ENDROOT
BRANCH  14  16
HETATM   16  C8  UNL     1      -6.128  10.875  14.305  1.00  0.00     0.091 C 
BRANCH  16  17
HETATM   17  C9  UNL     1      -6.600  11.169  12.926  1.00  0.00     0.009 C 
HETATM   18  C10 UNL     1      -5.454  10.748  11.984  1.00  0.00     0.007 C 
HETATM   19  C11 UNL     1      -5.310  11.768  10.926  1.00  0.00     0.000 C 
HETATM   20  C12 UNL     1      -6.509  12.638  11.028  1.00  0.00     0.000 C 
HETATM   21  C13 UNL     1      -6.747  12.617  12.553  1.00  0.00     0.007 C 
ENDBRANCH  16  17
BRANCH  16  22
HETATM   22  C14 UNL     1      -7.099  10.424  15.308  1.00  0.00     0.009 A 
HETATM   23  C15 UNL     1      -7.309  11.292  16.553  1.00  0.00     0.007 A 
HETATM   24  C16 UNL     1      -8.422  10.995  15.548  1.00  0.00     0.007 A 
ENDBRANCH  16  22
ENDBRANCH  14  16
BRANCH   6  25
HETATM   25  C4  UNL     1      -5.429   3.428  15.750  1.00  0.00     0.076 C 
BRANCH  25  26
HETATM   26  C5  UNL     1      -6.329   2.241  15.726  1.00  0.00     0.169 C 
BRANCH  26  27
HETATM   27  O2  UNL     1      -5.883   1.257  16.565  1.00  0.00    -0.401 OA
ATOM     28  H2  UNL     1      -6.400   0.465  16.480  1.00  0.00     0.209 HD
ENDBRANCH  26  27
ENDBRANCH  25  26
ENDBRANCH   6  25
TORSDOF 6
ENDMDL
MODEL 3
REMARK VINA RESULT: -6.105352898      3.424      7.373
REMARK  6 active torsions:
REMARK  status: ('A' for Active; 'I' for Inactive)
REMARK    1  A    between atoms: C3_6  and  C4_7 
REMARK    2  A    between atoms: C4_7  and  C5_8 
REMARK    3  A    between atoms: C5_8  and  O2_9 
REMARK    4  A    between atoms: N4_18  and  C8_20 
REMARK    5  A    between atoms: C8_20  and  C9_21 
REMARK    6  A    between atoms: C8_20  and  C14_26 
ROOT
HETATM    1  O1  UNL     1      -7.058   9.875  15.410  1.00  0.00    -0.264 OA
HETATM    2  C1  UNL     1      -6.337   9.647  14.374  1.00  0.00     0.290 A 
HETATM    3  N1  UNL     1      -6.245  10.603  13.433  1.00  0.00    -0.316 N 
ATOM      4  H1  UNL     1      -6.753  11.476  13.575  1.00  0.00     0.169 HD
HETATM    5  C2  UNL     1      -5.500  10.457  12.291  1.00  0.00     0.095 A 
HETATM    6  C3  UNL     1      -5.362  11.372  11.280  1.00  0.00     0.032 A 
HETATM    7  S1  UNL     1      -4.324  10.533  10.177  1.00  0.00    -0.015 SA
HETATM    8  N2  UNL     1      -4.098   9.095  10.997  1.00  0.00    -0.310 N 
ATOM      9  H2  UNL     1      -3.540   8.293  10.703  1.00  0.00     0.176 HD
HETATM   10  C6  UNL     1      -4.809   9.229  12.124  1.00  0.00     0.141 A 
HETATM   11  N3  UNL     1      -4.934   8.286  13.111  1.00  0.00    -0.322 N 
ATOM     12  H3  UNL     1      -4.438   7.401  12.997  1.00  0.00     0.169 HD
HETATM   13  C7  UNL     1      -5.667   8.460  14.213  1.00  0.00     0.172 A 
HETATM   14  N4  UNL     1      -5.783   7.574  15.141  1.00  0.00    -0.366 N 
ATOM     15  H4  UNL     1      -6.358   7.763  15.962  1.00  0.00     0.161 HD
ENDROOT
BRANCH  14  16
HETATM   16  C8  UNL     1      -5.068   6.261  15.005  1.00  0.00     0.091 C 
BRANCH  16  17
HETATM   17  C9  UNL     1      -3.735   6.553  15.596  1.00  0.00     0.009 C 
HETATM   18  C10 UNL     1      -2.899   7.189  14.468  1.00  0.00     0.007 C 
HETATM   19  C11 UNL     1      -1.531   6.635  14.520  1.00  0.00     0.000 C 
HETATM   20  C12 UNL     1      -1.432   5.906  15.810  1.00  0.00     0.000 C 
HETATM   21  C13 UNL     1      -2.874   5.374  15.947  1.00  0.00     0.007 C 
ENDBRANCH  16  17
BRANCH  16  22
HETATM   22  C14 UNL     1      -5.902   5.216  15.611  1.00  0.00     0.009 A 
HETATM   23  C15 UNL     1      -6.731   4.324  14.682  1.00  0.00     0.007 A 
HETATM   24  C16 UNL     1      -5.633   3.780  15.596  1.00  0.00     0.007 A 
ENDBRANCH  16  22
ENDBRANCH  14  16
BRANCH   6  25
HETATM   25  C4  UNL     1      -5.880  12.753  11.105  1.00  0.00     0.076 C 
BRANCH  25  26
HETATM   26  C5  UNL     1      -7.180  12.973  11.799  1.00  0.00     0.169 C 
BRANCH  26  27
HETATM   27  O2  UNL     1      -6.996  13.375  13.094  1.00  0.00    -0.401 OA
ATOM     28  H2  UNL     1      -7.783  13.768  13.452  1.00  0.00     0.209 HD
ENDBRANCH  26  27
ENDBRANCH  25  26
ENDBRANCH   6  25
TORSDOF 6
ENDMDL
MODEL 4
REMARK VINA RESULT: -5.911224878      3.232      6.871
REMARK  6 active torsions:
REMARK  status: ('A' for Active; 'I' for Inactive)
REMARK    1  A    between atoms: C3_6  and  C4_7 
REMARK    2  A    between atoms: C4_7  and  C5_8 
REMARK    3  A    between atoms: C5_8  and  O2_9 
REMARK    4  A    between atoms: N4_18  and  C8_20 
REMARK    5  A    between atoms: C8_20  and  C9_21 
REMARK    6  A    between atoms: C8_20  and  C14_26 
ROOT
HETATM    1  O1  UNL     1      -6.001  11.215  12.598  1.00  0.00    -0.264 OA
HETATM    2  C1  UNL     1      -6.399  10.834  13.756  1.00  0.00     0.290 A 
HETATM    3  N1  UNL     1      -7.030  11.724  14.543  1.00  0.00    -0.316 N 
ATOM      4  H1  UNL     1      -7.169  12.671  14.192  1.00  0.00     0.169 HD
HETATM    5  C2  UNL     1      -7.495  11.414  15.795  1.00  0.00     0.095 A 
HETATM    6  C3  UNL     1      -8.135  12.259  16.664  1.00  0.00     0.032 A 
HETATM    7  S1  UNL     1      -8.407  11.230  18.030  1.00  0.00    -0.015 SA
HETATM    8  N2  UNL     1      -7.729   9.805  17.484  1.00  0.00    -0.310 N 
ATOM      9  H2  UNL     1      -7.668   8.915  17.979  1.00  0.00     0.176 HD
HETATM   10  C6  UNL     1      -7.283  10.087  16.253  1.00  0.00     0.141 A 
HETATM   11  N3  UNL     1      -6.635   9.218  15.414  1.00  0.00    -0.322 N 
ATOM     12  H3  UNL     1      -6.480   8.262  15.737  1.00  0.00     0.169 HD
HETATM   13  C7  UNL     1      -6.195   9.551  14.198  1.00  0.00     0.172 A 
HETATM   14  N4  UNL     1      -5.588   8.733  13.410  1.00  0.00    -0.366 N 
ATOM     15  H4  UNL     1      -5.275   9.044  12.490  1.00  0.00     0.161 HD
ENDROOT
BRANCH  14  16
HETATM   16  C8  UNL     1      -5.344   7.320  13.854  1.00  0.00     0.091 C 
BRANCH  16  17
HETATM   17  C9  UNL     1      -4.093   7.440  14.650  1.00  0.00     0.009 C 
HETATM   18  C10 UNL     1      -2.997   7.877  13.658  1.00  0.00     0.007 C 
HETATM   19  C11 UNL     1      -1.761   7.125  13.955  1.00  0.00     0.000 C 
HETATM   20  C12 UNL     1      -1.986   6.465  15.266  1.00  0.00     0.000 C 
HETATM   21  C13 UNL     1      -3.498   6.166  15.177  1.00  0.00     0.007 C 
ENDBRANCH  16  17
BRANCH  16  22
HETATM   22  C14 UNL     1      -6.560   6.825  14.509  1.00  0.00     0.009 A 
HETATM   23  C15 UNL     1      -6.921   5.346  14.341  1.00  0.00     0.007 A 
HETATM   24  C16 UNL     1      -6.616   5.978  15.699  1.00  0.00     0.007 A 
ENDBRANCH  16  22
ENDBRANCH  14  16
BRANCH   6  25
HETATM   25  C4  UNL     1      -8.568  13.675  16.543  1.00  0.00     0.076 C 
BRANCH  25  26
HETATM   26  C5  UNL     1      -7.556  14.531  15.861  1.00  0.00     0.169 C 
BRANCH  26  27
HETATM   27  O2  UNL     1      -7.672  14.457  14.500  1.00  0.00    -0.401 OA
ATOM     28  H2  UNL     1      -8.477  14.025  14.242  1.00  0.00     0.209 HD
ENDBRANCH  26  27
ENDBRANCH  25  26
ENDBRANCH   6  25
TORSDOF 6
ENDMDL
MODEL 5
REMARK VINA RESULT: -5.621774146      3.144      6.803
REMARK  6 active torsions:
REMARK  status: ('A' for Active; 'I' for Inactive)
REMARK    1  A    between atoms: C3_6  and  C4_7 
REMARK    2  A    between atoms: C4_7  and  C5_8 
REMARK    3  A    between atoms: C5_8  and  O2_9 
REMARK    4  A    between atoms: N4_18  and  C8_20 
REMARK    5  A    between atoms: C8_20  and  C9_21 
REMARK    6  A    between atoms: C8_20  and  C14_26 
ROOT
HETATM    1  O1  UNL     1      -4.323   8.416  11.430  1.00  0.00    -0.264 OA
HETATM    2  C1  UNL     1      -4.921   8.976  12.417  1.00  0.00     0.290 A 
HETATM    3  N1  UNL     1      -5.514  10.167  12.216  1.00  0.00    -0.316 N 
ATOM      4  H1  UNL     1      -5.467  10.583  11.287  1.00  0.00     0.169 HD
HETATM    5  C2  UNL     1      -6.178  10.846  13.206  1.00  0.00     0.095 A 
HETATM    6  C3  UNL     1      -6.797  12.063  13.091  1.00  0.00     0.032 A 
HETATM    7  S1  UNL     1      -7.393  12.315  14.697  1.00  0.00    -0.015 SA
HETATM    8  N2  UNL     1      -6.862  10.920  15.447  1.00  0.00    -0.310 N 
ATOM      9  H2  UNL     1      -6.997  10.648  16.421  1.00  0.00     0.176 HD
HETATM   10  C6  UNL     1      -6.223  10.238  14.488  1.00  0.00     0.141 A 
HETATM   11  N3  UNL     1      -5.604   9.025  14.642  1.00  0.00    -0.322 N 
ATOM     12  H3  UNL     1      -5.633   8.582  15.561  1.00  0.00     0.169 HD
HETATM   13  C7  UNL     1      -4.965   8.389  13.656  1.00  0.00     0.172 A 
HETATM   14  N4  UNL     1      -4.385   7.248  13.801  1.00  0.00    -0.366 N 
ATOM     15  H4  UNL     1      -3.913   6.809  13.011  1.00  0.00     0.161 HD
ENDROOT
BRANCH  14  16
HETATM   16  C8  UNL     1      -4.409   6.570  15.140  1.00  0.00     0.091 C 
BRANCH  16  17
HETATM   17  C9  UNL     1      -5.580   5.660  15.025  1.00  0.00     0.009 C 
HETATM   18  C10 UNL     1      -6.725   6.340  15.803  1.00  0.00     0.007 C 
HETATM   19  C11 UNL     1      -7.447   5.312  16.578  1.00  0.00     0.000 C 
HETATM   20  C12 UNL     1      -6.963   4.001  16.075  1.00  0.00     0.000 C 
HETATM   21  C13 UNL     1      -5.495   4.347  15.749  1.00  0.00     0.007 C 
ENDBRANCH  16  17
BRANCH  16  22
HETATM   22  C14 UNL     1      -3.083   5.993  15.389  1.00  0.00     0.009 A 
HETATM   23  C15 UNL     1      -1.886   6.580  14.633  1.00  0.00     0.007 A 
HETATM   24  C16 UNL     1      -2.003   6.610  16.158  1.00  0.00     0.007 A 
ENDBRANCH  16  22
ENDBRANCH  14  16
BRANCH   6  25
HETATM   25  C4  UNL     1      -7.000  12.975  11.936  1.00  0.00     0.076 C 
BRANCH  25  26
HETATM   26  C5  UNL     1      -5.849  12.972  10.989  1.00  0.00     0.169 C 
BRANCH  26  27
HETATM   27  O2  UNL     1      -5.960  11.966  10.069  1.00  0.00    -0.401 OA
ATOM     28  H2  UNL     1      -6.773  12.026   9.582  1.00  0.00     0.209 HD
ENDBRANCH  26  27
ENDBRANCH  25  26
ENDBRANCH   6  25
TORSDOF 6
ENDMDL
