MODEL 1
REMARK VINA RESULT: -8.179182390      0.000      0.000
REMARK  7 active torsions:
REMARK  status: ('A' for Active; 'I' for Inactive)
REMARK    1  A    between atoms: C2_2  and  C3_3 
REMARK    2  A    between atoms: C3_3  and  C4_4 
REMARK    3  A    between atoms: C4_4  and  O1_5 
REMARK    4  A    between atoms: O1_5  and  C5_6 
REMARK    5  A    between atoms: C12_17  and  O4_18 
REMARK    6  A    between atoms: C12_17  and  C13_20 
REMARK    7  A    between atoms: C13_20  and  O5_21 
ROOT
HETATM    1  C5  UNL     1      -5.406  10.145  13.289  1.00  0.00     0.138 C 
HETATM    2  C6  UNL     1      -6.539   9.156  13.269  1.00  0.00     0.056 C 
HETATM    3  C7  UNL     1      -5.737   7.851  13.125  1.00  0.00     0.051 C 
HETATM    4  C8  UNL     1      -4.623   8.155  14.141  1.00  0.00     0.098 C 
HETATM    5  C9  UNL     1      -4.477   7.104  15.184  1.00  0.00     0.164 C 
HETATM    6  N1  UNL     1      -3.122   6.607  15.103  1.00  0.00    -0.334 N 
ATOM      7  H1  UNL     1      -2.662   5.987  15.769  1.00  0.00     0.164 HD
HETATM    8  C10 UNL     1      -2.554   7.144  13.920  1.00  0.00     0.361 C 
HETATM    9  O2  UNL     1      -1.540   6.801  13.262  1.00  0.00    -0.238 OA
HETATM   10  O3  UNL     1      -3.361   8.208  13.559  1.00  0.00    -0.290 OA
HETATM   11  C11 UNL     1      -5.128   9.486  14.649  1.00  0.00     0.090 C 
HETATM   12  C12 UNL     1      -6.585   9.254  14.766  1.00  0.00     0.103 C 
ENDROOT
BRANCH  12  13
HETATM   13  O4  UNL     1      -6.858   7.946  15.250  1.00  0.00    -0.386 OA
ATOM     14  H4  UNL     1      -7.294   8.051  16.087  1.00  0.00     0.210 HD
ENDBRANCH  12  13
BRANCH  12  15
HETATM   15  C13 UNL     1      -7.478  10.187  15.440  1.00  0.00     0.090 C 
HETATM   16  C14 UNL     1      -8.039   9.867  16.766  1.00  0.00     0.041 C 
HETATM   17  C15 UNL     1      -9.062  10.959  17.113  1.00  0.00     0.003 C 
HETATM   18  C16 UNL     1      -8.253  12.191  17.483  1.00  0.00     0.000 C 
HETATM   19  C17 UNL     1      -6.839  12.097  16.947  1.00  0.00     0.003 C 
HETATM   20  C18 UNL     1      -6.826  11.562  15.531  1.00  0.00     0.041 C 
BRANCH  15  21
HETATM   21  O5  UNL     1      -8.597  10.365  14.581  1.00  0.00    -0.387 OA
ATOM     22  H5  UNL     1      -8.577  11.272  14.298  1.00  0.00     0.210 HD
ENDBRANCH  15  21
ENDBRANCH  12  15
BRANCH   1  23
HETATM   23  O1  UNL     1      -4.500   9.822  12.285  1.00  0.00    -0.385 OA
BRANCH  23  24
HETATM   24  C4  UNL     1      -4.234  10.899  11.453  1.00  0.00     0.168 C 
BRANCH  24  25
HETATM   25  C3  UNL     1      -5.477  11.195  10.639  1.00  0.00     0.026 C 
BRANCH  25  26
HETATM   26  C2  UNL     1      -5.889  12.628  10.983  1.00  0.00    -0.002 C 
HETATM   27  C1  UNL     1      -6.846  12.663  12.136  1.00  0.00     0.005 C 
ENDBRANCH  25  26
ENDBRANCH  24  25
ENDBRANCH  23  24
ENDBRANCH   1  23
TORSDOF 7
ENDMDL
MODEL 2
REMARK VINA RESULT: -7.659183917      2.092      5.728
REMARK  7 active torsions:
REMARK  status: ('A' for Active; 'I' for Inactive)
REMARK    1  A    between atoms: C2_2  and  C3_3 
REMARK    2  A    between atoms: C3_3  and  C4_4 
REMARK    3  A    between atoms: C4_4  and  O1_5 
REMARK    4  A    between atoms: O1_5  and  C5_6 
REMARK    5  A    between atoms: C12_17  and  O4_18 
REMARK    6  A    between atoms: C12_17  and  C13_20 
REMARK    7  A    between atoms: C13_20  and  O5_21 
ROOT
HETATM    1  C5  UNL     1      -5.461   8.904  14.541  1.00  0.00     0.138 C 
HETATM    2  C6  UNL     1      -5.310   7.948  13.390  1.00  0.00     0.056 C 
HETATM    3  C7  UNL     1      -5.969   8.781  12.277  1.00  0.00     0.051 C 
HETATM    4  C8  UNL     1      -5.334  10.143  12.604  1.00  0.00     0.098 C 
HETATM    5  C9  UNL     1      -4.632  10.756  11.445  1.00  0.00     0.164 C 
HETATM    6  N1  UNL     1      -5.251  12.041  11.203  1.00  0.00    -0.334 N 
ATOM      7  H1  UNL     1      -4.911  12.769  10.575  1.00  0.00     0.164 HD
HETATM    8  C10 UNL     1      -6.419  12.095  12.004  1.00  0.00     0.361 C 
HETATM    9  O2  UNL     1      -7.427  12.843  11.944  1.00  0.00    -0.238 OA
HETATM   10  O3  UNL     1      -6.273  11.106  12.959  1.00  0.00    -0.290 OA
HETATM   11  C11 UNL     1      -4.430   9.711  13.736  1.00  0.00     0.090 C 
HETATM   12  C12 UNL     1      -3.893   8.423  13.245  1.00  0.00     0.103 C 
ENDROOT
BRANCH  12  13
HETATM   13  O4  UNL     1      -3.623   8.477  11.851  1.00  0.00    -0.386 OA
ATOM     14  H4  UNL     1      -3.250   9.333  11.680  1.00  0.00     0.210 HD
ENDBRANCH  12  13
BRANCH  12  15
HETATM   15  C13 UNL     1      -2.790   7.730  13.898  1.00  0.00     0.090 C 
HETATM   16  C14 UNL     1      -2.009   8.393  14.960  1.00  0.00     0.041 C 
HETATM   17  C15 UNL     1      -0.829   7.474  15.310  1.00  0.00     0.003 C 
HETATM   18  C16 UNL     1      -1.414   6.329  16.120  1.00  0.00     0.000 C 
HETATM   19  C17 UNL     1      -2.909   6.214  15.903  1.00  0.00     0.003 C 
HETATM   20  C18 UNL     1      -3.263   6.386  14.441  1.00  0.00     0.041 C 
BRANCH  15  21
HETATM   21  O5  UNL     1      -1.856   7.406  12.877  1.00  0.00    -0.387 OA
ATOM     22  H5  UNL     1      -0.998   7.408  13.286  1.00  0.00     0.210 HD
ENDBRANCH  15  21
ENDBRANCH  12  15
BRANCH   1  23
HETATM   23  O1  UNL     1      -6.749   9.427  14.535  1.00  0.00    -0.385 OA
BRANCH  23  24
HETATM   24  C4  UNL     1      -7.344   9.368  15.786  1.00  0.00     0.168 C 
BRANCH  24  25
HETATM   25  C3  UNL     1      -8.275  10.554  15.930  1.00  0.00     0.026 C 
BRANCH  25  26
HETATM   26  C2  UNL     1      -7.399  11.747  16.321  1.00  0.00    -0.002 C 
HETATM   27  C1  UNL     1      -7.264  11.865  17.809  1.00  0.00     0.005 C 
ENDBRANCH  25  26
ENDBRANCH  24  25
ENDBRANCH  23  24
ENDBRANCH   1  23
TORSDOF 7
ENDMDL
MODEL 3
REMARK VINA RESULT: -7.606961537      0.532      1.048
REMARK  7 active torsions:
REMARK  status: ('A' for Active; 'I' for Inactive)
REMARK    1  A    between atoms: C2_2  and  C3_3 
REMARK    2  A    between atoms: C3_3  and  C4_4 
REMARK    3  A    between atoms: C4_4  and  O1_5 
REMARK    4  A    between atoms: O1_5  and  C5_6 
REMARK    5  A    between atoms: C12_17  and  O4_18 
REMARK    6  A    between atoms: C12_17  and  C13_20 
REMARK    7  A    between atoms: C13_20  and  O5_21 
ROOT
HETATM    1  C5  UNL     1      -5.351  10.240  13.391  1.00  0.00     0.138 C 
HETATM    2  C6  UNL     1      -6.512   9.293  13.255  1.00  0.00     0.056 C 
HETATM    3  C7  UNL     1      -5.745   7.972  13.071  1.00  0.00     0.051 C 
HETATM    4  C8  UNL     1      -4.675   8.177  14.156  1.00  0.00     0.098 C 
HETATM    5  C9  UNL     1      -4.615   7.061  15.138  1.00  0.00     0.164 C 
HETATM    6  N1  UNL     1      -3.273   6.524  15.093  1.00  0.00    -0.334 N 
ATOM      7  H1  UNL     1      -2.867   5.851  15.742  1.00  0.00     0.164 HD
HETATM    8  C10 UNL     1      -2.630   7.111  13.975  1.00  0.00     0.361 C 
HETATM    9  O2  UNL     1      -1.595   6.774  13.347  1.00  0.00    -0.238 OA
HETATM   10  O3  UNL     1      -3.384   8.222  13.641  1.00  0.00    -0.290 OA
HETATM   11  C11 UNL     1      -5.164   9.491  14.720  1.00  0.00     0.090 C 
HETATM   12  C12 UNL     1      -6.631   9.302  14.751  1.00  0.00     0.103 C 
ENDROOT
BRANCH  12  13
HETATM   13  O4  UNL     1      -6.969   7.977  15.139  1.00  0.00    -0.386 OA
ATOM     14  H4  UNL     1      -7.507   8.052  15.919  1.00  0.00     0.210 HD
ENDBRANCH  12  13
BRANCH  12  15
HETATM   15  C13 UNL     1      -7.529  10.223  15.436  1.00  0.00     0.090 C 
HETATM   16  C14 UNL     1      -8.059   9.901  16.774  1.00  0.00     0.041 C 
HETATM   17  C15 UNL     1      -9.095  10.976  17.134  1.00  0.00     0.003 C 
HETATM   18  C16 UNL     1      -8.302  12.224  17.483  1.00  0.00     0.000 C 
HETATM   19  C17 UNL     1      -6.896  12.152  16.922  1.00  0.00     0.003 C 
HETATM   20  C18 UNL     1      -6.900  11.610  15.508  1.00  0.00     0.041 C 
BRANCH  15  21
HETATM   21  O5  UNL     1      -8.666  10.377  14.597  1.00  0.00    -0.387 OA
ATOM     22  H5  UNL     1      -8.445   9.971  13.767  1.00  0.00     0.210 HD
ENDBRANCH  15  21
ENDBRANCH  12  15
BRANCH   1  23
HETATM   23  O1  UNL     1      -4.406   9.947  12.414  1.00  0.00    -0.385 OA
BRANCH  23  24
HETATM   24  C4  UNL     1      -4.024  11.073  11.701  1.00  0.00     0.168 C 
BRANCH  24  25
HETATM   25  C3  UNL     1      -5.258  11.678  11.062  1.00  0.00     0.026 C 
BRANCH  25  26
HETATM   26  C2  UNL     1      -5.361  11.069   9.661  1.00  0.00    -0.002 C 
HETATM   27  C1  UNL     1      -4.091  10.375   9.269  1.00  0.00     0.005 C 
ENDBRANCH  25  26
ENDBRANCH  24  25
ENDBRANCH  23  24
ENDBRANCH   1  23
TORSDOF 7
ENDMDL
MODEL 4
REMARK VINA RESULT: -7.386639165      2.081      4.177
REMARK  7 active torsions:
REMARK  status: ('A' for Active; 'I' for Inactive)
REMARK    1  A    between atoms: C2_2  and  C3_3 
REMARK    2  A    between atoms: C3_3  and  C4_4 
REMARK    3  A    between atoms: C4_4  and  O1_5 
REMARK    4  A    between atoms: O1_5  and  C5_6 
REMARK    5  A    between atoms: C12_17  and  O4_18 
REMARK    6  A    between atoms: C12_17  and  C13_20 
REMARK    7  A    between atoms: C13_20  and  O5_21 
ROOT
HETATM    1  C5  UNL     1      -5.447   8.919  13.708  1.00  0.00     0.138 C 
HETATM    2  C6  UNL     1      -4.974  10.220  14.297  1.00  0.00     0.056 C 
HETATM    3  C7  UNL     1      -4.276  10.821  13.064  1.00  0.00     0.051 C 
HETATM    4  C8  UNL     1      -5.336  10.467  12.007  1.00  0.00     0.098 C 
HETATM    5  C9  UNL     1      -5.805  11.645  11.230  1.00  0.00     0.164 C 
HETATM    6  N1  UNL     1      -5.530  11.374   9.836  1.00  0.00    -0.334 N 
ATOM      7  H1  UNL     1      -5.858  11.916   9.037  1.00  0.00     0.164 HD
HETATM    8  C10 UNL     1      -4.718  10.213   9.793  1.00  0.00     0.361 C 
HETATM    9  O2  UNL     1      -3.989   9.749   8.880  1.00  0.00    -0.238 OA
HETATM   10  O3  UNL     1      -4.856   9.605  11.027  1.00  0.00    -0.290 OA
HETATM   11  C11 UNL     1      -6.376   9.854  12.917  1.00  0.00     0.090 C 
HETATM   12  C12 UNL     1      -6.358  10.763  14.085  1.00  0.00     0.103 C 
ENDROOT
BRANCH  12  13
HETATM   13  O4  UNL     1      -6.205  12.116  13.679  1.00  0.00    -0.386 OA
ATOM     14  H4  UNL     1      -7.033  12.547  13.855  1.00  0.00     0.210 HD
ENDBRANCH  12  13
BRANCH  12  15
HETATM   15  C13 UNL     1      -7.363  10.711  15.137  1.00  0.00     0.090 C 
HETATM   16  C14 UNL     1      -7.336   9.641  16.152  1.00  0.00     0.041 C 
HETATM   17  C15 UNL     1      -8.612   9.770  16.997  1.00  0.00     0.003 C 
HETATM   18  C16 UNL     1      -8.396  10.969  17.905  1.00  0.00     0.000 C 
HETATM   19  C17 UNL     1      -7.299  11.868  17.371  1.00  0.00     0.003 C 
HETATM   20  C18 UNL     1      -7.421  12.046  15.872  1.00  0.00     0.041 C 
BRANCH  15  21
HETATM   21  O5  UNL     1      -8.622  10.594  14.487  1.00  0.00    -0.387 OA
ATOM     22  H5  UNL     1      -9.212  11.190  14.934  1.00  0.00     0.210 HD
ENDBRANCH  15  21
ENDBRANCH  12  15
BRANCH   1  23
HETATM   23  O1  UNL     1      -4.417   8.352  12.967  1.00  0.00    -0.385 OA
BRANCH  23  24
HETATM   24  C4  UNL     1      -3.664   7.459  13.715  1.00  0.00     0.168 C 
BRANCH  24  25
HETATM   25  C3  UNL     1      -2.199   7.803  13.540  1.00  0.00     0.026 C 
BRANCH  25  26
HETATM   26  C2  UNL     1      -1.549   7.641  14.916  1.00  0.00    -0.002 C 
HETATM   27  C1  UNL     1      -1.776   6.267  15.473  1.00  0.00     0.005 C 
ENDBRANCH  25  26
ENDBRANCH  24  25
ENDBRANCH  23  24
ENDBRANCH   1  23
TORSDOF 7
ENDMDL
MODEL 5
REMARK VINA RESULT: -6.570086941      2.459      6.158
REMARK  7 active torsions:
REMARK  status: ('A' for Active; 'I' for Inactive)
REMARK    1  A    between atoms: C2_2  and  C3_3 
REMARK    2  A    between atoms: C3_3  and  C4_4 
REMARK    3  A    between atoms: C4_4  and  O1_5 
REMARK    4  A    between atoms: O1_5  and  C5_6 
REMARK    5  A    between atoms: C12_17  and  O4_18 
REMARK    6  A    between atoms: C12_17  and  C13_20 
REMARK    7  A    between atoms: C13_20  and  O5_21 
ROOT
HETATM    1  C5  UNL     1      -6.485   8.988  14.789  1.00  0.00     0.138 C 
HETATM    2  C6  UNL     1      -7.337   9.601  13.712  1.00  0.00     0.056 C 
HETATM    3  C7  UNL     1      -8.308  10.414  14.585  1.00  0.00     0.051 C 
HETATM    4  C8  UNL     1      -7.289  10.996  15.579  1.00  0.00     0.098 C 
HETATM    5  C9  UNL     1      -7.341  12.479  15.672  1.00  0.00     0.164 C 
HETATM    6  N1  UNL     1      -7.623  12.811  17.051  1.00  0.00    -0.334 N 
ATOM      7  H1  UNL     1      -7.581  13.739  17.472  1.00  0.00     0.164 HD
HETATM    8  C10 UNL     1      -7.968  11.602  17.705  1.00  0.00     0.361 C 
HETATM    9  O2  UNL     1      -8.560  11.393  18.794  1.00  0.00    -0.238 OA
HETATM   10  O3  UNL     1      -7.514  10.583  16.888  1.00  0.00    -0.290 OA
HETATM   11  C11 UNL     1      -6.023  10.444  14.963  1.00  0.00     0.090 C 
HETATM   12  C12 UNL     1      -6.262  10.630  13.515  1.00  0.00     0.103 C 
ENDROOT
BRANCH  12  13
HETATM   13  O4  UNL     1      -6.922  11.862  13.259  1.00  0.00    -0.386 OA
ATOM     14  H4  UNL     1      -7.548  11.695  12.565  1.00  0.00     0.210 HD
ENDBRANCH  12  13
BRANCH  12  15
HETATM   15  C13 UNL     1      -5.215  10.455  12.517  1.00  0.00     0.090 C 
HETATM   16  C14 UNL     1      -5.165   9.237  11.686  1.00  0.00     0.041 C 
HETATM   17  C15 UNL     1      -3.863   9.284  10.872  1.00  0.00     0.003 C 
HETATM   18  C16 UNL     1      -4.089  10.313   9.778  1.00  0.00     0.000 C 
HETATM   19  C17 UNL     1      -5.238  11.238  10.126  1.00  0.00     0.003 C 
HETATM   20  C18 UNL     1      -5.179  11.657  11.579  1.00  0.00     0.041 C 
BRANCH  15  21
HETATM   21  O5  UNL     1      -3.979  10.496  13.217  1.00  0.00    -0.387 OA
ATOM     22  H5  UNL     1      -4.109  11.076  13.958  1.00  0.00     0.210 HD
ENDBRANCH  15  21
ENDBRANCH  12  15
BRANCH   1  23
HETATM   23  O1  UNL     1      -7.305   8.508  15.803  1.00  0.00    -0.385 OA
BRANCH  23  24
HETATM   24  C4  UNL     1      -7.281   7.124  15.884  1.00  0.00     0.168 C 
BRANCH  24  25
HETATM   25  C3  UNL     1      -6.179   6.610  14.981  1.00  0.00     0.026 C 
BRANCH  25  26
HETATM   26  C2  UNL     1      -6.518   5.149  14.673  1.00  0.00    -0.002 C 
HETATM   27  C1  UNL     1      -5.988   4.227  15.729  1.00  0.00     0.005 C 
ENDBRANCH  25  26
ENDBRANCH  24  25
ENDBRANCH  23  24
ENDBRANCH   1  23
TORSDOF 7
ENDMDL
