MODEL 1
REMARK VINA RESULT: -7.625212628      0.000      0.000
REMARK  7 active torsions:
REMARK  status: ('A' for Active; 'I' for Inactive)
REMARK    1  A    between atoms: C3_3  and  C4_4 
REMARK    2  A    between atoms: N1_7  and  C7_8 
REMARK    3  A    between atoms: C7_8  and  C8_9 
REMARK    4  A    between atoms: C8_9  and  O1_10 
REMARK    5  A    between atoms: C11_16  and  O2_17 
REMARK    6  A    between atoms: O2_17  and  C12_18 
REMARK    7  A    between atoms: C18_26  and  N4_27 
ROOT
HETATM    1  C1  UNL     1      -5.594   4.637  15.795  1.00  0.00     0.054 C 
HETATM    2  C2  UNL     1      -6.100   5.989  15.599  1.00  0.00     0.009 A 
HETATM    3  C3  UNL     1      -5.310   7.050  15.198  1.00  0.00     0.047 A 
HETATM    4  N2  UNL     1      -5.905   8.289  15.173  1.00  0.00    -0.321 N 
ATOM      5  H2  UNL     1      -5.330   9.080  14.882  1.00  0.00     0.169 HD
HETATM    6  C11 UNL     1      -7.173   8.540  15.500  1.00  0.00     0.226 A 
HETATM    7  N3  UNL     1      -7.926   7.518  15.882  1.00  0.00    -0.308 N 
ATOM      8  H3  UNL     1      -8.901   7.673  16.140  1.00  0.00     0.171 HD
HETATM    9  C18 UNL     1      -7.418   6.294  15.931  1.00  0.00     0.110 A 
ENDROOT
BRANCH   3  10
HETATM   10  C4  UNL     1      -3.982   6.782  14.616  1.00  0.00    -0.049 C 
HETATM   11  C5  UNL     1      -3.529   7.627  13.469  1.00  0.00     0.056 C 
HETATM   12  C6  UNL     1      -2.109   8.178  13.672  1.00  0.00     0.126 C 
HETATM   13  N1  UNL     1      -1.430   7.562  14.717  1.00  0.00    -0.391 N 
HETATM   14  C9  UNL     1      -1.624   6.154  14.861  1.00  0.00     0.126 C 
HETATM   15  C10 UNL     1      -3.039   5.915  15.352  1.00  0.00     0.056 C 
BRANCH  13  16
HETATM   16  C7  UNL     1      -0.569   8.181  15.600  1.00  0.00     0.084 C 
BRANCH  16  17
HETATM   17  C8  UNL     1      -0.391   9.672  15.355  1.00  0.00     0.208 C 
BRANCH  17  18
HETATM   18  O1  UNL     1       0.907  10.082  15.692  1.00  0.00    -0.396 OA
ATOM     19  H1  UNL     1       0.914  10.994  15.960  1.00  0.00     0.209 HD
ENDBRANCH  17  18
ENDBRANCH  16  17
ENDBRANCH  13  16
ENDBRANCH   3  10
BRANCH   9  20
HETATM   20  N4  UNL     1      -8.155   5.314  16.309  1.00  0.00    -0.385 N 
ATOM     21  H42 UNL     1      -8.872   4.951  15.682  1.00  0.00     0.157 HD
ATOM     22  H41 UNL     1      -7.982   4.947  17.245  1.00  0.00     0.157 HD
ENDBRANCH   9  20
BRANCH   6  23
HETATM   23  O2  UNL     1      -7.725   9.794  15.441  1.00  0.00    -0.316 OA
BRANCH  23  24
HETATM   24  C12 UNL     1      -7.415  10.769  14.511  1.00  0.00     0.132 C 
HETATM   25  C13 UNL     1      -6.068  10.472  13.781  1.00  0.00     0.032 C 
HETATM   26  C14 UNL     1      -6.013  11.423  12.600  1.00  0.00     0.002 C 
HETATM   27  C15 UNL     1      -7.090  12.467  12.616  1.00  0.00     0.000 C 
HETATM   28  C16 UNL     1      -7.273  13.140  13.956  1.00  0.00     0.002 C 
HETATM   29  C17 UNL     1      -7.225  12.135  15.091  1.00  0.00     0.032 C 
ENDBRANCH  23  24
ENDBRANCH   6  23
TORSDOF 7
ENDMDL
MODEL 2
REMARK VINA RESULT: -7.467078630      1.188      1.884
REMARK  7 active torsions:
REMARK  status: ('A' for Active; 'I' for Inactive)
REMARK    1  A    between atoms: C3_3  and  C4_4 
REMARK    2  A    between atoms: N1_7  and  C7_8 
REMARK    3  A    between atoms: C7_8  and  C8_9 
REMARK    4  A    between atoms: C8_9  and  O1_10 
REMARK    5  A    between atoms: C11_16  and  O2_17 
REMARK    6  A    between atoms: O2_17  and  C12_18 
REMARK    7  A    between atoms: C18_26  and  N4_27 
ROOT
HETATM    1  C1  UNL     1      -5.354   4.884  15.912  1.00  0.00     0.054 C 
HETATM    2  C2  UNL     1      -5.986   6.149  15.562  1.00  0.00     0.009 A 
HETATM    3  C3  UNL     1      -5.303   7.219  15.016  1.00  0.00     0.047 A 
HETATM    4  N2  UNL     1      -6.011   8.386  14.851  1.00  0.00    -0.321 N 
ATOM      5  H2  UNL     1      -5.516   9.183  14.451  1.00  0.00     0.169 HD
HETATM    6  C11 UNL     1      -7.294   8.558  15.173  1.00  0.00     0.226 A 
HETATM    7  N3  UNL     1      -7.944   7.528  15.697  1.00  0.00    -0.308 N 
ATOM      8  H3  UNL     1      -8.926   7.625  15.955  1.00  0.00     0.171 HD
HETATM    9  C18 UNL     1      -7.322   6.372  15.885  1.00  0.00     0.110 A 
ENDROOT
BRANCH   3  10
HETATM   10  C4  UNL     1      -3.962   7.002  14.441  1.00  0.00    -0.049 C 
HETATM   11  C5  UNL     1      -3.493   7.934  13.370  1.00  0.00     0.056 C 
HETATM   12  C6  UNL     1      -2.081   8.475  13.640  1.00  0.00     0.126 C 
HETATM   13  N1  UNL     1      -1.418   7.786  14.649  1.00  0.00    -0.391 N 
HETATM   14  C9  UNL     1      -1.605   6.370  14.683  1.00  0.00     0.126 C 
HETATM   15  C10 UNL     1      -3.028   6.087  15.128  1.00  0.00     0.056 C 
BRANCH  13  16
HETATM   16  C7  UNL     1      -0.578   8.341  15.593  1.00  0.00     0.084 C 
BRANCH  16  17
HETATM   17  C8  UNL     1      -0.325   9.829  15.403  1.00  0.00     0.208 C 
BRANCH  17  18
HETATM   18  O1  UNL     1       0.991  10.162  15.756  1.00  0.00    -0.396 OA
ATOM     19  H1  UNL     1       1.086  11.102  15.859  1.00  0.00     0.209 HD
ENDBRANCH  17  18
ENDBRANCH  16  17
ENDBRANCH  13  16
ENDBRANCH   3  10
BRANCH   9  20
HETATM   20  N4  UNL     1      -7.961   5.384  16.398  1.00  0.00    -0.385 N 
ATOM     21  H42 UNL     1      -8.045   5.309  17.411  1.00  0.00     0.157 HD
ATOM     22  H41 UNL     1      -8.356   4.708  15.745  1.00  0.00     0.157 HD
ENDBRANCH   9  20
BRANCH   6  23
HETATM   23  O2  UNL     1      -7.960   9.740  14.973  1.00  0.00    -0.316 OA
BRANCH  23  24
HETATM   24  C12 UNL     1      -8.059  10.776  15.885  1.00  0.00     0.132 C 
HETATM   25  C13 UNL     1      -7.036  11.915  15.586  1.00  0.00     0.032 C 
HETATM   26  C14 UNL     1      -7.459  13.093  16.444  1.00  0.00     0.002 C 
HETATM   27  C15 UNL     1      -8.527  12.759  17.442  1.00  0.00     0.000 C 
HETATM   28  C16 UNL     1      -8.275  11.482  18.209  1.00  0.00     0.002 C 
HETATM   29  C17 UNL     1      -7.769  10.381  17.298  1.00  0.00     0.032 C 
ENDBRANCH  23  24
ENDBRANCH   6  23
TORSDOF 7
ENDMDL
MODEL 3
REMARK VINA RESULT: -7.186234499      2.510      6.916
REMARK  7 active torsions:
REMARK  status: ('A' for Active; 'I' for Inactive)
REMARK    1  A    between atoms: C3_3  and  C4_4 
REMARK    2  A    between atoms: N1_7  and  C7_8 
REMARK    3  A    between atoms: C7_8  and  C8_9 
REMARK    4  A    between atoms: C8_9  and  O1_10 
REMARK    5  A    between atoms: C11_16  and  O2_17 
REMARK    6  A    between atoms: O2_17  and  C12_18 
REMARK    7  A    between atoms: C18_26  and  N4_27 
ROOT
HETATM    1  C1  UNL     1      -6.697  12.049  12.076  1.00  0.00     0.054 C 
HETATM    2  C2  UNL     1      -5.725  10.976  12.238  1.00  0.00     0.009 A 
HETATM    3  C3  UNL     1      -5.723  10.102  13.309  1.00  0.00     0.047 A 
HETATM    4  N2  UNL     1      -4.671   9.220  13.385  1.00  0.00    -0.321 N 
ATOM      5  H2  UNL     1      -4.659   8.572  14.173  1.00  0.00     0.169 HD
HETATM    6  C11 UNL     1      -3.667   9.144  12.511  1.00  0.00     0.226 A 
HETATM    7  N3  UNL     1      -3.675   9.985  11.486  1.00  0.00    -0.308 N 
ATOM      8  H3  UNL     1      -2.921   9.955  10.798  1.00  0.00     0.171 HD
HETATM    9  C18 UNL     1      -4.658  10.864  11.350  1.00  0.00     0.110 A 
ENDROOT
BRANCH   3  10
HETATM   10  C4  UNL     1      -6.922  10.002  14.162  1.00  0.00    -0.049 C 
HETATM   11  C5  UNL     1      -7.158   8.725  14.902  1.00  0.00     0.056 C 
HETATM   12  C6  UNL     1      -7.473   8.958  16.387  1.00  0.00     0.126 C 
HETATM   13  N1  UNL     1      -7.756  10.287  16.682  1.00  0.00    -0.391 N 
HETATM   14  C9  UNL     1      -8.532  11.002  15.718  1.00  0.00     0.126 C 
HETATM   15  C10 UNL     1      -7.671  11.232  14.490  1.00  0.00     0.056 C 
BRANCH  13  16
HETATM   16  C7  UNL     1      -7.384  10.960  17.828  1.00  0.00     0.084 C 
BRANCH  16  17
HETATM   17  C8  UNL     1      -7.475  12.474  17.719  1.00  0.00     0.208 C 
BRANCH  17  18
HETATM   18  O1  UNL     1      -8.554  12.965  18.469  1.00  0.00    -0.396 OA
ATOM     19  H1  UNL     1      -9.284  13.191  17.904  1.00  0.00     0.209 HD
ENDBRANCH  17  18
ENDBRANCH  16  17
ENDBRANCH  13  16
ENDBRANCH   3  10
BRANCH   9  20
HETATM   20  N4  UNL     1      -4.650  11.676  10.356  1.00  0.00    -0.385 N 
ATOM     21  H42 UNL     1      -4.836  12.667  10.513  1.00  0.00     0.157 HD
ATOM     22  H41 UNL     1      -4.458  11.273   9.439  1.00  0.00     0.157 HD
ENDBRANCH   9  20
BRANCH   6  23
HETATM   23  O2  UNL     1      -2.648   8.232  12.623  1.00  0.00    -0.316 OA
BRANCH  23  24
HETATM   24  C12 UNL     1      -2.357   7.482  13.748  1.00  0.00     0.132 C 
HETATM   25  C13 UNL     1      -3.639   7.139  14.568  1.00  0.00     0.032 C 
HETATM   26  C14 UNL     1      -3.224   6.075  15.569  1.00  0.00     0.002 C 
HETATM   27  C15 UNL     1      -1.742   5.853  15.631  1.00  0.00     0.000 C 
HETATM   28  C16 UNL     1      -0.932   7.126  15.694  1.00  0.00     0.002 C 
HETATM   29  C17 UNL     1      -1.464   8.169  14.732  1.00  0.00     0.032 C 
ENDBRANCH  23  24
ENDBRANCH   6  23
TORSDOF 7
ENDMDL
MODEL 4
REMARK VINA RESULT: -6.917002063      2.797      7.062
REMARK  7 active torsions:
REMARK  status: ('A' for Active; 'I' for Inactive)
REMARK    1  A    between atoms: C3_3  and  C4_4 
REMARK    2  A    between atoms: N1_7  and  C7_8 
REMARK    3  A    between atoms: C7_8  and  C8_9 
REMARK    4  A    between atoms: C8_9  and  O1_10 
REMARK    5  A    between atoms: C11_16  and  O2_17 
REMARK    6  A    between atoms: O2_17  and  C12_18 
REMARK    7  A    between atoms: C18_26  and  N4_27 
ROOT
HETATM    1  C1  UNL     1      -6.011  12.645  11.104  1.00  0.00     0.054 C 
HETATM    2  C2  UNL     1      -5.602  11.331  11.581  1.00  0.00     0.009 A 
HETATM    3  C3  UNL     1      -5.924  10.838  12.832  1.00  0.00     0.047 A 
HETATM    4  N2  UNL     1      -5.365   9.633  13.186  1.00  0.00    -0.321 N 
ATOM      5  H2  UNL     1      -5.595   9.261  14.107  1.00  0.00     0.169 HD
HETATM    6  C11 UNL     1      -4.547   8.911  12.418  1.00  0.00     0.226 A 
HETATM    7  N3  UNL     1      -4.242   9.389  11.220  1.00  0.00    -0.308 N 
ATOM      8  H3  UNL     1      -3.618   8.862  10.607  1.00  0.00     0.171 HD
HETATM    9  C18 UNL     1      -4.744  10.547  10.814  1.00  0.00     0.110 A 
ENDROOT
BRANCH   3  10
HETATM   10  C4  UNL     1      -6.995  11.489  13.610  1.00  0.00    -0.049 C 
HETATM   11  C5  UNL     1      -8.162  10.658  14.038  1.00  0.00     0.056 C 
HETATM   12  C6  UNL     1      -8.487  10.830  15.530  1.00  0.00     0.126 C 
HETATM   13  N1  UNL     1      -7.837  11.914  16.108  1.00  0.00    -0.391 N 
HETATM   14  C9  UNL     1      -7.734  13.094  15.310  1.00  0.00     0.126 C 
HETATM   15  C10 UNL     1      -6.750  12.827  14.187  1.00  0.00     0.056 C 
BRANCH  13  16
HETATM   16  C7  UNL     1      -7.315  11.959  17.385  1.00  0.00     0.084 C 
BRANCH  16  17
HETATM   17  C8  UNL     1      -7.391  10.639  18.136  1.00  0.00     0.208 C 
BRANCH  17  18
HETATM   18  O1  UNL     1      -8.707  10.363  18.532  1.00  0.00    -0.396 OA
ATOM     19  H1  UNL     1      -8.756  10.224  19.471  1.00  0.00     0.209 HD
ENDBRANCH  17  18
ENDBRANCH  16  17
ENDBRANCH  13  16
ENDBRANCH   3  10
BRANCH   9  20
HETATM   20  N4  UNL     1      -4.436  11.001   9.654  1.00  0.00    -0.385 N 
ATOM     21  H42 UNL     1      -3.952  10.399   8.988  1.00  0.00     0.157 HD
ATOM     22  H41 UNL     1      -4.696  11.968   9.459  1.00  0.00     0.157 HD
ENDBRANCH   9  20
BRANCH   6  23
HETATM   23  O2  UNL     1      -4.029   7.704  12.812  1.00  0.00    -0.316 OA
BRANCH  23  24
HETATM   24  C12 UNL     1      -3.020   7.522  13.741  1.00  0.00     0.132 C 
HETATM   25  C13 UNL     1      -3.537   6.813  15.030  1.00  0.00     0.032 C 
HETATM   26  C14 UNL     1      -2.299   6.402  15.807  1.00  0.00     0.002 C 
HETATM   27  C15 UNL     1      -1.026   6.974  15.257  1.00  0.00     0.000 C 
HETATM   28  C16 UNL     1      -1.104   8.447  14.932  1.00  0.00     0.002 C 
HETATM   29  C17 UNL     1      -2.408   8.792  14.240  1.00  0.00     0.032 C 
ENDBRANCH  23  24
ENDBRANCH   6  23
TORSDOF 7
ENDMDL
MODEL 5
REMARK VINA RESULT: -6.810182034      1.152      1.931
REMARK  7 active torsions:
REMARK  status: ('A' for Active; 'I' for Inactive)
REMARK    1  A    between atoms: C3_3  and  C4_4 
REMARK    2  A    between atoms: N1_7  and  C7_8 
REMARK    3  A    between atoms: C7_8  and  C8_9 
REMARK    4  A    between atoms: C8_9  and  O1_10 
REMARK    5  A    between atoms: C11_16  and  O2_17 
REMARK    6  A    between atoms: O2_17  and  C12_18 
REMARK    7  A    between atoms: C18_26  and  N4_27 
ROOT
HETATM    1  C1  UNL     1      -5.458   4.690  15.747  1.00  0.00     0.054 C 
HETATM    2  C2  UNL     1      -5.986   6.013  15.446  1.00  0.00     0.009 A 
HETATM    3  C3  UNL     1      -5.202   7.071  15.023  1.00  0.00     0.047 A 
HETATM    4  N2  UNL     1      -5.825   8.290  14.895  1.00  0.00    -0.321 N 
ATOM      5  H2  UNL     1      -5.255   9.078  14.586  1.00  0.00     0.169 HD
HETATM    6  C11 UNL     1      -7.114   8.524  15.143  1.00  0.00     0.226 A 
HETATM    7  N3  UNL     1      -7.861   7.506  15.548  1.00  0.00    -0.308 N 
ATOM      8  H3  UNL     1      -8.851   7.649  15.747  1.00  0.00     0.171 HD
HETATM    9  C18 UNL     1      -7.326   6.301  15.695  1.00  0.00     0.110 A 
ENDROOT
BRANCH   3  10
HETATM   10  C4  UNL     1      -3.840   6.806  14.524  1.00  0.00    -0.049 C 
HETATM   11  C5  UNL     1      -3.329   7.633  13.389  1.00  0.00     0.056 C 
HETATM   12  C6  UNL     1      -1.929   8.203  13.663  1.00  0.00     0.126 C 
HETATM   13  N1  UNL     1      -1.306   7.614  14.757  1.00  0.00    -0.391 N 
HETATM   14  C9  UNL     1      -1.495   6.207  14.917  1.00  0.00     0.126 C 
HETATM   15  C10 UNL     1      -2.934   5.962  15.331  1.00  0.00     0.056 C 
BRANCH  13  16
HETATM   16  C7  UNL     1      -0.504   8.259  15.676  1.00  0.00     0.084 C 
BRANCH  16  17
HETATM   17  C8  UNL     1      -0.313   9.743  15.404  1.00  0.00     0.208 C 
BRANCH  17  18
HETATM   18  O1  UNL     1       0.988  10.149  15.735  1.00  0.00    -0.396 OA
ATOM     19  H1  UNL     1       1.368  10.670  15.036  1.00  0.00     0.209 HD
ENDBRANCH  17  18
ENDBRANCH  16  17
ENDBRANCH  13  16
ENDBRANCH   3  10
BRANCH   9  20
HETATM   20  N4  UNL     1      -8.058   5.325  16.093  1.00  0.00    -0.385 N 
ATOM     21  H42 UNL     1      -9.029   5.496  16.351  1.00  0.00     0.157 HD
ATOM     22  H41 UNL     1      -7.612   4.409  16.135  1.00  0.00     0.157 HD
ENDBRANCH   9  20
BRANCH   6  23
HETATM   23  O2  UNL     1      -7.692   9.758  14.984  1.00  0.00    -0.316 OA
BRANCH  23  24
HETATM   24  C12 UNL     1      -7.677  10.782  15.912  1.00  0.00     0.132 C 
HETATM   25  C13 UNL     1      -8.908  10.720  16.869  1.00  0.00     0.032 C 
HETATM   26  C14 UNL     1      -8.606  11.682  18.004  1.00  0.00     0.002 C 
HETATM   27  C15 UNL     1      -7.395  12.533  17.765  1.00  0.00     0.000 C 
HETATM   28  C16 UNL     1      -7.339  13.150  16.387  1.00  0.00     0.002 C 
HETATM   29  C17 UNL     1      -7.741  12.153  15.318  1.00  0.00     0.032 C 
ENDBRANCH  23  24
ENDBRANCH   6  23
TORSDOF 7
ENDMDL
