MODEL 1
REMARK VINA RESULT: -8.332326033      0.000      0.000
REMARK  7 active torsions:
REMARK  status: ('A' for Active; 'I' for Inactive)
REMARK    1  A    between atoms: N1_2  and  C2_5 
REMARK    2  A    between atoms: C2_5  and  C3_6 
REMARK    3  A    between atoms: C3_6  and  N2_7 
REMARK    4  A    between atoms: N2_7  and  C4_9 
REMARK    5  A    between atoms: C5_12  and  N4_13 
REMARK    6  A    between atoms: N4_13  and  C6_15 
REMARK    7  A    between atoms: N7_26  and  C13_27 
ROOT
HETATM    1  C4  UNL     1      -7.141   7.130  15.203  1.00  0.00     0.132 A 
HETATM    2  N3  UNL     1      -7.689   7.905  16.170  1.00  0.00    -0.176 N 
ATOM      3  H3  UNL     1      -8.246   7.463  16.902  1.00  0.00     0.186 HD
HETATM    4  C5  UNL     1      -7.521   9.240  16.194  1.00  0.00     0.681 A 
HETATM    5  N5  UNL     1      -6.788   9.823  15.231  1.00  0.00    -0.174 N 
ATOM      6  H5  UNL     1      -6.657  10.834  15.244  1.00  0.00     0.186 HD
HETATM    7  C10 UNL     1      -6.215   9.086  14.237  1.00  0.00     0.153 A 
HETATM    8  C11 UNL     1      -6.385   7.730  14.211  1.00  0.00     0.071 A 
HETATM    9  C12 UNL     1      -5.706   7.252  13.112  1.00  0.00     0.126 A 
HETATM   10  N6  UNL     1      -5.137   8.317  12.489  1.00  0.00    -0.307 N 
ATOM     11  H6  UNL     1      -4.568   8.287  11.643  1.00  0.00     0.186 HD
HETATM   12  N7  UNL     1      -5.453   9.400  13.177  1.00  0.00    -0.271 N 
ENDROOT
BRANCH   1  13
HETATM   13  N2  UNL     1      -7.262   5.855  15.130  1.00  0.00    -0.373 N 
ATOM     14  H2  UNL     1      -7.579   5.474  14.237  1.00  0.00     0.161 HD
BRANCH  13  15
HETATM   15  C3  UNL     1      -7.000   4.913  16.174  1.00  0.00     0.148 C 
BRANCH  15  16
HETATM   16  C2  UNL     1      -5.799   4.058  15.762  1.00  0.00     0.251 C 
BRANCH  16  17
HETATM   17  N1  UNL     1      -6.271   2.828  15.151  1.00  0.00    -0.077 N 
HETATM   18  C1  UNL     1      -6.020   1.756  16.084  1.00  0.00     0.267 C 
ATOM     19  H12 UNL     1      -5.863   2.659  14.231  1.00  0.00     0.276 HD
ATOM     20  H11 UNL     1      -7.246   2.879  14.856  1.00  0.00     0.276 HD
ENDBRANCH  16  17
ENDBRANCH  15  16
ENDBRANCH  13  15
ENDBRANCH   1  13
BRANCH   4  21
HETATM   21  N4  UNL     1      -8.072   9.914  17.146  1.00  0.00    -0.221 N 
ATOM     22  H4  UNL     1      -8.984   9.586  17.463  1.00  0.00     0.178 HD
BRANCH  21  23
HETATM   23  C6  UNL     1      -7.551  11.060  17.802  1.00  0.00     0.099 C 
HETATM   24  C7  UNL     1      -6.697  12.008  17.030  1.00  0.00     0.026 C 
HETATM   25  C8  UNL     1      -7.885  12.932  16.760  1.00  0.00     0.004 C 
HETATM   26  C9  UNL     1      -8.616  12.164  17.847  1.00  0.00     0.026 C 
ENDBRANCH  21  23
ENDBRANCH   4  21
BRANCH  12  27
HETATM   27  C13 UNL     1      -5.004  10.738  12.788  1.00  0.00     0.110 C 
HETATM   28  C14 UNL     1      -3.859  10.618  11.812  1.00  0.00     0.027 C 
HETATM   29  C15 UNL     1      -4.321  10.207  10.436  1.00  0.00     0.002 C 
HETATM   30  C16 UNL     1      -5.474  11.028   9.942  1.00  0.00     0.000 C 
HETATM   31  C17 UNL     1      -5.725  12.174  10.898  1.00  0.00     0.002 C 
HETATM   32  C18 UNL     1      -6.136  11.556  12.226  1.00  0.00     0.027 C 
ENDBRANCH  12  27
TORSDOF 7
ENDMDL
MODEL 2
REMARK VINA RESULT: -7.582409693      1.124      4.871
REMARK  7 active torsions:
REMARK  status: ('A' for Active; 'I' for Inactive)
REMARK    1  A    between atoms: N1_2  and  C2_5 
REMARK    2  A    between atoms: C2_5  and  C3_6 
REMARK    3  A    between atoms: C3_6  and  N2_7 
REMARK    4  A    between atoms: N2_7  and  C4_9 
REMARK    5  A    between atoms: C5_12  and  N4_13 
REMARK    6  A    between atoms: N4_13  and  C6_15 
REMARK    7  A    between atoms: N7_26  and  C13_27 
ROOT
HETATM    1  C4  UNL     1      -5.545   6.903  14.548  1.00  0.00     0.132 A 
HETATM    2  N3  UNL     1      -4.857   7.430  13.506  1.00  0.00    -0.176 N 
ATOM      3  H3  UNL     1      -4.157   6.857  13.033  1.00  0.00     0.186 HD
HETATM    4  C5  UNL     1      -5.069   8.687  13.075  1.00  0.00     0.681 A 
HETATM    5  N5  UNL     1      -5.991   9.443  13.696  1.00  0.00    -0.174 N 
ATOM      6  H5  UNL     1      -6.156  10.396  13.374  1.00  0.00     0.186 HD
HETATM    7  C10 UNL     1      -6.709   8.956  14.748  1.00  0.00     0.153 A 
HETATM    8  C11 UNL     1      -6.494   7.680  15.187  1.00  0.00     0.071 A 
HETATM    9  C12 UNL     1      -7.345   7.461  16.248  1.00  0.00     0.126 A 
HETATM   10  N6  UNL     1      -8.062   8.601  16.437  1.00  0.00    -0.307 N 
ATOM     11  H6  UNL     1      -8.776   8.751  17.150  1.00  0.00     0.186 HD
HETATM   12  N7  UNL     1      -7.666   9.478  15.532  1.00  0.00    -0.271 N 
ENDROOT
BRANCH   1  13
HETATM   13  N2  UNL     1      -5.388   5.712  15.000  1.00  0.00    -0.373 N 
ATOM     14  H2  UNL     1      -4.509   5.514  15.478  1.00  0.00     0.161 HD
BRANCH  13  15
HETATM   15  C3  UNL     1      -6.325   4.634  14.902  1.00  0.00     0.148 C 
BRANCH  15  16
HETATM   16  C2  UNL     1      -5.887   3.526  15.863  1.00  0.00     0.251 C 
BRANCH  16  17
HETATM   17  N1  UNL     1      -6.272   2.236  15.318  1.00  0.00    -0.077 N 
HETATM   18  C1  UNL     1      -6.187   1.271  16.387  1.00  0.00     0.267 C 
ATOM     19  H12 UNL     1      -5.724   1.971  14.498  1.00  0.00     0.276 HD
ATOM     20  H11 UNL     1      -7.187   2.251  14.867  1.00  0.00     0.276 HD
ENDBRANCH  16  17
ENDBRANCH  15  16
ENDBRANCH  13  15
ENDBRANCH   1  13
BRANCH   4  21
HETATM   21  N4  UNL     1      -4.379   9.122  12.077  1.00  0.00    -0.221 N 
ATOM     22  H4  UNL     1      -3.958   8.414  11.475  1.00  0.00     0.178 HD
BRANCH  21  23
HETATM   23  C6  UNL     1      -4.139  10.475  11.720  1.00  0.00     0.099 C 
HETATM   24  C7  UNL     1      -3.727  10.791  10.322  1.00  0.00     0.026 C 
HETATM   25  C8  UNL     1      -5.163  11.136   9.926  1.00  0.00     0.004 C 
HETATM   26  C9  UNL     1      -5.469  11.177  11.414  1.00  0.00     0.026 C 
ENDBRANCH  21  23
ENDBRANCH   4  21
BRANCH  12  27
HETATM   27  C13 UNL     1      -8.231  10.826  15.443  1.00  0.00     0.110 C 
HETATM   28  C14 UNL     1      -9.060  11.103  16.674  1.00  0.00     0.027 C 
HETATM   29  C15 UNL     1      -8.207  11.376  17.889  1.00  0.00     0.002 C 
HETATM   30  C16 UNL     1      -7.129  12.384  17.626  1.00  0.00     0.000 C 
HETATM   31  C17 UNL     1      -7.327  12.989  16.254  1.00  0.00     0.002 C 
HETATM   32  C18 UNL     1      -7.155  11.861  15.247  1.00  0.00     0.027 C 
ENDBRANCH  12  27
TORSDOF 7
ENDMDL
MODEL 3
REMARK VINA RESULT: -7.328665453      0.978      1.307
REMARK  7 active torsions:
REMARK  status: ('A' for Active; 'I' for Inactive)
REMARK    1  A    between atoms: N1_2  and  C2_5 
REMARK    2  A    between atoms: C2_5  and  C3_6 
REMARK    3  A    between atoms: C3_6  and  N2_7 
REMARK    4  A    between atoms: N2_7  and  C4_9 
REMARK    5  A    between atoms: C5_12  and  N4_13 
REMARK    6  A    between atoms: N4_13  and  C6_15 
REMARK    7  A    between atoms: N7_26  and  C13_27 
ROOT
HETATM    1  C4  UNL     1      -7.070   7.279  15.077  1.00  0.00     0.132 A 
HETATM    2  N3  UNL     1      -7.611   8.012  16.081  1.00  0.00    -0.176 N 
ATOM      3  H3  UNL     1      -8.130   7.535  16.818  1.00  0.00     0.186 HD
HETATM    4  C5  UNL     1      -7.482   9.351  16.134  1.00  0.00     0.681 A 
HETATM    5  N5  UNL     1      -6.797   9.980  15.164  1.00  0.00    -0.174 N 
ATOM      6  H5  UNL     1      -6.696  10.994  15.199  1.00  0.00     0.186 HD
HETATM    7  C10 UNL     1      -6.235   9.285  14.134  1.00  0.00     0.153 A 
HETATM    8  C11 UNL     1      -6.365   7.926  14.078  1.00  0.00     0.071 A 
HETATM    9  C12 UNL     1      -5.708   7.496  12.947  1.00  0.00     0.126 A 
HETATM   10  N6  UNL     1      -5.190   8.593  12.334  1.00  0.00    -0.307 N 
ATOM     11  H6  UNL     1      -4.648   8.601  11.470  1.00  0.00     0.186 HD
HETATM   12  N7  UNL     1      -5.516   9.648  13.059  1.00  0.00    -0.271 N 
ENDROOT
BRANCH   1  13
HETATM   13  N2  UNL     1      -7.156   6.002  14.975  1.00  0.00    -0.373 N 
ATOM     14  H2  UNL     1      -7.701   5.640  14.192  1.00  0.00     0.161 HD
BRANCH  13  15
HETATM   15  C3  UNL     1      -6.566   5.037  15.850  1.00  0.00     0.148 C 
BRANCH  15  16
HETATM   16  C2  UNL     1      -5.161   4.714  15.336  1.00  0.00     0.251 C 
BRANCH  16  17
HETATM   17  N1  UNL     1      -4.183   5.467  16.101  1.00  0.00    -0.077 N 
HETATM   18  C1  UNL     1      -3.390   6.226  15.164  1.00  0.00     0.267 C 
ATOM     19  H12 UNL     1      -3.619   4.879  16.715  1.00  0.00     0.276 HD
ATOM     20  H11 UNL     1      -4.606   6.048  16.825  1.00  0.00     0.276 HD
ENDBRANCH  16  17
ENDBRANCH  15  16
ENDBRANCH  13  15
ENDBRANCH   1  13
BRANCH   4  21
HETATM   21  N4  UNL     1      -8.021   9.983  17.120  1.00  0.00    -0.221 N 
ATOM     22  H4  UNL     1      -8.907   9.614  17.464  1.00  0.00     0.178 HD
BRANCH  21  23
HETATM   23  C6  UNL     1      -7.521  11.136  17.779  1.00  0.00     0.099 C 
HETATM   24  C7  UNL     1      -6.648  12.080  17.022  1.00  0.00     0.026 C 
HETATM   25  C8  UNL     1      -7.829  12.998  16.712  1.00  0.00     0.004 C 
HETATM   26  C9  UNL     1      -8.589  12.238  17.785  1.00  0.00     0.026 C 
ENDBRANCH  21  23
ENDBRANCH   4  21
BRANCH  12  27
HETATM   27  C13 UNL     1      -5.121  11.009  12.691  1.00  0.00     0.110 C 
HETATM   28  C14 UNL     1      -4.006  10.948  11.674  1.00  0.00     0.027 C 
HETATM   29  C15 UNL     1      -4.503  10.558  10.304  1.00  0.00     0.002 C 
HETATM   30  C16 UNL     1      -5.696  11.357   9.871  1.00  0.00     0.000 C 
HETATM   31  C17 UNL     1      -5.947  12.470  10.865  1.00  0.00     0.002 C 
HETATM   32  C18 UNL     1      -6.295  11.807  12.189  1.00  0.00     0.027 C 
ENDBRANCH  12  27
TORSDOF 7
ENDMDL
MODEL 4
REMARK VINA RESULT: -7.186806787      1.492      1.758
REMARK  7 active torsions:
REMARK  status: ('A' for Active; 'I' for Inactive)
REMARK    1  A    between atoms: N1_2  and  C2_5 
REMARK    2  A    between atoms: C2_5  and  C3_6 
REMARK    3  A    between atoms: C3_6  and  N2_7 
REMARK    4  A    between atoms: N2_7  and  C4_9 
REMARK    5  A    between atoms: C5_12  and  N4_13 
REMARK    6  A    between atoms: N4_13  and  C6_15 
REMARK    7  A    between atoms: N7_26  and  C13_27 
ROOT
HETATM    1  C4  UNL     1      -5.319   7.512  14.859  1.00  0.00     0.132 A 
HETATM    2  N3  UNL     1      -6.408   8.111  15.401  1.00  0.00    -0.176 N 
ATOM      3  H3  UNL     1      -6.946   7.611  16.109  1.00  0.00     0.186 HD
HETATM    4  C5  UNL     1      -6.799   9.344  15.033  1.00  0.00     0.681 A 
HETATM    5  N5  UNL     1      -6.089  10.004  14.102  1.00  0.00    -0.174 N 
ATOM      6  H5  UNL     1      -6.381  10.939  13.819  1.00  0.00     0.186 HD
HETATM    7  C10 UNL     1      -4.986   9.443  13.528  1.00  0.00     0.153 A 
HETATM    8  C11 UNL     1      -4.588   8.190  13.900  1.00  0.00     0.071 A 
HETATM    9  C12 UNL     1      -3.463   7.882  13.168  1.00  0.00     0.126 A 
HETATM   10  N6  UNL     1      -3.194   8.946  12.366  1.00  0.00    -0.307 N 
ATOM     11  H6  UNL     1      -2.421   9.022  11.704  1.00  0.00     0.186 HD
HETATM   12  N7  UNL     1      -4.114   9.865  12.597  1.00  0.00    -0.271 N 
ENDROOT
BRANCH   1  13
HETATM   13  N2  UNL     1      -4.896   6.341  15.171  1.00  0.00    -0.373 N 
ATOM     14  H2  UNL     1      -3.905   6.154  15.015  1.00  0.00     0.161 HD
BRANCH  13  15
HETATM   15  C3  UNL     1      -5.675   5.272  15.717  1.00  0.00     0.148 C 
BRANCH  15  16
HETATM   16  C2  UNL     1      -6.852   5.004  14.775  1.00  0.00     0.251 C 
BRANCH  16  17
HETATM   17  N1  UNL     1      -8.084   5.441  15.407  1.00  0.00    -0.077 N 
HETATM   18  C1  UNL     1      -7.923   5.275  16.832  1.00  0.00     0.267 C 
ATOM     19  H12 UNL     1      -8.910   4.965  15.042  1.00  0.00     0.276 HD
ATOM     20  H11 UNL     1      -8.351   6.390  15.145  1.00  0.00     0.276 HD
ENDBRANCH  16  17
ENDBRANCH  15  16
ENDBRANCH  13  15
ENDBRANCH   1  13
BRANCH   4  21
HETATM   21  N4  UNL     1      -7.843   9.852  15.592  1.00  0.00    -0.221 N 
ATOM     22  H4  UNL     1      -8.688   9.891  15.023  1.00  0.00     0.178 HD
BRANCH  21  23
HETATM   23  C6  UNL     1      -7.950  10.364  16.912  1.00  0.00     0.099 C 
HETATM   24  C7  UNL     1      -7.040  11.467  17.336  1.00  0.00     0.026 C 
HETATM   25  C8  UNL     1      -8.104  12.523  17.039  1.00  0.00     0.004 C 
HETATM   26  C9  UNL     1      -9.100  11.377  16.987  1.00  0.00     0.026 C 
ENDBRANCH  21  23
ENDBRANCH   4  21
BRANCH  12  27
HETATM   27  C13 UNL     1      -4.133  11.154  11.902  1.00  0.00     0.110 C 
HETATM   28  C14 UNL     1      -3.327  11.047  10.631  1.00  0.00     0.027 C 
HETATM   29  C15 UNL     1      -4.055  10.282   9.553  1.00  0.00     0.002 C 
HETATM   30  C16 UNL     1      -5.464  10.757   9.357  1.00  0.00     0.000 C 
HETATM   31  C17 UNL     1      -5.694  12.009  10.174  1.00  0.00     0.002 C 
HETATM   32  C18 UNL     1      -5.542  11.615  11.636  1.00  0.00     0.027 C 
ENDBRANCH  12  27
TORSDOF 7
ENDMDL
MODEL 5
REMARK VINA RESULT: -7.185771725      2.324      5.819
REMARK  7 active torsions:
REMARK  status: ('A' for Active; 'I' for Inactive)
REMARK    1  A    between atoms: N1_2  and  C2_5 
REMARK    2  A    between atoms: C2_5  and  C3_6 
REMARK    3  A    between atoms: C3_6  and  N2_7 
REMARK    4  A    between atoms: N2_7  and  C4_9 
REMARK    5  A    between atoms: C5_12  and  N4_13 
REMARK    6  A    between atoms: N4_13  and  C6_15 
REMARK    7  A    between atoms: N7_26  and  C13_27 
ROOT
HETATM    1  C4  UNL     1      -6.863  10.130  14.404  1.00  0.00     0.132 A 
HETATM    2  N3  UNL     1      -7.469   9.160  15.132  1.00  0.00    -0.176 N 
ATOM      3  H3  UNL     1      -8.388   9.344  15.533  1.00  0.00     0.186 HD
HETATM    4  C5  UNL     1      -6.893   7.961  15.339  1.00  0.00     0.681 A 
HETATM    5  N5  UNL     1      -5.682   7.718  14.810  1.00  0.00    -0.174 N 
ATOM      6  H5  UNL     1      -5.241   6.812  14.964  1.00  0.00     0.186 HD
HETATM    7  C10 UNL     1      -5.034   8.663  14.070  1.00  0.00     0.153 A 
HETATM    8  C11 UNL     1      -5.616   9.880  13.859  1.00  0.00     0.071 A 
HETATM    9  C12 UNL     1      -4.748  10.624  13.091  1.00  0.00     0.126 A 
HETATM   10  N6  UNL     1      -3.656   9.853  12.847  1.00  0.00    -0.307 N 
ATOM     11  H6  UNL     1      -2.835  10.124  12.305  1.00  0.00     0.186 HD
HETATM   12  N7  UNL     1      -3.848   8.688  13.440  1.00  0.00    -0.271 N 
ENDROOT
BRANCH   1  13
HETATM   13  N2  UNL     1      -7.363  11.289  14.170  1.00  0.00    -0.373 N 
ATOM     14  H2  UNL     1      -7.773  11.434  13.247  1.00  0.00     0.161 HD
BRANCH  13  15
HETATM   15  C3  UNL     1      -7.402  12.398  15.074  1.00  0.00     0.148 C 
BRANCH  15  16
HETATM   16  C2  UNL     1      -7.070  11.887  16.479  1.00  0.00     0.251 C 
BRANCH  16  17
HETATM   17  N1  UNL     1      -8.225  12.065  17.340  1.00  0.00    -0.077 N 
HETATM   18  C1  UNL     1      -8.495  10.795  17.970  1.00  0.00     0.267 C 
ATOM     19  H12 UNL     1      -9.034  12.446  16.849  1.00  0.00     0.276 HD
ATOM     20  H11 UNL     1      -8.108  12.824  18.012  1.00  0.00     0.276 HD
ENDBRANCH  16  17
ENDBRANCH  15  16
ENDBRANCH  13  15
ENDBRANCH   1  13
BRANCH   4  21
HETATM   21  N4  UNL     1      -7.529   7.085  16.040  1.00  0.00    -0.221 N 
ATOM     22  H4  UNL     1      -7.905   7.406  16.932  1.00  0.00     0.178 HD
BRANCH  21  23
HETATM   23  C6  UNL     1      -7.763   5.725  15.709  1.00  0.00     0.099 C 
HETATM   24  C7  UNL     1      -6.867   5.056  14.722  1.00  0.00     0.026 C 
HETATM   25  C8  UNL     1      -6.016   4.446  15.835  1.00  0.00     0.004 C 
HETATM   26  C9  UNL     1      -7.147   4.814  16.780  1.00  0.00     0.026 C 
ENDBRANCH  21  23
ENDBRANCH   4  21
BRANCH  12  27
HETATM   27  C13 UNL     1      -2.864   7.605  13.385  1.00  0.00     0.110 C 
HETATM   28  C14 UNL     1      -1.473   8.188  13.459  1.00  0.00     0.027 C 
HETATM   29  C15 UNL     1      -1.118   8.646  14.852  1.00  0.00     0.002 C 
HETATM   30  C16 UNL     1      -1.413   7.610  15.896  1.00  0.00     0.000 C 
HETATM   31  C17 UNL     1      -1.811   6.314  15.223  1.00  0.00     0.002 C 
HETATM   32  C18 UNL     1      -3.104   6.588  14.469  1.00  0.00     0.027 C 
ENDBRANCH  12  27
TORSDOF 7
ENDMDL
