MODEL 1
REMARK VINA RESULT: -4.672363899      0.000      0.000
REMARK  7 active torsions:
REMARK  status: ('A' for Active; 'I' for Inactive)
REMARK    1  A    between atoms: C2_2  and  C4_4 
REMARK    2  A    between atoms: C4_4  and  C5_5 
REMARK    3  A    between atoms: C5_5  and  C7_7 
REMARK    4  A    between atoms: C5_5  and  C19_26 
REMARK    5  A    between atoms: C7_7  and  C8_8 
REMARK    6  A    between atoms: C8_8  and  C9_9 
REMARK    7  A    between atoms: C11_13  and  O3_14 
ROOT
HETATM    1  C9  UNL     1     -12.167   2.906  20.376  1.00  0.00     0.099 C 
HETATM    2  C10 UNL     1     -12.886   1.689  19.837  1.00  0.00     0.050 C 
HETATM    3  O1  UNL     1     -11.659   3.653  19.305  1.00  0.00    -0.226 OA
HETATM    4  O2  UNL     1     -11.030   4.720  19.734  1.00  0.00    -0.197 OA
HETATM    5  C11 UNL     1     -11.811   5.650  20.371  1.00  0.00     0.229 C 
HETATM    6  C12 UNL     1     -12.860   6.261  19.487  1.00  0.00     0.074 C 
HETATM    7  C13 UNL     1     -14.159   5.545  19.467  1.00  0.00     0.006 C 
HETATM    8  C14 UNL     1     -14.189   4.166  19.975  1.00  0.00     0.010 C 
HETATM    9  C15 UNL     1     -13.176   3.792  21.034  1.00  0.00     0.065 C 
HETATM   10  C16 UNL     1     -12.548   5.059  21.556  1.00  0.00     0.191 A 
HETATM   11  C17 UNL     1     -13.547   6.006  22.173  1.00  0.00     0.073 A 
HETATM   12  C18 UNL     1     -12.757   5.969  23.472  1.00  0.00     0.236 A 
HETATM   13  N1  UNL     1     -11.881   5.025  22.806  1.00  0.00    -0.060 N 
ATOM     14  H11 UNL     1     -10.882   5.228  22.811  1.00  0.00     0.278 HD
ATOM     15  H12 UNL     1     -11.751   4.114  23.245  1.00  0.00     0.278 HD
ENDROOT
BRANCH   1  16
HETATM   16  C8  UNL     1     -11.068   2.416  21.281  1.00  0.00     0.042 C 
BRANCH  16  17
HETATM   17  C7  UNL     1     -10.771   0.953  20.965  1.00  0.00     0.023 C 
BRANCH  17  18
HETATM   18  C5  UNL     1     -10.027   0.336  22.166  1.00  0.00     0.045 C 
HETATM   19  C6  UNL     1     -10.381   1.339  23.300  1.00  0.00     0.027 C 
BRANCH  18  20
HETATM   20  C4  UNL     1      -8.576   0.426  22.049  1.00  0.00     0.024 C 
BRANCH  20  21
HETATM   21  C2  UNL     1      -7.685  -0.708  21.836  1.00  0.00    -0.021 C 
HETATM   22  C1  UNL     1      -7.068  -0.904  20.494  1.00  0.00     0.009 C 
HETATM   23  C3  UNL     1      -6.641  -0.924  22.916  1.00  0.00     0.009 C 
ENDBRANCH  20  21
ENDBRANCH  18  20
BRANCH  18  24
HETATM   24  C19 UNL     1     -10.637  -0.931  22.563  1.00  0.00     0.181 C 
HETATM   25  O4  UNL     1     -11.391  -1.574  21.748  1.00  0.00    -0.647 OA
HETATM   26  O5  UNL     1     -10.500  -1.571  23.785  1.00  0.00    -0.647 OA
ENDBRANCH  18  24
ENDBRANCH  17  18
ENDBRANCH  16  17
ENDBRANCH   1  16
BRANCH   5  27
HETATM   27  O3  UNL     1     -10.969   6.675  20.805  1.00  0.00    -0.361 OA
ATOM     28  H3  UNL     1     -11.518   7.415  21.035  1.00  0.00     0.213 HD
ENDBRANCH   5  27
TORSDOF 7
ENDMDL
MODEL 2
REMARK VINA RESULT: -4.421765946      2.228      6.773
REMARK  7 active torsions:
REMARK  status: ('A' for Active; 'I' for Inactive)
REMARK    1  A    between atoms: C2_2  and  C4_4 
REMARK    2  A    between atoms: C4_4  and  C5_5 
REMARK    3  A    between atoms: C5_5  and  C7_7 
REMARK    4  A    between atoms: C5_5  and  C19_26 
REMARK    5  A    between atoms: C7_7  and  C8_8 
REMARK    6  A    between atoms: C8_8  and  C9_9 
REMARK    7  A    between atoms: C11_13  and  O3_14 
ROOT
HETATM    1  C9  UNL     1     -11.201   1.839  22.814  1.00  0.00     0.099 C 
HETATM    2  C10 UNL     1     -11.655   2.337  24.168  1.00  0.00     0.050 C 
HETATM    3  O1  UNL     1      -9.898   1.333  22.920  1.00  0.00    -0.226 OA
HETATM    4  O2  UNL     1      -9.472   0.889  21.764  1.00  0.00    -0.197 OA
HETATM    5  C11 UNL     1     -10.146  -0.193  21.261  1.00  0.00     0.229 C 
HETATM    6  C12 UNL     1     -10.027  -1.425  22.112  1.00  0.00     0.074 C 
HETATM    7  C13 UNL     1     -11.070  -1.570  23.156  1.00  0.00     0.006 C 
HETATM    8  C14 UNL     1     -11.857  -0.379  23.509  1.00  0.00     0.010 C 
HETATM    9  C15 UNL     1     -12.051   0.670  22.436  1.00  0.00     0.065 C 
HETATM   10  C16 UNL     1     -11.630   0.078  21.115  1.00  0.00     0.191 A 
HETATM   11  C17 UNL     1     -12.428  -1.144  20.731  1.00  0.00     0.073 A 
HETATM   12  C18 UNL     1     -12.834  -0.453  19.438  1.00  0.00     0.236 A 
HETATM   13  N1  UNL     1     -12.081   0.689  19.919  1.00  0.00    -0.060 N 
ATOM     14  H11 UNL     1     -11.375   1.082  19.297  1.00  0.00     0.278 HD
ATOM     15  H12 UNL     1     -12.576   1.577  20.003  1.00  0.00     0.278 HD
ENDROOT
BRANCH   1  16
HETATM   16  C8  UNL     1     -11.266   3.004  21.861  1.00  0.00     0.042 C 
BRANCH  16  17
HETATM   17  C7  UNL     1     -11.664   4.261  22.629  1.00  0.00     0.023 C 
BRANCH  17  18
HETATM   18  C5  UNL     1     -11.906   5.396  21.616  1.00  0.00     0.045 C 
HETATM   19  C6  UNL     1     -10.683   5.234  20.669  1.00  0.00     0.027 C 
BRANCH  18  20
HETATM   20  C4  UNL     1     -11.738   6.726  22.193  1.00  0.00     0.024 C 
BRANCH  20  21
HETATM   21  C2  UNL     1     -12.803   7.506  22.811  1.00  0.00    -0.021 C 
HETATM   22  C1  UNL     1     -13.496   6.965  24.013  1.00  0.00     0.009 C 
HETATM   23  C3  UNL     1     -12.490   8.978  23.020  1.00  0.00     0.009 C 
ENDBRANCH  20  21
ENDBRANCH  18  20
BRANCH  18  24
HETATM   24  C19 UNL     1     -13.078   5.117  20.788  1.00  0.00     0.181 C 
HETATM   25  O4  UNL     1     -13.031   5.286  19.517  1.00  0.00    -0.647 OA
HETATM   26  O5  UNL     1     -14.313   4.666  21.224  1.00  0.00    -0.647 OA
ENDBRANCH  18  24
ENDBRANCH  17  18
ENDBRANCH  16  17
ENDBRANCH   1  16
BRANCH   5  27
HETATM   27  O3  UNL     1      -9.597  -0.484  20.012  1.00  0.00    -0.361 OA
ATOM     28  H3  UNL     1      -9.981  -1.300  19.715  1.00  0.00     0.213 HD
ENDBRANCH   5  27
TORSDOF 7
ENDMDL
MODEL 3
REMARK VINA RESULT: -4.147763272      2.033      6.732
REMARK  7 active torsions:
REMARK  status: ('A' for Active; 'I' for Inactive)
REMARK    1  A    between atoms: C2_2  and  C4_4 
REMARK    2  A    between atoms: C4_4  and  C5_5 
REMARK    3  A    between atoms: C5_5  and  C7_7 
REMARK    4  A    between atoms: C5_5  and  C19_26 
REMARK    5  A    between atoms: C7_7  and  C8_8 
REMARK    6  A    between atoms: C8_8  and  C9_9 
REMARK    7  A    between atoms: C11_13  and  O3_14 
ROOT
HETATM    1  C9  UNL     1     -12.034   1.826  21.161  1.00  0.00     0.099 C 
HETATM    2  C10 UNL     1     -13.076   2.117  20.104  1.00  0.00     0.050 C 
HETATM    3  O1  UNL     1     -12.675   1.430  22.343  1.00  0.00    -0.226 OA
HETATM    4  O2  UNL     1     -11.802   1.165  23.284  1.00  0.00    -0.197 OA
HETATM    5  C11 UNL     1     -10.981   0.094  23.044  1.00  0.00     0.229 C 
HETATM    6  C12 UNL     1     -11.713  -1.214  22.945  1.00  0.00     0.074 C 
HETATM    7  C13 UNL     1     -12.172  -1.574  21.581  1.00  0.00     0.006 C 
HETATM    8  C14 UNL     1     -12.217  -0.508  20.569  1.00  0.00     0.010 C 
HETATM    9  C15 UNL     1     -11.241   0.637  20.722  1.00  0.00     0.065 C 
HETATM   10  C16 UNL     1     -10.209   0.246  21.749  1.00  0.00     0.191 A 
HETATM   11  C17 UNL     1      -9.430  -0.988  21.366  1.00  0.00     0.073 A 
HETATM   12  C18 UNL     1      -8.141  -0.189  21.473  1.00  0.00     0.236 A 
HETATM   13  N1  UNL     1      -8.981   0.951  21.784  1.00  0.00    -0.060 N 
ATOM     14  H11 UNL     1      -8.765   1.477  22.631  1.00  0.00     0.278 HD
ATOM     15  H12 UNL     1      -8.894   1.775  21.189  1.00  0.00     0.278 HD
ENDROOT
BRANCH   1  16
HETATM   16  C8  UNL     1     -11.231   3.084  21.361  1.00  0.00     0.042 C 
BRANCH  16  17
HETATM   17  C7  UNL     1     -12.075   4.104  22.121  1.00  0.00     0.023 C 
BRANCH  17  18
HETATM   18  C5  UNL     1     -12.014   5.446  21.368  1.00  0.00     0.045 C 
HETATM   19  C6  UNL     1     -10.690   5.294  20.566  1.00  0.00     0.027 C 
BRANCH  18  20
HETATM   20  C4  UNL     1     -11.772   6.587  22.245  1.00  0.00     0.024 C 
BRANCH  20  21
HETATM   21  C2  UNL     1     -12.812   7.423  22.831  1.00  0.00    -0.021 C 
HETATM   22  C1  UNL     1     -13.646   6.877  23.937  1.00  0.00     0.009 C 
HETATM   23  C3  UNL     1     -12.390   8.844  23.160  1.00  0.00     0.009 C 
ENDBRANCH  20  21
ENDBRANCH  18  20
BRANCH  18  24
HETATM   24  C19 UNL     1     -13.071   5.529  20.361  1.00  0.00     0.181 C 
HETATM   25  O4  UNL     1     -12.784   5.795  19.139  1.00  0.00    -0.647 OA
HETATM   26  O5  UNL     1     -14.429   5.346  20.566  1.00  0.00    -0.647 OA
ENDBRANCH  18  24
ENDBRANCH  17  18
ENDBRANCH  16  17
ENDBRANCH   1  16
BRANCH   5  27
HETATM   27  O3  UNL     1     -10.090   0.003  24.113  1.00  0.00    -0.361 OA
ATOM     28  H3  UNL     1      -9.288  -0.385  23.783  1.00  0.00     0.213 HD
ENDBRANCH   5  27
TORSDOF 7
ENDMDL
MODEL 4
REMARK VINA RESULT: -3.967109465      2.313      6.366
REMARK  7 active torsions:
REMARK  status: ('A' for Active; 'I' for Inactive)
REMARK    1  A    between atoms: C2_2  and  C4_4 
REMARK    2  A    between atoms: C4_4  and  C5_5 
REMARK    3  A    between atoms: C5_5  and  C7_7 
REMARK    4  A    between atoms: C5_5  and  C19_26 
REMARK    5  A    between atoms: C7_7  and  C8_8 
REMARK    6  A    between atoms: C8_8  and  C9_9 
REMARK    7  A    between atoms: C11_13  and  O3_14 
ROOT
HETATM    1  C9  UNL     1     -13.103   2.151  19.410  1.00  0.00     0.099 C 
HETATM    2  C10 UNL     1     -13.838   2.477  18.129  1.00  0.00     0.050 C 
HETATM    3  O1  UNL     1     -13.987   2.260  20.491  1.00  0.00    -0.226 OA
HETATM    4  O2  UNL     1     -13.384   1.981  21.621  1.00  0.00    -0.197 OA
HETATM    5  C11 UNL     1     -12.948   0.688  21.754  1.00  0.00     0.229 C 
HETATM    6  C12 UNL     1     -14.057  -0.324  21.753  1.00  0.00     0.074 C 
HETATM    7  C13 UNL     1     -14.429  -0.847  20.416  1.00  0.00     0.006 C 
HETATM    8  C14 UNL     1     -13.980  -0.093  19.236  1.00  0.00     0.010 C 
HETATM    9  C15 UNL     1     -12.705   0.710  19.367  1.00  0.00     0.065 C 
HETATM   10  C16 UNL     1     -12.008   0.287  20.635  1.00  0.00     0.191 A 
HETATM   11  C17 UNL     1     -11.646  -1.178  20.653  1.00  0.00     0.073 A 
HETATM   12  C18 UNL     1     -10.189  -0.800  20.866  1.00  0.00     0.236 A 
HETATM   13  N1  UNL     1     -10.630   0.579  20.785  1.00  0.00    -0.060 N 
ATOM     14  H11 UNL     1     -10.362   1.203  21.546  1.00  0.00     0.278 HD
ATOM     15  H12 UNL     1     -10.195   1.171  20.078  1.00  0.00     0.278 HD
ENDROOT
BRANCH   1  16
HETATM   16  C8  UNL     1     -11.957   3.121  19.531  1.00  0.00     0.042 C 
BRANCH  16  17
HETATM   17  C7  UNL     1     -12.495   4.546  19.463  1.00  0.00     0.023 C 
BRANCH  17  18
HETATM   18  C5  UNL     1     -11.822   5.376  20.574  1.00  0.00     0.045 C 
HETATM   19  C6  UNL     1     -11.058   4.276  21.364  1.00  0.00     0.027 C 
BRANCH  18  20
HETATM   20  C4  UNL     1     -12.771   5.917  21.541  1.00  0.00     0.024 C 
BRANCH  20  21
HETATM   21  C2  UNL     1     -12.405   6.665  22.738  1.00  0.00    -0.021 C 
HETATM   22  C1  UNL     1     -12.554   8.147  22.742  1.00  0.00     0.009 C 
HETATM   23  C3  UNL     1     -12.929   6.094  24.043  1.00  0.00     0.009 C 
ENDBRANCH  20  21
ENDBRANCH  18  20
BRANCH  18  24
HETATM   24  C19 UNL     1     -10.787   6.247  20.021  1.00  0.00     0.181 C 
HETATM   25  O4  UNL     1      -9.548   5.925  20.116  1.00  0.00    -0.647 OA
HETATM   26  O5  UNL     1     -10.979   7.453  19.366  1.00  0.00    -0.647 OA
ENDBRANCH  18  24
ENDBRANCH  17  18
ENDBRANCH  16  17
ENDBRANCH   1  16
BRANCH   5  27
HETATM   27  O3  UNL     1     -12.286   0.595  22.979  1.00  0.00    -0.361 OA
ATOM     28  H3  UNL     1     -12.949   0.492  23.652  1.00  0.00     0.213 HD
ENDBRANCH   5  27
TORSDOF 7
ENDMDL
MODEL 5
REMARK VINA RESULT: -3.812285532      1.926      2.922
REMARK  7 active torsions:
REMARK  status: ('A' for Active; 'I' for Inactive)
REMARK    1  A    between atoms: C2_2  and  C4_4 
REMARK    2  A    between atoms: C4_4  and  C5_5 
REMARK    3  A    between atoms: C5_5  and  C7_7 
REMARK    4  A    between atoms: C5_5  and  C19_26 
REMARK    5  A    between atoms: C7_7  and  C8_8 
REMARK    6  A    between atoms: C8_8  and  C9_9 
REMARK    7  A    between atoms: C11_13  and  O3_14 
ROOT
HETATM    1  C9  UNL     1     -12.270   3.179  22.923  1.00  0.00     0.099 C 
HETATM    2  C10 UNL     1     -11.916   2.525  24.241  1.00  0.00     0.050 C 
HETATM    3  O1  UNL     1     -13.641   3.468  22.905  1.00  0.00    -0.226 OA
HETATM    4  O2  UNL     1     -13.984   4.039  21.777  1.00  0.00    -0.197 OA
HETATM    5  C11 UNL     1     -13.440   5.278  21.551  1.00  0.00     0.229 C 
HETATM    6  C12 UNL     1     -13.869   6.314  22.550  1.00  0.00     0.074 C 
HETATM    7  C13 UNL     1     -13.005   6.424  23.751  1.00  0.00     0.006 C 
HETATM    8  C14 UNL     1     -12.084   5.314  24.037  1.00  0.00     0.010 C 
HETATM    9  C15 UNL     1     -11.583   4.505  22.860  1.00  0.00     0.065 C 
HETATM   10  C16 UNL     1     -11.926   5.250  21.595  1.00  0.00     0.191 A 
HETATM   11  C17 UNL     1     -11.298   6.621  21.525  1.00  0.00     0.073 A 
HETATM   12  C18 UNL     1     -10.622   6.228  20.221  1.00  0.00     0.236 A 
HETATM   13  N1  UNL     1     -11.231   4.925  20.403  1.00  0.00    -0.060 N 
ATOM     14  H11 UNL     1     -11.776   4.548  19.629  1.00  0.00     0.278 HD
ATOM     15  H12 UNL     1     -10.610   4.116  20.427  1.00  0.00     0.278 HD
ENDROOT
BRANCH   1  16
HETATM   16  C8  UNL     1     -11.891   2.217  21.827  1.00  0.00     0.042 C 
BRANCH  16  17
HETATM   17  C7  UNL     1     -12.068   0.788  22.329  1.00  0.00     0.023 C 
BRANCH  17  18
HETATM   18  C5  UNL     1     -10.861  -0.047  21.859  1.00  0.00     0.045 C 
HETATM   19  C6  UNL     1     -10.711  -1.063  23.027  1.00  0.00     0.027 C 
BRANCH  18  20
HETATM   20  C4  UNL     1      -9.607   0.699  21.870  1.00  0.00     0.024 C 
BRANCH  20  21
HETATM   21  C2  UNL     1      -8.342   0.194  22.390  1.00  0.00    -0.021 C 
HETATM   22  C1  UNL     1      -8.320  -0.481  23.717  1.00  0.00     0.009 C 
HETATM   23  C3  UNL     1      -7.504  -0.595  21.400  1.00  0.00     0.009 C 
ENDBRANCH  20  21
ENDBRANCH  18  20
BRANCH  18  24
HETATM   24  C19 UNL     1     -11.206  -0.851  20.687  1.00  0.00     0.181 C 
HETATM   25  O4  UNL     1     -10.284  -1.377  19.967  1.00  0.00    -0.647 OA
HETATM   26  O5  UNL     1     -12.480  -1.137  20.223  1.00  0.00    -0.647 OA
ENDBRANCH  18  24
ENDBRANCH  17  18
ENDBRANCH  16  17
ENDBRANCH   1  16
BRANCH   5  27
HETATM   27  O3  UNL     1     -13.866   5.698  20.291  1.00  0.00    -0.361 OA
ATOM     28  H3  UNL     1     -14.014   6.635  20.339  1.00  0.00     0.213 HD
ENDBRANCH   5  27
TORSDOF 7
ENDMDL
