MODEL 1
REMARK VINA RESULT: -6.256871097      0.000      0.000
REMARK  9 active torsions:
REMARK  status: ('A' for Active; 'I' for Inactive)
REMARK    1  A    between atoms: C3_3  and  S1_4 
REMARK    2  A    between atoms: S1_4  and  C4_5 
REMARK    3  A    between atoms: C5_8  and  N2_9 
REMARK    4  A    between atoms: N2_9  and  C6_10 
REMARK    5  A    between atoms: N2_9  and  C8_12 
REMARK    6  A    between atoms: C13_17  and  C14_18 
REMARK    7  A    between atoms: C15_19  and  C17_21 
REMARK    8  A    between atoms: C18_22  and  N3_23 
REMARK    9  A    between atoms: C19_26  and  N4_27 
ROOT
HETATM    1  C1  UNL     1      -5.874  13.005  18.215  1.00  0.00     0.013 C 
HETATM    2  C2  UNL     1      -7.032  12.694  18.122  1.00  0.00    -0.107 C 
HETATM    3  C3  UNL     1      -8.455  12.279  18.000  1.00  0.00     0.175 C 
ENDROOT
BRANCH   3   4
HETATM    4  S1  UNL     1      -8.557  10.509  17.672  1.00  0.00    -0.082 SA
BRANCH   4   5
HETATM    5  C4  UNL     1      -7.733  10.169  16.126  1.00  0.00     0.148 A 
HETATM    6  N1  UNL     1      -7.012   9.068  15.906  1.00  0.00    -0.322 N 
HETATM    7  C5  UNL     1      -6.352   8.837  14.712  1.00  0.00     0.119 A 
ATOM      8  H1  UNL     1      -6.946   8.369  16.647  1.00  0.00     0.169 HD
HETATM    9  C13 UNL     1      -6.446   9.756  13.747  1.00  0.00     0.053 A 
HETATM   10  C19 UNL     1      -7.223  10.917  14.011  1.00  0.00     0.115 A 
HETATM   11  N5  UNL     1      -7.845  11.111  15.168  1.00  0.00    -0.322 N 
ATOM     12  H5  UNL     1      -8.395  11.955  15.328  1.00  0.00     0.169 HD
BRANCH   7  13
HETATM   13  N2  UNL     1      -5.636   7.628  14.622  1.00  0.00    -0.362 N 
BRANCH  13  14
HETATM   14  C6  UNL     1      -6.381   6.433  14.318  1.00  0.00     0.120 C 
HETATM   15  C7  UNL     1      -7.226   5.903  15.435  1.00  0.00     0.026 C 
ENDBRANCH  13  14
BRANCH  13  16
HETATM   16  C8  UNL     1      -4.212   7.512  14.841  1.00  0.00     0.086 C 
HETATM   17  C9  UNL     1      -3.758   6.177  15.331  1.00  0.00     0.025 C 
HETATM   18  C10 UNL     1      -2.232   6.399  15.300  1.00  0.00     0.002 C 
HETATM   19  C11 UNL     1      -2.037   7.061  13.966  1.00  0.00     0.002 C 
HETATM   20  C12 UNL     1      -3.351   7.786  13.665  1.00  0.00     0.025 C 
ENDBRANCH  13  16
ENDBRANCH   7  13
BRANCH   9  21
HETATM   21  C14 UNL     1      -5.800   9.711  12.462  1.00  0.00     0.035 C 
HETATM   22  C15 UNL     1      -4.776  10.265  11.931  1.00  0.00    -0.006 C 
HETATM   23  C16 UNL     1      -3.850  11.225  12.571  1.00  0.00     0.058 C 
BRANCH  22  24
HETATM   24  C17 UNL     1      -4.477   9.900  10.525  1.00  0.00    -0.049 C 
HETATM   25  C18 UNL     1      -4.215   9.582   9.394  1.00  0.00     0.008 C 
BRANCH  25  26
HETATM   26  N3  UNL     1      -3.883   9.195   8.094  1.00  0.00    -0.359 N 
ATOM     27  H32 UNL     1      -3.893  10.148   8.456  1.00  0.00     0.166 HD
ATOM     28  H31 UNL     1      -3.644   8.886   7.152  1.00  0.00     0.166 HD
ENDBRANCH  25  26
ENDBRANCH  22  24
ENDBRANCH   9  21
BRANCH  10  29
HETATM   29  N4  UNL     1      -7.320  11.794  13.087  1.00  0.00    -0.385 N 
ATOM     30  H42 UNL     1      -7.186  11.518  12.114  1.00  0.00     0.157 HD
ATOM     31  H41 UNL     1      -7.525  12.755  13.361  1.00  0.00     0.157 HD
ENDBRANCH  10  29
ENDBRANCH   4   5
ENDBRANCH   3   4
TORSDOF 9
ENDMDL
MODEL 2
REMARK VINA RESULT: -5.755444208      2.335      4.957
REMARK  9 active torsions:
REMARK  status: ('A' for Active; 'I' for Inactive)
REMARK    1  A    between atoms: C3_3  and  S1_4 
REMARK    2  A    between atoms: S1_4  and  C4_5 
REMARK    3  A    between atoms: C5_8  and  N2_9 
REMARK    4  A    between atoms: N2_9  and  C6_10 
REMARK    5  A    between atoms: N2_9  and  C8_12 
REMARK    6  A    between atoms: C13_17  and  C14_18 
REMARK    7  A    between atoms: C15_19  and  C17_21 
REMARK    8  A    between atoms: C18_22  and  N3_23 
REMARK    9  A    between atoms: C19_26  and  N4_27 
ROOT
HETATM    1  C1  UNL     1      -5.575  12.480  11.128  1.00  0.00     0.013 C 
HETATM    2  C2  UNL     1      -6.507  12.622  11.874  1.00  0.00    -0.107 C 
HETATM    3  C3  UNL     1      -7.641  12.789  12.822  1.00  0.00     0.175 C 
ENDROOT
BRANCH   3   4
HETATM    4  S1  UNL     1      -7.087  12.481  14.510  1.00  0.00    -0.082 SA
BRANCH   4   5
HETATM    5  C4  UNL     1      -6.722  10.742  14.679  1.00  0.00     0.148 A 
HETATM    6  N1  UNL     1      -5.786  10.116  13.963  1.00  0.00    -0.322 N 
HETATM    7  C5  UNL     1      -5.539   8.760  14.085  1.00  0.00     0.119 A 
ATOM      8  H1  UNL     1      -5.232  10.659  13.301  1.00  0.00     0.169 HD
HETATM    9  C13 UNL     1      -6.270   8.058  14.956  1.00  0.00     0.053 A 
HETATM   10  C19 UNL     1      -7.258   8.754  15.706  1.00  0.00     0.115 A 
HETATM   11  N5  UNL     1      -7.472  10.057  15.567  1.00  0.00    -0.322 N 
ATOM     12  H5  UNL     1      -8.187  10.529  16.119  1.00  0.00     0.169 HD
BRANCH   7  13
HETATM   13  N2  UNL     1      -4.518   8.239  13.269  1.00  0.00    -0.362 N 
BRANCH  13  14
HETATM   14  C6  UNL     1      -4.825   8.012  11.880  1.00  0.00     0.120 C 
HETATM   15  C7  UNL     1      -4.373   9.087  10.940  1.00  0.00     0.026 C 
ENDBRANCH  13  14
BRANCH  13  16
HETATM   16  C8  UNL     1      -3.197   7.897  13.745  1.00  0.00     0.086 C 
HETATM   17  C9  UNL     1      -2.470   9.004  14.434  1.00  0.00     0.025 C 
HETATM   18  C10 UNL     1      -1.219   8.234  14.904  1.00  0.00     0.002 C 
HETATM   19  C11 UNL     1      -1.814   6.972  15.458  1.00  0.00     0.002 C 
HETATM   20  C12 UNL     1      -3.125   6.760  14.696  1.00  0.00     0.025 C 
ENDBRANCH  13  16
ENDBRANCH   7  13
BRANCH   9  21
HETATM   21  C14 UNL     1      -6.187   6.641  15.190  1.00  0.00     0.035 C 
HETATM   22  C15 UNL     1      -6.487   5.584  14.534  1.00  0.00    -0.006 C 
HETATM   23  C16 UNL     1      -7.072   5.515  13.177  1.00  0.00     0.058 C 
BRANCH  22  24
HETATM   24  C17 UNL     1      -6.209   4.287  15.197  1.00  0.00    -0.049 C 
HETATM   25  C18 UNL     1      -6.009   3.224  15.726  1.00  0.00     0.008 C 
BRANCH  25  26
HETATM   26  N3  UNL     1      -5.813   1.983  16.334  1.00  0.00    -0.359 N 
ATOM     27  H32 UNL     1      -5.435   2.282  15.435  1.00  0.00     0.166 HD
ATOM     28  H31 UNL     1      -5.685   1.085  16.799  1.00  0.00     0.166 HD
ENDBRANCH  25  26
ENDBRANCH  22  24
ENDBRANCH   9  21
BRANCH  10  29
HETATM   29  N4  UNL     1      -7.952   8.086  16.544  1.00  0.00    -0.385 N 
ATOM     30  H42 UNL     1      -7.554   7.849  17.453  1.00  0.00     0.157 HD
ATOM     31  H41 UNL     1      -8.893   7.805  16.269  1.00  0.00     0.157 HD
ENDBRANCH  10  29
ENDBRANCH   4   5
ENDBRANCH   3   4
TORSDOF 9
ENDMDL
MODEL 3
REMARK VINA RESULT: -5.703915275      2.791      6.624
REMARK  9 active torsions:
REMARK  status: ('A' for Active; 'I' for Inactive)
REMARK    1  A    between atoms: C3_3  and  S1_4 
REMARK    2  A    between atoms: S1_4  and  C4_5 
REMARK    3  A    between atoms: C5_8  and  N2_9 
REMARK    4  A    between atoms: N2_9  and  C6_10 
REMARK    5  A    between atoms: N2_9  and  C8_12 
REMARK    6  A    between atoms: C13_17  and  C14_18 
REMARK    7  A    between atoms: C15_19  and  C17_21 
REMARK    8  A    between atoms: C18_22  and  N3_23 
REMARK    9  A    between atoms: C19_26  and  N4_27 
ROOT
HETATM    1  C1  UNL     1      -4.317   8.443   5.481  1.00  0.00     0.013 C 
HETATM    2  C2  UNL     1      -4.326   8.505   6.681  1.00  0.00    -0.107 C 
HETATM    3  C3  UNL     1      -4.328   8.612   8.165  1.00  0.00     0.175 C 
ENDROOT
BRANCH   3   4
HETATM    4  S1  UNL     1      -3.925  10.296   8.665  1.00  0.00    -0.082 SA
BRANCH   4   5
HETATM    5  C4  UNL     1      -4.492  10.541  10.340  1.00  0.00     0.148 A 
HETATM    6  N1  UNL     1      -4.217   9.699  11.338  1.00  0.00    -0.322 N 
HETATM    7  C5  UNL     1      -4.692   9.889  12.623  1.00  0.00     0.119 A 
ATOM      8  H1  UNL     1      -3.633   8.885  11.145  1.00  0.00     0.169 HD
HETATM    9  C13 UNL     1      -5.455  10.959  12.867  1.00  0.00     0.053 A 
HETATM   10  C19 UNL     1      -5.728  11.838  11.783  1.00  0.00     0.115 A 
HETATM   11  N5  UNL     1      -5.258  11.630  10.559  1.00  0.00    -0.322 N 
ATOM     12  H5  UNL     1      -5.470  12.278   9.802  1.00  0.00     0.169 HD
BRANCH   7  13
HETATM   13  N2  UNL     1      -4.315   8.921  13.574  1.00  0.00    -0.362 N 
BRANCH  13  14
HETATM   14  C6  UNL     1      -2.931   8.883  13.974  1.00  0.00     0.120 C 
HETATM   15  C7  UNL     1      -2.128   7.760  13.394  1.00  0.00     0.026 C 
ENDBRANCH  13  14
BRANCH  13  16
HETATM   16  C8  UNL     1      -5.222   7.954  14.148  1.00  0.00     0.086 C 
HETATM   17  C9  UNL     1      -5.916   7.077  13.159  1.00  0.00     0.025 C 
HETATM   18  C10 UNL     1      -6.647   6.126  14.129  1.00  0.00     0.002 C 
HETATM   19  C11 UNL     1      -5.571   5.804  15.126  1.00  0.00     0.002 C 
HETATM   20  C12 UNL     1      -4.629   7.010  15.126  1.00  0.00     0.025 C 
ENDBRANCH  13  16
ENDBRANCH   7  13
BRANCH   9  21
HETATM   21  C14 UNL     1      -6.071  11.298  14.122  1.00  0.00     0.035 C 
HETATM   22  C15 UNL     1      -6.955  10.771  14.882  1.00  0.00    -0.006 C 
HETATM   23  C16 UNL     1      -7.680   9.501  14.656  1.00  0.00     0.058 C 
BRANCH  22  24
HETATM   24  C17 UNL     1      -7.283  11.504  16.129  1.00  0.00    -0.049 C 
HETATM   25  C18 UNL     1      -7.562  12.120  17.124  1.00  0.00     0.008 C 
BRANCH  25  26
HETATM   26  N3  UNL     1      -7.893  12.863  18.259  1.00  0.00    -0.359 N 
ATOM     27  H32 UNL     1      -6.954  12.595  17.966  1.00  0.00     0.166 HD
ATOM     28  H31 UNL     1      -8.160  13.405  19.080  1.00  0.00     0.166 HD
ENDBRANCH  25  26
ENDBRANCH  22  24
ENDBRANCH   9  21
BRANCH  10  29
HETATM   29  N4  UNL     1      -6.451  12.866  12.015  1.00  0.00    -0.385 N 
ATOM     30  H42 UNL     1      -7.452  12.831  11.823  1.00  0.00     0.157 HD
ATOM     31  H41 UNL     1      -5.992  13.698  12.384  1.00  0.00     0.157 HD
ENDBRANCH  10  29
ENDBRANCH   4   5
ENDBRANCH   3   4
TORSDOF 9
ENDMDL
MODEL 4
REMARK VINA RESULT: -5.660147017      1.981      4.472
REMARK  9 active torsions:
REMARK  status: ('A' for Active; 'I' for Inactive)
REMARK    1  A    between atoms: C3_3  and  S1_4 
REMARK    2  A    between atoms: S1_4  and  C4_5 
REMARK    3  A    between atoms: C5_8  and  N2_9 
REMARK    4  A    between atoms: N2_9  and  C6_10 
REMARK    5  A    between atoms: N2_9  and  C8_12 
REMARK    6  A    between atoms: C13_17  and  C14_18 
REMARK    7  A    between atoms: C15_19  and  C17_21 
REMARK    8  A    between atoms: C18_22  and  N3_23 
REMARK    9  A    between atoms: C19_26  and  N4_27 
ROOT
HETATM    1  C1  UNL     1      -6.192  12.665  18.400  1.00  0.00     0.013 C 
HETATM    2  C2  UNL     1      -7.045  12.738  17.555  1.00  0.00    -0.107 C 
HETATM    3  C3  UNL     1      -8.078  12.819  16.489  1.00  0.00     0.175 C 
ENDROOT
BRANCH   3   4
HETATM    4  S1  UNL     1      -7.371  12.337  14.903  1.00  0.00    -0.082 SA
BRANCH   4   5
HETATM    5  C4  UNL     1      -6.946  10.605  14.974  1.00  0.00     0.148 A 
HETATM    6  N1  UNL     1      -6.015  10.046  14.198  1.00  0.00    -0.322 N 
HETATM    7  C5  UNL     1      -5.722   8.694  14.244  1.00  0.00     0.119 A 
ATOM      8  H1  UNL     1      -5.499  10.638  13.547  1.00  0.00     0.169 HD
HETATM    9  C13 UNL     1      -6.402   7.926  15.101  1.00  0.00     0.053 A 
HETATM   10  C19 UNL     1      -7.386   8.552  15.916  1.00  0.00     0.115 A 
HETATM   11  N5  UNL     1      -7.645   9.853  15.848  1.00  0.00    -0.322 N 
ATOM     12  H5  UNL     1      -8.356  10.273  16.445  1.00  0.00     0.169 HD
BRANCH   7  13
HETATM   13  N2  UNL     1      -4.712   8.247  13.372  1.00  0.00    -0.362 N 
BRANCH  13  14
HETATM   14  C6  UNL     1      -5.041   8.132  11.974  1.00  0.00     0.120 C 
HETATM   15  C7  UNL     1      -4.666   9.311  11.129  1.00  0.00     0.026 C 
ENDBRANCH  13  14
BRANCH  13  16
HETATM   16  C8  UNL     1      -3.382   7.875  13.797  1.00  0.00     0.086 C 
HETATM   17  C9  UNL     1      -2.581   8.982  14.398  1.00  0.00     0.025 C 
HETATM   18  C10 UNL     1      -1.336   8.185  14.840  1.00  0.00     0.002 C 
HETATM   19  C11 UNL     1      -1.948   6.971  15.479  1.00  0.00     0.002 C 
HETATM   20  C12 UNL     1      -3.303   6.778  14.793  1.00  0.00     0.025 C 
ENDBRANCH  13  16
ENDBRANCH   7  13
BRANCH   9  21
HETATM   21  C14 UNL     1      -6.268   6.503  15.261  1.00  0.00     0.035 C 
HETATM   22  C15 UNL     1      -6.502   5.473  14.540  1.00  0.00    -0.006 C 
HETATM   23  C16 UNL     1      -7.042   5.455  13.162  1.00  0.00     0.058 C 
BRANCH  22  24
HETATM   24  C17 UNL     1      -6.191   4.154  15.141  1.00  0.00    -0.049 C 
HETATM   25  C18 UNL     1      -5.968   3.075  15.626  1.00  0.00     0.008 C 
BRANCH  25  26
HETATM   26  N3  UNL     1      -5.744   1.817  16.190  1.00  0.00    -0.359 N 
ATOM     27  H32 UNL     1      -6.525   2.079  15.588  1.00  0.00     0.166 HD
ATOM     28  H31 UNL     1      -5.559   0.908  16.613  1.00  0.00     0.166 HD
ENDBRANCH  25  26
ENDBRANCH  22  24
ENDBRANCH   9  21
BRANCH  10  29
HETATM   29  N4  UNL     1      -8.031   7.822  16.741  1.00  0.00    -0.385 N 
ATOM     30  H42 UNL     1      -7.738   6.857  16.897  1.00  0.00     0.157 HD
ATOM     31  H41 UNL     1      -8.833   8.234  17.218  1.00  0.00     0.157 HD
ENDBRANCH  10  29
ENDBRANCH   4   5
ENDBRANCH   3   4
TORSDOF 9
ENDMDL
MODEL 5
REMARK VINA RESULT: -5.487741367      1.314      1.768
REMARK  9 active torsions:
REMARK  status: ('A' for Active; 'I' for Inactive)
REMARK    1  A    between atoms: C3_3  and  S1_4 
REMARK    2  A    between atoms: S1_4  and  C4_5 
REMARK    3  A    between atoms: C5_8  and  N2_9 
REMARK    4  A    between atoms: N2_9  and  C6_10 
REMARK    5  A    between atoms: N2_9  and  C8_12 
REMARK    6  A    between atoms: C13_17  and  C14_18 
REMARK    7  A    between atoms: C15_19  and  C17_21 
REMARK    8  A    between atoms: C18_22  and  N3_23 
REMARK    9  A    between atoms: C19_26  and  N4_27 
ROOT
HETATM    1  C1  UNL     1      -9.483  10.212  18.527  1.00  0.00     0.013 C 
HETATM    2  C2  UNL     1      -8.496  10.805  18.183  1.00  0.00    -0.107 C 
HETATM    3  C3  UNL     1      -7.290  11.551  17.733  1.00  0.00     0.175 C 
ENDROOT
BRANCH   3   4
HETATM    4  S1  UNL     1      -7.684  12.549  16.284  1.00  0.00    -0.082 SA
BRANCH   4   5
HETATM    5  C4  UNL     1      -7.021  11.737  14.839  1.00  0.00     0.148 A 
HETATM    6  N1  UNL     1      -6.495  10.511  14.864  1.00  0.00    -0.322 N 
HETATM    7  C5  UNL     1      -5.956   9.910  13.740  1.00  0.00     0.119 A 
ATOM      8  H1  UNL     1      -6.491   9.997  15.745  1.00  0.00     0.169 HD
HETATM    9  C13 UNL     1      -5.967  10.590  12.589  1.00  0.00     0.053 A 
HETATM   10  C19 UNL     1      -6.537  11.893  12.596  1.00  0.00     0.115 A 
HETATM   11  N5  UNL     1      -7.047  12.444  13.691  1.00  0.00    -0.322 N 
ATOM     12  H5  UNL     1      -7.449  13.380  13.664  1.00  0.00     0.169 HD
BRANCH   7  13
HETATM   13  N2  UNL     1      -5.443   8.612  13.915  1.00  0.00    -0.362 N 
BRANCH  13  14
HETATM   14  C6  UNL     1      -6.363   7.509  13.796  1.00  0.00     0.120 C 
HETATM   15  C7  UNL     1      -7.014   7.078  15.074  1.00  0.00     0.026 C 
ENDBRANCH  13  14
BRANCH  13  16
HETATM   16  C8  UNL     1      -4.062   8.322  14.232  1.00  0.00     0.086 C 
HETATM   17  C9  UNL     1      -3.837   7.022  14.931  1.00  0.00     0.025 C 
HETATM   18  C10 UNL     1      -2.294   7.012  14.958  1.00  0.00     0.002 C 
HETATM   19  C11 UNL     1      -1.951   7.433  13.558  1.00  0.00     0.002 C 
HETATM   20  C12 UNL     1      -3.126   8.290  13.081  1.00  0.00     0.025 C 
ENDBRANCH  13  16
ENDBRANCH   7  13
BRANCH   9  21
HETATM   21  C14 UNL     1      -5.419  10.151  11.334  1.00  0.00     0.035 C 
HETATM   22  C15 UNL     1      -4.366  10.406  10.654  1.00  0.00    -0.006 C 
HETATM   23  C16 UNL     1      -3.277  11.341  11.015  1.00  0.00     0.058 C 
BRANCH  22  24
HETATM   24  C17 UNL     1      -4.212   9.682   9.369  1.00  0.00    -0.049 C 
HETATM   25  C18 UNL     1      -4.071   9.117   8.316  1.00  0.00     0.008 C 
BRANCH  25  26
HETATM   26  N3  UNL     1      -3.897   8.493   7.079  1.00  0.00    -0.359 N 
ATOM     27  H32 UNL     1      -3.631   9.449   7.316  1.00  0.00     0.166 HD
ATOM     28  H31 UNL     1      -3.780   8.016   6.185  1.00  0.00     0.166 HD
ENDBRANCH  25  26
ENDBRANCH  22  24
ENDBRANCH   9  21
BRANCH  10  29
HETATM   29  N4  UNL     1      -6.556  12.543  11.496  1.00  0.00    -0.385 N 
ATOM     30  H42 UNL     1      -5.687  12.928  11.123  1.00  0.00     0.157 HD
ATOM     31  H41 UNL     1      -7.453  12.659  11.025  1.00  0.00     0.157 HD
ENDBRANCH  10  29
ENDBRANCH   4   5
ENDBRANCH   3   4
TORSDOF 9
ENDMDL
