MODEL 1
REMARK VINA RESULT: -7.446200344      0.000      0.000
REMARK  11 active torsions:
REMARK  status: ('A' for Active; 'I' for Inactive)
REMARK    1  A    between atoms: C5_5  and  O1_6 
REMARK    2  A    between atoms: C9_10  and  O2_11 
REMARK    3  A    between atoms: C10_13  and  C11_14 
REMARK    4  A    between atoms: C11_14  and  C12_15 
REMARK    5  A    between atoms: C12_15  and  C13_16 
REMARK    6  A    between atoms: C13_16  and  O3_17 
REMARK    7  A    between atoms: C13_16  and  C14_19 
REMARK    8  A    between atoms: C14_19  and  C16_21 
REMARK    9  A    between atoms: C16_21  and  O4_22 
REMARK   10  A    between atoms: C16_21  and  O5_24 
REMARK   11  A    between atoms: O5_24  and  C17_25 
ROOT
HETATM    1  C11 UNL     1      -4.329   9.028  12.722  1.00  0.00    -0.009 C 
ENDROOT
BRANCH   1   2
HETATM    2  C10 UNL     1      -4.462   8.008  13.518  1.00  0.00     0.004 A 
HETATM    3  C2  UNL     1      -3.440   7.554  14.314  1.00  0.00    -0.024 A 
HETATM    4  C1  UNL     1      -2.267   8.138  14.304  1.00  0.00     0.025 C 
HETATM    5  C3  UNL     1      -3.585   6.461  15.167  1.00  0.00    -0.018 A 
HETATM    6  C4  UNL     1      -2.455   5.999  16.012  1.00  0.00     0.052 C 
HETATM    7  C5  UNL     1      -4.787   5.808  15.222  1.00  0.00     0.083 A 
HETATM    8  C7  UNL     1      -5.829   6.232  14.443  1.00  0.00     0.006 A 
HETATM    9  C8  UNL     1      -7.137   5.529  14.498  1.00  0.00     0.054 C 
HETATM   10  C9  UNL     1      -5.678   7.324  13.594  1.00  0.00     0.085 A 
BRANCH   7  11
HETATM   11  O1  UNL     1      -4.962   4.705  16.071  1.00  0.00    -0.355 OA
HETATM   12  C6  UNL     1      -5.601   3.527  15.624  1.00  0.00     0.210 C 
ENDBRANCH   7  11
BRANCH  10  13
HETATM   13  O2  UNL     1      -6.758   7.713  12.830  1.00  0.00    -0.359 OA
ATOM     14  H2  UNL     1      -7.264   7.039  12.392  1.00  0.00     0.217 HD
ENDBRANCH  10  13
ENDBRANCH   1   2
BRANCH   1  15
HETATM   15  C12 UNL     1      -4.713  10.434  13.002  1.00  0.00     0.060 C 
BRANCH  15  16
HETATM   16  C13 UNL     1      -6.157  10.468  13.556  1.00  0.00     0.130 C 
BRANCH  16  17
HETATM   17  O3  UNL     1      -6.184   9.704  14.731  1.00  0.00    -0.395 OA
ATOM     18  H3  UNL     1      -6.575   8.863  14.522  1.00  0.00     0.210 HD
ENDBRANCH  16  17
BRANCH  16  19
HETATM   19  C14 UNL     1      -6.501  11.876  13.897  1.00  0.00     0.066 C 
HETATM   20  C15 UNL     1      -7.143  12.522  12.651  1.00  0.00     0.017 C 
BRANCH  19  21
HETATM   21  C16 UNL     1      -7.547  12.037  14.973  1.00  0.00     0.264 C 
BRANCH  21  22
HETATM   22  O4  UNL     1      -8.536  11.067  14.618  1.00  0.00    -0.371 OA
ATOM     23  H4  UNL     1      -9.320  11.386  15.050  1.00  0.00     0.212 HD
ENDBRANCH  21  22
BRANCH  21  24
HETATM   24  O5  UNL     1      -7.019  11.738  16.191  1.00  0.00    -0.351 OA
BRANCH  24  25
HETATM   25  C17 UNL     1      -7.528  12.293  17.309  1.00  0.00     0.053 C 
HETATM   26  C18 UNL     1      -8.190  13.619  17.212  1.00  0.00     0.045 C 
HETATM   27  C19 UNL     1      -6.331  12.512  18.263  1.00  0.00     0.045 C 
HETATM   28  C20 UNL     1      -8.395  11.283  18.080  1.00  0.00     0.045 C 
ENDBRANCH  24  25
ENDBRANCH  21  24
ENDBRANCH  19  21
ENDBRANCH  16  19
ENDBRANCH  15  16
ENDBRANCH   1  15
TORSDOF 11
ENDMDL
MODEL 2
REMARK VINA RESULT: -7.050839935      1.034      1.502
REMARK  11 active torsions:
REMARK  status: ('A' for Active; 'I' for Inactive)
REMARK    1  A    between atoms: C5_5  and  O1_6 
REMARK    2  A    between atoms: C9_10  and  O2_11 
REMARK    3  A    between atoms: C10_13  and  C11_14 
REMARK    4  A    between atoms: C11_14  and  C12_15 
REMARK    5  A    between atoms: C12_15  and  C13_16 
REMARK    6  A    between atoms: C13_16  and  O3_17 
REMARK    7  A    between atoms: C13_16  and  C14_19 
REMARK    8  A    between atoms: C14_19  and  C16_21 
REMARK    9  A    between atoms: C16_21  and  O4_22 
REMARK   10  A    between atoms: C16_21  and  O5_24 
REMARK   11  A    between atoms: O5_24  and  C17_25 
ROOT
HETATM    1  C11 UNL     1      -5.402   8.592  12.389  1.00  0.00    -0.009 C 
ENDROOT
BRANCH   1   2
HETATM    2  C10 UNL     1      -4.729   7.965  13.308  1.00  0.00     0.004 A 
HETATM    3  C2  UNL     1      -3.428   8.279  13.614  1.00  0.00    -0.024 A 
HETATM    4  C1  UNL     1      -2.800   9.240  12.983  1.00  0.00     0.025 C 
HETATM    5  C3  UNL     1      -2.709   7.607  14.600  1.00  0.00    -0.018 A 
HETATM    6  C4  UNL     1      -1.302   7.976  14.903  1.00  0.00     0.052 C 
HETATM    7  C5  UNL     1      -3.310   6.592  15.296  1.00  0.00     0.083 A 
HETATM    8  C7  UNL     1      -4.606   6.251  15.018  1.00  0.00     0.006 A 
HETATM    9  C8  UNL     1      -5.266   5.151  15.768  1.00  0.00     0.054 C 
HETATM   10  C9  UNL     1      -5.319   6.927  14.032  1.00  0.00     0.085 A 
BRANCH   7  11
HETATM   11  O1  UNL     1      -2.611   5.897  16.293  1.00  0.00    -0.355 OA
HETATM   12  C6  UNL     1      -1.548   5.024  15.973  1.00  0.00     0.210 C 
ENDBRANCH   7  11
BRANCH  10  13
HETATM   13  O2  UNL     1      -6.622   6.545  13.790  1.00  0.00    -0.359 OA
ATOM     14  H2  UNL     1      -7.278   6.742  14.448  1.00  0.00     0.217 HD
ENDBRANCH  10  13
ENDBRANCH   1   2
BRANCH   1  15
HETATM   15  C12 UNL     1      -5.750  10.035  12.365  1.00  0.00     0.060 C 
BRANCH  15  16
HETATM   16  C13 UNL     1      -6.901  10.299  13.364  1.00  0.00     0.130 C 
BRANCH  16  17
HETATM   17  O3  UNL     1      -6.786   9.369  14.406  1.00  0.00    -0.395 OA
ATOM     18  H3  UNL     1      -7.108   9.781  15.200  1.00  0.00     0.210 HD
ENDBRANCH  16  17
BRANCH  16  19
HETATM   19  C14 UNL     1      -6.735  11.667  13.928  1.00  0.00     0.066 C 
HETATM   20  C15 UNL     1      -7.131  12.682  12.833  1.00  0.00     0.017 C 
BRANCH  19  21
HETATM   21  C16 UNL     1      -7.647  11.999  15.082  1.00  0.00     0.264 C 
BRANCH  21  22
HETATM   22  O4  UNL     1      -8.767  11.134  14.876  1.00  0.00    -0.371 OA
ATOM     23  H4  UNL     1      -9.509  11.727  14.901  1.00  0.00     0.212 HD
ENDBRANCH  21  22
BRANCH  21  24
HETATM   24  O5  UNL     1      -7.040  11.699  16.263  1.00  0.00    -0.351 OA
BRANCH  24  25
HETATM   25  C17 UNL     1      -7.502  12.220  17.418  1.00  0.00     0.053 C 
HETATM   26  C18 UNL     1      -8.210  13.525  17.382  1.00  0.00     0.045 C 
HETATM   27  C19 UNL     1      -6.259  12.462  18.306  1.00  0.00     0.045 C 
HETATM   28  C20 UNL     1      -8.290  11.170  18.219  1.00  0.00     0.045 C 
ENDBRANCH  24  25
ENDBRANCH  21  24
ENDBRANCH  19  21
ENDBRANCH  16  19
ENDBRANCH  15  16
ENDBRANCH   1  15
TORSDOF 11
ENDMDL
MODEL 3
REMARK VINA RESULT: -6.806598902      1.195      2.423
REMARK  11 active torsions:
REMARK  status: ('A' for Active; 'I' for Inactive)
REMARK    1  A    between atoms: C5_5  and  O1_6 
REMARK    2  A    between atoms: C9_10  and  O2_11 
REMARK    3  A    between atoms: C10_13  and  C11_14 
REMARK    4  A    between atoms: C11_14  and  C12_15 
REMARK    5  A    between atoms: C12_15  and  C13_16 
REMARK    6  A    between atoms: C13_16  and  O3_17 
REMARK    7  A    between atoms: C13_16  and  C14_19 
REMARK    8  A    between atoms: C14_19  and  C16_21 
REMARK    9  A    between atoms: C16_21  and  O4_22 
REMARK   10  A    between atoms: C16_21  and  O5_24 
REMARK   11  A    between atoms: O5_24  and  C17_25 
ROOT
HETATM    1  C11 UNL     1      -5.372   8.626  12.404  1.00  0.00    -0.009 C 
ENDROOT
BRANCH   1   2
HETATM    2  C10 UNL     1      -4.685   7.999  13.313  1.00  0.00     0.004 A 
HETATM    3  C2  UNL     1      -5.207   6.967  14.052  1.00  0.00    -0.024 A 
HETATM    4  C1  UNL     1      -6.441   6.564  13.871  1.00  0.00     0.025 C 
HETATM    5  C3  UNL     1      -4.469   6.296  15.025  1.00  0.00    -0.018 A 
HETATM    6  C4  UNL     1      -5.070   5.183  15.806  1.00  0.00     0.052 C 
HETATM    7  C5  UNL     1      -3.174   6.670  15.263  1.00  0.00     0.083 A 
HETATM    8  C7  UNL     1      -2.619   7.695  14.545  1.00  0.00     0.006 A 
HETATM    9  C8  UNL     1      -1.214   8.107  14.796  1.00  0.00     0.054 C 
HETATM   10  C9  UNL     1      -3.362   8.360  13.574  1.00  0.00     0.085 A 
BRANCH   7  11
HETATM   11  O1  UNL     1      -2.407   6.013  16.236  1.00  0.00    -0.355 OA
HETATM   12  C6  UNL     1      -1.483   5.003  15.885  1.00  0.00     0.210 C 
ENDBRANCH   7  11
BRANCH  10  13
HETATM   13  O2  UNL     1      -2.757   9.386  12.878  1.00  0.00    -0.359 OA
ATOM     14  H2  UNL     1      -1.813   9.367  12.779  1.00  0.00     0.217 HD
ENDBRANCH  10  13
ENDBRANCH   1   2
BRANCH   1  15
HETATM   15  C12 UNL     1      -5.714  10.070  12.382  1.00  0.00     0.060 C 
BRANCH  15  16
HETATM   16  C13 UNL     1      -6.870  10.335  13.376  1.00  0.00     0.130 C 
BRANCH  16  17
HETATM   17  O3  UNL     1      -6.746   9.423  14.432  1.00  0.00    -0.395 OA
ATOM     18  H3  UNL     1      -7.345   9.691  15.119  1.00  0.00     0.210 HD
ENDBRANCH  16  17
BRANCH  16  19
HETATM   19  C14 UNL     1      -6.723  11.714  13.918  1.00  0.00     0.066 C 
HETATM   20  C15 UNL     1      -7.162  12.705  12.818  1.00  0.00     0.017 C 
BRANCH  19  21
HETATM   21  C16 UNL     1      -7.620  12.043  15.086  1.00  0.00     0.264 C 
BRANCH  21  22
HETATM   22  O4  UNL     1      -8.740  11.174  14.894  1.00  0.00    -0.371 OA
ATOM     23  H4  UNL     1      -8.351  10.308  14.915  1.00  0.00     0.212 HD
ENDBRANCH  21  22
BRANCH  21  24
HETATM   24  O5  UNL     1      -6.995  11.743  16.257  1.00  0.00    -0.351 OA
BRANCH  24  25
HETATM   25  C17 UNL     1      -7.470  12.222  17.425  1.00  0.00     0.053 C 
HETATM   26  C18 UNL     1      -8.246  13.489  17.415  1.00  0.00     0.045 C 
HETATM   27  C19 UNL     1      -6.233  12.516  18.303  1.00  0.00     0.045 C 
HETATM   28  C20 UNL     1      -8.195  11.121  18.218  1.00  0.00     0.045 C 
ENDBRANCH  24  25
ENDBRANCH  21  24
ENDBRANCH  19  21
ENDBRANCH  16  19
ENDBRANCH  15  16
ENDBRANCH   1  15
TORSDOF 11
ENDMDL
MODEL 4
REMARK VINA RESULT: -6.686586758      1.270      1.874
REMARK  11 active torsions:
REMARK  status: ('A' for Active; 'I' for Inactive)
REMARK    1  A    between atoms: C5_5  and  O1_6 
REMARK    2  A    between atoms: C9_10  and  O2_11 
REMARK    3  A    between atoms: C10_13  and  C11_14 
REMARK    4  A    between atoms: C11_14  and  C12_15 
REMARK    5  A    between atoms: C12_15  and  C13_16 
REMARK    6  A    between atoms: C13_16  and  O3_17 
REMARK    7  A    between atoms: C13_16  and  C14_19 
REMARK    8  A    between atoms: C14_19  and  C16_21 
REMARK    9  A    between atoms: C16_21  and  O4_22 
REMARK   10  A    between atoms: C16_21  and  O5_24 
REMARK   11  A    between atoms: O5_24  and  C17_25 
ROOT
HETATM    1  C11 UNL     1      -4.021   8.999  12.853  1.00  0.00    -0.009 C 
ENDROOT
BRANCH   1   2
HETATM    2  C10 UNL     1      -4.270   7.990  13.634  1.00  0.00     0.004 A 
HETATM    3  C2  UNL     1      -3.298   7.385  14.391  1.00  0.00    -0.024 A 
HETATM    4  C1  UNL     1      -2.058   7.806  14.360  1.00  0.00     0.025 C 
HETATM    5  C3  UNL     1      -3.567   6.304  15.228  1.00  0.00    -0.018 A 
HETATM    6  C4  UNL     1      -2.488   5.675  16.033  1.00  0.00     0.052 C 
HETATM    7  C5  UNL     1      -4.844   5.816  15.306  1.00  0.00     0.083 A 
HETATM    8  C7  UNL     1      -5.840   6.393  14.565  1.00  0.00     0.006 A 
HETATM    9  C8  UNL     1      -7.229   5.871  14.643  1.00  0.00     0.054 C 
HETATM   10  C9  UNL     1      -5.564   7.474  13.732  1.00  0.00     0.085 A 
BRANCH   7  11
HETATM   11  O1  UNL     1      -5.145   4.728  16.139  1.00  0.00    -0.355 OA
HETATM   12  C6  UNL     1      -5.726   3.548  15.625  1.00  0.00     0.210 C 
ENDBRANCH   7  11
BRANCH  10  13
HETATM   13  O2  UNL     1      -6.601   8.020  13.006  1.00  0.00    -0.359 OA
ATOM     14  H2  UNL     1      -6.407   8.393  12.154  1.00  0.00     0.217 HD
ENDBRANCH  10  13
ENDBRANCH   1   2
BRANCH   1  15
HETATM   15  C12 UNL     1      -4.260  10.434  13.147  1.00  0.00     0.060 C 
BRANCH  15  16
HETATM   16  C13 UNL     1      -4.994  11.085  11.951  1.00  0.00     0.130 C 
BRANCH  16  17
HETATM   17  O3  UNL     1      -5.975  10.186  11.509  1.00  0.00    -0.395 OA
ATOM     18  H3  UNL     1      -6.823  10.539  11.752  1.00  0.00     0.210 HD
ENDBRANCH  16  17
BRANCH  16  19
HETATM   19  C14 UNL     1      -5.666  12.326  12.425  1.00  0.00     0.066 C 
HETATM   20  C15 UNL     1      -6.276  13.034  11.196  1.00  0.00     0.017 C 
BRANCH  19  21
HETATM   21  C16 UNL     1      -6.844  12.107  13.342  1.00  0.00     0.264 C 
BRANCH  21  22
HETATM   22  O4  UNL     1      -7.955  12.049  12.443  1.00  0.00    -0.371 OA
ATOM     23  H4  UNL     1      -7.970  12.918  12.059  1.00  0.00     0.212 HD
ENDBRANCH  21  22
BRANCH  21  24
HETATM   24  O5  UNL     1      -6.715  10.921  13.997  1.00  0.00    -0.351 OA
BRANCH  24  25
HETATM   25  C17 UNL     1      -7.188  10.781  15.253  1.00  0.00     0.053 C 
HETATM   26  C18 UNL     1      -7.200   9.428  15.865  1.00  0.00     0.045 C 
HETATM   27  C19 UNL     1      -8.671  11.212  15.203  1.00  0.00     0.045 C 
HETATM   28  C20 UNL     1      -6.563  11.823  16.195  1.00  0.00     0.045 C 
ENDBRANCH  24  25
ENDBRANCH  21  24
ENDBRANCH  19  21
ENDBRANCH  16  19
ENDBRANCH  15  16
ENDBRANCH   1  15
TORSDOF 11
ENDMDL
MODEL 5
REMARK VINA RESULT: -6.306653034      0.898      2.161
REMARK  11 active torsions:
REMARK  status: ('A' for Active; 'I' for Inactive)
REMARK    1  A    between atoms: C5_5  and  O1_6 
REMARK    2  A    between atoms: C9_10  and  O2_11 
REMARK    3  A    between atoms: C10_13  and  C11_14 
REMARK    4  A    between atoms: C11_14  and  C12_15 
REMARK    5  A    between atoms: C12_15  and  C13_16 
REMARK    6  A    between atoms: C13_16  and  O3_17 
REMARK    7  A    between atoms: C13_16  and  C14_19 
REMARK    8  A    between atoms: C14_19  and  C16_21 
REMARK    9  A    between atoms: C16_21  and  O4_22 
REMARK   10  A    between atoms: C16_21  and  O5_24 
REMARK   11  A    between atoms: O5_24  and  C17_25 
ROOT
HETATM    1  C11 UNL     1      -4.285   9.110  12.578  1.00  0.00    -0.009 C 
ENDROOT
BRANCH   1   2
HETATM    2  C10 UNL     1      -4.448   8.098  13.379  1.00  0.00     0.004 A 
HETATM    3  C2  UNL     1      -5.606   7.362  13.412  1.00  0.00    -0.024 A 
HETATM    4  C1  UNL     1      -6.613   7.652  12.626  1.00  0.00     0.025 C 
HETATM    5  C3  UNL     1      -5.778   6.278  14.270  1.00  0.00    -0.018 A 
HETATM    6  C4  UNL     1      -7.047   5.505  14.277  1.00  0.00     0.052 C 
HETATM    7  C5  UNL     1      -4.762   5.924  15.117  1.00  0.00     0.083 A 
HETATM    8  C7  UNL     1      -3.593   6.635  15.112  1.00  0.00     0.006 A 
HETATM    9  C8  UNL     1      -2.485   6.257  16.028  1.00  0.00     0.054 C 
HETATM   10  C9  UNL     1      -3.427   7.716  14.252  1.00  0.00     0.085 A 
BRANCH   7  11
HETATM   11  O1  UNL     1      -4.907   4.837  15.992  1.00  0.00    -0.355 OA
HETATM   12  C6  UNL     1      -5.655   3.695  15.628  1.00  0.00     0.210 C 
ENDBRANCH   7  11
BRANCH  10  13
HETATM   13  O2  UNL     1      -2.230   8.400  14.285  1.00  0.00    -0.359 OA
ATOM     14  H2  UNL     1      -1.640   8.238  15.011  1.00  0.00     0.217 HD
ENDBRANCH  10  13
ENDBRANCH   1   2
BRANCH   1  15
HETATM   15  C12 UNL     1      -4.745  10.504  12.796  1.00  0.00     0.060 C 
BRANCH  15  16
HETATM   16  C13 UNL     1      -6.064  10.485  13.604  1.00  0.00     0.130 C 
BRANCH  16  17
HETATM   17  O3  UNL     1      -5.801   9.878  14.840  1.00  0.00    -0.395 OA
ATOM     18  H3  UNL     1      -5.453  10.543  15.422  1.00  0.00     0.210 HD
ENDBRANCH  16  17
BRANCH  16  19
HETATM   19  C14 UNL     1      -6.492  11.891  13.847  1.00  0.00     0.066 C 
HETATM   20  C15 UNL     1      -7.190  12.401  12.568  1.00  0.00     0.017 C 
BRANCH  19  21
HETATM   21  C16 UNL     1      -7.531  12.067  14.927  1.00  0.00     0.264 C 
BRANCH  21  22
HETATM   22  O4  UNL     1      -8.515  11.082  14.600  1.00  0.00    -0.371 OA
ATOM     23  H4  UNL     1      -8.337  10.890  13.686  1.00  0.00     0.212 HD
ENDBRANCH  21  22
BRANCH  21  24
HETATM   24  O5  UNL     1      -6.991  11.797  16.147  1.00  0.00    -0.351 OA
BRANCH  24  25
HETATM   25  C17 UNL     1      -7.526  12.335  17.262  1.00  0.00     0.053 C 
HETATM   26  C18 UNL     1      -8.178  13.666  17.172  1.00  0.00     0.045 C 
HETATM   27  C19 UNL     1      -6.353  12.529  18.250  1.00  0.00     0.045 C 
HETATM   28  C20 UNL     1      -8.418  11.316  17.992  1.00  0.00     0.045 C 
ENDBRANCH  24  25
ENDBRANCH  21  24
ENDBRANCH  19  21
ENDBRANCH  16  19
ENDBRANCH  15  16
ENDBRANCH   1  15
TORSDOF 11
ENDMDL
