MODEL 1
REMARK VINA RESULT: -7.619648021      0.000      0.000
REMARK  7 active torsions:
REMARK  status: ('A' for Active; 'I' for Inactive)
REMARK    1  A    between atoms: C1_2  and  C2_3 
REMARK       I    between atoms: C1_2  and  N3_14 
REMARK    2  A    between atoms: C2_3  and  C3_4 
REMARK    3  A    between atoms: C3_4  and  C4_5 
REMARK    4  A    between atoms: C4_5  and  C5_6 
REMARK    5  A    between atoms: N3_14  and  C7_16 
REMARK    6  A    between atoms: C8_21  and  C9_22 
REMARK    7  A    between atoms: C9_22  and  C10_23 
ROOT
HETATM    1  C7  UNL     1      -5.321  11.386  11.808  1.00  0.00     0.700 A 
HETATM    2  N4  UNL     1      -5.809  12.343  11.007  1.00  0.00    -0.130 N 
ATOM      3  H4  UNL     1      -5.534  12.541  10.044  1.00  0.00     0.205 HD
HETATM    4  N5  UNL     1      -6.716  12.974  11.723  1.00  0.00    -0.274 N 
ATOM      5  H5  UNL     1      -7.265  13.762  11.380  1.00  0.00     0.189 HD
HETATM    6  C8  UNL     1      -6.834  12.466  12.947  1.00  0.00     0.112 A 
HETATM    7  N6  UNL     1      -5.930  11.444  12.987  1.00  0.00    -0.178 N 
ATOM      8  H6  UNL     1      -5.754  10.831  13.783  1.00  0.00     0.185 HD
ENDROOT
BRANCH   1   9
HETATM    9  N3  UNL     1      -4.388  10.556  11.418  1.00  0.00    -0.158 N 
HETATM   10  C1  UNL     1      -4.200   9.368  12.195  1.00  0.00     0.235 C 
HETATM   11  O1  UNL     1      -3.385   9.324  13.138  1.00  0.00    -0.273 OA
ATOM     12  H3  UNL     1      -3.817  10.748  10.595  1.00  0.00     0.187 HD
BRANCH  10  13
HETATM   13  C2  UNL     1      -5.000   8.194  11.850  1.00  0.00     0.104 C 
BRANCH  13  14
HETATM   14  C3  UNL     1      -6.220   7.960  12.660  1.00  0.00     0.017 C 
BRANCH  14  15
HETATM   15  C4  UNL     1      -6.121   8.283  14.110  1.00  0.00     0.086 C 
BRANCH  15  16
HETATM   16  C5  UNL     1      -6.434   7.029  14.883  1.00  0.00     0.141 A 
HETATM   17  N1  UNL     1      -7.343   6.887  15.855  1.00  0.00    -0.281 N 
HETATM   18  N2  UNL     1      -7.296   5.629  16.263  1.00  0.00    -0.268 N 
ATOM     19  H1  UNL     1      -7.960   7.615  16.216  1.00  0.00     0.189 HD
HETATM   20  C6  UNL     1      -6.360   4.975  15.555  1.00  0.00     0.235 A 
ATOM     21  H2  UNL     1      -7.876   5.221  16.997  1.00  0.00     0.190 HD
HETATM   22  S1  UNL     1      -5.953   3.391  15.717  1.00  0.00    -0.031 SA
HETATM   23  O2  UNL     1      -5.858   5.856  14.726  1.00  0.00    -0.269 OA
ENDBRANCH  15  16
ENDBRANCH  14  15
ENDBRANCH  13  14
ENDBRANCH  10  13
ENDBRANCH   1   9
BRANCH   6  24
HETATM   24  C9  UNL     1      -7.670  12.786  14.106  1.00  0.00     0.083 C 
BRANCH  24  25
HETATM   25  C10 UNL     1      -7.271  12.120  15.379  1.00  0.00    -0.007 C 
HETATM   26  C11 UNL     1      -8.206  10.918  15.545  1.00  0.00     0.005 C 
HETATM   27  C12 UNL     1      -8.622  10.709  16.963  1.00  0.00     0.000 C 
HETATM   28  C13 UNL     1      -7.378  10.827  17.841  1.00  0.00     0.000 C 
HETATM   29  C14 UNL     1      -6.976  12.282  17.816  1.00  0.00     0.000 C 
HETATM   30  C15 UNL     1      -7.513  12.992  16.595  1.00  0.00     0.005 C 
ENDBRANCH  24  25
ENDBRANCH   6  24
TORSDOF 7
ENDMDL
MODEL 2
REMARK VINA RESULT: -7.533010403      3.033      6.796
REMARK  7 active torsions:
REMARK  status: ('A' for Active; 'I' for Inactive)
REMARK    1  A    between atoms: C1_2  and  C2_3 
REMARK       I    between atoms: C1_2  and  N3_14 
REMARK    2  A    between atoms: C2_3  and  C3_4 
REMARK    3  A    between atoms: C3_4  and  C4_5 
REMARK    4  A    between atoms: C4_5  and  C5_6 
REMARK    5  A    between atoms: N3_14  and  C7_16 
REMARK    6  A    between atoms: C8_21  and  C9_22 
REMARK    7  A    between atoms: C9_22  and  C10_23 
ROOT
HETATM    1  C7  UNL     1      -7.746   8.414  16.266  1.00  0.00     0.700 A 
HETATM    2  N4  UNL     1      -8.147   7.136  16.316  1.00  0.00    -0.130 N 
ATOM      3  H4  UNL     1      -8.935   6.757  16.843  1.00  0.00     0.205 HD
HETATM    4  N5  UNL     1      -7.312   6.473  15.543  1.00  0.00    -0.274 N 
ATOM      5  H5  UNL     1      -7.363   5.467  15.380  1.00  0.00     0.189 HD
HETATM    6  C8  UNL     1      -6.393   7.266  14.999  1.00  0.00     0.112 A 
HETATM    7  N6  UNL     1      -6.686   8.512  15.472  1.00  0.00    -0.178 N 
ATOM      8  H6  UNL     1      -6.178   9.370  15.254  1.00  0.00     0.185 HD
ENDROOT
BRANCH   1   9
HETATM    9  N3  UNL     1      -8.356   9.364  16.924  1.00  0.00    -0.158 N 
HETATM   10  C1  UNL     1      -7.752  10.663  16.913  1.00  0.00     0.235 C 
HETATM   11  O1  UNL     1      -6.948  11.018  17.796  1.00  0.00    -0.273 OA
ATOM     12  H3  UNL     1      -9.227   9.189  17.426  1.00  0.00     0.187 HD
BRANCH  10  13
HETATM   13  C2  UNL     1      -8.107  11.570  15.824  1.00  0.00     0.104 C 
BRANCH  13  14
HETATM   14  C3  UNL     1      -7.174  11.623  14.672  1.00  0.00     0.017 C 
BRANCH  14  15
HETATM   15  C4  UNL     1      -7.356  12.761  13.728  1.00  0.00     0.086 C 
BRANCH  15  16
HETATM   16  C5  UNL     1      -6.631  12.419  12.453  1.00  0.00     0.141 A 
HETATM   17  N1  UNL     1      -6.692  13.080  11.289  1.00  0.00    -0.281 N 
HETATM   18  N2  UNL     1      -5.906  12.448  10.432  1.00  0.00    -0.268 N 
ATOM     19  H1  UNL     1      -7.243  13.917  11.099  1.00  0.00     0.189 HD
HETATM   20  C6  UNL     1      -5.350  11.391  11.046  1.00  0.00     0.235 A 
ATOM     21  H2  UNL     1      -5.748  12.720   9.461  1.00  0.00     0.190 HD
HETATM   22  S1  UNL     1      -4.304  10.318  10.372  1.00  0.00    -0.031 SA
HETATM   23  O2  UNL     1      -5.812  11.405  12.271  1.00  0.00    -0.269 OA
ENDBRANCH  15  16
ENDBRANCH  14  15
ENDBRANCH  13  14
ENDBRANCH  10  13
ENDBRANCH   1   9
BRANCH   6  24
HETATM   24  C9  UNL     1      -5.266   7.044  14.090  1.00  0.00     0.083 C 
BRANCH  24  25
HETATM   25  C10 UNL     1      -3.949   7.541  14.582  1.00  0.00    -0.007 C 
HETATM   26  C11 UNL     1      -3.268   8.208  13.383  1.00  0.00     0.005 C 
HETATM   27  C12 UNL     1      -1.801   7.942  13.338  1.00  0.00     0.000 C 
HETATM   28  C13 UNL     1      -1.239   8.154  14.741  1.00  0.00     0.000 C 
HETATM   29  C14 UNL     1      -1.764   7.019  15.586  1.00  0.00     0.000 C 
HETATM   30  C15 UNL     1      -3.021   6.417  15.001  1.00  0.00     0.005 C 
ENDBRANCH  24  25
ENDBRANCH   6  24
TORSDOF 7
ENDMDL
MODEL 3
REMARK VINA RESULT: -7.527860921      2.106      2.609
REMARK  7 active torsions:
REMARK  status: ('A' for Active; 'I' for Inactive)
REMARK    1  A    between atoms: C1_2  and  C2_3 
REMARK       I    between atoms: C1_2  and  N3_14 
REMARK    2  A    between atoms: C2_3  and  C3_4 
REMARK    3  A    between atoms: C3_4  and  C4_5 
REMARK    4  A    between atoms: C4_5  and  C5_6 
REMARK    5  A    between atoms: N3_14  and  C7_16 
REMARK    6  A    between atoms: C8_21  and  C9_22 
REMARK    7  A    between atoms: C9_22  and  C10_23 
ROOT
HETATM    1  C7  UNL     1      -3.739   8.898  12.833  1.00  0.00     0.700 A 
HETATM    2  N4  UNL     1      -4.690   8.176  12.226  1.00  0.00    -0.130 N 
ATOM      3  H4  UNL     1      -4.567   7.310  11.701  1.00  0.00     0.205 HD
HETATM    4  N5  UNL     1      -5.818   8.819  12.450  1.00  0.00    -0.274 N 
ATOM      5  H5  UNL     1      -6.727   8.508  12.108  1.00  0.00     0.189 HD
HETATM    6  C8  UNL     1      -5.634   9.920  13.174  1.00  0.00     0.112 A 
HETATM    7  N6  UNL     1      -4.291   9.957  13.413  1.00  0.00    -0.178 N 
ATOM      8  H6  UNL     1      -3.798  10.674  13.946  1.00  0.00     0.185 HD
ENDROOT
BRANCH   1   9
HETATM    9  N3  UNL     1      -2.478   8.549  12.815  1.00  0.00    -0.158 N 
HETATM   10  C1  UNL     1      -1.896   8.128  14.054  1.00  0.00     0.235 C 
HETATM   11  O1  UNL     1      -1.322   8.932  14.815  1.00  0.00    -0.273 OA
ATOM     12  H3  UNL     1      -1.931   8.577  11.954  1.00  0.00     0.187 HD
BRANCH  10  13
HETATM   13  C2  UNL     1      -1.996   6.713  14.407  1.00  0.00     0.104 C 
BRANCH  13  14
HETATM   14  C3  UNL     1      -2.904   6.371  15.529  1.00  0.00     0.017 C 
BRANCH  14  15
HETATM   15  C4  UNL     1      -4.289   6.913  15.445  1.00  0.00     0.086 C 
BRANCH  15  16
HETATM   16  C5  UNL     1      -5.232   5.747  15.322  1.00  0.00     0.141 A 
HETATM   17  N1  UNL     1      -6.430   5.738  14.724  1.00  0.00    -0.281 N 
HETATM   18  N2  UNL     1      -6.925   4.516  14.841  1.00  0.00    -0.268 N 
ATOM     19  H1  UNL     1      -6.879   6.528  14.262  1.00  0.00     0.189 HD
HETATM   20  C6  UNL     1      -6.047   3.752  15.512  1.00  0.00     0.235 A 
ATOM     21  H2  UNL     1      -7.828   4.205  14.481  1.00  0.00     0.190 HD
HETATM   22  S1  UNL     1      -6.236   2.165  15.893  1.00  0.00    -0.031 SA
HETATM   23  O2  UNL     1      -5.031   4.532  15.787  1.00  0.00    -0.269 OA
ENDBRANCH  15  16
ENDBRANCH  14  15
ENDBRANCH  13  14
ENDBRANCH  10  13
ENDBRANCH   1   9
BRANCH   6  24
HETATM   24  C9  UNL     1      -6.527  10.961  13.687  1.00  0.00     0.083 C 
BRANCH  24  25
HETATM   25  C10 UNL     1      -6.577  11.077  15.173  1.00  0.00    -0.007 C 
HETATM   26  C11 UNL     1      -7.263   9.804  15.679  1.00  0.00     0.005 C 
HETATM   27  C12 UNL     1      -8.182  10.069  16.825  1.00  0.00     0.000 C 
HETATM   28  C13 UNL     1      -7.457  10.981  17.811  1.00  0.00     0.000 C 
HETATM   29  C14 UNL     1      -7.351  12.330  17.144  1.00  0.00     0.000 C 
HETATM   30  C15 UNL     1      -7.453  12.223  15.640  1.00  0.00     0.005 C 
ENDBRANCH  24  25
ENDBRANCH   6  24
TORSDOF 7
ENDMDL
MODEL 4
REMARK VINA RESULT: -7.494259005      3.311      6.518
REMARK  7 active torsions:
REMARK  status: ('A' for Active; 'I' for Inactive)
REMARK    1  A    between atoms: C1_2  and  C2_3 
REMARK       I    between atoms: C1_2  and  N3_14 
REMARK    2  A    between atoms: C2_3  and  C3_4 
REMARK    3  A    between atoms: C3_4  and  C4_5 
REMARK    4  A    between atoms: C4_5  and  C5_6 
REMARK    5  A    between atoms: N3_14  and  C7_16 
REMARK    6  A    between atoms: C8_21  and  C9_22 
REMARK    7  A    between atoms: C9_22  and  C10_23 
ROOT
HETATM    1  C7  UNL     1      -7.746   9.891  15.283  1.00  0.00     0.700 A 
HETATM    2  N4  UNL     1      -7.908   9.087  16.343  1.00  0.00    -0.130 N 
ATOM      3  H4  UNL     1      -8.518   9.240  17.147  1.00  0.00     0.205 HD
HETATM    4  N5  UNL     1      -7.113   8.058  16.130  1.00  0.00    -0.274 N 
ATOM      5  H5  UNL     1      -7.017   7.271  16.771  1.00  0.00     0.189 HD
HETATM    6  C8  UNL     1      -6.450   8.165  14.982  1.00  0.00     0.112 A 
HETATM    7  N6  UNL     1      -6.868   9.350  14.448  1.00  0.00    -0.178 N 
ATOM      8  H6  UNL     1      -6.560   9.748  13.561  1.00  0.00     0.185 HD
ENDROOT
BRANCH   1   9
HETATM    9  N3  UNL     1      -8.392  11.022  15.160  1.00  0.00    -0.158 N 
HETATM   10  C1  UNL     1      -7.655  12.227  15.398  1.00  0.00     0.235 C 
HETATM   11  O1  UNL     1      -7.612  12.755  16.526  1.00  0.00    -0.273 OA
ATOM     12  H3  UNL     1      -9.379  11.045  14.904  1.00  0.00     0.187 HD
BRANCH  10  13
HETATM   13  C2  UNL     1      -6.947  12.827  14.269  1.00  0.00     0.104 C 
BRANCH  13  14
HETATM   14  C3  UNL     1      -7.351  12.376  12.915  1.00  0.00     0.017 C 
BRANCH  14  15
HETATM   15  C4  UNL     1      -6.553  12.910  11.777  1.00  0.00     0.086 C 
BRANCH  15  16
HETATM   16  C5  UNL     1      -5.646  11.809  11.295  1.00  0.00     0.141 A 
HETATM   17  N1  UNL     1      -4.885  11.004  12.048  1.00  0.00    -0.281 N 
HETATM   18  N2  UNL     1      -4.247  10.181  11.231  1.00  0.00    -0.268 N 
ATOM     19  H1  UNL     1      -4.811  11.021  13.065  1.00  0.00     0.189 HD
HETATM   20  C6  UNL     1      -4.599  10.463   9.965  1.00  0.00     0.235 A 
ATOM     21  H2  UNL     1      -3.594   9.451  11.517  1.00  0.00     0.190 HD
HETATM   22  S1  UNL     1      -4.057   9.697   8.616  1.00  0.00    -0.031 SA
HETATM   23  O2  UNL     1      -5.449  11.456  10.043  1.00  0.00    -0.269 OA
ENDBRANCH  15  16
ENDBRANCH  14  15
ENDBRANCH  13  14
ENDBRANCH  10  13
ENDBRANCH   1   9
BRANCH   6  24
HETATM   24  C9  UNL     1      -5.470   7.324  14.291  1.00  0.00     0.083 C 
BRANCH  24  25
HETATM   25  C10 UNL     1      -4.071   7.433  14.797  1.00  0.00    -0.007 C 
HETATM   26  C11 UNL     1      -3.227   7.927  13.618  1.00  0.00     0.005 C 
HETATM   27  C12 UNL     1      -1.885   7.276  13.565  1.00  0.00     0.000 C 
HETATM   28  C13 UNL     1      -1.298   7.290  14.974  1.00  0.00     0.000 C 
HETATM   29  C14 UNL     1      -2.116   6.315  15.786  1.00  0.00     0.000 C 
HETATM   30  C15 UNL     1      -3.483   6.091  15.183  1.00  0.00     0.005 C 
ENDBRANCH  24  25
ENDBRANCH   6  24
TORSDOF 7
ENDMDL
MODEL 5
REMARK VINA RESULT: -7.368919336      3.173      6.535
REMARK  7 active torsions:
REMARK  status: ('A' for Active; 'I' for Inactive)
REMARK    1  A    between atoms: C1_2  and  C2_3 
REMARK       I    between atoms: C1_2  and  N3_14 
REMARK    2  A    between atoms: C2_3  and  C3_4 
REMARK    3  A    between atoms: C3_4  and  C4_5 
REMARK    4  A    between atoms: C4_5  and  C5_6 
REMARK    5  A    between atoms: N3_14  and  C7_16 
REMARK    6  A    between atoms: C8_21  and  C9_22 
REMARK    7  A    between atoms: C9_22  and  C10_23 
ROOT
HETATM    1  C7  UNL     1      -6.965   8.397  15.484  1.00  0.00     0.700 A 
HETATM    2  N4  UNL     1      -7.186   7.129  15.110  1.00  0.00    -0.130 N 
ATOM      3  H4  UNL     1      -7.917   6.503  15.451  1.00  0.00     0.205 HD
HETATM    4  N5  UNL     1      -6.261   6.860  14.212  1.00  0.00    -0.274 N 
ATOM      5  H5  UNL     1      -6.171   5.960  13.740  1.00  0.00     0.189 HD
HETATM    6  C8  UNL     1      -5.458   7.897  13.991  1.00  0.00     0.112 A 
HETATM    7  N6  UNL     1      -5.924   8.879  14.817  1.00  0.00    -0.178 N 
ATOM      8  H6  UNL     1      -5.539   9.819  14.905  1.00  0.00     0.185 HD
ENDROOT
BRANCH   1   9
HETATM    9  N3  UNL     1      -7.707   9.001  16.376  1.00  0.00    -0.158 N 
HETATM   10  C1  UNL     1      -7.607  10.428  16.454  1.00  0.00     0.235 C 
HETATM   11  O1  UNL     1      -6.802  10.986  17.226  1.00  0.00    -0.273 OA
ATOM     12  H3  UNL     1      -8.331   8.478  16.991  1.00  0.00     0.187 HD
BRANCH  10  13
HETATM   13  C2  UNL     1      -8.483  11.221  15.595  1.00  0.00     0.104 C 
BRANCH  13  14
HETATM   14  C3  UNL     1      -8.061  11.378  14.181  1.00  0.00     0.017 C 
BRANCH  14  15
HETATM   15  C4  UNL     1      -7.299  12.615  13.854  1.00  0.00     0.086 C 
BRANCH  15  16
HETATM   16  C5  UNL     1      -6.619  12.398  12.528  1.00  0.00     0.141 A 
HETATM   17  N1  UNL     1      -6.696  13.181  11.445  1.00  0.00    -0.281 N 
HETATM   18  N2  UNL     1      -5.949  12.630  10.502  1.00  0.00    -0.268 N 
ATOM     19  H1  UNL     1      -7.232  14.045  11.362  1.00  0.00     0.189 HD
HETATM   20  C6  UNL     1      -5.401  11.501  10.983  1.00  0.00     0.235 A 
ATOM     21  H2  UNL     1      -5.811  13.001   9.561  1.00  0.00     0.190 HD
HETATM   22  S1  UNL     1      -4.400  10.486  10.166  1.00  0.00    -0.031 SA
HETATM   23  O2  UNL     1      -5.829  11.393  12.215  1.00  0.00    -0.269 OA
ENDBRANCH  15  16
ENDBRANCH  14  15
ENDBRANCH  13  14
ENDBRANCH  10  13
ENDBRANCH   1   9
BRANCH   6  24
HETATM   24  C9  UNL     1      -4.304   8.123  13.118  1.00  0.00     0.083 C 
BRANCH  24  25
HETATM   25  C10 UNL     1      -2.983   7.754  13.704  1.00  0.00    -0.007 C 
HETATM   26  C11 UNL     1      -3.246   6.574  14.645  1.00  0.00     0.005 C 
HETATM   27  C12 UNL     1      -2.433   6.647  15.894  1.00  0.00     0.000 C 
HETATM   28  C13 UNL     1      -1.000   7.000  15.505  1.00  0.00     0.000 C 
HETATM   29  C14 UNL     1      -1.027   8.434  15.034  1.00  0.00     0.000 C 
HETATM   30  C15 UNL     1      -2.407   8.850  14.580  1.00  0.00     0.005 C 
ENDBRANCH  24  25
ENDBRANCH   6  24
TORSDOF 7
ENDMDL
