MODEL 1
REMARK VINA RESULT: -7.522336759      0.000      0.000
REMARK  9 active torsions:
REMARK  status: ('A' for Active; 'I' for Inactive)
REMARK    1  A    between atoms: C2_2  and  O2_4 
REMARK    2  A    between atoms: O2_4  and  C3_5 
REMARK    3  A    between atoms: C3_5  and  C5_7 
REMARK    4  A    between atoms: C5_7  and  C6_8 
REMARK    5  A    between atoms: C5_7  and  N1_14 
REMARK    6  A    between atoms: C6_8  and  C7_9 
REMARK       I    between atoms: N1_14  and  C12_16 
REMARK       I    between atoms: C12_16  and  N2_18 
REMARK    7  A    between atoms: C15_21  and  C16_22 
REMARK    8  A    between atoms: C16_22  and  O4_23 
REMARK    9  A    between atoms: N3_25  and  O5_27 
ROOT
HETATM    1  N1  UNL     1      -6.499   9.621  14.795  1.00  0.00    -0.336 N 
ATOM      2  H1  UNL     1      -5.603   9.912  14.404  1.00  0.00     0.164 HD
HETATM    3  C12 UNL     1      -6.662   8.272  15.209  1.00  0.00     0.318 C 
HETATM    4  O3  UNL     1      -7.780   7.949  15.688  1.00  0.00    -0.247 OA
HETATM    5  N2  UNL     1      -5.646   7.312  15.104  1.00  0.00    -0.333 N 
HETATM    6  C13 UNL     1      -5.760   5.923  15.491  1.00  0.00     0.128 C 
HETATM    7  C14 UNL     1      -4.416   5.293  15.203  1.00  0.00     0.034 C 
HETATM    8  C15 UNL     1      -3.517   6.533  15.403  1.00  0.00     0.082 C 
HETATM    9  C17 UNL     1      -4.314   7.533  14.598  1.00  0.00     0.140 C 
ENDROOT
BRANCH   1  10
HETATM   10  C5  UNL     1      -7.562  10.594  14.911  1.00  0.00     0.115 C 
BRANCH  10  11
HETATM   11  C3  UNL     1      -7.718  11.001  16.390  1.00  0.00     0.150 C 
HETATM   12  C4  UNL     1      -9.169  11.073  16.785  1.00  0.00     0.042 C 
BRANCH  11  13
HETATM   13  O2  UNL     1      -7.087  12.237  16.584  1.00  0.00    -0.315 OA
BRANCH  13  14
HETATM   14  C2  UNL     1      -7.075  12.888  17.783  1.00  0.00     0.255 C 
HETATM   15  C1  UNL     1      -8.232  13.738  18.245  1.00  0.00     0.126 C 
HETATM   16  O1  UNL     1      -6.102  12.817  18.568  1.00  0.00    -0.266 OA
ENDBRANCH  13  14
ENDBRANCH  11  13
ENDBRANCH  10  11
BRANCH  10  17
HETATM   17  C6  UNL     1      -7.343  11.804  14.064  1.00  0.00     0.032 C 
BRANCH  17  18
HETATM   18  C7  UNL     1      -6.940  11.576  12.653  1.00  0.00    -0.013 C 
HETATM   19  C8  UNL     1      -6.737  12.978  12.042  1.00  0.00     0.005 C 
HETATM   20  C9  UNL     1      -5.920  12.703  10.800  1.00  0.00     0.000 C 
HETATM   21  C10 UNL     1      -4.862  11.768  11.380  1.00  0.00     0.000 C 
HETATM   22  C11 UNL     1      -5.610  10.956  12.435  1.00  0.00     0.005 C 
ENDBRANCH  17  18
ENDBRANCH  10  17
ENDBRANCH   1  10
BRANCH   8  23
HETATM   23  C16 UNL     1      -2.164   6.287  14.955  1.00  0.00     0.141 C 
HETATM   24  N3  UNL     1      -1.262   5.716  15.593  1.00  0.00    -0.251 N 
ATOM     25  H3  UNL     1      -0.378   5.650  15.089  1.00  0.00     0.196 HD
BRANCH  23  26
HETATM   26  O4  UNL     1      -1.837   6.743  13.658  1.00  0.00    -0.348 OA
ATOM     27  H4  UNL     1      -1.003   7.187  13.563  1.00  0.00     0.219 HD
ENDBRANCH  23  26
BRANCH  24  28
HETATM   28  O5  UNL     1      -1.231   5.170  16.824  1.00  0.00    -0.288 OA
ATOM     29  H5  UNL     1      -0.528   4.784  17.333  1.00  0.00     0.244 HD
ENDBRANCH  24  28
ENDBRANCH   8  23
TORSDOF 9
ENDMDL
MODEL 2
REMARK VINA RESULT: -7.222470433      0.823      1.196
REMARK  9 active torsions:
REMARK  status: ('A' for Active; 'I' for Inactive)
REMARK    1  A    between atoms: C2_2  and  O2_4 
REMARK    2  A    between atoms: O2_4  and  C3_5 
REMARK    3  A    between atoms: C3_5  and  C5_7 
REMARK    4  A    between atoms: C5_7  and  C6_8 
REMARK    5  A    between atoms: C5_7  and  N1_14 
REMARK    6  A    between atoms: C6_8  and  C7_9 
REMARK       I    between atoms: N1_14  and  C12_16 
REMARK       I    between atoms: C12_16  and  N2_18 
REMARK    7  A    between atoms: C15_21  and  C16_22 
REMARK    8  A    between atoms: C16_22  and  O4_23 
REMARK    9  A    between atoms: N3_25  and  O5_27 
ROOT
HETATM    1  N1  UNL     1      -6.728   9.258  15.165  1.00  0.00    -0.336 N 
ATOM      2  H1  UNL     1      -5.854   9.640  14.802  1.00  0.00     0.164 HD
HETATM    3  C12 UNL     1      -6.803   7.870  15.455  1.00  0.00     0.318 C 
HETATM    4  O3  UNL     1      -7.896   7.435  15.902  1.00  0.00    -0.247 OA
HETATM    5  N2  UNL     1      -5.730   6.990  15.265  1.00  0.00    -0.333 N 
HETATM    6  C13 UNL     1      -5.753   5.567  15.526  1.00  0.00     0.128 C 
HETATM    7  C14 UNL     1      -4.374   5.052  15.184  1.00  0.00     0.034 C 
HETATM    8  C15 UNL     1      -3.554   6.323  15.495  1.00  0.00     0.082 C 
HETATM    9  C17 UNL     1      -4.416   7.339  14.783  1.00  0.00     0.140 C 
ENDROOT
BRANCH   1  10
HETATM   10  C5  UNL     1      -7.850  10.148  15.367  1.00  0.00     0.115 C 
BRANCH  10  11
HETATM   11  C3  UNL     1      -7.713  10.832  16.741  1.00  0.00     0.150 C 
HETATM   12  C4  UNL     1      -8.702  10.271  17.728  1.00  0.00     0.042 C 
BRANCH  11  13
HETATM   13  O2  UNL     1      -7.901  12.211  16.577  1.00  0.00    -0.315 OA
BRANCH  13  14
HETATM   14  C2  UNL     1      -7.523  13.132  17.511  1.00  0.00     0.255 C 
HETATM   15  C1  UNL     1      -6.250  12.987  18.308  1.00  0.00     0.126 C 
HETATM   16  O1  UNL     1      -8.211  14.147  17.760  1.00  0.00    -0.266 OA
ENDBRANCH  13  14
ENDBRANCH  11  13
ENDBRANCH  10  11
BRANCH  10  17
HETATM   17  C6  UNL     1      -7.983  11.175  14.291  1.00  0.00     0.032 C 
BRANCH  17  18
HETATM   18  C7  UNL     1      -6.728  11.684  13.683  1.00  0.00    -0.013 C 
HETATM   19  C8  UNL     1      -6.171  10.523  12.834  1.00  0.00     0.005 C 
HETATM   20  C9  UNL     1      -5.186  11.206  11.913  1.00  0.00     0.000 C 
HETATM   21  C10 UNL     1      -6.032  12.388  11.448  1.00  0.00     0.000 C 
HETATM   22  C11 UNL     1      -6.870  12.759  12.670  1.00  0.00     0.005 C 
ENDBRANCH  17  18
ENDBRANCH  10  17
ENDBRANCH   1  10
BRANCH   8  23
HETATM   23  C16 UNL     1      -2.191   6.205  15.029  1.00  0.00     0.141 C 
HETATM   24  N3  UNL     1      -1.239   5.684  15.637  1.00  0.00    -0.251 N 
ATOM     25  H3  UNL     1      -0.357   5.709  15.124  1.00  0.00     0.196 HD
BRANCH  23  26
HETATM   26  O4  UNL     1      -1.915   6.736  13.748  1.00  0.00    -0.348 OA
ATOM     27  H4  UNL     1      -2.191   6.213  13.005  1.00  0.00     0.219 HD
ENDBRANCH  23  26
BRANCH  24  28
HETATM   28  O5  UNL     1      -1.152   5.095  16.845  1.00  0.00    -0.288 OA
ATOM     29  H5  UNL     1      -1.361   4.217  17.143  1.00  0.00     0.244 HD
ENDBRANCH  24  28
ENDBRANCH   8  23
TORSDOF 9
ENDMDL
MODEL 3
REMARK VINA RESULT: -7.148348069      2.576      6.511
REMARK  9 active torsions:
REMARK  status: ('A' for Active; 'I' for Inactive)
REMARK    1  A    between atoms: C2_2  and  O2_4 
REMARK    2  A    between atoms: O2_4  and  C3_5 
REMARK    3  A    between atoms: C3_5  and  C5_7 
REMARK    4  A    between atoms: C5_7  and  C6_8 
REMARK    5  A    between atoms: C5_7  and  N1_14 
REMARK    6  A    between atoms: C6_8  and  C7_9 
REMARK       I    between atoms: N1_14  and  C12_16 
REMARK       I    between atoms: C12_16  and  N2_18 
REMARK    7  A    between atoms: C15_21  and  C16_22 
REMARK    8  A    between atoms: C16_22  and  O4_23 
REMARK    9  A    between atoms: N3_25  and  O5_27 
ROOT
HETATM    1  N1  UNL     1      -5.533   9.868  13.649  1.00  0.00    -0.336 N 
ATOM      2  H1  UNL     1      -5.156  10.795  13.847  1.00  0.00     0.164 HD
HETATM    3  C12 UNL     1      -6.504   9.319  14.527  1.00  0.00     0.318 C 
HETATM    4  O3  UNL     1      -6.948   8.175  14.251  1.00  0.00    -0.247 OA
HETATM    5  N2  UNL     1      -6.975   9.992  15.663  1.00  0.00    -0.333 N 
HETATM    6  C13 UNL     1      -7.947   9.478  16.602  1.00  0.00     0.128 C 
HETATM    7  C14 UNL     1      -8.141  10.556  17.643  1.00  0.00     0.034 C 
HETATM    8  C15 UNL     1      -7.842  11.795  16.771  1.00  0.00     0.082 C 
HETATM    9  C17 UNL     1      -6.580  11.310  16.098  1.00  0.00     0.140 C 
ENDROOT
BRANCH   1  10
HETATM   10  C5  UNL     1      -5.060   9.154  12.483  1.00  0.00     0.115 C 
BRANCH  10  11
HETATM   11  C3  UNL     1      -5.113  10.091  11.260  1.00  0.00     0.150 C 
HETATM   12  C4  UNL     1      -3.988   9.800  10.303  1.00  0.00     0.042 C 
BRANCH  11  13
HETATM   13  O2  UNL     1      -5.054  11.418  11.709  1.00  0.00    -0.315 OA
BRANCH  13  14
HETATM   14  C2  UNL     1      -6.055  12.322  11.497  1.00  0.00     0.255 C 
HETATM   15  C1  UNL     1      -6.997  12.744  12.596  1.00  0.00     0.126 C 
HETATM   16  O1  UNL     1      -6.247  12.850  10.379  1.00  0.00    -0.266 OA
ENDBRANCH  13  14
ENDBRANCH  11  13
ENDBRANCH  10  11
BRANCH  10  17
HETATM   17  C6  UNL     1      -3.683   8.603  12.652  1.00  0.00     0.032 C 
BRANCH  17  18
HETATM   18  C7  UNL     1      -3.234   8.322  14.039  1.00  0.00    -0.013 C 
HETATM   19  C8  UNL     1      -3.777   6.919  14.381  1.00  0.00     0.005 C 
HETATM   20  C9  UNL     1      -2.946   6.504  15.573  1.00  0.00     0.000 C 
HETATM   21  C10 UNL     1      -1.554   6.875  15.069  1.00  0.00     0.000 C 
HETATM   22  C11 UNL     1      -1.775   8.138  14.239  1.00  0.00     0.005 C 
ENDBRANCH  17  18
ENDBRANCH  10  17
ENDBRANCH   1  10
BRANCH   8  23
HETATM   23  C16 UNL     1      -7.718  12.993  17.571  1.00  0.00     0.141 C 
HETATM   24  N3  UNL     1      -6.771  13.293  18.319  1.00  0.00    -0.251 N 
ATOM     25  H3  UNL     1      -6.887  14.188  18.794  1.00  0.00     0.196 HD
BRANCH  23  26
HETATM   26  O4  UNL     1      -8.784  13.918  17.490  1.00  0.00    -0.348 OA
ATOM     27  H4  UNL     1      -8.877  14.521  18.217  1.00  0.00     0.219 HD
ENDBRANCH  23  26
BRANCH  24  28
HETATM   28  O5  UNL     1      -5.622  12.659  18.622  1.00  0.00    -0.288 OA
ATOM     29  H5  UNL     1      -4.719  12.952  18.645  1.00  0.00     0.244 HD
ENDBRANCH  24  28
ENDBRANCH   8  23
TORSDOF 9
ENDMDL
MODEL 4
REMARK VINA RESULT: -7.079562428      0.508      1.122
REMARK  9 active torsions:
REMARK  status: ('A' for Active; 'I' for Inactive)
REMARK    1  A    between atoms: C2_2  and  O2_4 
REMARK    2  A    between atoms: O2_4  and  C3_5 
REMARK    3  A    between atoms: C3_5  and  C5_7 
REMARK    4  A    between atoms: C5_7  and  C6_8 
REMARK    5  A    between atoms: C5_7  and  N1_14 
REMARK    6  A    between atoms: C6_8  and  C7_9 
REMARK       I    between atoms: N1_14  and  C12_16 
REMARK       I    between atoms: C12_16  and  N2_18 
REMARK    7  A    between atoms: C15_21  and  C16_22 
REMARK    8  A    between atoms: C16_22  and  O4_23 
REMARK    9  A    between atoms: N3_25  and  O5_27 
ROOT
HETATM    1  N1  UNL     1      -6.536   9.556  14.826  1.00  0.00    -0.336 N 
ATOM      2  H1  UNL     1      -5.647   9.834  14.409  1.00  0.00     0.164 HD
HETATM    3  C12 UNL     1      -6.699   8.217  15.269  1.00  0.00     0.318 C 
HETATM    4  O3  UNL     1      -7.808   7.910  15.779  1.00  0.00    -0.247 OA
HETATM    5  N2  UNL     1      -5.692   7.248  15.161  1.00  0.00    -0.333 N 
HETATM    6  C13 UNL     1      -5.806   5.867  15.577  1.00  0.00     0.128 C 
HETATM    7  C14 UNL     1      -4.473   5.223  15.272  1.00  0.00     0.034 C 
HETATM    8  C15 UNL     1      -3.562   6.460  15.428  1.00  0.00     0.082 C 
HETATM    9  C17 UNL     1      -4.370   7.450  14.622  1.00  0.00     0.140 C 
ENDROOT
BRANCH   1  10
HETATM   10  C5  UNL     1      -7.590  10.539  14.946  1.00  0.00     0.115 C 
BRANCH  10  11
HETATM   11  C3  UNL     1      -7.738  10.945  16.425  1.00  0.00     0.150 C 
HETATM   12  C4  UNL     1      -9.180  11.185  16.783  1.00  0.00     0.042 C 
BRANCH  11  13
HETATM   13  O2  UNL     1      -6.970  12.096  16.652  1.00  0.00    -0.315 OA
BRANCH  13  14
HETATM   14  C2  UNL     1      -7.002  12.794  17.825  1.00  0.00     0.255 C 
HETATM   15  C1  UNL     1      -8.199  13.615  18.236  1.00  0.00     0.126 C 
HETATM   16  O1  UNL     1      -6.040  12.792  18.625  1.00  0.00    -0.266 OA
ENDBRANCH  13  14
ENDBRANCH  11  13
ENDBRANCH  10  11
BRANCH  10  17
HETATM   17  C6  UNL     1      -7.363  11.747  14.099  1.00  0.00     0.032 C 
BRANCH  17  18
HETATM   18  C7  UNL     1      -6.952  11.517  12.691  1.00  0.00    -0.013 C 
HETATM   19  C8  UNL     1      -6.789  12.918  12.066  1.00  0.00     0.005 C 
HETATM   20  C9  UNL     1      -5.963  12.655  10.828  1.00  0.00     0.000 C 
HETATM   21  C10 UNL     1      -4.878  11.759  11.419  1.00  0.00     0.000 C 
HETATM   22  C11 UNL     1      -5.603  10.935  12.482  1.00  0.00     0.005 C 
ENDBRANCH  17  18
ENDBRANCH  10  17
ENDBRANCH   1  10
BRANCH   8  23
HETATM   23  C16 UNL     1      -2.220   6.197  14.956  1.00  0.00     0.141 C 
HETATM   24  N3  UNL     1      -1.677   6.684  13.949  1.00  0.00    -0.251 N 
ATOM     25  H3  UNL     1      -0.722   6.361  13.797  1.00  0.00     0.196 HD
BRANCH  23  26
HETATM   26  O4  UNL     1      -1.449   5.294  15.723  1.00  0.00    -0.348 OA
ATOM     27  H4  UNL     1      -1.893   4.867  16.446  1.00  0.00     0.219 HD
ENDBRANCH  23  26
BRANCH  24  28
HETATM   28  O5  UNL     1      -2.112   7.557  13.020  1.00  0.00    -0.288 OA
ATOM     29  H5  UNL     1      -2.394   7.443  12.120  1.00  0.00     0.244 HD
ENDBRANCH  24  28
ENDBRANCH   8  23
TORSDOF 9
ENDMDL
MODEL 5
REMARK VINA RESULT: -7.021801826      2.608      6.895
REMARK  9 active torsions:
REMARK  status: ('A' for Active; 'I' for Inactive)
REMARK    1  A    between atoms: C2_2  and  O2_4 
REMARK    2  A    between atoms: O2_4  and  C3_5 
REMARK    3  A    between atoms: C3_5  and  C5_7 
REMARK    4  A    between atoms: C5_7  and  C6_8 
REMARK    5  A    between atoms: C5_7  and  N1_14 
REMARK    6  A    between atoms: C6_8  and  C7_9 
REMARK       I    between atoms: N1_14  and  C12_16 
REMARK       I    between atoms: C12_16  and  N2_18 
REMARK    7  A    between atoms: C15_21  and  C16_22 
REMARK    8  A    between atoms: C16_22  and  O4_23 
REMARK    9  A    between atoms: N3_25  and  O5_27 
ROOT
HETATM    1  N1  UNL     1      -5.573  10.066  14.142  1.00  0.00    -0.336 N 
ATOM      2  H1  UNL     1      -5.255  11.027  14.274  1.00  0.00     0.164 HD
HETATM    3  C12 UNL     1      -6.583   9.553  14.998  1.00  0.00     0.318 C 
HETATM    4  O3  UNL     1      -6.950   8.365  14.805  1.00  0.00    -0.247 OA
HETATM    5  N2  UNL     1      -7.169  10.304  16.025  1.00  0.00    -0.333 N 
HETATM    6  C13 UNL     1      -8.186   9.831  16.938  1.00  0.00     0.128 C 
HETATM    7  C14 UNL     1      -8.509  10.991  17.851  1.00  0.00     0.034 C 
HETATM    8  C15 UNL     1      -8.201  12.156  16.884  1.00  0.00     0.082 C 
HETATM    9  C17 UNL     1      -6.870  11.676  16.355  1.00  0.00     0.140 C 
ENDROOT
BRANCH   1  10
HETATM   10  C5  UNL     1      -4.980   9.271  13.090  1.00  0.00     0.115 C 
BRANCH  10  11
HETATM   11  C3  UNL     1      -5.228   9.960  11.733  1.00  0.00     0.150 C 
HETATM   12  C4  UNL     1      -4.283   9.445  10.680  1.00  0.00     0.042 C 
BRANCH  11  13
HETATM   13  O2  UNL     1      -5.081  11.344  11.901  1.00  0.00    -0.315 OA
BRANCH  13  14
HETATM   14  C2  UNL     1      -6.049  12.244  11.558  1.00  0.00     0.255 C 
HETATM   15  C1  UNL     1      -7.023  12.795  12.569  1.00  0.00     0.126 C 
HETATM   16  O1  UNL     1      -6.184  12.660  10.386  1.00  0.00    -0.266 OA
ENDBRANCH  13  14
ENDBRANCH  11  13
ENDBRANCH  10  11
BRANCH  10  17
HETATM   17  C6  UNL     1      -3.519   9.033  13.288  1.00  0.00     0.032 C 
BRANCH  17  18
HETATM   18  C7  UNL     1      -3.101   7.652  13.637  1.00  0.00    -0.013 C 
HETATM   19  C8  UNL     1      -1.771   7.796  14.406  1.00  0.00     0.005 C 
HETATM   20  C9  UNL     1      -1.628   6.466  15.108  1.00  0.00     0.000 C 
HETATM   21  C10 UNL     1      -3.033   6.315  15.683  1.00  0.00     0.000 C 
HETATM   22  C11 UNL     1      -3.945   6.934  14.625  1.00  0.00     0.005 C 
ENDBRANCH  17  18
ENDBRANCH  10  17
ENDBRANCH   1  10
BRANCH   8  23
HETATM   23  C16 UNL     1      -8.194  13.429  17.569  1.00  0.00     0.141 C 
HETATM   24  N3  UNL     1      -7.997  14.547  17.059  1.00  0.00    -0.251 N 
ATOM     25  H3  UNL     1      -8.035  15.318  17.726  1.00  0.00     0.196 HD
BRANCH  23  26
HETATM   26  O4  UNL     1      -8.440  13.397  18.961  1.00  0.00    -0.348 OA
ATOM     27  H4  UNL     1      -7.993  14.052  19.484  1.00  0.00     0.219 HD
ENDBRANCH  23  26
BRANCH  24  28
HETATM   28  O5  UNL     1      -7.742  14.931  15.794  1.00  0.00    -0.288 OA
ATOM     29  H5  UNL     1      -8.313  15.143  15.065  1.00  0.00     0.244 HD
ENDBRANCH  24  28
ENDBRANCH   8  23
TORSDOF 9
ENDMDL
