MODEL 1
REMARK VINA RESULT: -7.533465367      0.000      0.000
REMARK  7 active torsions:
REMARK  status: ('A' for Active; 'I' for Inactive)
REMARK    1  A    between atoms: C2_2  and  C3_3 
REMARK    2  A    between atoms: C3_3  and  C4_4 
REMARK    3  A    between atoms: C4_4  and  N1_5 
REMARK    4  A    between atoms: C4_4  and  C15_23 
REMARK       I    between atoms: N1_5  and  C5_7 
REMARK    5  A    between atoms: C5_7  and  C6_9 
REMARK    6  A    between atoms: C6_9  and  N2_10 
REMARK    7  A    between atoms: N2_10  and  C7_11 
REMARK       I    between atoms: N2_10  and  C9_13 
REMARK       I    between atoms: C15_23  and  N5_25 
ROOT
HETATM    1  N2  UNL     1      18.406   3.558  10.260  1.00  0.00    -0.322 N 
HETATM    2  C9  UNL     1      17.565   4.653   9.847  1.00  0.00     0.325 C 
HETATM    3  O2  UNL     1      16.421   4.746  10.353  1.00  0.00    -0.256 OA
HETATM    4  C10 UNL     1      18.078   5.571   8.887  1.00  0.00     0.162 C 
HETATM    5  N3  UNL     1      18.503   6.340   8.104  1.00  0.00    -0.186 NA
ENDROOT
BRANCH   1   6
HETATM    6  C6  UNL     1      17.895   2.602  11.257  1.00  0.00     0.120 C 
HETATM    7  C11 UNL     1      18.847   1.432  11.262  1.00  0.00     0.060 C 
HETATM    8  C12 UNL     1      18.306   0.273  12.040  1.00  0.00     0.116 C 
HETATM    9  N4  UNL     1      17.037  -0.154  11.551  1.00  0.00    -0.421 N 
HETATM   10  C13 UNL     1      16.425   0.689  10.575  1.00  0.00     0.116 C 
ATOM     11  H4  UNL     1      16.593  -1.011  11.879  1.00  0.00     0.153 HD
HETATM   12  C14 UNL     1      16.535   2.147  10.878  1.00  0.00     0.060 C 
BRANCH   6  13
HETATM   13  C5  UNL     1      17.895   3.274  12.604  1.00  0.00     0.247 C 
HETATM   14  N1  UNL     1      16.729   3.753  13.220  1.00  0.00    -0.345 N 
ATOM     15  H1  UNL     1      15.832   3.651  12.746  1.00  0.00     0.163 HD
HETATM   16  O1  UNL     1      19.003   3.415  13.206  1.00  0.00    -0.271 OA
BRANCH  14  17
HETATM   17  C4  UNL     1      16.780   4.392  14.528  1.00  0.00     0.180 C 
BRANCH  17  18
HETATM   18  C3  UNL     1      16.620   5.889  14.387  1.00  0.00     0.061 C 
BRANCH  18  19
HETATM   19  C2  UNL     1      17.800   6.642  14.867  1.00  0.00    -0.034 C 
HETATM   20  C1  UNL     1      18.857   6.866  14.112  1.00  0.00     0.007 C 
ENDBRANCH  18  19
ENDBRANCH  17  18
BRANCH  17  21
HETATM   21  C15 UNL     1      15.712   3.777  15.345  1.00  0.00     0.243 C 
HETATM   22  O3  UNL     1      14.598   4.413  15.353  1.00  0.00    -0.271 OA
HETATM   23  N5  UNL     1      15.775   2.605  16.091  1.00  0.00    -0.346 N 
HETATM   24  C16 UNL     1      14.644   2.142  16.856  1.00  0.00     0.152 C 
HETATM   25  C19 UNL     1      16.955   1.781  16.125  1.00  0.00     0.152 C 
HETATM   26  C17 UNL     1      14.999   1.072  17.832  1.00  0.00     0.187 C 
HETATM   27  O4  UNL     1      15.828   0.105  17.351  1.00  0.00    -0.388 OA
HETATM   28  C18 UNL     1      16.427   0.332  16.145  1.00  0.00     0.187 C 
ENDBRANCH  17  21
ENDBRANCH  14  17
ENDBRANCH   6  13
ENDBRANCH   1   6
BRANCH   1  29
HETATM   29  C7  UNL     1      19.704   3.449   9.685  1.00  0.00     0.124 C 
HETATM   30  C8  UNL     1      20.736   4.288  10.415  1.00  0.00     0.026 C 
ENDBRANCH   1  29
TORSDOF 7
ENDMDL
MODEL 2
REMARK VINA RESULT: -7.480120201      1.115      3.191
REMARK  7 active torsions:
REMARK  status: ('A' for Active; 'I' for Inactive)
REMARK    1  A    between atoms: C2_2  and  C3_3 
REMARK    2  A    between atoms: C3_3  and  C4_4 
REMARK    3  A    between atoms: C4_4  and  N1_5 
REMARK    4  A    between atoms: C4_4  and  C15_23 
REMARK       I    between atoms: N1_5  and  C5_7 
REMARK    5  A    between atoms: C5_7  and  C6_9 
REMARK    6  A    between atoms: C6_9  and  N2_10 
REMARK    7  A    between atoms: N2_10  and  C7_11 
REMARK       I    between atoms: N2_10  and  C9_13 
REMARK       I    between atoms: C15_23  and  N5_25 
ROOT
HETATM    1  N2  UNL     1      18.067   2.507  10.923  1.00  0.00    -0.322 N 
HETATM    2  C9  UNL     1      16.816   1.882  11.268  1.00  0.00     0.325 C 
HETATM    3  O2  UNL     1      15.945   2.577  11.845  1.00  0.00    -0.256 OA
HETATM    4  C10 UNL     1      16.634   0.509  10.937  1.00  0.00     0.162 C 
HETATM    5  N3  UNL     1      16.475  -0.622  10.654  1.00  0.00    -0.186 NA
ENDROOT
BRANCH   1   6
HETATM    6  C6  UNL     1      18.270   3.928  11.250  1.00  0.00     0.120 C 
HETATM    7  C11 UNL     1      17.153   4.690  10.582  1.00  0.00     0.060 C 
HETATM    8  C12 UNL     1      17.385   6.168  10.615  1.00  0.00     0.116 C 
HETATM    9  N4  UNL     1      18.626   6.529  10.013  1.00  0.00    -0.421 N 
HETATM   10  C13 UNL     1      19.498   5.450   9.680  1.00  0.00     0.116 C 
ATOM     11  H4  UNL     1      18.876   7.500   9.832  1.00  0.00     0.153 HD
HETATM   12  C14 UNL     1      19.580   4.389  10.728  1.00  0.00     0.060 C 
BRANCH   6  13
HETATM   13  C5  UNL     1      18.186   4.090  12.743  1.00  0.00     0.247 C 
HETATM   14  N1  UNL     1      17.084   4.668  13.390  1.00  0.00    -0.345 N 
ATOM     15  H1  UNL     1      16.295   5.003  12.836  1.00  0.00     0.163 HD
HETATM   16  O1  UNL     1      19.161   3.685  13.448  1.00  0.00    -0.271 OA
BRANCH  14  17
HETATM   17  C4  UNL     1      17.047   4.797  14.841  1.00  0.00     0.180 C 
BRANCH  17  18
HETATM   18  C3  UNL     1      16.982   6.256  15.235  1.00  0.00     0.061 C 
BRANCH  18  19
HETATM   19  C2  UNL     1      18.065   7.064  14.632  1.00  0.00    -0.034 C 
HETATM   20  C1  UNL     1      18.652   8.057  15.270  1.00  0.00     0.007 C 
ENDBRANCH  18  19
ENDBRANCH  17  18
BRANCH  17  21
HETATM   21  C15 UNL     1      15.876   4.026  15.308  1.00  0.00     0.243 C 
HETATM   22  O3  UNL     1      14.747   4.624  15.190  1.00  0.00    -0.271 OA
HETATM   23  N5  UNL     1      15.858   2.745  15.849  1.00  0.00    -0.346 N 
HETATM   24  C16 UNL     1      14.626   2.130  16.278  1.00  0.00     0.152 C 
HETATM   25  C19 UNL     1      17.054   1.956  15.990  1.00  0.00     0.152 C 
HETATM   26  C17 UNL     1      14.842   0.916  17.118  1.00  0.00     0.187 C 
HETATM   27  O4  UNL     1      15.806   0.067  16.667  1.00  0.00    -0.388 OA
HETATM   28  C18 UNL     1      16.618   0.513  15.664  1.00  0.00     0.187 C 
ENDBRANCH  17  21
ENDBRANCH  14  17
ENDBRANCH   6  13
ENDBRANCH   1   6
BRANCH   1  29
HETATM   29  C7  UNL     1      19.058   1.719  10.270  1.00  0.00     0.124 C 
HETATM   30  C8  UNL     1      19.906   0.925  11.246  1.00  0.00     0.026 C 
ENDBRANCH   1  29
TORSDOF 7
ENDMDL
MODEL 3
REMARK VINA RESULT: -7.355204805      1.820      4.396
REMARK  7 active torsions:
REMARK  status: ('A' for Active; 'I' for Inactive)
REMARK    1  A    between atoms: C2_2  and  C3_3 
REMARK    2  A    between atoms: C3_3  and  C4_4 
REMARK    3  A    between atoms: C4_4  and  N1_5 
REMARK    4  A    between atoms: C4_4  and  C15_23 
REMARK       I    between atoms: N1_5  and  C5_7 
REMARK    5  A    between atoms: C5_7  and  C6_9 
REMARK    6  A    between atoms: C6_9  and  N2_10 
REMARK    7  A    between atoms: N2_10  and  C7_11 
REMARK       I    between atoms: N2_10  and  C9_13 
REMARK       I    between atoms: C15_23  and  N5_25 
ROOT
HETATM    1  N2  UNL     1      18.299   5.403  12.331  1.00  0.00    -0.322 N 
HETATM    2  C9  UNL     1      18.633   5.349  13.732  1.00  0.00     0.325 C 
HETATM    3  O2  UNL     1      19.116   4.284  14.186  1.00  0.00    -0.256 OA
HETATM    4  C10 UNL     1      18.397   6.508  14.525  1.00  0.00     0.162 C 
HETATM    5  N3  UNL     1      18.215   7.467  15.183  1.00  0.00    -0.186 NA
ENDROOT
BRANCH   1   6
HETATM    6  C6  UNL     1      18.544   4.218  11.492  1.00  0.00     0.120 C 
HETATM    7  C11 UNL     1      19.942   3.746  11.807  1.00  0.00     0.060 C 
HETATM    8  C12 UNL     1      20.415   2.707  10.838  1.00  0.00     0.116 C 
HETATM    9  N4  UNL     1      20.366   3.172   9.491  1.00  0.00    -0.421 N 
HETATM   10  C13 UNL     1      19.709   4.421   9.282  1.00  0.00     0.116 C 
ATOM     11  H4  UNL     1      20.777   2.642   8.723  1.00  0.00     0.153 HD
HETATM   12  C14 UNL     1      18.443   4.579  10.057  1.00  0.00     0.060 C 
BRANCH   6  13
HETATM   13  C5  UNL     1      17.544   3.157  11.864  1.00  0.00     0.247 C 
HETATM   14  N1  UNL     1      17.794   2.174  12.833  1.00  0.00    -0.345 N 
ATOM     15  H1  UNL     1      18.693   2.162  13.316  1.00  0.00     0.163 HD
HETATM   16  O1  UNL     1      16.423   3.152  11.269  1.00  0.00    -0.271 OA
BRANCH  14  17
HETATM   17  C4  UNL     1      16.790   1.170  13.162  1.00  0.00     0.180 C 
BRANCH  17  18
HETATM   18  C3  UNL     1      17.248  -0.197  12.706  1.00  0.00     0.061 C 
BRANCH  18  19
HETATM   19  C2  UNL     1      16.944  -0.460  11.282  1.00  0.00    -0.034 C 
HETATM   20  C1  UNL     1      17.823  -0.269  10.319  1.00  0.00     0.007 C 
ENDBRANCH  18  19
ENDBRANCH  17  18
BRANCH  17  21
HETATM   21  C15 UNL     1      16.576   1.245  14.622  1.00  0.00     0.243 C 
HETATM   22  O3  UNL     1      17.221   0.376  15.312  1.00  0.00    -0.271 OA
HETATM   23  N5  UNL     1      15.771   2.135  15.323  1.00  0.00    -0.346 N 
HETATM   24  C16 UNL     1      15.651   2.067  16.759  1.00  0.00     0.152 C 
HETATM   25  C19 UNL     1      15.033   3.182  14.665  1.00  0.00     0.152 C 
HETATM   26  C17 UNL     1      14.511   2.872  17.287  1.00  0.00     0.187 C 
HETATM   27  O4  UNL     1      14.375   4.109  16.737  1.00  0.00    -0.388 OA
HETATM   28  C18 UNL     1      15.115   4.388  15.624  1.00  0.00     0.187 C 
ENDBRANCH  17  21
ENDBRANCH  14  17
ENDBRANCH   6  13
ENDBRANCH   1   6
BRANCH   1  29
HETATM   29  C7  UNL     1      17.749   6.611  11.814  1.00  0.00     0.124 C 
HETATM   30  C8  UNL     1      16.237   6.657  11.929  1.00  0.00     0.026 C 
ENDBRANCH   1  29
TORSDOF 7
ENDMDL
MODEL 4
REMARK VINA RESULT: -7.238634576      1.331      3.514
REMARK  7 active torsions:
REMARK  status: ('A' for Active; 'I' for Inactive)
REMARK    1  A    between atoms: C2_2  and  C3_3 
REMARK    2  A    between atoms: C3_3  and  C4_4 
REMARK    3  A    between atoms: C4_4  and  N1_5 
REMARK    4  A    between atoms: C4_4  and  C15_23 
REMARK       I    between atoms: N1_5  and  C5_7 
REMARK    5  A    between atoms: C5_7  and  C6_9 
REMARK    6  A    between atoms: C6_9  and  N2_10 
REMARK    7  A    between atoms: N2_10  and  C7_11 
REMARK       I    between atoms: N2_10  and  C9_13 
REMARK       I    between atoms: C15_23  and  N5_25 
ROOT
HETATM    1  N2  UNL     1      18.219   2.328  11.148  1.00  0.00    -0.322 N 
HETATM    2  C9  UNL     1      19.104   1.208  11.347  1.00  0.00     0.325 C 
HETATM    3  O2  UNL     1      20.282   1.440  11.711  1.00  0.00    -0.256 OA
HETATM    4  C10 UNL     1      18.594  -0.101  11.119  1.00  0.00     0.162 C 
HETATM    5  N3  UNL     1      18.173  -1.186  10.944  1.00  0.00    -0.186 NA
ENDROOT
BRANCH   1   6
HETATM    6  C6  UNL     1      18.727   3.690  11.386  1.00  0.00     0.120 C 
HETATM    7  C11 UNL     1      17.907   4.615  10.521  1.00  0.00     0.060 C 
HETATM    8  C12 UNL     1      18.487   5.994  10.469  1.00  0.00     0.116 C 
HETATM    9  N4  UNL     1      19.836   5.989  10.007  1.00  0.00    -0.421 N 
HETATM   10  C13 UNL     1      20.449   4.707   9.875  1.00  0.00     0.116 C 
ATOM     11  H4  UNL     1      20.333   6.851   9.784  1.00  0.00     0.153 HD
HETATM   12  C14 UNL     1      20.158   3.775  11.004  1.00  0.00     0.060 C 
BRANCH   6  13
HETATM   13  C5  UNL     1      18.524   4.026  12.839  1.00  0.00     0.247 C 
HETATM   14  N1  UNL     1      17.300   4.470  13.360  1.00  0.00    -0.345 N 
ATOM     15  H1  UNL     1      16.499   4.579  12.737  1.00  0.00     0.163 HD
HETATM   16  O1  UNL     1      19.511   3.903  13.628  1.00  0.00    -0.271 OA
BRANCH  14  17
HETATM   17  C4  UNL     1      17.153   4.777  14.776  1.00  0.00     0.180 C 
BRANCH  17  18
HETATM   18  C3  UNL     1      17.024   6.270  14.977  1.00  0.00     0.061 C 
BRANCH  18  19
HETATM   19  C2  UNL     1      18.260   7.006  14.628  1.00  0.00    -0.034 C 
HETATM   20  C1  UNL     1      18.669   8.068  15.294  1.00  0.00     0.007 C 
ENDBRANCH  18  19
ENDBRANCH  17  18
BRANCH  17  21
HETATM   21  C15 UNL     1      15.969   4.032  15.253  1.00  0.00     0.243 C 
HETATM   22  O3  UNL     1      14.851   4.651  15.136  1.00  0.00    -0.271 OA
HETATM   23  N5  UNL     1      15.928   2.755  15.804  1.00  0.00    -0.346 N 
HETATM   24  C16 UNL     1      14.687   2.167  16.242  1.00  0.00     0.152 C 
HETATM   25  C19 UNL     1      17.109   1.945  15.946  1.00  0.00     0.152 C 
HETATM   26  C17 UNL     1      14.883   0.956  17.090  1.00  0.00     0.187 C 
HETATM   27  O4  UNL     1      15.827   0.085  16.641  1.00  0.00    -0.388 OA
HETATM   28  C18 UNL     1      16.644   0.508  15.632  1.00  0.00     0.187 C 
ENDBRANCH  17  21
ENDBRANCH  14  17
ENDBRANCH   6  13
ENDBRANCH   1   6
BRANCH   1  29
HETATM   29  C7  UNL     1      16.883   2.068  10.731  1.00  0.00     0.124 C 
HETATM   30  C8  UNL     1      15.987   1.644  11.880  1.00  0.00     0.026 C 
ENDBRANCH   1  29
TORSDOF 7
ENDMDL
MODEL 5
REMARK VINA RESULT: -7.237502304      1.928      7.245
REMARK  7 active torsions:
REMARK  status: ('A' for Active; 'I' for Inactive)
REMARK    1  A    between atoms: C2_2  and  C3_3 
REMARK    2  A    between atoms: C3_3  and  C4_4 
REMARK    3  A    between atoms: C4_4  and  N1_5 
REMARK    4  A    between atoms: C4_4  and  C15_23 
REMARK       I    between atoms: N1_5  and  C5_7 
REMARK    5  A    between atoms: C5_7  and  C6_9 
REMARK    6  A    between atoms: C6_9  and  N2_10 
REMARK    7  A    between atoms: N2_10  and  C7_11 
REMARK       I    between atoms: N2_10  and  C9_13 
REMARK       I    between atoms: C15_23  and  N5_25 
ROOT
HETATM    1  N2  UNL     1      15.669   2.394  15.719  1.00  0.00    -0.322 N 
HETATM    2  C9  UNL     1      16.415   1.280  16.247  1.00  0.00     0.325 C 
HETATM    3  O2  UNL     1      17.601   1.125  15.866  1.00  0.00    -0.256 OA
HETATM    4  C10 UNL     1      15.768   0.415  17.175  1.00  0.00     0.162 C 
HETATM    5  N3  UNL     1      15.241  -0.296  17.951  1.00  0.00    -0.186 NA
ENDROOT
BRANCH   1   6
HETATM    6  C6  UNL     1      16.325   3.304  14.765  1.00  0.00     0.120 C 
HETATM    7  C11 UNL     1      17.643   3.701  15.382  1.00  0.00     0.060 C 
HETATM    8  C12 UNL     1      18.293   4.826  14.639  1.00  0.00     0.116 C 
HETATM    9  N4  UNL     1      17.448   5.971  14.556  1.00  0.00    -0.421 N 
HETATM   10  C13 UNL     1      16.103   5.791  14.996  1.00  0.00     0.116 C 
ATOM     11  H4  UNL     1      17.785   6.866  14.203  1.00  0.00     0.153 HD
HETATM   12  C14 UNL     1      15.484   4.508  14.549  1.00  0.00     0.060 C 
BRANCH   6  13
HETATM   13  C5  UNL     1      16.559   2.559  13.479  1.00  0.00     0.247 C 
HETATM   14  N1  UNL     1      17.801   2.012  13.126  1.00  0.00    -0.345 N 
ATOM     15  H1  UNL     1      18.595   2.118  13.758  1.00  0.00     0.163 HD
HETATM   16  O1  UNL     1      15.584   2.422  12.677  1.00  0.00    -0.271 OA
BRANCH  14  17
HETATM   17  C4  UNL     1      17.976   1.294  11.871  1.00  0.00     0.180 C 
BRANCH  17  18
HETATM   18  C3  UNL     1      16.763   0.437  11.583  1.00  0.00     0.061 C 
BRANCH  18  19
HETATM   19  C2  UNL     1      17.028  -1.009  11.751  1.00  0.00    -0.034 C 
HETATM   20  C1  UNL     1      18.135  -1.584  11.325  1.00  0.00     0.007 C 
ENDBRANCH  18  19
ENDBRANCH  17  18
BRANCH  17  21
HETATM   21  C15 UNL     1      18.217   2.312  10.827  1.00  0.00     0.243 C 
HETATM   22  O3  UNL     1      17.208   2.577  10.080  1.00  0.00    -0.271 OA
HETATM   23  N5  UNL     1      19.393   3.007  10.567  1.00  0.00    -0.346 N 
HETATM   24  C16 UNL     1      19.477   3.964   9.492  1.00  0.00     0.152 C 
HETATM   25  C19 UNL     1      20.579   2.829  11.363  1.00  0.00     0.152 C 
HETATM   26  C17 UNL     1      20.879   4.354   9.166  1.00  0.00     0.187 C 
HETATM   27  O4  UNL     1      21.675   4.598  10.243  1.00  0.00    -0.388 OA
HETATM   28  C18 UNL     1      21.200   4.238  11.471  1.00  0.00     0.187 C 
ENDBRANCH  17  21
ENDBRANCH  14  17
ENDBRANCH   6  13
ENDBRANCH   1   6
BRANCH   1  29
HETATM   29  C7  UNL     1      14.323   2.570  16.150  1.00  0.00     0.124 C 
HETATM   30  C8  UNL     1      14.216   3.451  17.380  1.00  0.00     0.026 C 
ENDBRANCH   1  29
TORSDOF 7
ENDMDL
