MODEL 1
REMARK VINA RESULT: -8.166486214      0.000      0.000
REMARK  9 active torsions:
REMARK  status: ('A' for Active; 'I' for Inactive)
REMARK    1  A    between atoms: C2_3  and  N2_4 
REMARK    2  A    between atoms: N2_4  and  O1_5 
REMARK       I    between atoms: N2_4  and  C3_7 
REMARK    3  A    between atoms: C3_7  and  C4_9 
REMARK    4  A    between atoms: C4_9  and  N3_10 
REMARK    5  A    between atoms: C4_9  and  C11_22 
REMARK    6  A    between atoms: N3_10  and  C5_13 
REMARK    7  A    between atoms: C5_13  and  C6_14 
REMARK       I    between atoms: C6_14  and  N4_16 
REMARK       I    between atoms: C11_22  and  N5_24 
REMARK    8  A    between atoms: N5_24  and  C12_26 
REMARK    9  A    between atoms: C12_26  and  C13_27 
ROOT
HETATM    1  N1  UNL     1      18.651  -2.294  11.597  1.00  0.00    -0.195 NA
HETATM    2  C1  UNL     1      17.871  -1.449  11.455  1.00  0.00     0.081 C 
HETATM    3  C2  UNL     1      16.893  -0.357  11.290  1.00  0.00     0.282 C 
ENDROOT
BRANCH   3   4
HETATM    4  N2  UNL     1      17.561   0.921  11.458  1.00  0.00    -0.213 N 
HETATM    5  C3  UNL     1      16.838   2.132  11.401  1.00  0.00     0.284 C 
HETATM    6  O2  UNL     1      15.594   2.081  11.230  1.00  0.00    -0.268 OA
BRANCH   4   7
HETATM    7  O1  UNL     1      18.890   0.879  11.686  1.00  0.00    -0.284 OA
ATOM      8  H1  UNL     1      19.160   0.664  12.572  1.00  0.00     0.245 HD
ENDBRANCH   4   7
BRANCH   5   9
HETATM    9  C4  UNL     1      17.495   3.455  11.538  1.00  0.00     0.370 C 
BRANCH   9  10
HETATM   10  N3  UNL     1      17.001   4.069  12.760  1.00  0.00    -0.045 N 
ATOM     11  H32 UNL     1      17.179   5.074  12.748  1.00  0.00     0.279 HD
ATOM     12  H31 UNL     1      15.981   4.070  12.769  1.00  0.00     0.279 HD
BRANCH  10  13
HETATM   13  C5  UNL     1      17.505   3.493  13.962  1.00  0.00     0.336 C 
BRANCH  13  14
HETATM   14  C6  UNL     1      16.395   3.365  14.933  1.00  0.00     0.245 C 
HETATM   15  O3  UNL     1      15.844   4.389  15.394  1.00  0.00    -0.272 OA
HETATM   16  N4  UNL     1      15.908   2.101  15.384  1.00  0.00    -0.347 N 
HETATM   17  C7  UNL     1      16.546   0.916  14.851  1.00  0.00     0.152 C 
HETATM   18  C10 UNL     1      14.829   1.976  16.327  1.00  0.00     0.152 C 
HETATM   19  C8  UNL     1      16.792  -0.015  16.024  1.00  0.00     0.187 C 
HETATM   20  O4  UNL     1      15.639  -0.255  16.732  1.00  0.00    -0.388 OA
HETATM   21  C9  UNL     1      15.087   0.862  17.308  1.00  0.00     0.187 C 
ENDBRANCH  13  14
ENDBRANCH  10  13
ENDBRANCH   9  10
BRANCH   9  22
HETATM   22  C11 UNL     1      17.050   4.398  10.427  1.00  0.00     0.261 C 
HETATM   23  O5  UNL     1      17.401   4.106   9.269  1.00  0.00    -0.270 OA
HETATM   24  N5  UNL     1      16.288   5.538  10.687  1.00  0.00    -0.338 N 
ATOM     25  H5  UNL     1      16.033   5.685  11.663  1.00  0.00     0.167 HD
BRANCH  24  26
HETATM   26  C12 UNL     1      15.827   6.511   9.782  1.00  0.00     0.068 C 
BRANCH  26  27
HETATM   27  C13 UNL     1      14.500   7.119   9.851  1.00  0.00     0.024 C 
HETATM   28  C14 UNL     1      14.034   7.260   8.372  1.00  0.00     0.010 C 
HETATM   29  C15 UNL     1      13.040   8.364   8.202  1.00  0.00     0.001 C 
HETATM   30  C16 UNL     1      13.641   9.727   8.474  1.00  0.00     0.000 C 
HETATM   31  C17 UNL     1      14.626   9.616   9.598  1.00  0.00     0.001 C 
HETATM   32  C18 UNL     1      14.235   8.422  10.470  1.00  0.00     0.010 C 
ENDBRANCH  26  27
ENDBRANCH  24  26
ENDBRANCH   9  22
ENDBRANCH   5   9
ENDBRANCH   3   4
TORSDOF 9
ENDMDL
MODEL 2
REMARK VINA RESULT: -8.015765241      0.737      1.149
REMARK  9 active torsions:
REMARK  status: ('A' for Active; 'I' for Inactive)
REMARK    1  A    between atoms: C2_3  and  N2_4 
REMARK    2  A    between atoms: N2_4  and  O1_5 
REMARK       I    between atoms: N2_4  and  C3_7 
REMARK    3  A    between atoms: C3_7  and  C4_9 
REMARK    4  A    between atoms: C4_9  and  N3_10 
REMARK    5  A    between atoms: C4_9  and  C11_22 
REMARK    6  A    between atoms: N3_10  and  C5_13 
REMARK    7  A    between atoms: C5_13  and  C6_14 
REMARK       I    between atoms: C6_14  and  N4_16 
REMARK       I    between atoms: C11_22  and  N5_24 
REMARK    8  A    between atoms: N5_24  and  C12_26 
REMARK    9  A    between atoms: C12_26  and  C13_27 
ROOT
HETATM    1  N1  UNL     1      18.616  -2.513  11.562  1.00  0.00    -0.195 NA
HETATM    2  C1  UNL     1      17.869  -1.642  11.402  1.00  0.00     0.081 C 
HETATM    3  C2  UNL     1      16.931  -0.519  11.216  1.00  0.00     0.282 C 
ENDROOT
BRANCH   3   4
HETATM    4  N2  UNL     1      17.609   0.731  11.512  1.00  0.00    -0.213 N 
HETATM    5  C3  UNL     1      16.907   1.956  11.511  1.00  0.00     0.284 C 
HETATM    6  O2  UNL     1      15.673   1.941  11.276  1.00  0.00    -0.268 OA
BRANCH   4   7
HETATM    7  O1  UNL     1      18.924   0.648  11.800  1.00  0.00    -0.284 OA
ATOM      8  H1  UNL     1      19.333   1.435  12.139  1.00  0.00     0.245 HD
ENDBRANCH   4   7
BRANCH   5   9
HETATM    9  C4  UNL     1      17.575   3.253  11.778  1.00  0.00     0.370 C 
BRANCH   9  10
HETATM   10  N3  UNL     1      16.755   3.985  12.731  1.00  0.00    -0.045 N 
ATOM     11  H32 UNL     1      16.654   4.956  12.437  1.00  0.00     0.279 HD
ATOM     12  H31 UNL     1      15.784   3.679  12.669  1.00  0.00     0.279 HD
BRANCH  10  13
HETATM   13  C5  UNL     1      17.209   3.921  14.080  1.00  0.00     0.336 C 
BRANCH  13  14
HETATM   14  C6  UNL     1      16.049   3.658  14.962  1.00  0.00     0.245 C 
HETATM   15  O3  UNL     1      15.351   4.609  15.381  1.00  0.00    -0.272 OA
HETATM   16  N4  UNL     1      15.676   2.343  15.373  1.00  0.00    -0.347 N 
HETATM   17  C7  UNL     1      16.483   1.243  14.890  1.00  0.00     0.152 C 
HETATM   18  C10 UNL     1      14.549   2.087  16.229  1.00  0.00     0.152 C 
HETATM   19  C8  UNL     1      16.743   0.335  16.076  1.00  0.00     0.187 C 
HETATM   20  O4  UNL     1      15.575  -0.041  16.693  1.00  0.00    -0.388 OA
HETATM   21  C9  UNL     1      14.857   1.000  17.226  1.00  0.00     0.187 C 
ENDBRANCH  13  14
ENDBRANCH  10  13
ENDBRANCH   9  10
BRANCH   9  22
HETATM   22  C11 UNL     1      17.584   4.125  10.529  1.00  0.00     0.261 C 
HETATM   23  O5  UNL     1      18.312   3.753   9.590  1.00  0.00    -0.270 OA
HETATM   24  N5  UNL     1      16.819   5.289  10.435  1.00  0.00    -0.338 N 
ATOM     25  H5  UNL     1      16.240   5.503  11.246  1.00  0.00     0.167 HD
BRANCH  24  26
HETATM   26  C12 UNL     1      16.742   6.204   9.371  1.00  0.00     0.068 C 
BRANCH  26  27
HETATM   27  C13 UNL     1      16.025   7.476   9.445  1.00  0.00     0.024 C 
HETATM   28  C14 UNL     1      15.002   7.306  10.606  1.00  0.00     0.010 C 
HETATM   29  C15 UNL     1      13.818   8.204  10.444  1.00  0.00     0.001 C 
HETATM   30  C16 UNL     1      12.982   7.842   9.234  1.00  0.00     0.000 C 
HETATM   31  C17 UNL     1      13.887   7.396   8.126  1.00  0.00     0.001 C 
HETATM   32  C18 UNL     1      15.258   8.042   8.329  1.00  0.00     0.010 C 
ENDBRANCH  26  27
ENDBRANCH  24  26
ENDBRANCH   9  22
ENDBRANCH   5   9
ENDBRANCH   3   4
TORSDOF 9
ENDMDL
MODEL 3
REMARK VINA RESULT: -7.993927092      3.633      7.131
REMARK  9 active torsions:
REMARK  status: ('A' for Active; 'I' for Inactive)
REMARK    1  A    between atoms: C2_3  and  N2_4 
REMARK    2  A    between atoms: N2_4  and  O1_5 
REMARK       I    between atoms: N2_4  and  C3_7 
REMARK    3  A    between atoms: C3_7  and  C4_9 
REMARK    4  A    between atoms: C4_9  and  N3_10 
REMARK    5  A    between atoms: C4_9  and  C11_22 
REMARK    6  A    between atoms: N3_10  and  C5_13 
REMARK    7  A    between atoms: C5_13  and  C6_14 
REMARK       I    between atoms: C6_14  and  N4_16 
REMARK       I    between atoms: C11_22  and  N5_24 
REMARK    8  A    between atoms: N5_24  and  C12_26 
REMARK    9  A    between atoms: C12_26  and  C13_27 
ROOT
HETATM    1  N1  UNL     1      18.681  -2.688  11.568  1.00  0.00    -0.195 NA
HETATM    2  C1  UNL     1      17.912  -1.844  11.370  1.00  0.00     0.081 C 
HETATM    3  C2  UNL     1      16.945  -0.755  11.137  1.00  0.00     0.282 C 
ENDROOT
BRANCH   3   4
HETATM    4  N2  UNL     1      17.560   0.518  11.470  1.00  0.00    -0.213 N 
HETATM    5  C3  UNL     1      16.822   1.719  11.410  1.00  0.00     0.284 C 
HETATM    6  O2  UNL     1      15.609   1.664  11.088  1.00  0.00    -0.268 OA
BRANCH   4   7
HETATM    7  O1  UNL     1      18.853   0.478  11.852  1.00  0.00    -0.284 OA
ATOM      8  H1  UNL     1      19.038   0.744  12.745  1.00  0.00     0.245 HD
ENDBRANCH   4   7
BRANCH   5   9
HETATM    9  C4  UNL     1      17.428   3.039  11.714  1.00  0.00     0.370 C 
BRANCH   9  10
HETATM   10  N3  UNL     1      18.692   2.799  12.391  1.00  0.00    -0.045 N 
ATOM     11  H32 UNL     1      18.532   2.591  13.377  1.00  0.00     0.279 HD
ATOM     12  H31 UNL     1      19.094   1.912  12.087  1.00  0.00     0.279 HD
BRANCH  10  13
HETATM   13  C5  UNL     1      19.648   3.847  12.257  1.00  0.00     0.336 C 
BRANCH  13  14
HETATM   14  C6  UNL     1      20.632   3.466  11.218  1.00  0.00     0.245 C 
HETATM   15  O3  UNL     1      20.554   2.349  10.660  1.00  0.00    -0.272 OA
HETATM   16  N4  UNL     1      21.693   4.329  10.808  1.00  0.00    -0.347 N 
HETATM   17  C7  UNL     1      21.784   5.621  11.454  1.00  0.00     0.152 C 
HETATM   18  C10 UNL     1      22.649   3.960   9.799  1.00  0.00     0.152 C 
HETATM   19  C8  UNL     1      23.244   5.832  11.811  1.00  0.00     0.187 C 
HETATM   20  O4  UNL     1      24.060   5.681  10.717  1.00  0.00    -0.388 OA
HETATM   21  C9  UNL     1      24.035   4.426  10.162  1.00  0.00     0.187 C 
ENDBRANCH  13  14
ENDBRANCH  10  13
ENDBRANCH   9  10
BRANCH   9  22
HETATM   22  C11 UNL     1      16.586   3.801  12.729  1.00  0.00     0.261 C 
HETATM   23  O5  UNL     1      16.419   5.017  12.520  1.00  0.00    -0.270 OA
HETATM   24  N5  UNL     1      16.028   3.175  13.845  1.00  0.00    -0.338 N 
ATOM     25  H5  UNL     1      16.203   2.173  13.923  1.00  0.00     0.167 HD
BRANCH  24  26
HETATM   26  C12 UNL     1      15.258   3.742  14.875  1.00  0.00     0.068 C 
BRANCH  26  27
HETATM   27  C13 UNL     1      15.353   3.337  16.277  1.00  0.00     0.024 C 
HETATM   28  C14 UNL     1      16.309   2.108  16.288  1.00  0.00     0.010 C 
HETATM   29  C15 UNL     1      16.057   1.214  17.458  1.00  0.00     0.001 C 
HETATM   30  C16 UNL     1      14.696   0.551  17.394  1.00  0.00     0.000 C 
HETATM   31  C17 UNL     1      13.706   1.516  16.813  1.00  0.00     0.001 C 
HETATM   32  C18 UNL     1      14.196   2.938  17.087  1.00  0.00     0.010 C 
ENDBRANCH  26  27
ENDBRANCH  24  26
ENDBRANCH   9  22
ENDBRANCH   5   9
ENDBRANCH   3   4
TORSDOF 9
ENDMDL
MODEL 4
REMARK VINA RESULT: -7.952899890      3.353      6.470
REMARK  9 active torsions:
REMARK  status: ('A' for Active; 'I' for Inactive)
REMARK    1  A    between atoms: C2_3  and  N2_4 
REMARK    2  A    between atoms: N2_4  and  O1_5 
REMARK       I    between atoms: N2_4  and  C3_7 
REMARK    3  A    between atoms: C3_7  and  C4_9 
REMARK    4  A    between atoms: C4_9  and  N3_10 
REMARK    5  A    between atoms: C4_9  and  C11_22 
REMARK    6  A    between atoms: N3_10  and  C5_13 
REMARK    7  A    between atoms: C5_13  and  C6_14 
REMARK       I    between atoms: C6_14  and  N4_16 
REMARK       I    between atoms: C11_22  and  N5_24 
REMARK    8  A    between atoms: N5_24  and  C12_26 
REMARK    9  A    between atoms: C12_26  and  C13_27 
ROOT
HETATM    1  N1  UNL     1      18.627  -2.590  11.658  1.00  0.00    -0.195 NA
HETATM    2  C1  UNL     1      17.992  -1.738  11.195  1.00  0.00     0.081 C 
HETATM    3  C2  UNL     1      17.191  -0.639  10.625  1.00  0.00     0.282 C 
ENDROOT
BRANCH   3   4
HETATM    4  N2  UNL     1      17.763   0.634  11.025  1.00  0.00    -0.213 N 
HETATM    5  C3  UNL     1      16.938   1.742  11.317  1.00  0.00     0.284 C 
HETATM    6  O2  UNL     1      15.692   1.597  11.251  1.00  0.00    -0.268 OA
BRANCH   4   7
HETATM    7  O1  UNL     1      19.108   0.686  11.117  1.00  0.00    -0.284 OA
ATOM      8  H1  UNL     1      19.595   0.389  10.357  1.00  0.00     0.245 HD
ENDBRANCH   4   7
BRANCH   5   9
HETATM    9  C4  UNL     1      17.491   3.064  11.697  1.00  0.00     0.370 C 
BRANCH   9  10
HETATM   10  N3  UNL     1      18.721   2.832  12.438  1.00  0.00    -0.045 N 
ATOM     11  H32 UNL     1      18.515   2.667  13.424  1.00  0.00     0.279 HD
ATOM     12  H31 UNL     1      19.120   1.928  12.187  1.00  0.00     0.279 HD
BRANCH  10  13
HETATM   13  C5  UNL     1      19.700   3.859  12.305  1.00  0.00     0.336 C 
BRANCH  13  14
HETATM   14  C6  UNL     1      19.637   4.738  13.495  1.00  0.00     0.245 C 
HETATM   15  O3  UNL     1      19.520   4.239  14.637  1.00  0.00    -0.272 OA
HETATM   16  N4  UNL     1      19.702   6.161  13.407  1.00  0.00    -0.347 N 
HETATM   17  C7  UNL     1      19.836   6.738  12.086  1.00  0.00     0.152 C 
HETATM   18  C10 UNL     1      19.641   7.015  14.562  1.00  0.00     0.152 C 
HETATM   19  C8  UNL     1      18.854   7.892  12.009  1.00  0.00     0.187 C 
HETATM   20  O4  UNL     1      19.033   8.780  13.042  1.00  0.00    -0.388 OA
HETATM   21  C9  UNL     1      18.819   8.247  14.289  1.00  0.00     0.187 C 
ENDBRANCH  13  14
ENDBRANCH  10  13
ENDBRANCH   9  10
BRANCH   9  22
HETATM   22  C11 UNL     1      16.574   3.771  12.687  1.00  0.00     0.261 C 
HETATM   23  O5  UNL     1      16.331   4.973  12.467  1.00  0.00    -0.270 OA
HETATM   24  N5  UNL     1      16.030   3.112  13.790  1.00  0.00    -0.338 N 
ATOM     25  H5  UNL     1      16.269   2.125  13.877  1.00  0.00     0.167 HD
BRANCH  24  26
HETATM   26  C12 UNL     1      15.195   3.629  14.797  1.00  0.00     0.068 C 
BRANCH  26  27
HETATM   27  C13 UNL     1      15.310   3.270  16.210  1.00  0.00     0.024 C 
HETATM   28  C14 UNL     1      16.282   2.054  16.249  1.00  0.00     0.010 C 
HETATM   29  C15 UNL     1      16.053   1.194  17.450  1.00  0.00     0.001 C 
HETATM   30  C16 UNL     1      14.700   0.514  17.421  1.00  0.00     0.000 C 
HETATM   31  C17 UNL     1      13.692   1.447  16.821  1.00  0.00     0.001 C 
HETATM   32  C18 UNL     1      14.167   2.883  17.044  1.00  0.00     0.010 C 
ENDBRANCH  26  27
ENDBRANCH  24  26
ENDBRANCH   9  22
ENDBRANCH   5   9
ENDBRANCH   3   4
TORSDOF 9
ENDMDL
MODEL 5
REMARK VINA RESULT: -7.931391953      0.699      1.160
REMARK  9 active torsions:
REMARK  status: ('A' for Active; 'I' for Inactive)
REMARK    1  A    between atoms: C2_3  and  N2_4 
REMARK    2  A    between atoms: N2_4  and  O1_5 
REMARK       I    between atoms: N2_4  and  C3_7 
REMARK    3  A    between atoms: C3_7  and  C4_9 
REMARK    4  A    between atoms: C4_9  and  N3_10 
REMARK    5  A    between atoms: C4_9  and  C11_22 
REMARK    6  A    between atoms: N3_10  and  C5_13 
REMARK    7  A    between atoms: C5_13  and  C6_14 
REMARK       I    between atoms: C6_14  and  N4_16 
REMARK       I    between atoms: C11_22  and  N5_24 
REMARK    8  A    between atoms: N5_24  and  C12_26 
REMARK    9  A    between atoms: C12_26  and  C13_27 
ROOT
HETATM    1  N1  UNL     1      16.836  -1.457  12.476  1.00  0.00    -0.195 NA
HETATM    2  C1  UNL     1      17.005  -0.756  11.568  1.00  0.00     0.081 C 
HETATM    3  C2  UNL     1      17.202   0.152  10.424  1.00  0.00     0.282 C 
ENDROOT
BRANCH   3   4
HETATM    4  N2  UNL     1      16.957   1.520  10.844  1.00  0.00    -0.213 N 
HETATM    5  C3  UNL     1      18.027   2.401  11.112  1.00  0.00     0.284 C 
HETATM    6  O2  UNL     1      19.202   1.986  10.952  1.00  0.00    -0.268 OA
BRANCH   4   7
HETATM    7  O1  UNL     1      15.665   1.896  10.942  1.00  0.00    -0.284 OA
ATOM      8  H1  UNL     1      15.470   2.800  10.725  1.00  0.00     0.245 HD
ENDBRANCH   4   7
BRANCH   5   9
HETATM    9  C4  UNL     1      17.810   3.795  11.572  1.00  0.00     0.370 C 
BRANCH   9  10
HETATM   10  N3  UNL     1      16.824   3.759  12.641  1.00  0.00    -0.045 N 
ATOM     11  H32 UNL     1      16.127   4.491  12.503  1.00  0.00     0.279 HD
ATOM     12  H31 UNL     1      16.233   2.933  12.549  1.00  0.00     0.279 HD
BRANCH  10  13
HETATM   13  C5  UNL     1      17.367   3.836  13.956  1.00  0.00     0.336 C 
BRANCH  13  14
HETATM   14  C6  UNL     1      16.277   3.628  14.936  1.00  0.00     0.245 C 
HETATM   15  O3  UNL     1      15.715   4.612  15.468  1.00  0.00    -0.272 OA
HETATM   16  N4  UNL     1      15.820   2.330  15.317  1.00  0.00    -0.347 N 
HETATM   17  C7  UNL     1      16.470   1.192  14.703  1.00  0.00     0.152 C 
HETATM   18  C10 UNL     1      14.761   2.128  16.269  1.00  0.00     0.152 C 
HETATM   19  C8  UNL     1      16.754   0.197  15.813  1.00  0.00     0.187 C 
HETATM   20  O4  UNL     1      15.618  -0.107  16.524  1.00  0.00    -0.388 OA
HETATM   21  C9  UNL     1      15.057   0.962  17.176  1.00  0.00     0.187 C 
ENDBRANCH  13  14
ENDBRANCH  10  13
ENDBRANCH   9  10
BRANCH   9  22
HETATM   22  C11 UNL     1      17.162   4.633  10.478  1.00  0.00     0.261 C 
HETATM   23  O5  UNL     1      17.303   4.234   9.307  1.00  0.00    -0.270 OA
HETATM   24  N5  UNL     1      16.444   5.795  10.765  1.00  0.00    -0.338 N 
ATOM     25  H5  UNL     1      16.365   6.032  11.754  1.00  0.00     0.167 HD
BRANCH  24  26
HETATM   26  C12 UNL     1      15.816   6.681   9.873  1.00  0.00     0.068 C 
BRANCH  26  27
HETATM   27  C13 UNL     1      14.480   7.235  10.085  1.00  0.00     0.024 C 
HETATM   28  C14 UNL     1      13.714   6.989   8.752  1.00  0.00     0.010 C 
HETATM   29  C15 UNL     1      12.611   7.976   8.550  1.00  0.00     0.001 C 
HETATM   30  C16 UNL     1      13.128   9.387   8.358  1.00  0.00     0.000 C 
HETATM   31  C17 UNL     1      14.326   9.595   9.235  1.00  0.00     0.001 C 
HETATM   32  C18 UNL     1      14.228   8.640  10.425  1.00  0.00     0.010 C 
ENDBRANCH  26  27
ENDBRANCH  24  26
ENDBRANCH   9  22
ENDBRANCH   5   9
ENDBRANCH   3   4
TORSDOF 9
ENDMDL
