MODEL 1
REMARK VINA RESULT: -7.702918144      0.000      0.000
REMARK  8 active torsions:
REMARK  status: ('A' for Active; 'I' for Inactive)
REMARK    1  A    between atoms: C2_2  and  C3_4 
REMARK    2  A    between atoms: C5_8  and  C6_9 
REMARK    3  A    between atoms: C7_10  and  C8_11 
REMARK    4  A    between atoms: C8_11  and  C10_13 
REMARK    5  A    between atoms: C11_15  and  C12_16 
REMARK    6  A    between atoms: C12_16  and  O5_17 
REMARK    7  A    between atoms: C12_16  and  C13_19 
REMARK       I    between atoms: C13_19  and  N1_21 
REMARK    8  A    between atoms: N1_21  and  C14_23 
ROOT
HETATM    1  C3  UNL     1      17.957   4.418  12.903  1.00  0.00     0.164 C 
HETATM    2  C4  UNL     1      18.569   4.261  14.247  1.00  0.00     0.271 C 
HETATM    3  O2  UNL     1      19.805   4.243  14.563  1.00  0.00    -0.264 OA
HETATM    4  O3  UNL     1      17.560   4.125  15.204  1.00  0.00    -0.311 OA
HETATM    5  C5  UNL     1      16.465   3.577  14.494  1.00  0.00     0.162 C 
HETATM    6  C11 UNL     1      16.475   4.535  13.279  1.00  0.00     0.078 C 
ENDROOT
BRANCH   6   7
HETATM    7  C12 UNL     1      16.242   5.958  13.658  1.00  0.00     0.218 C 
BRANCH   7   8
HETATM    8  O5  UNL     1      17.340   6.757  13.451  1.00  0.00    -0.386 OA
ATOM      9  H5  UNL     1      17.153   7.682  13.562  1.00  0.00     0.210 HD
ENDBRANCH   7   8
BRANCH   7  10
HETATM   10  C13 UNL     1      15.128   6.477  12.811  1.00  0.00     0.247 C 
HETATM   11  O6  UNL     1      13.928   6.345  13.198  1.00  0.00    -0.271 OA
HETATM   12  N1  UNL     1      15.377   7.114  11.580  1.00  0.00    -0.353 N 
ATOM     13  H1  UNL     1      16.349   7.209  11.286  1.00  0.00     0.163 HD
BRANCH  12  14
HETATM   14  C14 UNL     1      14.367   7.639  10.710  1.00  0.00     0.112 C 
HETATM   15  C15 UNL     1      14.542   9.155  10.659  1.00  0.00     0.055 C 
HETATM   16  C16 UNL     1      14.492   9.549   9.219  1.00  0.00     0.238 C 
HETATM   17  N2  UNL     1      14.126   8.384   8.475  1.00  0.00    -0.073 N 
HETATM   18  C17 UNL     1      12.692   8.326   8.219  1.00  0.00     0.272 C 
HETATM   19  C18 UNL     1      14.782   8.444   7.182  1.00  0.00     0.272 C 
HETATM   20  C19 UNL     1      14.562   7.246   9.262  1.00  0.00     0.261 C 
ENDBRANCH  12  14
ENDBRANCH   7  10
ENDBRANCH   6   7
BRANCH   1  21
HETATM   21  C2  UNL     1      18.105   3.202  12.086  1.00  0.00     0.137 C 
HETATM   22  C1  UNL     1      17.188   2.892  10.934  1.00  0.00     0.091 C 
HETATM   23  O1  UNL     1      18.977   2.379  12.297  1.00  0.00    -0.297 OA
ENDBRANCH   1  21
BRANCH   5  24
HETATM   24  C6  UNL     1      15.184   3.635  15.192  1.00  0.00     0.003 C 
HETATM   25  C7  UNL     1      14.848   2.971  16.227  1.00  0.00    -0.017 C 
BRANCH  25  26
HETATM   26  C8  UNL     1      15.547   1.981  17.045  1.00  0.00     0.065 C 
HETATM   27  C9  UNL     1      14.959   1.940  18.473  1.00  0.00     0.021 C 
BRANCH  26  28
HETATM   28  C10 UNL     1      15.702   0.622  16.535  1.00  0.00     0.239 C 
HETATM   29  O4  UNL     1      15.332  -0.362  17.203  1.00  0.00    -0.306 OA
ENDBRANCH  26  28
ENDBRANCH  25  26
ENDBRANCH   5  24
TORSDOF 8
ENDMDL
MODEL 2
REMARK VINA RESULT: -7.473548150      3.957      6.085
REMARK  8 active torsions:
REMARK  status: ('A' for Active; 'I' for Inactive)
REMARK    1  A    between atoms: C2_2  and  C3_4 
REMARK    2  A    between atoms: C5_8  and  C6_9 
REMARK    3  A    between atoms: C7_10  and  C8_11 
REMARK    4  A    between atoms: C8_11  and  C10_13 
REMARK    5  A    between atoms: C11_15  and  C12_16 
REMARK    6  A    between atoms: C12_16  and  O5_17 
REMARK    7  A    between atoms: C12_16  and  C13_19 
REMARK       I    between atoms: C13_19  and  N1_21 
REMARK    8  A    between atoms: N1_21  and  C14_23 
ROOT
HETATM    1  C3  UNL     1      16.625   3.028  15.824  1.00  0.00     0.164 C 
HETATM    2  C4  UNL     1      15.209   3.363  15.520  1.00  0.00     0.271 C 
HETATM    3  O2  UNL     1      14.257   3.611  16.332  1.00  0.00    -0.264 OA
HETATM    4  O3  UNL     1      15.023   3.379  14.135  1.00  0.00    -0.311 OA
HETATM    5  C5  UNL     1      16.010   2.499  13.631  1.00  0.00     0.162 C 
HETATM    6  C11 UNL     1      17.228   3.044  14.414  1.00  0.00     0.078 C 
ENDROOT
BRANCH   6   7
HETATM    7  C12 UNL     1      17.532   4.469  14.098  1.00  0.00     0.218 C 
BRANCH   7   8
HETATM    8  O5  UNL     1      17.343   5.311  15.166  1.00  0.00    -0.386 OA
ATOM      9  H5  UNL     1      16.979   6.152  14.918  1.00  0.00     0.210 HD
ENDBRANCH   7   8
BRANCH   7  10
HETATM   10  C13 UNL     1      18.968   4.548  13.695  1.00  0.00     0.247 C 
HETATM   11  O6  UNL     1      19.876   4.345  14.556  1.00  0.00    -0.271 OA
HETATM   12  N1  UNL     1      19.343   4.847  12.371  1.00  0.00    -0.353 N 
ATOM     13  H1  UNL     1      18.597   5.007  11.693  1.00  0.00     0.163 HD
BRANCH  12  14
HETATM   14  C14 UNL     1      20.694   4.942  11.903  1.00  0.00     0.112 C 
HETATM   15  C15 UNL     1      21.131   3.546  11.466  1.00  0.00     0.055 C 
HETATM   16  C16 UNL     1      21.776   3.693  10.127  1.00  0.00     0.238 C 
HETATM   17  N2  UNL     1      21.887   5.094   9.863  1.00  0.00    -0.073 N 
HETATM   18  C17 UNL     1      23.193   5.620  10.238  1.00  0.00     0.272 C 
HETATM   19  C18 UNL     1      21.743   5.302   8.435  1.00  0.00     0.272 C 
HETATM   20  C19 UNL     1      20.829   5.734  10.622  1.00  0.00     0.261 C 
ENDBRANCH  12  14
ENDBRANCH   7  10
ENDBRANCH   6   7
BRANCH   1  21
HETATM   21  C2  UNL     1      16.765   1.657  16.342  1.00  0.00     0.137 C 
HETATM   22  C1  UNL     1      15.595   0.876  16.875  1.00  0.00     0.091 C 
HETATM   23  O1  UNL     1      17.836   1.078  16.367  1.00  0.00    -0.297 OA
ENDBRANCH   1  21
BRANCH   5  24
HETATM   24  C6  UNL     1      16.237   2.583  12.191  1.00  0.00     0.003 C 
HETATM   25  C7  UNL     1      17.001   1.839  11.494  1.00  0.00    -0.017 C 
BRANCH  25  26
HETATM   26  C8  UNL     1      17.873   0.714  11.830  1.00  0.00     0.065 C 
HETATM   27  C9  UNL     1      17.075  -0.608  11.853  1.00  0.00     0.021 C 
BRANCH  26  28
HETATM   28  C10 UNL     1      19.113   0.530  11.080  1.00  0.00     0.239 C 
HETATM   29  O4  UNL     1      19.256   1.018   9.943  1.00  0.00    -0.306 OA
ENDBRANCH  26  28
ENDBRANCH  25  26
ENDBRANCH   5  24
TORSDOF 8
ENDMDL
MODEL 3
REMARK VINA RESULT: -7.351995634      3.793      4.797
REMARK  8 active torsions:
REMARK  status: ('A' for Active; 'I' for Inactive)
REMARK    1  A    between atoms: C2_2  and  C3_4 
REMARK    2  A    between atoms: C5_8  and  C6_9 
REMARK    3  A    between atoms: C7_10  and  C8_11 
REMARK    4  A    between atoms: C8_11  and  C10_13 
REMARK    5  A    between atoms: C11_15  and  C12_16 
REMARK    6  A    between atoms: C12_16  and  O5_17 
REMARK    7  A    between atoms: C12_16  and  C13_19 
REMARK       I    between atoms: C13_19  and  N1_21 
REMARK    8  A    between atoms: N1_21  and  C14_23 
ROOT
HETATM    1  C3  UNL     1      17.367   2.802  12.796  1.00  0.00     0.164 C 
HETATM    2  C4  UNL     1      17.133   1.635  13.687  1.00  0.00     0.271 C 
HETATM    3  O2  UNL     1      17.564   0.441  13.564  1.00  0.00    -0.264 OA
HETATM    4  O3  UNL     1      16.325   2.024  14.758  1.00  0.00    -0.311 OA
HETATM    5  C5  UNL     1      15.573   3.116  14.262  1.00  0.00     0.162 C 
HETATM    6  C11 UNL     1      16.730   3.923  13.625  1.00  0.00     0.078 C 
ENDROOT
BRANCH   6   7
HETATM    7  C12 UNL     1      17.755   4.353  14.620  1.00  0.00     0.218 C 
BRANCH   7   8
HETATM    8  O5  UNL     1      19.009   3.867  14.346  1.00  0.00    -0.386 OA
ATOM      9  H5  UNL     1      19.677   4.542  14.337  1.00  0.00     0.210 HD
ENDBRANCH   7   8
BRANCH   7  10
HETATM   10  C13 UNL     1      17.820   5.844  14.588  1.00  0.00     0.247 C 
HETATM   11  O6  UNL     1      16.777   6.526  14.821  1.00  0.00    -0.271 OA
HETATM   12  N1  UNL     1      19.023   6.519  14.302  1.00  0.00    -0.353 N 
ATOM     13  H1  UNL     1      19.850   5.952  14.117  1.00  0.00     0.163 HD
BRANCH  12  14
HETATM   14  C14 UNL     1      19.171   7.944  14.252  1.00  0.00     0.112 C 
HETATM   15  C15 UNL     1      19.422   8.433  15.677  1.00  0.00     0.055 C 
HETATM   16  C16 UNL     1      20.583   9.371  15.614  1.00  0.00     0.238 C 
HETATM   17  N2  UNL     1      20.887   9.576  14.231  1.00  0.00    -0.073 N 
HETATM   18  C17 UNL     1      20.249  10.775  13.703  1.00  0.00     0.272 C 
HETATM   19  C18 UNL     1      22.318   9.769  14.103  1.00  0.00     0.272 C 
HETATM   20  C19 UNL     1      20.426   8.389  13.535  1.00  0.00     0.261 C 
ENDBRANCH  12  14
ENDBRANCH   7  10
ENDBRANCH   6   7
BRANCH   1  21
HETATM   21  C2  UNL     1      16.602   2.698  11.543  1.00  0.00     0.137 C 
HETATM   22  C1  UNL     1      16.144   1.376  10.988  1.00  0.00     0.091 C 
HETATM   23  O1  UNL     1      16.297   3.676  10.885  1.00  0.00    -0.297 OA
ENDBRANCH   1  21
BRANCH   5  24
HETATM   24  C6  UNL     1      14.885   3.906  15.278  1.00  0.00     0.003 C 
HETATM   25  C7  UNL     1      14.600   3.541  16.466  1.00  0.00    -0.017 C 
BRANCH  25  26
HETATM   26  C8  UNL     1      14.828   2.302  17.208  1.00  0.00     0.065 C 
HETATM   27  C9  UNL     1      14.871   2.575  18.727  1.00  0.00     0.021 C 
BRANCH  26  28
HETATM   28  C10 UNL     1      13.976   1.146  16.938  1.00  0.00     0.239 C 
HETATM   29  O4  UNL     1      14.465   0.015  16.760  1.00  0.00    -0.306 OA
ENDBRANCH  26  28
ENDBRANCH  25  26
ENDBRANCH   5  24
TORSDOF 8
ENDMDL
MODEL 4
REMARK VINA RESULT: -7.156317715      3.682      6.839
REMARK  8 active torsions:
REMARK  status: ('A' for Active; 'I' for Inactive)
REMARK    1  A    between atoms: C2_2  and  C3_4 
REMARK    2  A    between atoms: C5_8  and  C6_9 
REMARK    3  A    between atoms: C7_10  and  C8_11 
REMARK    4  A    between atoms: C8_11  and  C10_13 
REMARK    5  A    between atoms: C11_15  and  C12_16 
REMARK    6  A    between atoms: C12_16  and  O5_17 
REMARK    7  A    between atoms: C12_16  and  C13_19 
REMARK       I    between atoms: C13_19  and  N1_21 
REMARK    8  A    between atoms: N1_21  and  C14_23 
ROOT
HETATM    1  C3  UNL     1      18.573   5.408  10.728  1.00  0.00     0.164 C 
HETATM    2  C4  UNL     1      20.056   5.457  10.797  1.00  0.00     0.271 C 
HETATM    3  O2  UNL     1      20.837   6.411  10.467  1.00  0.00    -0.264 OA
HETATM    4  O3  UNL     1      20.538   4.248  11.303  1.00  0.00    -0.311 OA
HETATM    5  C5  UNL     1      19.548   3.296  10.960  1.00  0.00     0.162 C 
HETATM    6  C11 UNL     1      18.301   4.077  11.439  1.00  0.00     0.078 C 
ENDROOT
BRANCH   6   7
HETATM    7  C12 UNL     1      18.320   4.363  12.901  1.00  0.00     0.218 C 
BRANCH   7   8
HETATM    8  O5  UNL     1      18.312   5.706  13.188  1.00  0.00    -0.386 OA
ATOM      9  H5  UNL     1      17.760   5.925  13.930  1.00  0.00     0.210 HD
ENDBRANCH   7   8
BRANCH   7  10
HETATM   10  C13 UNL     1      17.094   3.755  13.499  1.00  0.00     0.247 C 
HETATM   11  O6  UNL     1      15.958   4.263  13.259  1.00  0.00    -0.271 OA
HETATM   12  N1  UNL     1      17.169   2.622  14.332  1.00  0.00    -0.353 N 
ATOM     13  H1  UNL     1      18.093   2.229  14.514  1.00  0.00     0.163 HD
BRANCH  12  14
HETATM   14  C14 UNL     1      16.044   1.979  14.944  1.00  0.00     0.112 C 
HETATM   15  C15 UNL     1      16.533   0.663  15.543  1.00  0.00     0.055 C 
HETATM   16  C16 UNL     1      15.987   0.590  16.932  1.00  0.00     0.238 C 
HETATM   17  N2  UNL     1      15.084   1.688  17.089  1.00  0.00    -0.073 N 
HETATM   18  C17 UNL     1      13.703   1.303  16.826  1.00  0.00     0.272 C 
HETATM   19  C18 UNL     1      15.142   2.132  18.469  1.00  0.00     0.272 C 
HETATM   20  C19 UNL     1      15.526   2.712  16.162  1.00  0.00     0.261 C 
ENDBRANCH  12  14
ENDBRANCH   7  10
ENDBRANCH   6   7
BRANCH   1  21
HETATM   21  C2  UNL     1      18.091   5.269   9.343  1.00  0.00     0.137 C 
HETATM   22  C1  UNL     1      18.739   5.989   8.192  1.00  0.00     0.091 C 
HETATM   23  O1  UNL     1      17.143   4.562   9.053  1.00  0.00    -0.297 OA
ENDBRANCH   1  21
BRANCH   5  24
HETATM   24  C6  UNL     1      19.657   2.014  11.650  1.00  0.00     0.003 C 
HETATM   25  C7  UNL     1      18.876   1.014  11.530  1.00  0.00    -0.017 C 
BRANCH  25  26
HETATM   26  C8  UNL     1      17.675   0.778  10.730  1.00  0.00     0.065 C 
HETATM   27  C9  UNL     1      17.770  -0.572   9.986  1.00  0.00     0.021 C 
BRANCH  26  28
HETATM   28  C10 UNL     1      16.365   0.902  11.364  1.00  0.00     0.239 C 
HETATM   29  O4  UNL     1      15.590   1.830  11.064  1.00  0.00    -0.306 OA
ENDBRANCH  26  28
ENDBRANCH  25  26
ENDBRANCH   5  24
TORSDOF 8
ENDMDL
MODEL 5
REMARK VINA RESULT: -7.059083390      3.943      6.082
REMARK  8 active torsions:
REMARK  status: ('A' for Active; 'I' for Inactive)
REMARK    1  A    between atoms: C2_2  and  C3_4 
REMARK    2  A    between atoms: C5_8  and  C6_9 
REMARK    3  A    between atoms: C7_10  and  C8_11 
REMARK    4  A    between atoms: C8_11  and  C10_13 
REMARK    5  A    between atoms: C11_15  and  C12_16 
REMARK    6  A    between atoms: C12_16  and  O5_17 
REMARK    7  A    between atoms: C12_16  and  C13_19 
REMARK       I    between atoms: C13_19  and  N1_21 
REMARK    8  A    between atoms: N1_21  and  C14_23 
ROOT
HETATM    1  C3  UNL     1      16.633   3.147  15.788  1.00  0.00     0.164 C 
HETATM    2  C4  UNL     1      15.221   3.477  15.462  1.00  0.00     0.271 C 
HETATM    3  O2  UNL     1      14.258   3.732  16.260  1.00  0.00    -0.264 OA
HETATM    4  O3  UNL     1      15.053   3.478  14.075  1.00  0.00    -0.311 OA
HETATM    5  C5  UNL     1      16.048   2.594  13.594  1.00  0.00     0.162 C 
HETATM    6  C11 UNL     1      17.255   3.149  14.387  1.00  0.00     0.078 C 
ENDROOT
BRANCH   6   7
HETATM    7  C12 UNL     1      17.561   4.571  14.059  1.00  0.00     0.218 C 
BRANCH   7   8
HETATM    8  O5  UNL     1      17.236   5.440  15.071  1.00  0.00    -0.386 OA
ATOM      9  H5  UNL     1      17.912   5.511  15.734  1.00  0.00     0.210 HD
ENDBRANCH   7   8
BRANCH   7  10
HETATM   10  C13 UNL     1      19.031   4.674  13.816  1.00  0.00     0.247 C 
HETATM   11  O6  UNL     1      19.841   4.095  14.600  1.00  0.00    -0.271 OA
HETATM   12  N1  UNL     1      19.545   5.407  12.729  1.00  0.00    -0.353 N 
ATOM     13  H1  UNL     1      18.876   5.866  12.110  1.00  0.00     0.163 HD
BRANCH  12  14
HETATM   14  C14 UNL     1      20.937   5.555  12.426  1.00  0.00     0.112 C 
HETATM   15  C15 UNL     1      21.164   5.017  11.015  1.00  0.00     0.055 C 
HETATM   16  C16 UNL     1      21.983   6.035  10.290  1.00  0.00     0.238 C 
HETATM   17  N2  UNL     1      22.377   7.021  11.248  1.00  0.00    -0.073 N 
HETATM   18  C17 UNL     1      23.702   6.754  11.794  1.00  0.00     0.272 C 
HETATM   19  C18 UNL     1      22.449   8.305  10.577  1.00  0.00     0.272 C 
HETATM   20  C19 UNL     1      21.369   6.999  12.291  1.00  0.00     0.261 C 
ENDBRANCH  12  14
ENDBRANCH   7  10
ENDBRANCH   6   7
BRANCH   1  21
HETATM   21  C2  UNL     1      16.768   1.782  16.323  1.00  0.00     0.137 C 
HETATM   22  C1  UNL     1      15.588   0.995  16.825  1.00  0.00     0.091 C 
HETATM   23  O1  UNL     1      17.842   1.213  16.388  1.00  0.00    -0.297 OA
ENDBRANCH   1  21
BRANCH   5  24
HETATM   24  C6  UNL     1      16.293   2.662  12.156  1.00  0.00     0.003 C 
HETATM   25  C7  UNL     1      17.070   1.914  11.478  1.00  0.00    -0.017 C 
BRANCH  25  26
HETATM   26  C8  UNL     1      17.942   0.797  11.838  1.00  0.00     0.065 C 
HETATM   27  C9  UNL     1      17.255  -0.553  11.536  1.00  0.00     0.021 C 
BRANCH  26  28
HETATM   28  C10 UNL     1      19.313   0.777  11.334  1.00  0.00     0.239 C 
HETATM   29  O4  UNL     1      20.136   1.649  11.673  1.00  0.00    -0.306 OA
ENDBRANCH  26  28
ENDBRANCH  25  26
ENDBRANCH   5  24
TORSDOF 8
ENDMDL
