MODEL 1
REMARK VINA RESULT: -8.135561298      0.000      0.000
REMARK  7 active torsions:
REMARK  status: ('A' for Active; 'I' for Inactive)
REMARK    1  A    between atoms: C2_2  and  C4_4 
REMARK    2  A    between atoms: C4_4  and  C5_5 
REMARK    3  A    between atoms: C5_5  and  N1_6 
REMARK    4  A    between atoms: C5_5  and  C17_26 
REMARK       I    between atoms: N1_6  and  C6_8 
REMARK    5  A    between atoms: C6_8  and  C7_10 
REMARK    6  A    between atoms: C12_16  and  N2_17 
REMARK       I    between atoms: N2_17  and  C13_19 
REMARK    7  A    between atoms: C13_19  and  C14_21 
REMARK       I    between atoms: C17_26  and  N3_28 
ROOT
HETATM    1  C7  UNL     1      17.817   0.254  12.491  1.00  0.00     0.130 C 
HETATM    2  C8  UNL     1      16.904  -0.772  11.807  1.00  0.00     0.137 C 
HETATM    3  C9  UNL     1      17.999  -1.480  10.980  1.00  0.00     0.041 C 
HETATM    4  C10 UNL     1      18.361  -0.189  10.221  1.00  0.00     0.036 C 
HETATM    5  C11 UNL     1      16.968   0.178   9.771  1.00  0.00     0.174 C 
HETATM    6  O2  UNL     1      16.138  -0.204  10.820  1.00  0.00    -0.384 OA
HETATM    7  C12 UNL     1      18.708   0.710  11.388  1.00  0.00     0.106 C 
ENDROOT
BRANCH   1   8
HETATM    8  C6  UNL     1      16.987   1.260  13.136  1.00  0.00     0.227 C 
HETATM    9  N1  UNL     1      16.963   1.526  14.525  1.00  0.00    -0.347 N 
ATOM     10  H1  UNL     1      17.573   0.983  15.137  1.00  0.00     0.163 HD
HETATM   11  O1  UNL     1      16.197   1.984  12.432  1.00  0.00    -0.273 OA
BRANCH   9  12
HETATM   12  C5  UNL     1      16.094   2.557  15.127  1.00  0.00     0.177 C 
BRANCH  12  13
HETATM   13  C4  UNL     1      15.998   2.151  16.574  1.00  0.00     0.038 C 
BRANCH  13  14
HETATM   14  C2  UNL     1      14.683   2.208  17.226  1.00  0.00    -0.020 C 
HETATM   15  C1  UNL     1      13.766   1.050  17.005  1.00  0.00     0.009 C 
HETATM   16  C3  UNL     1      14.902   2.301  18.745  1.00  0.00     0.009 C 
ENDBRANCH  13  14
ENDBRANCH  12  13
BRANCH  12  17
HETATM   17  C17 UNL     1      16.871   3.821  15.097  1.00  0.00     0.241 C 
HETATM   18  O6  UNL     1      18.122   3.665  15.333  1.00  0.00    -0.271 OA
HETATM   19  N3  UNL     1      16.419   5.107  14.849  1.00  0.00    -0.359 N 
HETATM   20  C18 UNL     1      17.333   6.240  14.904  1.00  0.00     0.152 C 
HETATM   21  C19 UNL     1      15.043   5.364  14.506  1.00  0.00     0.152 C 
ENDBRANCH  12  17
ENDBRANCH   9  12
ENDBRANCH   1   8
BRANCH   7  22
HETATM   22  N2  UNL     1      18.636   2.097  11.053  1.00  0.00    -0.351 N 
HETATM   23  C13 UNL     1      19.642   2.986  11.481  1.00  0.00     0.273 C 
HETATM   24  O3  UNL     1      20.631   2.601  12.170  1.00  0.00    -0.268 OA
ATOM     25  H2  UNL     1      17.853   2.445  10.500  1.00  0.00     0.163 HD
BRANCH  23  26
HETATM   26  C14 UNL     1      19.601   4.432  11.146  1.00  0.00     0.353 C 
HETATM   27  O4  UNL     1      20.541   5.159  11.866  1.00  0.00    -0.351 OA
HETATM   28  C15 UNL     1      20.158   6.471  11.592  1.00  0.00     0.197 C 
HETATM   29  C16 UNL     1      18.659   6.368  11.379  1.00  0.00     0.197 C 
HETATM   30  O5  UNL     1      18.399   5.011  11.554  1.00  0.00    -0.351 OA
ENDBRANCH  23  26
ENDBRANCH   7  22
TORSDOF 7
ENDMDL
MODEL 2
REMARK VINA RESULT: -7.818641479      2.479      5.624
REMARK  7 active torsions:
REMARK  status: ('A' for Active; 'I' for Inactive)
REMARK    1  A    between atoms: C2_2  and  C4_4 
REMARK    2  A    between atoms: C4_4  and  C5_5 
REMARK    3  A    between atoms: C5_5  and  N1_6 
REMARK    4  A    between atoms: C5_5  and  C17_26 
REMARK       I    between atoms: N1_6  and  C6_8 
REMARK    5  A    between atoms: C6_8  and  C7_10 
REMARK    6  A    between atoms: C12_16  and  N2_17 
REMARK       I    between atoms: N2_17  and  C13_19 
REMARK    7  A    between atoms: C13_19  and  C14_21 
REMARK       I    between atoms: C17_26  and  N3_28 
ROOT
HETATM    1  C7  UNL     1      17.901   3.450  10.784  1.00  0.00     0.130 C 
HETATM    2  C8  UNL     1      19.295   3.832  10.267  1.00  0.00     0.137 C 
HETATM    3  C9  UNL     1      19.752   2.408   9.884  1.00  0.00     0.041 C 
HETATM    4  C10 UNL     1      19.614   1.896  11.330  1.00  0.00     0.036 C 
HETATM    5  C11 UNL     1      20.433   2.971  12.003  1.00  0.00     0.174 C 
HETATM    6  O2  UNL     1      20.160   4.133  11.289  1.00  0.00    -0.384 OA
HETATM    7  C12 UNL     1      18.157   2.218  11.582  1.00  0.00     0.106 C 
ENDROOT
BRANCH   1   8
HETATM    8  C6  UNL     1      17.336   4.592  11.486  1.00  0.00     0.227 C 
HETATM    9  N1  UNL     1      17.931   5.873  11.565  1.00  0.00    -0.347 N 
ATOM     10  H1  UNL     1      18.823   6.027  11.095  1.00  0.00     0.163 HD
HETATM   11  O1  UNL     1      16.215   4.477  12.098  1.00  0.00    -0.273 OA
BRANCH   9  12
HETATM   12  C5  UNL     1      17.314   6.997  12.297  1.00  0.00     0.177 C 
BRANCH  12  13
HETATM   13  C4  UNL     1      18.466   7.623  13.037  1.00  0.00     0.038 C 
BRANCH  13  14
HETATM   14  C2  UNL     1      18.689   7.234  14.436  1.00  0.00    -0.020 C 
HETATM   15  C1  UNL     1      18.955   8.333  15.412  1.00  0.00     0.009 C 
HETATM   16  C3  UNL     1      17.432   6.505  14.940  1.00  0.00     0.009 C 
ENDBRANCH  13  14
ENDBRANCH  12  13
BRANCH  12  17
HETATM   17  C17 UNL     1      16.893   7.980  11.268  1.00  0.00     0.241 C 
HETATM   18  O6  UNL     1      17.867   8.629  10.743  1.00  0.00    -0.271 OA
HETATM   19  N3  UNL     1      15.614   8.267  10.820  1.00  0.00    -0.359 N 
HETATM   20  C18 UNL     1      15.391   9.304   9.822  1.00  0.00     0.152 C 
HETATM   21  C19 UNL     1      14.470   7.537  11.304  1.00  0.00     0.152 C 
ENDBRANCH  12  17
ENDBRANCH   9  12
ENDBRANCH   1   8
BRANCH   7  22
HETATM   22  N2  UNL     1      17.844   2.292  12.973  1.00  0.00    -0.351 N 
HETATM   23  C13 UNL     1      17.065   1.288  13.582  1.00  0.00     0.273 C 
HETATM   24  O3  UNL     1      16.615   0.299  12.933  1.00  0.00    -0.268 OA
ATOM     25  H2  UNL     1      18.187   3.075  13.529  1.00  0.00     0.163 HD
BRANCH  23  26
HETATM   26  C14 UNL     1      16.725   1.331  15.027  1.00  0.00     0.353 C 
HETATM   27  O4  UNL     1      16.126   0.153  15.456  1.00  0.00    -0.351 OA
HETATM   28  C15 UNL     1      15.677   0.506  16.727  1.00  0.00     0.197 C 
HETATM   29  C16 UNL     1      15.398   1.993  16.606  1.00  0.00     0.197 C 
HETATM   30  O5  UNL     1      15.735   2.280  15.285  1.00  0.00    -0.351 OA
ENDBRANCH  23  26
ENDBRANCH   7  22
TORSDOF 7
ENDMDL
MODEL 3
REMARK VINA RESULT: -7.673312438      2.732      5.516
REMARK  7 active torsions:
REMARK  status: ('A' for Active; 'I' for Inactive)
REMARK    1  A    between atoms: C2_2  and  C4_4 
REMARK    2  A    between atoms: C4_4  and  C5_5 
REMARK    3  A    between atoms: C5_5  and  N1_6 
REMARK    4  A    between atoms: C5_5  and  C17_26 
REMARK       I    between atoms: N1_6  and  C6_8 
REMARK    5  A    between atoms: C6_8  and  C7_10 
REMARK    6  A    between atoms: C12_16  and  N2_17 
REMARK       I    between atoms: N2_17  and  C13_19 
REMARK    7  A    between atoms: C13_19  and  C14_21 
REMARK       I    between atoms: C17_26  and  N3_28 
ROOT
HETATM    1  C7  UNL     1      17.685   5.534  14.176  1.00  0.00     0.130 C 
HETATM    2  C8  UNL     1      19.150   5.085  14.274  1.00  0.00     0.137 C 
HETATM    3  C9  UNL     1      19.789   6.462  13.987  1.00  0.00     0.041 C 
HETATM    4  C10 UNL     1      19.135   6.557  12.596  1.00  0.00     0.036 C 
HETATM    5  C11 UNL     1      19.581   5.214  12.071  1.00  0.00     0.174 C 
HETATM    6  O2  UNL     1      19.543   4.366  13.173  1.00  0.00    -0.384 OA
HETATM    7  C12 UNL     1      17.677   6.427  12.984  1.00  0.00     0.106 C 
ENDROOT
BRANCH   1   8
HETATM    8  C6  UNL     1      16.839   4.351  14.128  1.00  0.00     0.227 C 
HETATM    9  N1  UNL     1      17.275   3.029  14.382  1.00  0.00    -0.347 N 
ATOM     10  H1  UNL     1      18.254   2.876  14.623  1.00  0.00     0.163 HD
HETATM   11  O1  UNL     1      15.596   4.464  13.835  1.00  0.00    -0.273 OA
BRANCH   9  12
HETATM   12  C5  UNL     1      16.373   1.863  14.312  1.00  0.00     0.177 C 
BRANCH  12  13
HETATM   13  C4  UNL     1      17.107   0.888  13.429  1.00  0.00     0.038 C 
BRANCH  13  14
HETATM   14  C2  UNL     1      17.256   1.217  12.005  1.00  0.00    -0.020 C 
HETATM   15  C1  UNL     1      18.647   1.404  11.495  1.00  0.00     0.009 C 
HETATM   16  C3  UNL     1      16.644   0.073  11.180  1.00  0.00     0.009 C 
ENDBRANCH  13  14
ENDBRANCH  12  13
BRANCH  12  17
HETATM   17  C17 UNL     1      16.360   1.269  15.673  1.00  0.00     0.241 C 
HETATM   18  O6  UNL     1      17.349   0.484  15.904  1.00  0.00    -0.271 OA
HETATM   19  N3  UNL     1      15.439   1.457  16.689  1.00  0.00    -0.359 N 
HETATM   20  C18 UNL     1      15.571   0.749  17.955  1.00  0.00     0.152 C 
HETATM   21  C19 UNL     1      14.337   2.375  16.540  1.00  0.00     0.152 C 
ENDBRANCH  12  17
ENDBRANCH   9  12
ENDBRANCH   1   8
BRANCH   7  22
HETATM   22  N2  UNL     1      16.854   6.014  11.893  1.00  0.00    -0.351 N 
HETATM   23  C13 UNL     1      16.260   6.972  11.047  1.00  0.00     0.273 C 
HETATM   24  O3  UNL     1      16.426   8.214  11.218  1.00  0.00    -0.268 OA
ATOM     25  H2  UNL     1      16.695   5.020  11.725  1.00  0.00     0.163 HD
BRANCH  23  26
HETATM   26  C14 UNL     1      15.402   6.577   9.901  1.00  0.00     0.353 C 
HETATM   27  O4  UNL     1      15.952   6.962   8.684  1.00  0.00    -0.351 OA
HETATM   28  C15 UNL     1      14.894   6.729   7.807  1.00  0.00     0.197 C 
HETATM   29  C16 UNL     1      13.662   6.949   8.666  1.00  0.00     0.197 C 
HETATM   30  O5  UNL     1      14.191   7.270   9.914  1.00  0.00    -0.351 OA
ENDBRANCH  23  26
ENDBRANCH   7  22
TORSDOF 7
ENDMDL
MODEL 4
REMARK VINA RESULT: -7.642851339      2.525      5.474
REMARK  7 active torsions:
REMARK  status: ('A' for Active; 'I' for Inactive)
REMARK    1  A    between atoms: C2_2  and  C4_4 
REMARK    2  A    between atoms: C4_4  and  C5_5 
REMARK    3  A    between atoms: C5_5  and  N1_6 
REMARK    4  A    between atoms: C5_5  and  C17_26 
REMARK       I    between atoms: N1_6  and  C6_8 
REMARK    5  A    between atoms: C6_8  and  C7_10 
REMARK    6  A    between atoms: C12_16  and  N2_17 
REMARK       I    between atoms: N2_17  and  C13_19 
REMARK    7  A    between atoms: C13_19  and  C14_21 
REMARK       I    between atoms: C17_26  and  N3_28 
ROOT
HETATM    1  C7  UNL     1      18.301   2.910  10.367  1.00  0.00     0.130 C 
HETATM    2  C8  UNL     1      19.593   3.659  10.013  1.00  0.00     0.137 C 
HETATM    3  C9  UNL     1      20.536   2.437  10.044  1.00  0.00     0.041 C 
HETATM    4  C10 UNL     1      20.230   2.146  11.525  1.00  0.00     0.036 C 
HETATM    5  C11 UNL     1      20.507   3.530  12.063  1.00  0.00     0.174 C 
HETATM    6  O2  UNL     1      20.067   4.398  11.069  1.00  0.00    -0.384 OA
HETATM    7  C12 UNL     1      18.727   1.985  11.454  1.00  0.00     0.106 C 
ENDROOT
BRANCH   1   8
HETATM    8  C6  UNL     1      17.271   3.886  10.688  1.00  0.00     0.227 C 
HETATM    9  N1  UNL     1      17.492   5.272  10.864  1.00  0.00    -0.347 N 
ATOM     10  H1  UNL     1      18.439   5.634  10.756  1.00  0.00     0.163 HD
HETATM   11  O1  UNL     1      16.055   3.508  10.835  1.00  0.00    -0.273 OA
BRANCH   9  12
HETATM   12  C5  UNL     1      16.408   6.218  11.196  1.00  0.00     0.177 C 
BRANCH  12  13
HETATM   13  C4  UNL     1      16.853   6.839  12.494  1.00  0.00     0.038 C 
BRANCH  13  14
HETATM   14  C2  UNL     1      17.083   5.954  13.644  1.00  0.00    -0.020 C 
HETATM   15  C1  UNL     1      17.710   6.565  14.854  1.00  0.00     0.009 C 
HETATM   16  C3  UNL     1      15.727   5.391  14.098  1.00  0.00     0.009 C 
ENDBRANCH  13  14
ENDBRANCH  12  13
BRANCH  12  17
HETATM   17  C17 UNL     1      16.470   7.293  10.174  1.00  0.00     0.241 C 
HETATM   18  O6  UNL     1      17.576   7.943  10.174  1.00  0.00    -0.271 OA
HETATM   19  N3  UNL     1      15.508   7.664   9.250  1.00  0.00    -0.359 N 
HETATM   20  C18 UNL     1      15.735   8.783   8.346  1.00  0.00     0.152 C 
HETATM   21  C19 UNL     1      14.265   6.943   9.134  1.00  0.00     0.152 C 
ENDBRANCH  12  17
ENDBRANCH   9  12
ENDBRANCH   1   8
BRANCH   7  22
HETATM   22  N2  UNL     1      18.095   2.169  12.721  1.00  0.00    -0.351 N 
HETATM   23  C13 UNL     1      17.131   1.247  13.177  1.00  0.00     0.273 C 
HETATM   24  O3  UNL     1      16.790   0.238  12.494  1.00  0.00    -0.268 OA
ATOM     25  H2  UNL     1      18.342   2.972  13.300  1.00  0.00     0.163 HD
BRANCH  23  26
HETATM   26  C14 UNL     1      16.458   1.405  14.491  1.00  0.00     0.353 C 
HETATM   27  O4  UNL     1      17.215   2.167  15.373  1.00  0.00    -0.351 OA
HETATM   28  C15 UNL     1      16.535   1.972  16.575  1.00  0.00     0.197 C 
HETATM   29  C16 UNL     1      15.942   0.583  16.427  1.00  0.00     0.197 C 
HETATM   30  O5  UNL     1      16.360   0.185  15.159  1.00  0.00    -0.351 OA
ENDBRANCH  23  26
ENDBRANCH   7  22
TORSDOF 7
ENDMDL
MODEL 5
REMARK VINA RESULT: -7.601050583      2.084      4.885
REMARK  7 active torsions:
REMARK  status: ('A' for Active; 'I' for Inactive)
REMARK    1  A    between atoms: C2_2  and  C4_4 
REMARK    2  A    between atoms: C4_4  and  C5_5 
REMARK    3  A    between atoms: C5_5  and  N1_6 
REMARK    4  A    between atoms: C5_5  and  C17_26 
REMARK       I    between atoms: N1_6  and  C6_8 
REMARK    5  A    between atoms: C6_8  and  C7_10 
REMARK    6  A    between atoms: C12_16  and  N2_17 
REMARK       I    between atoms: N2_17  and  C13_19 
REMARK    7  A    between atoms: C13_19  and  C14_21 
REMARK       I    between atoms: C17_26  and  N3_28 
ROOT
HETATM    1  C7  UNL     1      18.218   3.517  10.444  1.00  0.00     0.130 C 
HETATM    2  C8  UNL     1      19.603   4.055  10.056  1.00  0.00     0.137 C 
HETATM    3  C9  UNL     1      20.220   2.703   9.636  1.00  0.00     0.041 C 
HETATM    4  C10 UNL     1      20.027   2.096  11.038  1.00  0.00     0.036 C 
HETATM    5  C11 UNL     1      20.690   3.198  11.828  1.00  0.00     0.174 C 
HETATM    6  O2  UNL     1      20.360   4.371  11.157  1.00  0.00    -0.384 OA
HETATM    7  C12 UNL     1      18.531   2.269  11.193  1.00  0.00     0.106 C 
ENDROOT
BRANCH   1   8
HETATM    8  C6  UNL     1      17.498   4.560  11.158  1.00  0.00     0.227 C 
HETATM    9  N1  UNL     1      18.009   5.296  12.253  1.00  0.00    -0.347 N 
ATOM     10  H1  UNL     1      18.955   5.097  12.577  1.00  0.00     0.163 HD
HETATM   11  O1  UNL     1      16.304   4.869  10.807  1.00  0.00    -0.273 OA
BRANCH   9  12
HETATM   12  C5  UNL     1      17.230   6.342  12.946  1.00  0.00     0.177 C 
BRANCH  12  13
HETATM   13  C4  UNL     1      16.829   5.693  14.245  1.00  0.00     0.038 C 
BRANCH  13  14
HETATM   14  C2  UNL     1      15.476   5.130  14.353  1.00  0.00    -0.020 C 
HETATM   15  C1  UNL     1      14.943   4.907  15.729  1.00  0.00     0.009 C 
HETATM   16  C3  UNL     1      14.497   6.092  13.661  1.00  0.00     0.009 C 
ENDBRANCH  13  14
ENDBRANCH  12  13
BRANCH  12  17
HETATM   17  C17 UNL     1      18.195   7.414  13.294  1.00  0.00     0.241 C 
HETATM   18  O6  UNL     1      18.707   7.291  14.464  1.00  0.00    -0.271 OA
HETATM   19  N3  UNL     1      18.598   8.495  12.527  1.00  0.00    -0.359 N 
HETATM   20  C18 UNL     1      19.533   9.477  13.059  1.00  0.00     0.152 C 
HETATM   21  C19 UNL     1      18.127   8.672  11.176  1.00  0.00     0.152 C 
ENDBRANCH  12  17
ENDBRANCH   9  12
ENDBRANCH   1   8
BRANCH   7  22
HETATM   22  N2  UNL     1      18.113   2.231  12.558  1.00  0.00    -0.351 N 
HETATM   23  C13 UNL     1      16.917   1.579  12.919  1.00  0.00     0.273 C 
HETATM   24  O3  UNL     1      16.176   1.013  12.064  1.00  0.00    -0.268 OA
ATOM     25  H2  UNL     1      18.684   2.678  13.275  1.00  0.00     0.163 HD
BRANCH  23  26
HETATM   26  C14 UNL     1      16.456   1.518  14.329  1.00  0.00     0.353 C 
HETATM   27  O4  UNL     1      17.313   2.197  15.186  1.00  0.00    -0.351 OA
HETATM   28  C15 UNL     1      16.841   1.800  16.436  1.00  0.00     0.197 C 
HETATM   29  C16 UNL     1      16.285   0.411  16.183  1.00  0.00     0.197 C 
HETATM   30  O5  UNL     1      16.511   0.214  14.823  1.00  0.00    -0.351 OA
ENDBRANCH  23  26
ENDBRANCH   7  22
TORSDOF 7
ENDMDL
