MODEL 1
REMARK VINA RESULT: -6.791343323      0.000      0.000
REMARK  7 active torsions:
REMARK  status: ('A' for Active; 'I' for Inactive)
REMARK    1  A    between atoms: C2_2  and  C3_3 
REMARK    2  A    between atoms: C2_2  and  N5_26 
REMARK    3  A    between atoms: C3_3  and  N1_4 
REMARK    4  A    between atoms: C3_3  and  C11_18 
REMARK       I    between atoms: N1_4  and  C4_6 
REMARK       I    between atoms: C4_6  and  N2_8 
REMARK    5  A    between atoms: N2_8  and  C5_10 
REMARK    6  A    between atoms: C5_10  and  C6_11 
REMARK    7  A    between atoms: C6_11  and  N3_12 
REMARK       I    between atoms: C11_18  and  N4_20 
ROOT
HETATM    1  C3  UNL     1      17.308   5.861  11.883  1.00  0.00     0.211 C 
ENDROOT
BRANCH   1   2
HETATM    2  C2  UNL     1      16.970   6.974  10.895  1.00  0.00     0.250 C 
HETATM    3  C1  UNL     1      17.703   8.247  11.123  1.00  0.00     0.045 C 
BRANCH   2   4
HETATM    4  N5  UNL     1      15.556   7.112  10.798  1.00  0.00     0.095 N 
HETATM    5  C16 UNL     1      14.983   8.425  10.790  1.00  0.00     0.275 C 
HETATM    6  C17 UNL     1      13.815   7.834   9.981  1.00  0.00     0.060 C 
HETATM    7  C18 UNL     1      14.907   6.840   9.548  1.00  0.00     0.275 C 
ENDBRANCH   2   4
ENDBRANCH   1   2
BRANCH   1   8
HETATM    8  N1  UNL     1      16.032   5.643  12.599  1.00  0.00    -0.328 N 
HETATM    9  C4  UNL     1      16.041   5.187  13.921  1.00  0.00     0.316 C 
HETATM   10  O1  UNL     1      17.155   4.958  14.503  1.00  0.00    -0.247 OA
HETATM   11  N2  UNL     1      14.859   4.963  14.647  1.00  0.00    -0.341 N 
ATOM     12  H2  UNL     1      13.974   5.147  14.176  1.00  0.00     0.164 HD
ATOM     13  H1  UNL     1      15.145   5.825  12.129  1.00  0.00     0.165 HD
BRANCH  11  14
HETATM   14  C5  UNL     1      14.804   4.494  16.003  1.00  0.00     0.154 C 
BRANCH  14  15
HETATM   15  C6  UNL     1      14.735   2.996  16.134  1.00  0.00     0.292 C 
BRANCH  15  16
HETATM   16  N3  UNL     1      15.757   2.518  17.002  1.00  0.00     0.094 N 
HETATM   17  C7  UNL     1      16.901   1.952  16.341  1.00  0.00     0.298 C 
HETATM   18  C8  UNL     1      16.625   0.555  15.847  1.00  0.00     0.198 C 
HETATM   19  O2  UNL     1      15.400   0.051  16.204  1.00  0.00    -0.388 OA
HETATM   20  C9  UNL     1      15.008   0.273  17.498  1.00  0.00     0.198 C 
HETATM   21  C10 UNL     1      15.334   1.624  18.045  1.00  0.00     0.298 C 
ENDBRANCH  15  16
ENDBRANCH  14  15
ENDBRANCH  11  14
ENDBRANCH   1   8
BRANCH   1  22
HETATM   22  C11 UNL     1      17.650   4.618  11.152  1.00  0.00     0.245 C 
HETATM   23  O3  UNL     1      16.670   3.913  10.766  1.00  0.00    -0.271 OA
HETATM   24  N4  UNL     1      18.946   4.167  10.864  1.00  0.00    -0.346 N 
HETATM   25  C12 UNL     1      19.167   2.930  10.089  1.00  0.00     0.152 C 
HETATM   26  C15 UNL     1      20.168   4.815  11.303  1.00  0.00     0.152 C 
HETATM   27  C13 UNL     1      19.695   1.932  11.121  1.00  0.00     0.187 C 
HETATM   28  O4  UNL     1      20.422   2.561  12.099  1.00  0.00    -0.388 OA
HETATM   29  C14 UNL     1      21.113   3.687  11.691  1.00  0.00     0.187 C 
ENDBRANCH   1  22
TORSDOF 7
ENDMDL
MODEL 2
REMARK VINA RESULT: -6.711671338      2.410      7.293
REMARK  7 active torsions:
REMARK  status: ('A' for Active; 'I' for Inactive)
REMARK    1  A    between atoms: C2_2  and  C3_3 
REMARK    2  A    between atoms: C2_2  and  N5_26 
REMARK    3  A    between atoms: C3_3  and  N1_4 
REMARK    4  A    between atoms: C3_3  and  C11_18 
REMARK       I    between atoms: N1_4  and  C4_6 
REMARK       I    between atoms: C4_6  and  N2_8 
REMARK    5  A    between atoms: N2_8  and  C5_10 
REMARK    6  A    between atoms: C5_10  and  C6_11 
REMARK    7  A    between atoms: C6_11  and  N3_12 
REMARK       I    between atoms: C11_18  and  N4_20 
ROOT
HETATM    1  C3  UNL     1      16.455   3.440  14.507  1.00  0.00     0.211 C 
ENDROOT
BRANCH   1   2
HETATM    2  C2  UNL     1      16.296   4.931  14.786  1.00  0.00     0.250 C 
HETATM    3  C1  UNL     1      14.946   5.477  14.486  1.00  0.00     0.045 C 
BRANCH   2   4
HETATM    4  N5  UNL     1      17.372   5.646  14.186  1.00  0.00     0.095 N 
HETATM    5  C16 UNL     1      17.106   6.487  13.058  1.00  0.00     0.275 C 
HETATM    6  C17 UNL     1      18.320   7.330  13.489  1.00  0.00     0.060 C 
HETATM    7  C18 UNL     1      17.937   6.772  14.872  1.00  0.00     0.275 C 
ENDBRANCH   2   4
ENDBRANCH   1   2
BRANCH   1   8
HETATM    8  N1  UNL     1      17.745   3.364  13.786  1.00  0.00    -0.328 N 
HETATM    9  C4  UNL     1      17.886   2.500  12.695  1.00  0.00     0.316 C 
HETATM   10  O1  UNL     1      16.898   1.778  12.329  1.00  0.00    -0.247 OA
HETATM   11  N2  UNL     1      19.088   2.389  11.975  1.00  0.00    -0.341 N 
ATOM     12  H2  UNL     1      19.872   2.969  12.274  1.00  0.00     0.164 HD
ATOM     13  H1  UNL     1      18.531   3.941  14.085  1.00  0.00     0.165 HD
BRANCH  11  14
HETATM   14  C5  UNL     1      19.295   1.522  10.851  1.00  0.00     0.154 C 
BRANCH  14  15
HETATM   15  C6  UNL     1      20.171   2.106   9.775  1.00  0.00     0.292 C 
BRANCH  15  16
HETATM   16  N3  UNL     1      20.388   3.495   9.999  1.00  0.00     0.094 N 
HETATM   17  C7  UNL     1      19.748   4.371   9.056  1.00  0.00     0.298 C 
HETATM   18  C8  UNL     1      20.501   4.433   7.752  1.00  0.00     0.198 C 
HETATM   19  O2  UNL     1      21.687   3.743   7.740  1.00  0.00    -0.388 OA
HETATM   20  C9  UNL     1      22.480   3.884   8.849  1.00  0.00     0.198 C 
HETATM   21  C10 UNL     1      21.757   3.903  10.157  1.00  0.00     0.298 C 
ENDBRANCH  15  16
ENDBRANCH  14  15
ENDBRANCH  11  14
ENDBRANCH   1   8
BRANCH   1  22
HETATM   22  C11 UNL     1      16.590   2.694  15.781  1.00  0.00     0.245 C 
HETATM   23  O3  UNL     1      17.771   2.375  16.116  1.00  0.00    -0.271 OA
HETATM   24  N4  UNL     1      15.536   2.319  16.627  1.00  0.00    -0.346 N 
HETATM   25  C12 UNL     1      15.794   1.613  17.898  1.00  0.00     0.152 C 
HETATM   26  C15 UNL     1      14.129   2.539  16.349  1.00  0.00     0.152 C 
HETATM   27  C13 UNL     1      15.301   0.189  17.640  1.00  0.00     0.187 C 
HETATM   28  O4  UNL     1      14.245   0.175  16.765  1.00  0.00    -0.388 OA
HETATM   29  C14 UNL     1      13.417   1.280  16.820  1.00  0.00     0.187 C 
ENDBRANCH   1  22
TORSDOF 7
ENDMDL
MODEL 3
REMARK VINA RESULT: -6.434776479      1.680      2.192
REMARK  7 active torsions:
REMARK  status: ('A' for Active; 'I' for Inactive)
REMARK    1  A    between atoms: C2_2  and  C3_3 
REMARK    2  A    between atoms: C2_2  and  N5_26 
REMARK    3  A    between atoms: C3_3  and  N1_4 
REMARK    4  A    between atoms: C3_3  and  C11_18 
REMARK       I    between atoms: N1_4  and  C4_6 
REMARK       I    between atoms: C4_6  and  N2_8 
REMARK    5  A    between atoms: N2_8  and  C5_10 
REMARK    6  A    between atoms: C5_10  and  C6_11 
REMARK    7  A    between atoms: C6_11  and  N3_12 
REMARK       I    between atoms: C11_18  and  N4_20 
ROOT
HETATM    1  C3  UNL     1      18.173   4.312  11.880  1.00  0.00     0.211 C 
ENDROOT
BRANCH   1   2
HETATM    2  C2  UNL     1      18.133   5.597  11.058  1.00  0.00     0.250 C 
HETATM    3  C1  UNL     1      18.930   6.718  11.622  1.00  0.00     0.045 C 
BRANCH   2   4
HETATM    4  N5  UNL     1      16.782   5.925  10.751  1.00  0.00     0.095 N 
HETATM    5  C16 UNL     1      16.280   7.217  11.110  1.00  0.00     0.275 C 
HETATM    6  C17 UNL     1      15.293   7.082   9.936  1.00  0.00     0.060 C 
HETATM    7  C18 UNL     1      16.411   6.178   9.389  1.00  0.00     0.275 C 
ENDBRANCH   2   4
ENDBRANCH   1   2
BRANCH   1   8
HETATM    8  N1  UNL     1      16.791   4.194  12.393  1.00  0.00    -0.328 N 
HETATM    9  C4  UNL     1      16.543   4.302  13.765  1.00  0.00     0.316 C 
HETATM   10  O1  UNL     1      17.515   4.500  14.570  1.00  0.00    -0.247 OA
HETATM   11  N2  UNL     1      15.250   4.197  14.306  1.00  0.00    -0.341 N 
ATOM     12  H2  UNL     1      14.479   4.038  13.658  1.00  0.00     0.164 HD
ATOM     13  H1  UNL     1      16.019   4.033  11.746  1.00  0.00     0.165 HD
BRANCH  11  14
HETATM   14  C5  UNL     1      14.933   4.297  15.702  1.00  0.00     0.154 C 
BRANCH  14  15
HETATM   15  C6  UNL     1      14.571   2.986  16.347  1.00  0.00     0.292 C 
BRANCH  15  16
HETATM   16  N3  UNL     1      15.640   2.508  17.155  1.00  0.00     0.094 N 
HETATM   17  C7  UNL     1      16.735   1.921  16.431  1.00  0.00     0.298 C 
HETATM   18  C8  UNL     1      16.415   0.522  15.974  1.00  0.00     0.198 C 
HETATM   19  O2  UNL     1      15.210   0.035  16.413  1.00  0.00    -0.388 OA
HETATM   20  C9  UNL     1      14.903   0.277  17.727  1.00  0.00     0.198 C 
HETATM   21  C10 UNL     1      15.275   1.632  18.234  1.00  0.00     0.298 C 
ENDBRANCH  15  16
ENDBRANCH  14  15
ENDBRANCH  11  14
ENDBRANCH   1   8
BRANCH   1  22
HETATM   22  C11 UNL     1      18.444   3.152  10.999  1.00  0.00     0.245 C 
HETATM   23  O3  UNL     1      18.803   3.426   9.814  1.00  0.00    -0.271 OA
HETATM   24  N4  UNL     1      18.334   1.802  11.362  1.00  0.00    -0.346 N 
HETATM   25  C12 UNL     1      18.671   0.726  10.410  1.00  0.00     0.152 C 
HETATM   26  C15 UNL     1      17.862   1.325  12.649  1.00  0.00     0.152 C 
HETATM   27  C13 UNL     1      17.319   0.118  10.039  1.00  0.00     0.187 C 
HETATM   28  O4  UNL     1      16.432   0.192  11.083  1.00  0.00    -0.388 OA
HETATM   29  C14 UNL     1      16.995   0.112  12.343  1.00  0.00     0.187 C 
ENDBRANCH   1  22
TORSDOF 7
ENDMDL
MODEL 4
REMARK VINA RESULT: -6.347586218      2.509      4.266
REMARK  7 active torsions:
REMARK  status: ('A' for Active; 'I' for Inactive)
REMARK    1  A    between atoms: C2_2  and  C3_3 
REMARK    2  A    between atoms: C2_2  and  N5_26 
REMARK    3  A    between atoms: C3_3  and  N1_4 
REMARK    4  A    between atoms: C3_3  and  C11_18 
REMARK       I    between atoms: N1_4  and  C4_6 
REMARK       I    between atoms: C4_6  and  N2_8 
REMARK    5  A    between atoms: N2_8  and  C5_10 
REMARK    6  A    between atoms: C5_10  and  C6_11 
REMARK    7  A    between atoms: C6_11  and  N3_12 
REMARK       I    between atoms: C11_18  and  N4_20 
ROOT
HETATM    1  C3  UNL     1      18.618   3.623  11.513  1.00  0.00     0.211 C 
ENDROOT
BRANCH   1   2
HETATM    2  C2  UNL     1      19.007   2.148  11.570  1.00  0.00     0.250 C 
HETATM    3  C1  UNL     1      20.203   1.793  10.761  1.00  0.00     0.045 C 
BRANCH   2   4
HETATM    4  N5  UNL     1      17.860   1.342  11.321  1.00  0.00     0.095 N 
HETATM    5  C16 UNL     1      17.992   0.180  10.495  1.00  0.00     0.275 C 
HETATM    6  C17 UNL     1      16.808  -0.421  11.273  1.00  0.00     0.060 C 
HETATM    7  C18 UNL     1      17.339   0.516  12.371  1.00  0.00     0.275 C 
ENDBRANCH   2   4
ENDBRANCH   1   2
BRANCH   1   8
HETATM    8  N1  UNL     1      18.380   3.966  12.932  1.00  0.00    -0.328 N 
HETATM    9  C4  UNL     1      17.072   4.054  13.421  1.00  0.00     0.316 C 
HETATM   10  O1  UNL     1      16.088   3.839  12.635  1.00  0.00    -0.247 OA
HETATM   11  N2  UNL     1      16.789   4.376  14.759  1.00  0.00    -0.341 N 
ATOM     12  H2  UNL     1      17.580   4.547  15.380  1.00  0.00     0.164 HD
ATOM     13  H1  UNL     1      19.169   4.139  13.555  1.00  0.00     0.165 HD
BRANCH  11  14
HETATM   14  C5  UNL     1      15.472   4.484  15.318  1.00  0.00     0.154 C 
BRANCH  14  15
HETATM   15  C6  UNL     1      14.907   3.181  15.819  1.00  0.00     0.292 C 
BRANCH  15  16
HETATM   16  N3  UNL     1      15.719   2.647  16.859  1.00  0.00     0.094 N 
HETATM   17  C7  UNL     1      16.799   1.806  16.418  1.00  0.00     0.298 C 
HETATM   18  C8  UNL     1      16.317   0.429  16.044  1.00  0.00     0.198 C 
HETATM   19  O2  UNL     1      14.986   0.199  16.289  1.00  0.00    -0.388 OA
HETATM   20  C9  UNL     1      14.506   0.651  17.489  1.00  0.00     0.198 C 
HETATM   21  C10 UNL     1      15.022   1.983  17.927  1.00  0.00     0.298 C 
ENDBRANCH  15  16
ENDBRANCH  14  15
ENDBRANCH  11  14
ENDBRANCH   1   8
BRANCH   1  22
HETATM   22  C11 UNL     1      19.758   4.432  11.023  1.00  0.00     0.245 C 
HETATM   23  O3  UNL     1      20.705   4.615  11.847  1.00  0.00    -0.271 OA
HETATM   24  N4  UNL     1      19.870   5.004   9.747  1.00  0.00    -0.346 N 
HETATM   25  C12 UNL     1      21.075   5.759   9.354  1.00  0.00     0.152 C 
HETATM   26  C15 UNL     1      18.843   4.954   8.722  1.00  0.00     0.152 C 
HETATM   27  C13 UNL     1      20.608   7.214   9.309  1.00  0.00     0.187 C 
HETATM   28  O4  UNL     1      19.290   7.306   8.940  1.00  0.00    -0.388 OA
HETATM   29  C14 UNL     1      18.851   6.328   8.067  1.00  0.00     0.187 C 
ENDBRANCH   1  22
TORSDOF 7
ENDMDL
MODEL 5
REMARK VINA RESULT: -6.256363360      3.076      6.732
REMARK  7 active torsions:
REMARK  status: ('A' for Active; 'I' for Inactive)
REMARK    1  A    between atoms: C2_2  and  C3_3 
REMARK    2  A    between atoms: C2_2  and  N5_26 
REMARK    3  A    between atoms: C3_3  and  N1_4 
REMARK    4  A    between atoms: C3_3  and  C11_18 
REMARK       I    between atoms: N1_4  and  C4_6 
REMARK       I    between atoms: C4_6  and  N2_8 
REMARK    5  A    between atoms: N2_8  and  C5_10 
REMARK    6  A    between atoms: C5_10  and  C6_11 
REMARK    7  A    between atoms: C6_11  and  N3_12 
REMARK       I    between atoms: C11_18  and  N4_20 
ROOT
HETATM    1  C3  UNL     1      17.876   3.901  12.574  1.00  0.00     0.211 C 
ENDROOT
BRANCH   1   2
HETATM    2  C2  UNL     1      18.458   4.458  13.870  1.00  0.00     0.250 C 
HETATM    3  C1  UNL     1      17.911   3.844  15.108  1.00  0.00     0.045 C 
BRANCH   2   4
HETATM    4  N5  UNL     1      18.411   5.881  13.842  1.00  0.00     0.095 N 
HETATM    5  C16 UNL     1      17.584   6.569  14.787  1.00  0.00     0.275 C 
HETATM    6  C17 UNL     1      18.554   7.758  14.664  1.00  0.00     0.060 C 
HETATM    7  C18 UNL     1      19.540   6.632  14.309  1.00  0.00     0.275 C 
ENDBRANCH   2   4
ENDBRANCH   1   2
BRANCH   1   8
HETATM    8  N1  UNL     1      18.208   4.943  11.578  1.00  0.00    -0.328 N 
HETATM    9  C4  UNL     1      17.437   5.072  10.418  1.00  0.00     0.316 C 
HETATM   10  O1  UNL     1      16.450   4.284  10.224  1.00  0.00    -0.247 OA
HETATM   11  N2  UNL     1      17.707   6.043   9.439  1.00  0.00    -0.341 N 
ATOM     12  H2  UNL     1      18.496   6.668   9.601  1.00  0.00     0.164 HD
ATOM     13  H1  UNL     1      18.998   5.568  11.736  1.00  0.00     0.165 HD
BRANCH  11  14
HETATM   14  C5  UNL     1      16.955   6.223   8.230  1.00  0.00     0.154 C 
BRANCH  14  15
HETATM   15  C6  UNL     1      15.934   7.328   8.297  1.00  0.00     0.292 C 
BRANCH  15  16
HETATM   16  N3  UNL     1      14.748   6.881   8.943  1.00  0.00     0.094 N 
HETATM   17  C7  UNL     1      13.534   7.092   8.202  1.00  0.00     0.298 C 
HETATM   18  C8  UNL     1      13.074   8.525   8.281  1.00  0.00     0.198 C 
HETATM   19  O2  UNL     1      13.819   9.322   9.114  1.00  0.00    -0.388 OA
HETATM   20  C9  UNL     1      14.163   8.778  10.324  1.00  0.00     0.198 C 
HETATM   21  C10 UNL     1      14.553   7.336  10.292  1.00  0.00     0.298 C 
ENDBRANCH  15  16
ENDBRANCH  14  15
ENDBRANCH  11  14
ENDBRANCH   1   8
BRANCH   1  22
HETATM   22  C11 UNL     1      18.580   2.653  12.194  1.00  0.00     0.245 C 
HETATM   23  O3  UNL     1      19.841   2.736  12.092  1.00  0.00    -0.271 OA
HETATM   24  N4  UNL     1      17.974   1.415  11.940  1.00  0.00    -0.346 N 
HETATM   25  C12 UNL     1      18.782   0.225  11.609  1.00  0.00     0.152 C 
HETATM   26  C15 UNL     1      16.543   1.176  11.938  1.00  0.00     0.152 C 
HETATM   27  C13 UNL     1      18.508  -0.012  10.124  1.00  0.00     0.187 C 
HETATM   28  O4  UNL     1      17.238   0.376   9.781  1.00  0.00    -0.388 OA
HETATM   29  C14 UNL     1      16.287   0.230  10.773  1.00  0.00     0.187 C 
ENDBRANCH   1  22
TORSDOF 7
ENDMDL
