MODEL 1
REMARK VINA RESULT: -7.979227473      0.000      0.000
REMARK  7 active torsions:
REMARK  status: ('A' for Active; 'I' for Inactive)
REMARK    1  A    between atoms: C2_2  and  C3_3 
REMARK    2  A    between atoms: C3_3  and  N1_4 
REMARK       I    between atoms: N2_7  and  C6_8 
REMARK    3  A    between atoms: C6_8  and  C7_10 
REMARK    4  A    between atoms: C7_10  and  N3_11 
REMARK    5  A    between atoms: C10_17  and  C11_18 
REMARK       I    between atoms: C11_18  and  N5_20 
REMARK    6  A    between atoms: N5_20  and  C12_22 
REMARK    7  A    between atoms: C12_22  and  C13_23 
ROOT
HETATM    1  N3  UNL     1      18.072   0.934  10.788  1.00  0.00     0.138 N 
HETATM    2  C8  UNL     1      17.751  -0.254  10.066  1.00  0.00     0.504 C 
HETATM    3  N4  UNL     1      17.624  -1.325  11.032  1.00  0.00    -0.046 N 
ATOM      4  H41 UNL     1      18.456  -1.908  11.121  1.00  0.00     0.279 HD
ATOM      5  H42 UNL     1      16.992  -2.073  10.745  1.00  0.00     0.279 HD
HETATM    6  C9  UNL     1      17.241  -0.668  12.235  1.00  0.00     0.280 C 
HETATM    7  C10 UNL     1      17.821   0.724  12.170  1.00  0.00     0.342 C 
ENDROOT
BRANCH   1   8
HETATM    8  C7  UNL     1      19.285   1.568  10.439  1.00  0.00     0.378 C 
BRANCH   8   9
HETATM    9  C6  UNL     1      19.683   2.699  11.286  1.00  0.00     0.248 C 
HETATM   10  N2  UNL     1      19.147   4.008  11.152  1.00  0.00    -0.347 N 
HETATM   11  C5  UNL     1      18.150   4.355  10.152  1.00  0.00     0.156 C 
HETATM   12  C18 UNL     1      19.576   5.086  12.020  1.00  0.00     0.156 C 
HETATM   13  C4  UNL     1      16.904   4.951  10.768  1.00  0.00     0.292 C 
HETATM   14  N1  UNL     1      17.289   5.762  11.882  1.00  0.00     0.095 N 
HETATM   15  C19 UNL     1      18.629   6.263  11.783  1.00  0.00     0.292 C 
HETATM   16  O1  UNL     1      20.543   2.510  12.182  1.00  0.00    -0.271 OA
BRANCH  14  17
HETATM   17  C3  UNL     1      16.384   6.856  12.143  1.00  0.00     0.299 C 
BRANCH  17  18
HETATM   18  C2  UNL     1      15.311   6.984  11.141  1.00  0.00    -0.007 C 
HETATM   19  C1  UNL     1      14.191   7.675  11.367  1.00  0.00     0.008 C 
ENDBRANCH  17  18
ENDBRANCH  14  17
ENDBRANCH   8   9
ENDBRANCH   1   8
BRANCH   7  20
HETATM   20  C11 UNL     1      16.757   1.680  12.712  1.00  0.00     0.256 C 
HETATM   21  O2  UNL     1      15.811   1.951  11.949  1.00  0.00    -0.271 OA
HETATM   22  N5  UNL     1      16.850   2.212  13.991  1.00  0.00    -0.338 N 
ATOM     23  H5  UNL     1      17.657   1.897  14.530  1.00  0.00     0.167 HD
BRANCH  22  24
HETATM   24  C12 UNL     1      16.011   3.109  14.654  1.00  0.00     0.070 C 
BRANCH  24  25
HETATM   25  C13 UNL     1      15.772   3.071  16.103  1.00  0.00     0.048 C 
HETATM   26  C14 UNL     1      16.394   1.716  16.585  1.00  0.00     0.014 C 
HETATM   27  C15 UNL     1      15.545   1.155  17.686  1.00  0.00     0.027 C 
HETATM   28  C16 UNL     1      14.102   0.994  17.379  1.00  0.00     0.167 C 
HETATM   29  O3  UNL     1      13.688   1.948  16.465  1.00  0.00    -0.390 OA
HETATM   30  C17 UNL     1      14.404   3.135  16.672  1.00  0.00     0.177 C 
ENDBRANCH  24  25
ENDBRANCH  22  24
ENDBRANCH   7  20
TORSDOF 7
ENDMDL
MODEL 2
REMARK VINA RESULT: -7.750810538      1.132      1.550
REMARK  7 active torsions:
REMARK  status: ('A' for Active; 'I' for Inactive)
REMARK    1  A    between atoms: C2_2  and  C3_3 
REMARK    2  A    between atoms: C3_3  and  N1_4 
REMARK       I    between atoms: N2_7  and  C6_8 
REMARK    3  A    between atoms: C6_8  and  C7_10 
REMARK    4  A    between atoms: C7_10  and  N3_11 
REMARK    5  A    between atoms: C10_17  and  C11_18 
REMARK       I    between atoms: C11_18  and  N5_20 
REMARK    6  A    between atoms: N5_20  and  C12_22 
REMARK    7  A    between atoms: C12_22  and  C13_23 
ROOT
HETATM    1  N3  UNL     1      17.862   0.923  10.746  1.00  0.00     0.138 N 
HETATM    2  C8  UNL     1      17.571  -0.346  10.161  1.00  0.00     0.504 C 
HETATM    3  N4  UNL     1      17.578  -1.324  11.228  1.00  0.00    -0.046 N 
ATOM      4  H41 UNL     1      18.450  -1.847  11.311  1.00  0.00     0.279 HD
ATOM      5  H42 UNL     1      16.979  -2.132  11.059  1.00  0.00     0.279 HD
HETATM    6  C9  UNL     1      17.234  -0.577  12.391  1.00  0.00     0.280 C 
HETATM    7  C10 UNL     1      17.718   0.833  12.155  1.00  0.00     0.342 C 
ENDROOT
BRANCH   1   8
HETATM    8  C7  UNL     1      19.006   1.589  10.254  1.00  0.00     0.378 C 
BRANCH   8   9
HETATM    9  C6  UNL     1      19.731   2.418  11.224  1.00  0.00     0.248 C 
HETATM   10  N2  UNL     1      19.441   3.790  11.458  1.00  0.00    -0.347 N 
HETATM   11  C5  UNL     1      18.395   4.508  10.749  1.00  0.00     0.156 C 
HETATM   12  C18 UNL     1      20.190   4.558  12.432  1.00  0.00     0.156 C 
HETATM   13  C4  UNL     1      17.389   5.130  11.692  1.00  0.00     0.292 C 
HETATM   14  N1  UNL     1      18.078   5.592  12.857  1.00  0.00     0.095 N 
HETATM   15  C19 UNL     1      19.461   5.889  12.616  1.00  0.00     0.292 C 
HETATM   16  O1  UNL     1      20.661   1.897  11.889  1.00  0.00    -0.271 OA
BRANCH  14  17
HETATM   17  C3  UNL     1      17.446   6.722  13.495  1.00  0.00     0.299 C 
BRANCH  17  18
HETATM   18  C2  UNL     1      17.857   6.912  14.897  1.00  0.00    -0.007 C 
HETATM   19  C1  UNL     1      18.513   7.997  15.316  1.00  0.00     0.008 C 
ENDBRANCH  17  18
ENDBRANCH  14  17
ENDBRANCH   8   9
ENDBRANCH   1   8
BRANCH   7  20
HETATM   20  C11 UNL     1      16.632   1.773  12.682  1.00  0.00     0.256 C 
HETATM   21  O2  UNL     1      15.702   2.044  11.900  1.00  0.00    -0.271 OA
HETATM   22  N5  UNL     1      16.690   2.293  13.969  1.00  0.00    -0.338 N 
ATOM     23  H5  UNL     1      17.487   1.980  14.523  1.00  0.00     0.167 HD
BRANCH  22  24
HETATM   24  C12 UNL     1      15.828   3.176  14.621  1.00  0.00     0.070 C 
BRANCH  24  25
HETATM   25  C13 UNL     1      15.591   3.150  16.070  1.00  0.00     0.048 C 
HETATM   26  C14 UNL     1      16.357   1.884  16.587  1.00  0.00     0.014 C 
HETATM   27  C15 UNL     1      15.572   1.264  17.704  1.00  0.00     0.027 C 
HETATM   28  C16 UNL     1      14.156   0.937  17.403  1.00  0.00     0.167 C 
HETATM   29  O3  UNL     1      13.642   1.815  16.464  1.00  0.00    -0.390 OA
HETATM   30  C17 UNL     1      14.223   3.079  16.638  1.00  0.00     0.177 C 
ENDBRANCH  24  25
ENDBRANCH  22  24
ENDBRANCH   7  20
TORSDOF 7
ENDMDL
MODEL 3
REMARK VINA RESULT: -7.669296711      2.066      5.265
REMARK  7 active torsions:
REMARK  status: ('A' for Active; 'I' for Inactive)
REMARK    1  A    between atoms: C2_2  and  C3_3 
REMARK    2  A    between atoms: C3_3  and  N1_4 
REMARK       I    between atoms: N2_7  and  C6_8 
REMARK    3  A    between atoms: C6_8  and  C7_10 
REMARK    4  A    between atoms: C7_10  and  N3_11 
REMARK    5  A    between atoms: C10_17  and  C11_18 
REMARK       I    between atoms: C11_18  and  N5_20 
REMARK    6  A    between atoms: N5_20  and  C12_22 
REMARK    7  A    between atoms: C12_22  and  C13_23 
ROOT
HETATM    1  N3  UNL     1      18.645   5.910  12.938  1.00  0.00     0.138 N 
HETATM    2  C8  UNL     1      19.871   6.598  13.181  1.00  0.00     0.504 C 
HETATM    3  N4  UNL     1      19.546   7.823  13.881  1.00  0.00    -0.046 N 
ATOM      4  H41 UNL     1      19.497   8.646  13.282  1.00  0.00     0.279 HD
ATOM      5  H42 UNL     1      20.291   8.169  14.486  1.00  0.00     0.279 HD
HETATM    6  C9  UNL     1      18.333   7.525  14.563  1.00  0.00     0.280 C 
HETATM    7  C10 UNL     1      17.622   6.478  13.741  1.00  0.00     0.342 C 
ENDROOT
BRANCH   1   8
HETATM    8  C7  UNL     1      18.335   5.645  11.585  1.00  0.00     0.378 C 
BRANCH   8   9
HETATM    9  C6  UNL     1      19.178   4.646  10.918  1.00  0.00     0.248 C 
HETATM   10  N2  UNL     1      19.088   3.250  11.166  1.00  0.00    -0.347 N 
HETATM   11  C5  UNL     1      18.149   2.675  12.116  1.00  0.00     0.156 C 
HETATM   12  C18 UNL     1      19.945   2.309  10.474  1.00  0.00     0.156 C 
HETATM   13  C4  UNL     1      17.249   1.642  11.476  1.00  0.00     0.292 C 
HETATM   14  N1  UNL     1      18.006   0.915  10.504  1.00  0.00     0.095 N 
HETATM   15  C19 UNL     1      19.415   0.907  10.774  1.00  0.00     0.292 C 
HETATM   16  O1  UNL     1      20.029   5.036  10.080  1.00  0.00    -0.271 OA
BRANCH  14  17
HETATM   17  C3  UNL     1      17.546  -0.439  10.305  1.00  0.00     0.299 C 
BRANCH  17  18
HETATM   18  C2  UNL     1      17.658  -1.282  11.509  1.00  0.00    -0.007 C 
HETATM   19  C1  UNL     1      18.268  -2.470  11.503  1.00  0.00     0.008 C 
ENDBRANCH  17  18
ENDBRANCH  14  17
ENDBRANCH   8   9
ENDBRANCH   1   8
BRANCH   7  20
HETATM   20  C11 UNL     1      17.031   5.463  14.721  1.00  0.00     0.256 C 
HETATM   21  O2  UNL     1      15.997   5.806  15.323  1.00  0.00    -0.271 OA
HETATM   22  N5  UNL     1      17.626   4.224  14.923  1.00  0.00    -0.338 N 
ATOM     23  H5  UNL     1      18.456   4.048  14.356  1.00  0.00     0.167 HD
BRANCH  22  24
HETATM   24  C12 UNL     1      17.266   3.183  15.780  1.00  0.00     0.070 C 
BRANCH  24  25
HETATM   25  C13 UNL     1      16.216   2.205  15.464  1.00  0.00     0.048 C 
HETATM   26  C14 UNL     1      14.987   2.627  16.340  1.00  0.00     0.014 C 
HETATM   27  C15 UNL     1      14.267   1.392  16.794  1.00  0.00     0.027 C 
HETATM   28  C16 UNL     1      15.091   0.377  17.496  1.00  0.00     0.167 C 
HETATM   29  O3  UNL     1      16.399   0.412  17.042  1.00  0.00    -0.390 OA
HETATM   30  C17 UNL     1      16.412   0.751  15.682  1.00  0.00     0.177 C 
ENDBRANCH  24  25
ENDBRANCH  22  24
ENDBRANCH   7  20
TORSDOF 7
ENDMDL
MODEL 4
REMARK VINA RESULT: -7.646197215      2.149      5.374
REMARK  7 active torsions:
REMARK  status: ('A' for Active; 'I' for Inactive)
REMARK    1  A    between atoms: C2_2  and  C3_3 
REMARK    2  A    between atoms: C3_3  and  N1_4 
REMARK       I    between atoms: N2_7  and  C6_8 
REMARK    3  A    between atoms: C6_8  and  C7_10 
REMARK    4  A    between atoms: C7_10  and  N3_11 
REMARK    5  A    between atoms: C10_17  and  C11_18 
REMARK       I    between atoms: C11_18  and  N5_20 
REMARK    6  A    between atoms: N5_20  and  C12_22 
REMARK    7  A    between atoms: C12_22  and  C13_23 
ROOT
HETATM    1  N3  UNL     1      19.168   4.854  12.242  1.00  0.00     0.138 N 
HETATM    2  C8  UNL     1      20.588   4.992  12.235  1.00  0.00     0.504 C 
HETATM    3  N4  UNL     1      20.900   6.277  12.825  1.00  0.00    -0.046 N 
ATOM      4  H41 UNL     1      21.078   7.016  12.147  1.00  0.00     0.279 HD
ATOM      5  H42 UNL     1      21.812   6.318  13.279  1.00  0.00     0.279 HD
HETATM    6  C9  UNL     1      19.804   6.537  13.696  1.00  0.00     0.280 C 
HETATM    7  C10 UNL     1      18.607   5.832  13.105  1.00  0.00     0.342 C 
ENDROOT
BRANCH   1   8
HETATM    8  C7  UNL     1      18.552   4.672  10.984  1.00  0.00     0.378 C 
BRANCH   8   9
HETATM    9  C6  UNL     1      17.331   3.857  10.981  1.00  0.00     0.248 C 
HETATM   10  N2  UNL     1      17.325   2.450  10.786  1.00  0.00    -0.347 N 
HETATM   11  C5  UNL     1      18.537   1.678  10.564  1.00  0.00     0.156 C 
HETATM   12  C18 UNL     1      16.087   1.697  10.797  1.00  0.00     0.156 C 
HETATM   13  C4  UNL     1      18.702   0.567  11.577  1.00  0.00     0.292 C 
HETATM   14  N1  UNL     1      17.412   0.029  11.879  1.00  0.00     0.095 N 
HETATM   15  C19 UNL     1      16.459   0.214  10.823  1.00  0.00     0.292 C 
HETATM   16  O1  UNL     1      16.225   4.426  11.161  1.00  0.00    -0.271 OA
BRANCH  14  17
HETATM   17  C3  UNL     1      17.439  -1.362  12.265  1.00  0.00     0.299 C 
BRANCH  17  18
HETATM   18  C2  UNL     1      18.399  -2.169  11.491  1.00  0.00    -0.007 C 
HETATM   19  C1  UNL     1      18.355  -3.502  11.453  1.00  0.00     0.008 C 
ENDBRANCH  17  18
ENDBRANCH  14  17
ENDBRANCH   8   9
ENDBRANCH   1   8
BRANCH   7  20
HETATM   20  C11 UNL     1      17.840   5.199  14.268  1.00  0.00     0.256 C 
HETATM   21  O2  UNL     1      17.102   5.955  14.926  1.00  0.00    -0.271 OA
HETATM   22  N5  UNL     1      17.968   3.849  14.565  1.00  0.00    -0.338 N 
ATOM     23  H5  UNL     1      18.583   3.327  13.941  1.00  0.00     0.167 HD
BRANCH  22  24
HETATM   24  C12 UNL     1      17.385   3.095  15.585  1.00  0.00     0.070 C 
BRANCH  24  25
HETATM   25  C13 UNL     1      16.301   2.130  15.357  1.00  0.00     0.048 C 
HETATM   26  C14 UNL     1      15.096   2.661  16.206  1.00  0.00     0.014 C 
HETATM   27  C15 UNL     1      14.340   1.492  16.763  1.00  0.00     0.027 C 
HETATM   28  C16 UNL     1      15.138   0.509  17.538  1.00  0.00     0.167 C 
HETATM   29  O3  UNL     1      16.441   0.464  17.072  1.00  0.00    -0.390 OA
HETATM   30  C17 UNL     1      16.451   0.692  15.689  1.00  0.00     0.177 C 
ENDBRANCH  24  25
ENDBRANCH  22  24
ENDBRANCH   7  20
TORSDOF 7
ENDMDL
MODEL 5
REMARK VINA RESULT: -7.574245115      2.136      2.674
REMARK  7 active torsions:
REMARK  status: ('A' for Active; 'I' for Inactive)
REMARK    1  A    between atoms: C2_2  and  C3_3 
REMARK    2  A    between atoms: C3_3  and  N1_4 
REMARK       I    between atoms: N2_7  and  C6_8 
REMARK    3  A    between atoms: C6_8  and  C7_10 
REMARK    4  A    between atoms: C7_10  and  N3_11 
REMARK    5  A    between atoms: C10_17  and  C11_18 
REMARK       I    between atoms: C11_18  and  N5_20 
REMARK    6  A    between atoms: N5_20  and  C12_22 
REMARK    7  A    between atoms: C12_22  and  C13_23 
ROOT
HETATM    1  N3  UNL     1      17.046   2.268  11.901  1.00  0.00     0.138 N 
HETATM    2  C8  UNL     1      16.343   1.211  11.250  1.00  0.00     0.504 C 
HETATM    3  N4  UNL     1      16.640  -0.011  11.968  1.00  0.00    -0.046 N 
ATOM      4  H41 UNL     1      17.374  -0.578  11.544  1.00  0.00     0.279 HD
ATOM      5  H42 UNL     1      15.906  -0.717  11.912  1.00  0.00     0.279 HD
HETATM    6  C9  UNL     1      16.931   0.423  13.292  1.00  0.00     0.280 C 
HETATM    7  C10 UNL     1      17.487   1.821  13.174  1.00  0.00     0.342 C 
ENDROOT
BRANCH   1   8
HETATM    8  C7  UNL     1      17.971   2.984  11.110  1.00  0.00     0.378 C 
BRANCH   8   9
HETATM    9  C6  UNL     1      19.095   3.593  11.831  1.00  0.00     0.248 C 
HETATM   10  N2  UNL     1      19.092   4.932  12.305  1.00  0.00    -0.347 N 
HETATM   11  C5  UNL     1      17.969   5.836  12.113  1.00  0.00     0.156 C 
HETATM   12  C18 UNL     1      20.231   5.479  13.015  1.00  0.00     0.156 C 
HETATM   13  C4  UNL     1      17.452   6.392  13.421  1.00  0.00     0.292 C 
HETATM   14  N1  UNL     1      18.562   6.612  14.295  1.00  0.00     0.095 N 
HETATM   15  C19 UNL     1      19.798   6.824  13.599  1.00  0.00     0.292 C 
HETATM   16  O1  UNL     1      20.120   2.900  12.048  1.00  0.00    -0.271 OA
BRANCH  14  17
HETATM   17  C3  UNL     1      18.352   7.682  15.240  1.00  0.00     0.299 C 
BRANCH  17  18
HETATM   18  C2  UNL     1      19.496   8.604  15.350  1.00  0.00    -0.007 C 
HETATM   19  C1  UNL     1      19.443   9.872  14.935  1.00  0.00     0.008 C 
ENDBRANCH  17  18
ENDBRANCH  14  17
ENDBRANCH   8   9
ENDBRANCH   1   8
BRANCH   7  20
HETATM   20  C11 UNL     1      16.880   2.643  14.313  1.00  0.00     0.256 C 
HETATM   21  O2  UNL     1      17.680   3.225  15.068  1.00  0.00    -0.271 OA
HETATM   22  N5  UNL     1      15.505   2.727  14.487  1.00  0.00    -0.338 N 
ATOM     23  H5  UNL     1      14.951   2.226  13.792  1.00  0.00     0.167 HD
BRANCH  22  24
HETATM   24  C12 UNL     1      14.762   3.392  15.465  1.00  0.00     0.070 C 
BRANCH  24  25
HETATM   25  C13 UNL     1      14.182   2.718  16.635  1.00  0.00     0.048 C 
HETATM   26  C14 UNL     1      15.316   2.726  17.716  1.00  0.00     0.014 C 
HETATM   27  C15 UNL     1      15.246   1.451  18.503  1.00  0.00     0.027 C 
HETATM   28  C16 UNL     1      15.277   0.195  17.715  1.00  0.00     0.167 C 
HETATM   29  O3  UNL     1      14.711   0.389  16.466  1.00  0.00    -0.390 OA
HETATM   30  C17 UNL     1      13.674   1.326  16.563  1.00  0.00     0.177 C 
ENDBRANCH  24  25
ENDBRANCH  22  24
ENDBRANCH   7  20
TORSDOF 7
ENDMDL
