MODEL 1
REMARK VINA RESULT: -7.532426333      0.000      0.000
REMARK  4 active torsions:
REMARK  status: ('A' for Active; 'I' for Inactive)
REMARK    1  A    between atoms: O1_1  and  C1_3 
REMARK    2  A    between atoms: C1_3  and  C2_4 
REMARK    3  A    between atoms: C4_6  and  N1_7 
REMARK    4  A    between atoms: N3_20  and  C13_21 
ROOT
HETATM    1  C2  UNL     1      17.599   2.851  12.262  1.00  0.00     0.017 C 
HETATM    2  C3  UNL     1      16.935   2.065  13.313  1.00  0.00     0.050 C 
HETATM    3  C4  UNL     1      16.288   2.764  14.438  1.00  0.00     0.234 C 
HETATM    4  C8  UNL     1      16.799   4.116  14.778  1.00  0.00     0.076 C 
HETATM    5  C9  UNL     1      16.044   5.267  14.140  1.00  0.00     0.241 C 
HETATM    6  N2  UNL     1      17.331   5.982  14.156  1.00  0.00    -0.070 N 
ATOM      7  H21 UNL     1      17.596   6.609  14.917  1.00  0.00     0.277 HD
ATOM      8  H22 UNL     1      17.535   6.749  13.516  1.00  0.00     0.277 HD
HETATM    9  C10 UNL     1      17.933   4.640  13.995  1.00  0.00     0.200 C 
HETATM   10  C11 UNL     1      17.992   4.237  12.559  1.00  0.00     0.057 C 
HETATM   11  C12 UNL     1      19.440   4.382  12.099  1.00  0.00     0.280 C 
HETATM   12  N3  UNL     1      19.933   3.088  11.811  1.00  0.00     0.094 N 
HETATM   13  C18 UNL     1      18.897   2.137  11.852  1.00  0.00     0.285 C 
ENDROOT
BRANCH  12  14
HETATM   14  C13 UNL     1      20.766   3.083  10.658  1.00  0.00     0.227 C 
HETATM   15  C14 UNL     1      19.993   3.725   9.510  1.00  0.00     0.062 C 
HETATM   16  C15 UNL     1      20.988   3.790   8.350  1.00  0.00     0.169 C 
HETATM   17  O3  UNL     1      22.009   4.685   8.616  1.00  0.00    -0.391 OA
HETATM   18  C16 UNL     1      22.111   5.057   9.938  1.00  0.00     0.169 C 
HETATM   19  C17 UNL     1      22.051   3.879  10.871  1.00  0.00     0.062 C 
ENDBRANCH  12  14
BRANCH   1  20
HETATM   20  C1  UNL     1      16.765   2.876  10.970  1.00  0.00     0.176 C 
BRANCH  20  21
HETATM   21  O1  UNL     1      15.713   1.967  11.057  1.00  0.00    -0.400 OA
ATOM     22  H1  UNL     1      15.848   1.250  10.449  1.00  0.00     0.209 HD
ENDBRANCH  20  21
ENDBRANCH   1  20
BRANCH   3  23
HETATM   23  N1  UNL     1      16.463   1.952  15.637  1.00  0.00     0.118 N 
HETATM   24  C5  UNL     1      15.404   2.051  16.579  1.00  0.00     0.301 C 
HETATM   25  C6  UNL     1      15.374   0.654  17.159  1.00  0.00     0.200 C 
HETATM   26  O2  UNL     1      16.408  -0.062  16.599  1.00  0.00    -0.361 OA
HETATM   27  C7  UNL     1      16.792   0.597  15.415  1.00  0.00     0.441 C 
ENDBRANCH   3  23
TORSDOF 4
ENDMDL
MODEL 2
REMARK VINA RESULT: -7.230282274      0.868      1.017
REMARK  4 active torsions:
REMARK  status: ('A' for Active; 'I' for Inactive)
REMARK    1  A    between atoms: O1_1  and  C1_3 
REMARK    2  A    between atoms: C1_3  and  C2_4 
REMARK    3  A    between atoms: C4_6  and  N1_7 
REMARK    4  A    between atoms: N3_20  and  C13_21 
ROOT
HETATM    1  C2  UNL     1      17.272   3.235  12.496  1.00  0.00     0.017 C 
HETATM    2  C3  UNL     1      16.714   2.304  13.491  1.00  0.00     0.050 C 
HETATM    3  C4  UNL     1      15.960   2.841  14.638  1.00  0.00     0.234 C 
HETATM    4  C8  UNL     1      16.266   4.231  15.059  1.00  0.00     0.076 C 
HETATM    5  C9  UNL     1      15.361   5.295  14.467  1.00  0.00     0.241 C 
HETATM    6  N2  UNL     1      16.532   6.186  14.547  1.00  0.00    -0.070 N 
ATOM      7  H21 UNL     1      16.693   6.801  15.345  1.00  0.00     0.277 HD
ATOM      8  H22 UNL     1      16.631   7.008  13.953  1.00  0.00     0.277 HD
HETATM    9  C10 UNL     1      17.323   4.954  14.328  1.00  0.00     0.200 C 
HETATM   10  C11 UNL     1      17.457   4.644  12.874  1.00  0.00     0.057 C 
HETATM   11  C12 UNL     1      18.875   5.020  12.453  1.00  0.00     0.280 C 
HETATM   12  N3  UNL     1      19.553   3.828  12.107  1.00  0.00     0.094 N 
HETATM   13  C18 UNL     1      18.664   2.737  12.077  1.00  0.00     0.285 C 
ENDROOT
BRANCH  12  14
HETATM   14  C13 UNL     1      20.392   4.005  10.973  1.00  0.00     0.227 C 
HETATM   15  C14 UNL     1      20.105   2.878   9.986  1.00  0.00     0.062 C 
HETATM   16  C15 UNL     1      20.951   3.203   8.754  1.00  0.00     0.169 C 
HETATM   17  O3  UNL     1      20.490   4.340   8.117  1.00  0.00    -0.391 OA
HETATM   18  C16 UNL     1      19.628   5.106   8.869  1.00  0.00     0.169 C 
HETATM   19  C17 UNL     1      20.134   5.333  10.266  1.00  0.00     0.062 C 
ENDBRANCH  12  14
BRANCH   1  20
HETATM   20  C1  UNL     1      16.460   3.211  11.191  1.00  0.00     0.176 C 
BRANCH  20  21
HETATM   21  O1  UNL     1      15.674   2.062  11.132  1.00  0.00    -0.400 OA
ATOM     22  H1  UNL     1      14.762   2.280  11.282  1.00  0.00     0.209 HD
ENDBRANCH  20  21
ENDBRANCH   1  20
BRANCH   3  23
HETATM   23  N1  UNL     1      16.234   1.998  15.796  1.00  0.00     0.118 N 
HETATM   24  C5  UNL     1      15.197   1.970  16.767  1.00  0.00     0.301 C 
HETATM   25  C6  UNL     1      15.298   0.552  17.287  1.00  0.00     0.200 C 
HETATM   26  O2  UNL     1      16.371  -0.053  16.671  1.00  0.00    -0.361 OA
HETATM   27  C7  UNL     1      16.666   0.685  15.507  1.00  0.00     0.441 C 
ENDBRANCH   3  23
TORSDOF 4
ENDMDL
MODEL 3
REMARK VINA RESULT: -7.216622194      1.795      6.923
REMARK  4 active torsions:
REMARK  status: ('A' for Active; 'I' for Inactive)
REMARK    1  A    between atoms: O1_1  and  C1_3 
REMARK    2  A    between atoms: C1_3  and  C2_4 
REMARK    3  A    between atoms: C4_6  and  N1_7 
REMARK    4  A    between atoms: N3_20  and  C13_21 
ROOT
HETATM    1  C2  UNL     1      17.301   2.470  12.446  1.00  0.00     0.017 C 
HETATM    2  C3  UNL     1      18.337   2.973  11.530  1.00  0.00     0.050 C 
HETATM    3  C4  UNL     1      18.967   2.044  10.574  1.00  0.00     0.234 C 
HETATM    4  C8  UNL     1      18.975   0.604  10.934  1.00  0.00     0.076 C 
HETATM    5  C9  UNL     1      17.826  -0.207  10.363  1.00  0.00     0.241 C 
HETATM    6  N2  UNL     1      17.947  -1.035  11.575  1.00  0.00    -0.070 N 
ATOM      7  H21 UNL     1      18.506  -1.888  11.597  1.00  0.00     0.277 HD
ATOM      8  H22 UNL     1      17.170  -1.591  11.933  1.00  0.00     0.277 HD
HETATM    9  C10 UNL     1      18.389   0.216  12.230  1.00  0.00     0.200 C 
HETATM   10  C11 UNL     1      17.228   1.024  12.704  1.00  0.00     0.057 C 
HETATM   11  C12 UNL     1      17.141   0.861  14.219  1.00  0.00     0.280 C 
HETATM   12  N3  UNL     1      17.424   2.118  14.805  1.00  0.00     0.094 N 
HETATM   13  C18 UNL     1      17.497   3.123  13.823  1.00  0.00     0.285 C 
ENDROOT
BRANCH  12  14
HETATM   14  C13 UNL     1      16.594   2.376  15.930  1.00  0.00     0.227 C 
HETATM   15  C14 UNL     1      15.245   2.877  15.422  1.00  0.00     0.062 C 
HETATM   16  C15 UNL     1      14.377   3.018  16.674  1.00  0.00     0.169 C 
HETATM   17  O3  UNL     1      14.095   1.782  17.228  1.00  0.00    -0.391 OA
HETATM   18  C16 UNL     1      14.893   0.757  16.773  1.00  0.00     0.169 C 
HETATM   19  C17 UNL     1      16.351   1.124  16.769  1.00  0.00     0.062 C 
ENDBRANCH  12  14
BRANCH   1  20
HETATM   20  C1  UNL     1      15.899   2.932  12.012  1.00  0.00     0.176 C 
BRANCH  20  21
HETATM   21  O1  UNL     1      15.377   2.061  11.059  1.00  0.00    -0.400 OA
ATOM     22  H1  UNL     1      15.892   2.099  10.262  1.00  0.00     0.209 HD
ENDBRANCH  20  21
ENDBRANCH   1  20
BRANCH   3  23
HETATM   23  N1  UNL     1      20.365   2.430  10.421  1.00  0.00     0.118 N 
HETATM   24  C5  UNL     1      20.654   3.152   9.232  1.00  0.00     0.301 C 
HETATM   25  C6  UNL     1      21.752   4.084   9.694  1.00  0.00     0.200 C 
HETATM   26  O2  UNL     1      22.044   3.782  11.005  1.00  0.00    -0.361 OA
HETATM   27  C7  UNL     1      20.946   3.074  11.535  1.00  0.00     0.441 C 
ENDBRANCH   3  23
TORSDOF 4
ENDMDL
MODEL 4
REMARK VINA RESULT: -6.926113128      2.334      6.522
REMARK  4 active torsions:
REMARK  status: ('A' for Active; 'I' for Inactive)
REMARK    1  A    between atoms: O1_1  and  C1_3 
REMARK    2  A    between atoms: C1_3  and  C2_4 
REMARK    3  A    between atoms: C4_6  and  N1_7 
REMARK    4  A    between atoms: N3_20  and  C13_21 
ROOT
HETATM    1  C2  UNL     1      17.243   3.414  12.912  1.00  0.00     0.017 C 
HETATM    2  C3  UNL     1      16.783   4.267  11.805  1.00  0.00     0.050 C 
HETATM    3  C4  UNL     1      17.722   5.223  11.191  1.00  0.00     0.234 C 
HETATM    4  C8  UNL     1      18.851   5.696  12.031  1.00  0.00     0.076 C 
HETATM    5  C9  UNL     1      20.144   4.920  11.865  1.00  0.00     0.241 C 
HETATM    6  N2  UNL     1      20.400   5.249  13.278  1.00  0.00    -0.070 N 
ATOM      7  H21 UNL     1      20.951   6.061  13.557  1.00  0.00     0.277 HD
ATOM      8  H22 UNL     1      21.017   4.687  13.864  1.00  0.00     0.277 HD
HETATM    9  C10 UNL     1      18.927   5.208  13.420  1.00  0.00     0.200 C 
HETATM   10  C11 UNL     1      18.440   3.819  13.664  1.00  0.00     0.057 C 
HETATM   11  C12 UNL     1      18.076   3.712  15.143  1.00  0.00     0.280 C 
HETATM   12  N3  UNL     1      16.677   3.523  15.230  1.00  0.00     0.094 N 
HETATM   13  C18 UNL     1      16.121   3.305  13.956  1.00  0.00     0.285 C 
ENDROOT
BRANCH  12  14
HETATM   14  C13 UNL     1      16.329   2.597  16.251  1.00  0.00     0.227 C 
HETATM   15  C14 UNL     1      14.913   2.099  15.980  1.00  0.00     0.062 C 
HETATM   16  C15 UNL     1      14.659   1.027  17.042  1.00  0.00     0.169 C 
HETATM   17  O3  UNL     1      15.456  -0.083  16.832  1.00  0.00    -0.391 OA
HETATM   18  C16 UNL     1      16.507   0.124  15.967  1.00  0.00     0.169 C 
HETATM   19  C17 UNL     1      17.261   1.388  16.274  1.00  0.00     0.062 C 
ENDBRANCH  12  14
BRANCH   1  20
HETATM   20  C1  UNL     1      17.460   1.964  12.448  1.00  0.00     0.176 C 
BRANCH  20  21
HETATM   21  O1  UNL     1      18.818   1.713  12.267  1.00  0.00    -0.400 OA
ATOM     22  H1  UNL     1      19.094   0.988  12.816  1.00  0.00     0.209 HD
ENDBRANCH  20  21
ENDBRANCH   1  20
BRANCH   3  23
HETATM   23  N1  UNL     1      16.973   6.415  10.811  1.00  0.00     0.118 N 
HETATM   24  C5  UNL     1      16.277   6.309   9.577  1.00  0.00     0.301 C 
HETATM   25  C6  UNL     1      15.049   7.152   9.841  1.00  0.00     0.200 C 
HETATM   26  O2  UNL     1      15.172   7.706  11.096  1.00  0.00    -0.361 OA
HETATM   27  C7  UNL     1      16.122   6.944  11.806  1.00  0.00     0.441 C 
ENDBRANCH   3  23
TORSDOF 4
ENDMDL
MODEL 5
REMARK VINA RESULT: -6.860003358      2.891      4.097
REMARK  4 active torsions:
REMARK  status: ('A' for Active; 'I' for Inactive)
REMARK    1  A    between atoms: O1_1  and  C1_3 
REMARK    2  A    between atoms: C1_3  and  C2_4 
REMARK    3  A    between atoms: C4_6  and  N1_7 
REMARK    4  A    between atoms: N3_20  and  C13_21 
ROOT
HETATM    1  C2  UNL     1      17.951   4.240  14.291  1.00  0.00     0.017 C 
HETATM    2  C3  UNL     1      17.622   3.466  15.499  1.00  0.00     0.050 C 
HETATM    3  C4  UNL     1      17.242   2.048  15.368  1.00  0.00     0.234 C 
HETATM    4  C8  UNL     1      16.660   1.621  14.070  1.00  0.00     0.076 C 
HETATM    5  C9  UNL     1      17.653   1.042  13.081  1.00  0.00     0.241 C 
HETATM    6  N2  UNL     1      16.774   1.595  12.036  1.00  0.00    -0.070 N 
ATOM      7  H21 UNL     1      16.043   1.040  11.591  1.00  0.00     0.277 HD
ATOM      8  H22 UNL     1      17.114   1.814  11.099  1.00  0.00     0.277 HD
HETATM    9  C10 UNL     1      16.470   2.648  13.030  1.00  0.00     0.200 C 
HETATM   10  C11 UNL     1      17.480   3.746  12.988  1.00  0.00     0.057 C 
HETATM   11  C12 UNL     1      16.835   4.938  12.284  1.00  0.00     0.280 C 
HETATM   12  N3  UNL     1      16.699   5.978  13.233  1.00  0.00     0.094 N 
HETATM   13  C18 UNL     1      17.362   5.653  14.431  1.00  0.00     0.285 C 
ENDROOT
BRANCH  12  14
HETATM   14  C13 UNL     1      16.979   7.251  12.667  1.00  0.00     0.227 C 
HETATM   15  C14 UNL     1      18.345   7.182  11.990  1.00  0.00     0.062 C 
HETATM   16  C15 UNL     1      18.520   8.540  11.309  1.00  0.00     0.169 C 
HETATM   17  O3  UNL     1      17.628   8.694  10.264  1.00  0.00    -0.391 OA
HETATM   18  C16 UNL     1      16.587   7.793  10.264  1.00  0.00     0.169 C 
HETATM   19  C17 UNL     1      15.948   7.657  11.618  1.00  0.00     0.062 C 
ENDBRANCH  12  14
BRANCH   1  20
HETATM   20  C1  UNL     1      19.465   4.478  14.174  1.00  0.00     0.176 C 
BRANCH  20  21
HETATM   21  O1  UNL     1      20.002   3.682  13.165  1.00  0.00    -0.400 OA
ATOM     22  H1  UNL     1      20.782   4.088  12.805  1.00  0.00     0.209 HD
ENDBRANCH  20  21
ENDBRANCH   1  20
BRANCH   3  23
HETATM   23  N1  UNL     1      16.236   1.752  16.380  1.00  0.00     0.118 N 
HETATM   24  C5  UNL     1      15.051   2.531  16.283  1.00  0.00     0.301 C 
HETATM   25  C6  UNL     1      13.997   1.551  16.751  1.00  0.00     0.200 C 
HETATM   26  O2  UNL     1      14.633   0.391  17.134  1.00  0.00    -0.361 OA
HETATM   27  C7  UNL     1      15.909   0.387  16.537  1.00  0.00     0.441 C 
ENDBRANCH   3  23
TORSDOF 4
ENDMDL
