MODEL 1
REMARK VINA RESULT: -7.083438491      0.000      0.000
REMARK  6 active torsions:
REMARK  status: ('A' for Active; 'I' for Inactive)
REMARK    1  A    between atoms: O1_1  and  C1_3 
REMARK    2  A    between atoms: C1_3  and  C2_4 
REMARK    3  A    between atoms: C1_3  and  N1_7 
REMARK    4  A    between atoms: C2_4  and  O2_5 
REMARK       I    between atoms: N2_11  and  C6_12 
REMARK    5  A    between atoms: C6_12  and  C7_14 
REMARK    6  A    between atoms: C7_14  and  C8_15 
ROOT
HETATM    1  N1  UNL     1      15.643   3.078  15.244  1.00  0.00    -0.362 N 
HETATM    2  C3  UNL     1      15.554   4.515  15.091  1.00  0.00     0.126 C 
HETATM    3  C4  UNL     1      16.863   5.204  14.998  1.00  0.00     0.040 C 
HETATM    4  C5  UNL     1      18.030   4.269  14.771  1.00  0.00     0.127 C 
HETATM    5  N2  UNL     1      17.921   3.590  13.490  1.00  0.00    -0.349 N 
HETATM    6  C6  UNL     1      19.031   3.709  12.653  1.00  0.00     0.236 C 
HETATM    7  O3  UNL     1      20.019   4.380  13.159  1.00  0.00    -0.272 OA
HETATM    8  C15 UNL     1      16.763   2.834  13.115  1.00  0.00     0.145 C 
HETATM    9  C16 UNL     1      16.263   2.119  14.384  1.00  0.00     0.144 C 
ENDROOT
BRANCH   6  10
HETATM   10  C7  UNL     1      19.238   3.190  11.301  1.00  0.00     0.115 C 
HETATM   11  C12 UNL     1      20.673   3.221  10.825  1.00  0.00     0.055 C 
HETATM   12  C13 UNL     1      20.723   3.980   9.527  1.00  0.00     0.234 C 
HETATM   13  N3  UNL     1      19.360   4.018   9.079  1.00  0.00    -0.073 N 
HETATM   14  C14 UNL     1      18.628   4.197  10.299  1.00  0.00     0.258 C 
ATOM     15  H32 UNL     1      19.166   4.716   8.360  1.00  0.00     0.277 HD
ATOM     16  H31 UNL     1      19.071   3.214   8.522  1.00  0.00     0.277 HD
BRANCH  10  17
HETATM   17  C8  UNL     1      18.648   1.856  11.066  1.00  0.00     0.072 A 
HETATM   18  C9  UNL     1      19.164   0.663  11.528  1.00  0.00     0.036 A 
HETATM   19  C10 UNL     1      18.331  -0.353  11.100  1.00  0.00     0.027 A 
HETATM   20  C11 UNL     1      17.333   0.276  10.387  1.00  0.00     0.142 A 
HETATM   21  O4  UNL     1      17.575   1.564  10.403  1.00  0.00    -0.326 OA
ENDBRANCH  10  17
ENDBRANCH   6  10
BRANCH   1  22
HETATM   22  C1  UNL     1      15.033   2.578  16.399  1.00  0.00     0.137 C 
BRANCH  22  23
HETATM   23  O1  UNL     1      14.206   3.347  17.044  1.00  0.00    -0.348 OA
ATOM     24  H1  UNL     1      13.533   3.723  16.488  1.00  0.00     0.219 HD
ENDBRANCH  22  23
BRANCH  22  25
HETATM   25  C2  UNL     1      15.196   1.255  17.018  1.00  0.00     0.247 C 
BRANCH  25  26
HETATM   26  O2  UNL     1      14.206   0.334  16.778  1.00  0.00    -0.393 OA
ATOM     27  H2  UNL     1      14.253  -0.480  17.265  1.00  0.00     0.210 HD
ENDBRANCH  25  26
ENDBRANCH  22  25
ENDBRANCH   1  22
TORSDOF 6
ENDMDL
MODEL 2
REMARK VINA RESULT: -7.046209926      1.308      1.675
REMARK  6 active torsions:
REMARK  status: ('A' for Active; 'I' for Inactive)
REMARK    1  A    between atoms: O1_1  and  C1_3 
REMARK    2  A    between atoms: C1_3  and  C2_4 
REMARK    3  A    between atoms: C1_3  and  N1_7 
REMARK    4  A    between atoms: C2_4  and  O2_5 
REMARK       I    between atoms: N2_11  and  C6_12 
REMARK    5  A    between atoms: C6_12  and  C7_14 
REMARK    6  A    between atoms: C7_14  and  C8_15 
ROOT
HETATM    1  N1  UNL     1      15.977   2.241  15.527  1.00  0.00    -0.362 N 
HETATM    2  C3  UNL     1      15.069   3.368  15.476  1.00  0.00     0.126 C 
HETATM    3  C4  UNL     1      15.732   4.683  15.308  1.00  0.00     0.040 C 
HETATM    4  C5  UNL     1      17.190   4.585  14.915  1.00  0.00     0.127 C 
HETATM    5  N2  UNL     1      17.344   3.967  13.607  1.00  0.00    -0.349 N 
HETATM    6  C6  UNL     1      18.085   4.701  12.682  1.00  0.00     0.236 C 
HETATM    7  O3  UNL     1      18.565   5.817  13.137  1.00  0.00    -0.272 OA
HETATM    8  C15 UNL     1      16.789   2.684  13.293  1.00  0.00     0.145 C 
HETATM    9  C16 UNL     1      16.932   1.812  14.553  1.00  0.00     0.144 C 
ENDROOT
BRANCH   6  10
HETATM   10  C7  UNL     1      18.398   4.396  11.286  1.00  0.00     0.115 C 
HETATM   11  C12 UNL     1      19.387   5.337  10.639  1.00  0.00     0.055 C 
HETATM   12  C13 UNL     1      18.758   5.899   9.392  1.00  0.00     0.234 C 
HETATM   13  N3  UNL     1      17.654   5.023   9.120  1.00  0.00    -0.073 N 
HETATM   14  C14 UNL     1      17.154   4.724  10.430  1.00  0.00     0.258 C 
ATOM     15  H32 UNL     1      16.960   5.400   8.474  1.00  0.00     0.277 HD
ATOM     16  H31 UNL     1      17.887   4.205   8.556  1.00  0.00     0.277 HD
BRANCH  10  17
HETATM   17  C8  UNL     1      18.793   2.992  11.045  1.00  0.00     0.072 A 
HETATM   18  C9  UNL     1      19.953   2.401  11.501  1.00  0.00     0.036 A 
HETATM   19  C10 UNL     1      19.957   1.088  11.070  1.00  0.00     0.027 A 
HETATM   20  C11 UNL     1      18.784   0.937  10.362  1.00  0.00     0.142 A 
HETATM   21  O4  UNL     1      18.149   2.084  10.384  1.00  0.00    -0.326 OA
ENDBRANCH  10  17
ENDBRANCH   6  10
BRANCH   1  22
HETATM   22  C1  UNL     1      15.895   1.481  16.698  1.00  0.00     0.137 C 
BRANCH  22  23
HETATM   23  O1  UNL     1      16.928   0.775  17.052  1.00  0.00    -0.348 OA
ATOM     24  H1  UNL     1      17.737   1.068  16.650  1.00  0.00     0.219 HD
ENDBRANCH  22  23
BRANCH  22  25
HETATM   25  C2  UNL     1      14.762   1.359  17.628  1.00  0.00     0.247 C 
BRANCH  25  26
HETATM   26  O2  UNL     1      13.671   0.656  17.183  1.00  0.00    -0.393 OA
ATOM     27  H2  UNL     1      12.887   0.698  17.719  1.00  0.00     0.210 HD
ENDBRANCH  25  26
ENDBRANCH  22  25
ENDBRANCH   1  22
TORSDOF 6
ENDMDL
MODEL 3
REMARK VINA RESULT: -6.859530338      2.007      2.614
REMARK  6 active torsions:
REMARK  status: ('A' for Active; 'I' for Inactive)
REMARK    1  A    between atoms: O1_1  and  C1_3 
REMARK    2  A    between atoms: C1_3  and  C2_4 
REMARK    3  A    between atoms: C1_3  and  N1_7 
REMARK    4  A    between atoms: C2_4  and  O2_5 
REMARK       I    between atoms: N2_11  and  C6_12 
REMARK    5  A    between atoms: C6_12  and  C7_14 
REMARK    6  A    between atoms: C7_14  and  C8_15 
ROOT
HETATM    1  N1  UNL     1      16.369   2.194  15.130  1.00  0.00    -0.362 N 
HETATM    2  C3  UNL     1      15.204   3.053  15.184  1.00  0.00     0.126 C 
HETATM    3  C4  UNL     1      15.510   4.503  15.188  1.00  0.00     0.040 C 
HETATM    4  C5  UNL     1      16.943   4.825  14.828  1.00  0.00     0.127 C 
HETATM    5  N2  UNL     1      17.247   4.426  13.462  1.00  0.00    -0.349 N 
HETATM    6  C6  UNL     1      17.775   5.428  12.649  1.00  0.00     0.236 C 
HETATM    7  O3  UNL     1      17.956   6.566  13.244  1.00  0.00    -0.272 OA
HETATM    8  C15 UNL     1      17.036   3.091  12.986  1.00  0.00     0.145 C 
HETATM    9  C16 UNL     1      17.399   2.139  14.140  1.00  0.00     0.144 C 
ENDROOT
BRANCH   6  10
HETATM   10  C7  UNL     1      18.153   5.380  11.237  1.00  0.00     0.115 C 
HETATM   11  C12 UNL     1      18.617   6.698  10.661  1.00  0.00     0.055 C 
HETATM   12  C13 UNL     1      17.774   7.008   9.454  1.00  0.00     0.234 C 
HETATM   13  N3  UNL     1      17.154   5.758   9.117  1.00  0.00    -0.073 N 
HETATM   14  C14 UNL     1      16.868   5.188  10.400  1.00  0.00     0.258 C 
ATOM     15  H32 UNL     1      16.348   5.836   8.495  1.00  0.00     0.277 HD
ATOM     16  H31 UNL     1      17.704   5.162   8.498  1.00  0.00     0.277 HD
BRANCH  10  17
HETATM   17  C8  UNL     1      19.113   4.307  10.901  1.00  0.00     0.072 A 
HETATM   18  C9  UNL     1      20.340   4.118  11.502  1.00  0.00     0.036 A 
HETATM   19  C10 UNL     1      20.935   3.018  10.914  1.00  0.00     0.027 A 
HETATM   20  C11 UNL     1      20.031   2.582   9.969  1.00  0.00     0.142 A 
HETATM   21  O4  UNL     1      18.989   3.376  10.010  1.00  0.00    -0.326 OA
ENDBRANCH  10  17
ENDBRANCH   6  10
BRANCH   1  22
HETATM   22  C1  UNL     1      16.484   1.305  16.203  1.00  0.00     0.137 C 
BRANCH  22  23
HETATM   23  O1  UNL     1      17.642   0.759  16.433  1.00  0.00    -0.348 OA
ATOM     24  H1  UNL     1      17.846   0.049  15.836  1.00  0.00     0.219 HD
ENDBRANCH  22  23
BRANCH  22  25
HETATM   25  C2  UNL     1      15.444   0.877  17.150  1.00  0.00     0.247 C 
BRANCH  25  26
HETATM   26  O2  UNL     1      15.397  -0.460  17.454  1.00  0.00    -0.393 OA
ATOM     27  H2  UNL     1      15.512  -0.695  18.367  1.00  0.00     0.210 HD
ENDBRANCH  25  26
ENDBRANCH  22  25
ENDBRANCH   1  22
TORSDOF 6
ENDMDL
MODEL 4
REMARK VINA RESULT: -6.851204090      2.589      6.614
REMARK  6 active torsions:
REMARK  status: ('A' for Active; 'I' for Inactive)
REMARK    1  A    between atoms: O1_1  and  C1_3 
REMARK    2  A    between atoms: C1_3  and  C2_4 
REMARK    3  A    between atoms: C1_3  and  N1_7 
REMARK    4  A    between atoms: C2_4  and  O2_5 
REMARK       I    between atoms: N2_11  and  C6_12 
REMARK    5  A    between atoms: C6_12  and  C7_14 
REMARK    6  A    between atoms: C7_14  and  C8_15 
ROOT
HETATM    1  N1  UNL     1      21.507   4.472  10.435  1.00  0.00    -0.362 N 
HETATM    2  C3  UNL     1      20.717   5.493  11.092  1.00  0.00     0.126 C 
HETATM    3  C4  UNL     1      19.280   5.486  10.728  1.00  0.00     0.040 C 
HETATM    4  C5  UNL     1      18.845   4.241   9.987  1.00  0.00     0.127 C 
HETATM    5  N2  UNL     1      18.982   3.056  10.819  1.00  0.00    -0.349 N 
HETATM    6  C6  UNL     1      17.831   2.279  10.947  1.00  0.00     0.236 C 
HETATM    7  O3  UNL     1      16.811   2.708  10.271  1.00  0.00    -0.272 OA
HETATM    8  C15 UNL     1      20.217   2.698  11.451  1.00  0.00     0.145 C 
HETATM    9  C16 UNL     1      21.345   3.052  10.465  1.00  0.00     0.144 C 
ENDROOT
BRANCH   6  10
HETATM   10  C7  UNL     1      17.611   1.060  11.727  1.00  0.00     0.115 C 
HETATM   11  C12 UNL     1      18.721   0.039  11.630  1.00  0.00     0.055 C 
HETATM   12  C13 UNL     1      18.124  -1.266  11.181  1.00  0.00     0.234 C 
HETATM   13  N3  UNL     1      16.715  -1.115  11.408  1.00  0.00    -0.073 N 
HETATM   14  C14 UNL     1      16.479   0.253  11.051  1.00  0.00     0.258 C 
ATOM     15  H32 UNL     1      16.128  -1.790  10.918  1.00  0.00     0.277 HD
ATOM     16  H31 UNL     1      16.404  -1.370  12.346  1.00  0.00     0.277 HD
BRANCH  10  17
HETATM   17  C8  UNL     1      17.256   1.300  13.141  1.00  0.00     0.072 A 
HETATM   18  C9  UNL     1      17.201   2.536  13.752  1.00  0.00     0.036 A 
HETATM   19  C10 UNL     1      16.835   2.342  15.070  1.00  0.00     0.027 A 
HETATM   20  C11 UNL     1      16.682   0.978  15.204  1.00  0.00     0.142 A 
HETATM   21  O4  UNL     1      16.942   0.427  14.044  1.00  0.00    -0.326 OA
ENDBRANCH  10  17
ENDBRANCH   6  10
BRANCH   1  22
HETATM   22  C1  UNL     1      22.569   4.964   9.669  1.00  0.00     0.137 C 
BRANCH  22  23
HETATM   23  O1  UNL     1      22.314   5.857   8.759  1.00  0.00    -0.348 OA
ATOM     24  H1  UNL     1      22.977   6.536   8.706  1.00  0.00     0.219 HD
ENDBRANCH  22  23
BRANCH  22  25
HETATM   25  C2  UNL     1      23.992   4.603   9.745  1.00  0.00     0.247 C 
BRANCH  25  26
HETATM   26  O2  UNL     1      24.361   3.415   9.165  1.00  0.00    -0.393 OA
ATOM     27  H2  UNL     1      24.322   3.372   8.217  1.00  0.00     0.210 HD
ENDBRANCH  25  26
ENDBRANCH  22  25
ENDBRANCH   1  22
TORSDOF 6
ENDMDL
MODEL 5
REMARK VINA RESULT: -6.795140440      2.762      6.162
REMARK  6 active torsions:
REMARK  status: ('A' for Active; 'I' for Inactive)
REMARK    1  A    between atoms: O1_1  and  C1_3 
REMARK    2  A    between atoms: C1_3  and  C2_4 
REMARK    3  A    between atoms: C1_3  and  N1_7 
REMARK    4  A    between atoms: C2_4  and  O2_5 
REMARK       I    between atoms: N2_11  and  C6_12 
REMARK    5  A    between atoms: C6_12  and  C7_14 
REMARK    6  A    between atoms: C7_14  and  C8_15 
ROOT
HETATM    1  N1  UNL     1      18.253   0.776  11.506  1.00  0.00    -0.362 N 
HETATM    2  C3  UNL     1      19.514   1.403  11.168  1.00  0.00     0.126 C 
HETATM    3  C4  UNL     1      19.388   2.763  10.591  1.00  0.00     0.040 C 
HETATM    4  C5  UNL     1      18.009   3.365  10.745  1.00  0.00     0.127 C 
HETATM    5  N2  UNL     1      17.673   3.567  12.145  1.00  0.00    -0.349 N 
HETATM    6  C6  UNL     1      17.280   4.861  12.486  1.00  0.00     0.236 C 
HETATM    7  O3  UNL     1      17.234   5.691  11.491  1.00  0.00    -0.272 OA
HETATM    8  C15 UNL     1      17.724   2.507  13.109  1.00  0.00     0.145 C 
HETATM    9  C16 UNL     1      17.234   1.231  12.400  1.00  0.00     0.144 C 
ENDROOT
BRANCH   6  10
HETATM   10  C7  UNL     1      16.915   5.410  13.792  1.00  0.00     0.115 C 
HETATM   11  C12 UNL     1      16.613   4.375  14.851  1.00  0.00     0.055 C 
HETATM   12  C13 UNL     1      15.239   4.650  15.402  1.00  0.00     0.234 C 
HETATM   13  N3  UNL     1      14.948   5.992  14.987  1.00  0.00    -0.073 N 
HETATM   14  C14 UNL     1      15.513   6.050  13.671  1.00  0.00     0.258 C 
ATOM     15  H32 UNL     1      13.962   6.250  15.039  1.00  0.00     0.277 HD
ATOM     16  H31 UNL     1      15.277   6.717  15.624  1.00  0.00     0.277 HD
BRANCH  10  17
HETATM   17  C8  UNL     1      17.862   6.417  14.314  1.00  0.00     0.072 A 
HETATM   18  C9  UNL     1      19.224   6.421  14.093  1.00  0.00     0.036 A 
HETATM   19  C10 UNL     1      19.756   7.517  14.745  1.00  0.00     0.027 A 
HETATM   20  C11 UNL     1      18.680   8.138  15.342  1.00  0.00     0.142 A 
HETATM   21  O4  UNL     1      17.604   7.447  15.054  1.00  0.00    -0.326 OA
ENDBRANCH  10  17
ENDBRANCH   6  10
BRANCH   1  22
HETATM   22  C1  UNL     1      18.017  -0.440  10.857  1.00  0.00     0.137 C 
BRANCH  22  23
HETATM   23  O1  UNL     1      17.901  -0.438   9.562  1.00  0.00    -0.348 OA
ATOM     24  H1  UNL     1      18.311   0.313   9.150  1.00  0.00     0.219 HD
ENDBRANCH  22  23
BRANCH  22  25
HETATM   25  C2  UNL     1      17.877  -1.778  11.450  1.00  0.00     0.247 C 
BRANCH  25  26
HETATM   26  O2  UNL     1      18.969  -2.606  11.373  1.00  0.00    -0.393 OA
ATOM     27  H2  UNL     1      18.912  -3.333  10.764  1.00  0.00     0.210 HD
ENDBRANCH  25  26
ENDBRANCH  22  25
ENDBRANCH   1  22
TORSDOF 6
ENDMDL
