MODEL 1
REMARK VINA RESULT: -7.015745730      0.000      0.000
REMARK  3 active torsions:
REMARK  status: ('A' for Active; 'I' for Inactive)
REMARK       I    between atoms: N2_3  and  C2_5 
REMARK    1  A    between atoms: C2_5  and  C3_7 
REMARK    2  A    between atoms: C5_9  and  N3_10 
REMARK       I    between atoms: N3_10  and  C6_12 
REMARK       I    between atoms: C6_12  and  N4_14 
REMARK    3  A    between atoms: C9_17  and  N5_18 
ROOT
HETATM    1  N1  UNL     1      16.472   0.162  16.571  1.00  0.00    -0.172 NA
HETATM    2  C1  UNL     1      16.812   0.593  15.529  1.00  0.00     0.184 C 
HETATM    3  N2  UNL     1      17.200   1.115  14.293  1.00  0.00    -0.263 N 
ATOM      4  H2  UNL     1      17.479   2.095  14.236  1.00  0.00     0.181 HD
HETATM    5  C2  UNL     1      17.220   0.320  13.105  1.00  0.00     0.236 C 
HETATM    6  O1  UNL     1      16.869  -0.882  13.213  1.00  0.00    -0.272 OA
ENDROOT
BRANCH   5   7
HETATM    7  C3  UNL     1      17.623   0.842  11.796  1.00  0.00     0.103 A 
HETATM    8  C4  UNL     1      17.801  -0.141  10.699  1.00  0.00     0.042 A 
HETATM    9  C5  UNL     1      19.004   0.650  11.284  1.00  0.00     0.100 A 
BRANCH   9  10
HETATM   10  N3  UNL     1      19.589   1.607  10.379  1.00  0.00    -0.338 N 
HETATM   11  C6  UNL     1      20.320   2.699  10.868  1.00  0.00     0.318 C 
HETATM   12  O2  UNL     1      20.442   2.804  12.138  1.00  0.00    -0.247 OA
HETATM   13  N4  UNL     1      20.896   3.640   9.990  1.00  0.00    -0.334 N 
HETATM   14  C7  UNL     1      21.671   4.776  10.457  1.00  0.00     0.129 C 
HETATM   15  C15 UNL     1      20.726   3.496   8.565  1.00  0.00     0.129 C 
HETATM   16  C8  UNL     1      20.950   6.045  10.080  1.00  0.00     0.056 C 
HETATM   17  C9  UNL     1      20.173   5.865   8.780  1.00  0.00     0.226 C 
HETATM   18  C14 UNL     1      20.954   4.869   7.947  1.00  0.00     0.056 C 
ATOM     19  H3  UNL     1      19.471   1.488   9.373  1.00  0.00     0.164 HD
BRANCH  17  20
HETATM   20  N5  UNL     1      18.870   5.288   9.047  1.00  0.00     0.097 N 
HETATM   21  C10 UNL     1      18.245   5.954  10.194  1.00  0.00     0.299 C 
HETATM   22  C11 UNL     1      16.766   5.663  10.103  1.00  0.00     0.198 C 
HETATM   23  O3  UNL     1      16.240   6.534   9.141  1.00  0.00    -0.388 OA
HETATM   24  C12 UNL     1      17.165   6.779   8.142  1.00  0.00     0.198 C 
HETATM   25  C13 UNL     1      17.995   5.550   7.922  1.00  0.00     0.299 C 
ENDBRANCH  17  20
ENDBRANCH   9  10
ENDBRANCH   5   7
TORSDOF 3
ENDMDL
MODEL 2
REMARK VINA RESULT: -6.496284500      3.549      4.294
REMARK  3 active torsions:
REMARK  status: ('A' for Active; 'I' for Inactive)
REMARK       I    between atoms: N2_3  and  C2_5 
REMARK    1  A    between atoms: C2_5  and  C3_7 
REMARK    2  A    between atoms: C5_9  and  N3_10 
REMARK       I    between atoms: N3_10  and  C6_12 
REMARK       I    between atoms: C6_12  and  N4_14 
REMARK    3  A    between atoms: C9_17  and  N5_18 
ROOT
HETATM    1  N1  UNL     1      15.367  -0.412  17.531  1.00  0.00    -0.172 NA
HETATM    2  C1  UNL     1      15.526   0.571  16.903  1.00  0.00     0.184 C 
HETATM    3  N2  UNL     1      15.710   1.729  16.144  1.00  0.00    -0.263 N 
ATOM      4  H2  UNL     1      14.892   2.205  15.763  1.00  0.00     0.181 HD
HETATM    5  C2  UNL     1      17.007   2.269  15.884  1.00  0.00     0.236 C 
HETATM    6  O1  UNL     1      17.992   1.656  16.368  1.00  0.00    -0.272 OA
ENDROOT
BRANCH   5   7
HETATM    7  C3  UNL     1      17.228   3.482  15.091  1.00  0.00     0.103 A 
HETATM    8  C4  UNL     1      16.033   4.288  14.736  1.00  0.00     0.042 A 
HETATM    9  C5  UNL     1      16.859   3.539  13.653  1.00  0.00     0.100 A 
BRANCH   9  10
HETATM   10  N3  UNL     1      17.577   4.398  12.746  1.00  0.00    -0.338 N 
HETATM   11  C6  UNL     1      18.978   4.427  12.747  1.00  0.00     0.318 C 
HETATM   12  O2  UNL     1      19.582   3.664  13.578  1.00  0.00    -0.247 OA
HETATM   13  N4  UNL     1      19.689   5.264  11.863  1.00  0.00    -0.334 N 
HETATM   14  C7  UNL     1      21.140   5.312  11.823  1.00  0.00     0.129 C 
HETATM   15  C15 UNL     1      18.974   6.121  10.948  1.00  0.00     0.129 C 
HETATM   16  C8  UNL     1      21.593   6.689  12.237  1.00  0.00     0.056 C 
HETATM   17  C9  UNL     1      20.573   7.745  11.824  1.00  0.00     0.226 C 
HETATM   18  C14 UNL     1      19.925   7.242  10.551  1.00  0.00     0.056 C 
ATOM     19  H3  UNL     1      17.059   4.991  12.097  1.00  0.00     0.164 HD
BRANCH  17  20
HETATM   20  N5  UNL     1      19.534   7.863  12.829  1.00  0.00     0.097 N 
HETATM   21  C10 UNL     1      20.119   7.813  14.172  1.00  0.00     0.299 C 
HETATM   22  C11 UNL     1      19.098   8.416  15.106  1.00  0.00     0.198 C 
HETATM   23  O3  UNL     1      19.195   9.806  14.972  1.00  0.00    -0.388 OA
HETATM   24  C12 UNL     1      19.533  10.151  13.675  1.00  0.00     0.198 C 
HETATM   25  C13 UNL     1      18.917   9.169  12.723  1.00  0.00     0.299 C 
ENDBRANCH  17  20
ENDBRANCH   9  10
ENDBRANCH   5   7
TORSDOF 3
ENDMDL
MODEL 3
REMARK VINA RESULT: -6.459693366      1.498      1.756
REMARK  3 active torsions:
REMARK  status: ('A' for Active; 'I' for Inactive)
REMARK       I    between atoms: N2_3  and  C2_5 
REMARK    1  A    between atoms: C2_5  and  C3_7 
REMARK    2  A    between atoms: C5_9  and  N3_10 
REMARK       I    between atoms: N3_10  and  C6_12 
REMARK       I    between atoms: C6_12  and  N4_14 
REMARK    3  A    between atoms: C9_17  and  N5_18 
ROOT
HETATM    1  N1  UNL     1      16.324   0.506  17.501  1.00  0.00    -0.172 NA
HETATM    2  C1  UNL     1      16.507   1.018  16.456  1.00  0.00     0.184 C 
HETATM    3  N2  UNL     1      16.708   1.630  15.217  1.00  0.00    -0.263 N 
ATOM      4  H2  UNL     1      16.772   2.648  15.174  1.00  0.00     0.181 HD
HETATM    5  C2  UNL     1      16.826   0.878  14.008  1.00  0.00     0.236 C 
HETATM    6  O1  UNL     1      16.741  -0.372  14.099  1.00  0.00    -0.272 OA
ENDROOT
BRANCH   5   7
HETATM    7  C3  UNL     1      17.037   1.496  12.695  1.00  0.00     0.103 A 
HETATM    8  C4  UNL     1      16.838   0.637  11.501  1.00  0.00     0.042 A 
HETATM    9  C5  UNL     1      18.242   1.185  11.883  1.00  0.00     0.100 A 
BRANCH   9  10
HETATM   10  N3  UNL     1      18.777   2.156  10.964  1.00  0.00    -0.338 N 
HETATM   11  C6  UNL     1      20.033   2.736  11.189  1.00  0.00     0.318 C 
HETATM   12  O2  UNL     1      20.674   2.367  12.233  1.00  0.00    -0.247 OA
HETATM   13  N4  UNL     1      20.565   3.689  10.295  1.00  0.00    -0.334 N 
HETATM   14  C7  UNL     1      21.867   4.302  10.485  1.00  0.00     0.129 C 
HETATM   15  C15 UNL     1      19.808   4.092   9.135  1.00  0.00     0.129 C 
HETATM   16  C8  UNL     1      21.682   5.781  10.709  1.00  0.00     0.056 C 
HETATM   17  C9  UNL     1      20.464   6.298   9.949  1.00  0.00     0.226 C 
HETATM   18  C14 UNL     1      20.345   5.449   8.701  1.00  0.00     0.056 C 
ATOM     19  H3  UNL     1      18.236   2.424  10.142  1.00  0.00     0.164 HD
BRANCH  17  20
HETATM   20  N5  UNL     1      19.260   6.100  10.732  1.00  0.00     0.097 N 
HETATM   21  C10 UNL     1      19.489   6.496  12.125  1.00  0.00     0.299 C 
HETATM   22  C11 UNL     1      18.127   6.729  12.733  1.00  0.00     0.198 C 
HETATM   23  O3  UNL     1      17.702   7.993  12.305  1.00  0.00    -0.388 OA
HETATM   24  C12 UNL     1      18.169   8.262  11.031  1.00  0.00     0.198 C 
HETATM   25  C13 UNL     1      18.225   6.988  10.243  1.00  0.00     0.299 C 
ENDBRANCH  17  20
ENDBRANCH   9  10
ENDBRANCH   5   7
TORSDOF 3
ENDMDL
MODEL 4
REMARK VINA RESULT: -6.429854294      1.898      2.675
REMARK  3 active torsions:
REMARK  status: ('A' for Active; 'I' for Inactive)
REMARK       I    between atoms: N2_3  and  C2_5 
REMARK    1  A    between atoms: C2_5  and  C3_7 
REMARK    2  A    between atoms: C5_9  and  N3_10 
REMARK       I    between atoms: N3_10  and  C6_12 
REMARK       I    between atoms: C6_12  and  N4_14 
REMARK    3  A    between atoms: C9_17  and  N5_18 
ROOT
HETATM    1  N1  UNL     1      16.536   0.035  16.389  1.00  0.00    -0.172 NA
HETATM    2  C1  UNL     1      16.844   0.591  15.397  1.00  0.00     0.184 C 
HETATM    3  N2  UNL     1      17.195   1.259  14.222  1.00  0.00    -0.263 N 
ATOM      4  H2  UNL     1      17.442   2.248  14.271  1.00  0.00     0.181 HD
HETATM    5  C2  UNL     1      17.219   0.602  12.953  1.00  0.00     0.236 C 
HETATM    6  O1  UNL     1      16.908  -0.616  12.931  1.00  0.00    -0.272 OA
ENDROOT
BRANCH   5   7
HETATM    7  C3  UNL     1      17.584   1.279  11.705  1.00  0.00     0.103 A 
HETATM    8  C4  UNL     1      19.013   1.243  11.306  1.00  0.00     0.042 A 
HETATM    9  C5  UNL     1      18.318   2.571  11.717  1.00  0.00     0.100 A 
BRANCH   9  10
HETATM   10  N3  UNL     1      18.151   3.518  10.644  1.00  0.00    -0.338 N 
HETATM   11  C6  UNL     1      18.873   4.719  10.631  1.00  0.00     0.318 C 
HETATM   12  O2  UNL     1      19.679   4.931  11.604  1.00  0.00    -0.247 OA
HETATM   13  N4  UNL     1      18.716   5.652   9.586  1.00  0.00    -0.334 N 
HETATM   14  C7  UNL     1      19.457   6.899   9.530  1.00  0.00     0.129 C 
HETATM   15  C15 UNL     1      17.790   5.384   8.513  1.00  0.00     0.129 C 
HETATM   16  C8  UNL     1      18.486   8.047   9.638  1.00  0.00     0.056 C 
HETATM   17  C9  UNL     1      17.142   7.684   9.015  1.00  0.00     0.226 C 
HETATM   18  C14 UNL     1      17.439   6.725   7.882  1.00  0.00     0.056 C 
ATOM     19  H3  UNL     1      17.500   3.312   9.886  1.00  0.00     0.164 HD
BRANCH  17  20
HETATM   20  N5  UNL     1      16.312   6.984   9.977  1.00  0.00     0.097 N 
HETATM   21  C10 UNL     1      16.350   7.669  11.273  1.00  0.00     0.299 C 
HETATM   22  C11 UNL     1      15.135   7.202  12.038  1.00  0.00     0.198 C 
HETATM   23  O3  UNL     1      14.041   7.920  11.542  1.00  0.00    -0.388 OA
HETATM   24  C12 UNL     1      14.199   8.184  10.193  1.00  0.00     0.198 C 
HETATM   25  C13 UNL     1      14.931   7.046   9.546  1.00  0.00     0.299 C 
ENDBRANCH  17  20
ENDBRANCH   9  10
ENDBRANCH   5   7
TORSDOF 3
ENDMDL
MODEL 5
REMARK VINA RESULT: -6.422937779      3.483      4.533
REMARK  3 active torsions:
REMARK  status: ('A' for Active; 'I' for Inactive)
REMARK       I    between atoms: N2_3  and  C2_5 
REMARK    1  A    between atoms: C2_5  and  C3_7 
REMARK    2  A    between atoms: C5_9  and  N3_10 
REMARK       I    between atoms: N3_10  and  C6_12 
REMARK       I    between atoms: C6_12  and  N4_14 
REMARK    3  A    between atoms: C9_17  and  N5_18 
ROOT
HETATM    1  N1  UNL     1      18.603  -3.879  11.699  1.00  0.00    -0.172 NA
HETATM    2  C1  UNL     1      18.338  -2.761  11.440  1.00  0.00     0.184 C 
HETATM    3  N2  UNL     1      18.041  -1.431  11.135  1.00  0.00    -0.263 N 
ATOM      4  H2  UNL     1      18.373  -1.041  10.252  1.00  0.00     0.181 HD
HETATM    5  C2  UNL     1      17.287  -0.599  12.018  1.00  0.00     0.236 C 
HETATM    6  O1  UNL     1      16.895  -1.113  13.096  1.00  0.00    -0.272 OA
ENDROOT
BRANCH   5   7
HETATM    7  C3  UNL     1      16.961   0.799  11.722  1.00  0.00     0.103 A 
HETATM    8  C4  UNL     1      16.505   1.113  10.345  1.00  0.00     0.042 A 
HETATM    9  C5  UNL     1      17.862   1.639  10.891  1.00  0.00     0.100 A 
BRANCH   9  10
HETATM   10  N3  UNL     1      17.918   3.066  11.084  1.00  0.00    -0.338 N 
HETATM   11  C6  UNL     1      18.845   3.632  11.970  1.00  0.00     0.318 C 
HETATM   12  O2  UNL     1      19.630   2.833  12.590  1.00  0.00    -0.247 OA
HETATM   13  N4  UNL     1      18.906   5.026  12.166  1.00  0.00    -0.334 N 
HETATM   14  C7  UNL     1      19.861   5.651  13.063  1.00  0.00     0.129 C 
HETATM   15  C15 UNL     1      17.997   5.896  11.459  1.00  0.00     0.129 C 
HETATM   16  C8  UNL     1      19.110   6.323  14.184  1.00  0.00     0.056 C 
HETATM   17  C9  UNL     1      17.752   6.826  13.703  1.00  0.00     0.226 C 
HETATM   18  C14 UNL     1      17.923   7.198  12.245  1.00  0.00     0.056 C 
ATOM     19  H3  UNL     1      17.276   3.670  10.570  1.00  0.00     0.164 HD
BRANCH  17  20
HETATM   20  N5  UNL     1      16.767   5.764  13.774  1.00  0.00     0.097 N 
HETATM   21  C10 UNL     1      17.049   4.884  14.912  1.00  0.00     0.299 C 
HETATM   22  C11 UNL     1      15.768   4.143  15.207  1.00  0.00     0.198 C 
HETATM   23  O3  UNL     1      14.945   5.022  15.921  1.00  0.00    -0.388 OA
HETATM   24  C12 UNL     1      15.147   6.327  15.509  1.00  0.00     0.198 C 
HETATM   25  C13 UNL     1      15.466   6.341  14.044  1.00  0.00     0.299 C 
ENDBRANCH  17  20
ENDBRANCH   9  10
ENDBRANCH   5   7
TORSDOF 3
ENDMDL
