MODEL 1
REMARK VINA RESULT: -6.486480422      0.000      0.000
REMARK  3 active torsions:
REMARK  status: ('A' for Active; 'I' for Inactive)
REMARK    1  A    between atoms: C1_2  and  C2_3 
REMARK       I    between atoms: C1_2  and  N3_10 
REMARK    2  A    between atoms: C2_3  and  N1_4 
REMARK    3  A    between atoms: N3_10  and  C6_12 
REMARK       I    between atoms: N4_15  and  C9_16 
REMARK       I    between atoms: C9_16  and  N5_18 
ROOT
HETATM    1  C6  UNL     1      19.193   3.092  10.968  1.00  0.00     0.087 C 
HETATM    2  C7  UNL     1      20.568   2.634  11.401  1.00  0.00     0.045 C 
HETATM    3  C8  UNL     1      21.561   3.726  11.049  1.00  0.00     0.129 C 
HETATM    4  N4  UNL     1      21.639   3.880   9.582  1.00  0.00    -0.334 N 
HETATM    5  C9  UNL     1      22.904   3.882   8.996  1.00  0.00     0.320 C 
HETATM    6  O2  UNL     1      23.951   3.752   9.745  1.00  0.00    -0.247 OA
HETATM    7  N5  UNL     1      23.216   4.015   7.620  1.00  0.00    -0.331 N 
HETATM    8  C10 UNL     1      24.606   3.998   7.142  1.00  0.00     0.155 C 
HETATM    9  C11 UNL     1      24.820   2.907   6.119  1.00  0.00     0.252 C 
HETATM   10  N6  UNL     1      23.668   2.744   5.254  1.00  0.00    -0.072 N 
ATOM     11  H61 UNL     1      23.078   1.958   5.525  1.00  0.00     0.277 HD
ATOM     12  H62 UNL     1      23.917   2.412   4.322  1.00  0.00     0.277 HD
HETATM   13  C12 UNL     1      22.958   3.987   5.228  1.00  0.00     0.252 C 
HETATM   14  C13 UNL     1      22.229   4.176   6.575  1.00  0.00     0.155 C 
HETATM   15  C14 UNL     1      20.356   4.010   8.938  1.00  0.00     0.129 C 
HETATM   16  C15 UNL     1      19.258   4.241   9.996  1.00  0.00     0.045 C 
ENDROOT
BRANCH   1  17
HETATM   17  N3  UNL     1      18.381   3.503  12.083  1.00  0.00    -0.355 N 
HETATM   18  C1  UNL     1      17.201   2.817  12.470  1.00  0.00     0.237 C 
HETATM   19  O1  UNL     1      16.838   1.803  11.816  1.00  0.00    -0.272 OA
ATOM     20  H3  UNL     1      18.665   4.324  12.617  1.00  0.00     0.162 HD
BRANCH  18  21
HETATM   21  C2  UNL     1      16.413   3.289  13.623  1.00  0.00     0.250 C 
BRANCH  21  22
HETATM   22  N1  UNL     1      16.461   2.324  14.703  1.00  0.00    -0.295 N 
HETATM   23  C3  UNL     1      15.724   2.394  15.830  1.00  0.00     0.112 A 
HETATM   24  C4  UNL     1      16.025   1.299  16.648  1.00  0.00     0.037 A 
HETATM   25  C5  UNL     1      16.973   0.596  15.937  1.00  0.00     0.108 A 
HETATM   26  N2  UNL     1      17.195   1.248  14.791  1.00  0.00    -0.310 N 
ATOM     27  H2  UNL     1      17.856   0.944  14.075  1.00  0.00     0.186 HD
ENDBRANCH  21  22
ENDBRANCH  18  21
ENDBRANCH   1  17
TORSDOF 3
ENDMDL
MODEL 2
REMARK VINA RESULT: -6.337812487      2.740      3.467
REMARK  3 active torsions:
REMARK  status: ('A' for Active; 'I' for Inactive)
REMARK    1  A    between atoms: C1_2  and  C2_3 
REMARK       I    between atoms: C1_2  and  N3_10 
REMARK    2  A    between atoms: C2_3  and  N1_4 
REMARK    3  A    between atoms: N3_10  and  C6_12 
REMARK       I    between atoms: N4_15  and  C9_16 
REMARK       I    between atoms: C9_16  and  N5_18 
ROOT
HETATM    1  C6  UNL     1      17.639   2.331  12.266  1.00  0.00     0.087 C 
HETATM    2  C7  UNL     1      18.925   1.892  11.601  1.00  0.00     0.045 C 
HETATM    3  C8  UNL     1      19.787   3.121  11.386  1.00  0.00     0.129 C 
HETATM    4  N4  UNL     1      19.133   4.032  10.424  1.00  0.00    -0.334 N 
HETATM    5  C9  UNL     1      19.896   4.502   9.355  1.00  0.00     0.320 C 
HETATM    6  O2  UNL     1      21.131   4.132   9.245  1.00  0.00    -0.247 OA
HETATM    7  N5  UNL     1      19.481   5.377   8.320  1.00  0.00    -0.331 N 
HETATM    8  C10 UNL     1      20.400   5.790   7.250  1.00  0.00     0.155 C 
HETATM    9  C11 UNL     1      19.848   5.437   5.887  1.00  0.00     0.252 C 
HETATM   10  N6  UNL     1      18.409   5.609   5.827  1.00  0.00    -0.072 N 
ATOM     11  H61 UNL     1      17.902   4.730   5.927  1.00  0.00     0.277 HD
ATOM     12  H62 UNL     1      18.079   5.851   4.893  1.00  0.00     0.277 HD
HETATM   13  C12 UNL     1      18.040   6.578   6.814  1.00  0.00     0.252 C 
HETATM   14  C13 UNL     1      18.152   5.936   8.213  1.00  0.00     0.155 C 
HETATM   15  C14 UNL     1      17.755   4.317  10.730  1.00  0.00     0.129 C 
HETATM   16  C15 UNL     1      17.418   3.816  12.150  1.00  0.00     0.045 C 
ENDROOT
BRANCH   1  17
HETATM   17  N3  UNL     1      17.605   1.987  13.663  1.00  0.00    -0.355 N 
HETATM   18  C1  UNL     1      17.129   0.738  14.137  1.00  0.00     0.237 C 
HETATM   19  O1  UNL     1      16.712  -0.115  13.309  1.00  0.00    -0.272 OA
ATOM     20  H3  UNL     1      17.938   2.672  14.342  1.00  0.00     0.162 HD
BRANCH  18  21
HETATM   21  C2  UNL     1      17.121   0.448  15.583  1.00  0.00     0.250 C 
BRANCH  21  22
HETATM   22  N1  UNL     1      15.968   1.053  16.218  1.00  0.00    -0.295 N 
HETATM   23  C3  UNL     1      15.201   0.453  17.152  1.00  0.00     0.112 A 
HETATM   24  C4  UNL     1      14.181   1.326  17.543  1.00  0.00     0.037 A 
HETATM   25  C5  UNL     1      14.396   2.459  16.788  1.00  0.00     0.108 A 
HETATM   26  N2  UNL     1      15.469   2.242  16.019  1.00  0.00    -0.310 N 
ATOM     27  H2  UNL     1      15.849   2.921  15.359  1.00  0.00     0.186 HD
ENDBRANCH  21  22
ENDBRANCH  18  21
ENDBRANCH   1  17
TORSDOF 3
ENDMDL
MODEL 3
REMARK VINA RESULT: -6.218581159      5.248      8.048
REMARK  3 active torsions:
REMARK  status: ('A' for Active; 'I' for Inactive)
REMARK    1  A    between atoms: C1_2  and  C2_3 
REMARK       I    between atoms: C1_2  and  N3_10 
REMARK    2  A    between atoms: C2_3  and  N1_4 
REMARK    3  A    between atoms: N3_10  and  C6_12 
REMARK       I    between atoms: N4_15  and  C9_16 
REMARK       I    between atoms: C9_16  and  N5_18 
ROOT
HETATM    1  C6  UNL     1      18.837   6.031  13.837  1.00  0.00     0.087 C 
HETATM    2  C7  UNL     1      18.727   5.990  12.329  1.00  0.00     0.045 C 
HETATM    3  C8  UNL     1      17.401   5.345  11.971  1.00  0.00     0.129 C 
HETATM    4  N4  UNL     1      17.395   3.934  12.408  1.00  0.00    -0.334 N 
HETATM    5  C9  UNL     1      17.010   2.969  11.478  1.00  0.00     0.320 C 
HETATM    6  O2  UNL     1      16.676   3.337  10.282  1.00  0.00    -0.247 OA
HETATM    7  N5  UNL     1      16.930   1.568  11.673  1.00  0.00    -0.331 N 
HETATM    8  C10 UNL     1      16.506   0.665  10.593  1.00  0.00     0.155 C 
HETATM    9  C11 UNL     1      17.559  -0.384  10.312  1.00  0.00     0.252 C 
HETATM   10  N6  UNL     1      18.215  -0.829  11.525  1.00  0.00    -0.072 N 
ATOM     11  H61 UNL     1      19.123  -0.389  11.668  1.00  0.00     0.277 HD
ATOM     12  H62 UNL     1      18.539  -1.795  11.468  1.00  0.00     0.277 HD
HETATM   13  C12 UNL     1      17.315  -0.611  12.617  1.00  0.00     0.252 C 
HETATM   14  C13 UNL     1      17.247   0.901  12.917  1.00  0.00     0.155 C 
HETATM   15  C14 UNL     1      17.801   3.742  13.777  1.00  0.00     0.129 C 
HETATM   16  C15 UNL     1      17.857   5.102  14.503  1.00  0.00     0.045 C 
ENDROOT
BRANCH   1  17
HETATM   17  N3  UNL     1      18.618   7.353  14.362  1.00  0.00    -0.355 N 
HETATM   18  C1  UNL     1      19.611   8.366  14.334  1.00  0.00     0.237 C 
HETATM   19  O1  UNL     1      20.737   8.108  13.832  1.00  0.00    -0.272 OA
ATOM     20  H3  UNL     1      17.711   7.571  14.773  1.00  0.00     0.162 HD
BRANCH  18  21
HETATM   21  C2  UNL     1      19.324   9.701  14.889  1.00  0.00     0.250 C 
BRANCH  21  22
HETATM   22  N1  UNL     1      20.545  10.469  15.030  1.00  0.00    -0.295 N 
HETATM   23  C3  UNL     1      20.785  11.650  14.425  1.00  0.00     0.112 A 
HETATM   24  C4  UNL     1      22.058  12.104  14.786  1.00  0.00     0.037 A 
HETATM   25  C5  UNL     1      22.541  11.125  15.628  1.00  0.00     0.108 A 
HETATM   26  N2  UNL     1      21.602  10.178  15.737  1.00  0.00    -0.310 N 
ATOM     27  H2  UNL     1      21.701   9.334  16.302  1.00  0.00     0.186 HD
ENDBRANCH  21  22
ENDBRANCH  18  21
ENDBRANCH   1  17
TORSDOF 3
ENDMDL
MODEL 4
REMARK VINA RESULT: -6.218120508      1.576      2.104
REMARK  3 active torsions:
REMARK  status: ('A' for Active; 'I' for Inactive)
REMARK    1  A    between atoms: C1_2  and  C2_3 
REMARK       I    between atoms: C1_2  and  N3_10 
REMARK    2  A    between atoms: C2_3  and  N1_4 
REMARK    3  A    between atoms: N3_10  and  C6_12 
REMARK       I    between atoms: N4_15  and  C9_16 
REMARK       I    between atoms: C9_16  and  N5_18 
ROOT
HETATM    1  C6  UNL     1      18.832   2.584  11.289  1.00  0.00     0.087 C 
HETATM    2  C7  UNL     1      20.223   1.992  11.264  1.00  0.00     0.045 C 
HETATM    3  C8  UNL     1      21.210   3.118  11.020  1.00  0.00     0.129 C 
HETATM    4  N4  UNL     1      20.998   3.689   9.674  1.00  0.00    -0.334 N 
HETATM    5  C9  UNL     1      22.112   3.834   8.849  1.00  0.00     0.320 C 
HETATM    6  O2  UNL     1      23.276   3.471   9.283  1.00  0.00    -0.247 OA
HETATM    7  N5  UNL     1      22.145   4.355   7.531  1.00  0.00    -0.331 N 
HETATM    8  C10 UNL     1      23.402   4.448   6.774  1.00  0.00     0.155 C 
HETATM    9  C11 UNL     1      23.310   3.696   5.466  1.00  0.00     0.252 C 
HETATM   10  N6  UNL     1      21.996   3.815   4.865  1.00  0.00    -0.072 N 
ATOM     11  H61 UNL     1      21.411   2.997   5.030  1.00  0.00     0.277 HD
ATOM     12  H62 UNL     1      22.020   3.763   3.847  1.00  0.00     0.277 HD
HETATM   13  C12 UNL     1      21.402   5.027   5.344  1.00  0.00     0.252 C 
HETATM   14  C13 UNL     1      20.982   4.832   6.816  1.00  0.00     0.155 C 
HETATM   15  C14 UNL     1      19.626   4.027   9.391  1.00  0.00     0.129 C 
HETATM   16  C15 UNL     1      18.792   3.964  10.686  1.00  0.00     0.045 C 
ENDROOT
BRANCH   1  17
HETATM   17  N3  UNL     1      18.302   2.671  12.625  1.00  0.00    -0.355 N 
HETATM   18  C1  UNL     1      16.919   2.542  12.914  1.00  0.00     0.237 C 
HETATM   19  O1  UNL     1      16.110   2.345  11.969  1.00  0.00    -0.272 OA
ATOM     20  H3  UNL     1      18.949   2.833  13.397  1.00  0.00     0.162 HD
BRANCH  18  21
HETATM   21  C2  UNL     1      16.440   2.640  14.305  1.00  0.00     0.250 C 
BRANCH  21  22
HETATM   22  N1  UNL     1      16.268   4.027  14.688  1.00  0.00    -0.295 N 
HETATM   23  C3  UNL     1      15.080   4.615  14.934  1.00  0.00     0.112 A 
HETATM   24  C4  UNL     1      15.289   5.956  15.277  1.00  0.00     0.037 A 
HETATM   25  C5  UNL     1      16.658   6.111  15.215  1.00  0.00     0.108 A 
HETATM   26  N2  UNL     1      17.189   4.936  14.861  1.00  0.00    -0.310 N 
ATOM     27  H2  UNL     1      18.188   4.771  14.740  1.00  0.00     0.186 HD
ENDBRANCH  21  22
ENDBRANCH  18  21
ENDBRANCH   1  17
TORSDOF 3
ENDMDL
MODEL 5
REMARK VINA RESULT: -6.214990392      1.662      2.200
REMARK  3 active torsions:
REMARK  status: ('A' for Active; 'I' for Inactive)
REMARK    1  A    between atoms: C1_2  and  C2_3 
REMARK       I    between atoms: C1_2  and  N3_10 
REMARK    2  A    between atoms: C2_3  and  N1_4 
REMARK    3  A    between atoms: N3_10  and  C6_12 
REMARK       I    between atoms: N4_15  and  C9_16 
REMARK       I    between atoms: C9_16  and  N5_18 
ROOT
HETATM    1  C6  UNL     1      18.418   2.098  11.651  1.00  0.00     0.087 C 
HETATM    2  C7  UNL     1      19.766   1.499  11.313  1.00  0.00     0.045 C 
HETATM    3  C8  UNL     1      20.775   2.629  11.232  1.00  0.00     0.129 C 
HETATM    4  N4  UNL     1      20.442   3.521  10.102  1.00  0.00    -0.334 N 
HETATM    5  C9  UNL     1      21.462   3.842   9.208  1.00  0.00     0.320 C 
HETATM    6  O2  UNL     1      22.648   3.357   9.395  1.00  0.00    -0.247 OA
HETATM    7  N5  UNL     1      21.373   4.672   8.063  1.00  0.00    -0.331 N 
HETATM    8  C10 UNL     1      22.540   4.923   7.203  1.00  0.00     0.155 C 
HETATM    9  C11 UNL     1      22.262   4.521   5.773  1.00  0.00     0.252 C 
HETATM   10  N6  UNL     1      20.897   4.814   5.385  1.00  0.00    -0.072 N 
ATOM     11  H61 UNL     1      20.292   3.994   5.415  1.00  0.00     0.277 HD
ATOM     12  H62 UNL     1      20.803   5.016   4.389  1.00  0.00     0.277 HD
HETATM   13  C12 UNL     1      20.423   5.882   6.213  1.00  0.00     0.252 C 
HETATM   14  C13 UNL     1      20.163   5.337   7.633  1.00  0.00     0.155 C 
HETATM   15  C14 UNL     1      19.067   3.948  10.079  1.00  0.00     0.129 C 
HETATM   16  C15 UNL     1      18.381   3.584  11.412  1.00  0.00     0.045 C 
ENDROOT
BRANCH   1  17
HETATM   17  N3  UNL     1      18.048   1.862  13.022  1.00  0.00    -0.355 N 
HETATM   18  C1  UNL     1      17.213   0.786  13.419  1.00  0.00     0.237 C 
HETATM   19  O1  UNL     1      16.768  -0.002  12.543  1.00  0.00    -0.272 OA
ATOM     20  H3  UNL     1      18.400   2.496  13.739  1.00  0.00     0.162 HD
BRANCH  18  21
HETATM   21  C2  UNL     1      16.871   0.599  14.841  1.00  0.00     0.250 C 
BRANCH  21  22
HETATM   22  N1  UNL     1      16.068   1.706  15.322  1.00  0.00    -0.295 N 
HETATM   23  C3  UNL     1      15.349   1.695  16.463  1.00  0.00     0.112 A 
HETATM   24  C4  UNL     1      14.701   2.927  16.613  1.00  0.00     0.037 A 
HETATM   25  C5  UNL     1      15.083   3.647  15.502  1.00  0.00     0.108 A 
HETATM   26  N2  UNL     1      15.894   2.875  14.770  1.00  0.00    -0.310 N 
ATOM     27  H2  UNL     1      16.321   3.164  13.890  1.00  0.00     0.186 HD
ENDBRANCH  21  22
ENDBRANCH  18  21
ENDBRANCH   1  17
TORSDOF 3
ENDMDL
