MODEL 1
REMARK VINA RESULT: -6.864372564      0.000      0.000
REMARK  6 active torsions:
REMARK  status: ('A' for Active; 'I' for Inactive)
REMARK    1  A    between atoms: C4_4  and  C5_5 
REMARK       I    between atoms: C5_5  and  N1_7 
REMARK    2  A    between atoms: C9_11  and  C10_12 
REMARK    3  A    between atoms: C9_11  and  C11_14 
REMARK    4  A    between atoms: C13_19  and  O3_20 
REMARK    5  A    between atoms: C15_22  and  O4_23 
REMARK    6  A    between atoms: C18_26  and  C19_27 
ROOT
HETATM    1  C1  UNL     1      -2.054   1.804  89.225  1.00  0.00     0.017 C 
HETATM    2  C2  UNL     1      -1.886   1.801  88.028  1.00  0.00    -0.089 C 
HETATM    3  C3  UNL     1      -1.688   1.826  86.583  1.00  0.00     0.069 C 
HETATM    4  C4  UNL     1      -1.809   2.781  85.802  1.00  0.00     0.083 C 
ENDROOT
BRANCH   4   5
HETATM    5  C5  UNL     1      -2.183   4.146  86.088  1.00  0.00     0.244 C 
HETATM    6  O1  UNL     1      -2.792   4.529  87.110  1.00  0.00    -0.268 OA
HETATM    7  N1  UNL     1      -1.834   5.134  85.125  1.00  0.00    -0.334 N 
HETATM    8  C6  UNL     1      -1.757   6.405  84.499  1.00  0.00     0.112 A 
HETATM    9  C20 UNL     1      -1.013   5.328  83.917  1.00  0.00     0.126 A 
HETATM   10  C7  UNL     1      -0.776   7.414  84.985  1.00  0.00     0.029 C 
HETATM   11  C8  UNL     1       0.590   7.008  84.382  1.00  0.00     0.021 C 
HETATM   12  C9  UNL     1       0.472   5.526  84.211  1.00  0.00     0.042 C 
BRANCH  12  13
HETATM   13  C10 UNL     1       0.775   4.911  85.572  1.00  0.00     0.243 C 
HETATM   14  O2  UNL     1       1.573   4.017  85.664  1.00  0.00    -0.306 OA
ENDBRANCH  12  13
BRANCH  12  15
HETATM   15  C11 UNL     1       1.324   4.843  83.242  1.00  0.00     0.049 C 
HETATM   16  C12 UNL     1       2.268   5.809  82.489  1.00  0.00     0.202 C 
HETATM   17  N2  UNL     1       3.620   5.558  82.878  1.00  0.00    -0.041 N 
HETATM   18  C17 UNL     1       2.010   5.031  81.186  1.00  0.00     0.065 C 
HETATM   19  C13 UNL     1       4.001   4.296  82.223  1.00  0.00     0.350 C 
ATOM     20  H22 UNL     1       4.253   6.331  82.672  1.00  0.00     0.280 HD
ATOM     21  H21 UNL     1       3.759   5.551  83.888  1.00  0.00     0.280 HD
HETATM   22  C15 UNL     1       3.255   4.321  80.903  1.00  0.00     0.184 C 
HETATM   23  C18 UNL     1       0.874   4.385  81.913  1.00  0.00     0.103 C 
BRANCH  19  24
HETATM   24  O3  UNL     1       5.359   4.276  82.142  1.00  0.00    -0.362 OA
HETATM   25  C14 UNL     1       5.879   5.237  81.273  1.00  0.00     0.204 C 
ENDBRANCH  19  24
BRANCH  22  26
HETATM   26  O4  UNL     1       3.241   3.142  80.234  1.00  0.00    -0.386 OA
HETATM   27  C16 UNL     1       3.186   3.309  78.844  1.00  0.00     0.202 C 
ENDBRANCH  22  26
BRANCH  23  28
HETATM   28  C19 UNL     1       0.769   2.929  81.777  1.00  0.00     0.178 C 
HETATM   29  O5  UNL     1       0.193   2.376  80.814  1.00  0.00    -0.648 OA
HETATM   30  O6  UNL     1       1.315   2.057  82.733  1.00  0.00    -0.648 OA
ENDBRANCH  23  28
ENDBRANCH  12  15
ENDBRANCH   4   5
TORSDOF 6
ENDMDL
MODEL 2
REMARK VINA RESULT: -6.824727019      2.545      4.953
REMARK  6 active torsions:
REMARK  status: ('A' for Active; 'I' for Inactive)
REMARK    1  A    between atoms: C4_4  and  C5_5 
REMARK       I    between atoms: C5_5  and  N1_7 
REMARK    2  A    between atoms: C9_11  and  C10_12 
REMARK    3  A    between atoms: C9_11  and  C11_14 
REMARK    4  A    between atoms: C13_19  and  O3_20 
REMARK    5  A    between atoms: C15_22  and  O4_23 
REMARK    6  A    between atoms: C18_26  and  C19_27 
ROOT
HETATM    1  C1  UNL     1      -2.673   7.808  85.855  1.00  0.00     0.017 C 
HETATM    2  C2  UNL     1      -1.539   7.393  85.827  1.00  0.00    -0.089 C 
HETATM    3  C3  UNL     1      -0.165   6.907  85.769  1.00  0.00     0.069 C 
HETATM    4  C4  UNL     1       0.674   7.064  84.871  1.00  0.00     0.083 C 
ENDROOT
BRANCH   4   5
HETATM    5  C5  UNL     1       0.541   7.771  83.618  1.00  0.00     0.244 C 
HETATM    6  O1  UNL     1       1.041   8.888  83.362  1.00  0.00    -0.268 OA
HETATM    7  N1  UNL     1      -0.225   7.146  82.595  1.00  0.00    -0.334 N 
HETATM    8  C6  UNL     1      -0.884   6.976  81.349  1.00  0.00     0.112 A 
HETATM    9  C20 UNL     1      -0.850   5.858  82.244  1.00  0.00     0.126 A 
HETATM   10  C7  UNL     1      -0.101   6.604  80.139  1.00  0.00     0.029 C 
HETATM   11  C8  UNL     1       0.148   5.080  80.242  1.00  0.00     0.021 C 
HETATM   12  C9  UNL     1       0.139   4.822  81.716  1.00  0.00     0.042 C 
BRANCH  12  13
HETATM   13  C10 UNL     1       1.529   5.186  82.224  1.00  0.00     0.243 C 
HETATM   14  O2  UNL     1       2.463   5.192  81.468  1.00  0.00    -0.306 OA
ENDBRANCH  12  13
BRANCH  12  15
HETATM   15  C11 UNL     1      -0.150   3.479  82.209  1.00  0.00     0.049 C 
HETATM   16  C12 UNL     1       0.934   2.950  83.177  1.00  0.00     0.202 C 
HETATM   17  N2  UNL     1       0.390   2.845  84.495  1.00  0.00    -0.041 N 
HETATM   18  C17 UNL     1       0.828   1.561  82.523  1.00  0.00     0.065 C 
HETATM   19  C13 UNL     1      -0.500   1.673  84.472  1.00  0.00     0.350 C 
ATOM     20  H22 UNL     1       1.100   2.803  85.226  1.00  0.00     0.280 HD
ATOM     21  H21 UNL     1      -0.068   3.698  84.815  1.00  0.00     0.280 HD
HETATM   22  C15 UNL     1       0.175   0.710  83.515  1.00  0.00     0.184 C 
HETATM   23  C18 UNL     1       0.063   2.242  81.433  1.00  0.00     0.103 C 
BRANCH  19  24
HETATM   24  O3  UNL     1      -0.636   1.243  85.756  1.00  0.00    -0.362 OA
HETATM   25  C14 UNL     1      -0.434   2.248  86.704  1.00  0.00     0.204 C 
ENDBRANCH  19  24
BRANCH  22  26
HETATM   26  O4  UNL     1      -0.592  -0.339  83.128  1.00  0.00    -0.386 OA
HETATM   27  C16 UNL     1       0.162  -1.383  82.573  1.00  0.00     0.202 C 
ENDBRANCH  22  26
BRANCH  23  28
HETATM   28  C19 UNL     1      -1.169   1.576  81.000  1.00  0.00     0.178 C 
HETATM   29  O5  UNL     1      -2.309   1.973  81.330  1.00  0.00    -0.648 OA
HETATM   30  O6  UNL     1      -1.143   0.436  80.179  1.00  0.00    -0.648 OA
ENDBRANCH  23  28
ENDBRANCH  12  15
ENDBRANCH   4   5
TORSDOF 6
ENDMDL
MODEL 3
REMARK VINA RESULT: -6.694764694      2.742      5.148
REMARK  6 active torsions:
REMARK  status: ('A' for Active; 'I' for Inactive)
REMARK    1  A    between atoms: C4_4  and  C5_5 
REMARK       I    between atoms: C5_5  and  N1_7 
REMARK    2  A    between atoms: C9_11  and  C10_12 
REMARK    3  A    between atoms: C9_11  and  C11_14 
REMARK    4  A    between atoms: C13_19  and  O3_20 
REMARK    5  A    between atoms: C15_22  and  O4_23 
REMARK    6  A    between atoms: C18_26  and  C19_27 
ROOT
HETATM    1  C1  UNL     1      -3.044   7.719  80.594  1.00  0.00     0.017 C 
HETATM    2  C2  UNL     1      -1.856   7.501  80.648  1.00  0.00    -0.089 C 
HETATM    3  C3  UNL     1      -0.423   7.251  80.740  1.00  0.00     0.069 C 
HETATM    4  C4  UNL     1       0.369   7.604  81.626  1.00  0.00     0.083 C 
ENDROOT
BRANCH   4   5
HETATM    5  C5  UNL     1       0.109   8.369  82.824  1.00  0.00     0.244 C 
HETATM    6  O1  UNL     1      -0.331   9.538  82.853  1.00  0.00    -0.268 OA
HETATM    7  N1  UNL     1       0.383   7.740  84.071  1.00  0.00    -0.334 N 
HETATM    8  C6  UNL     1       0.523   7.587  85.475  1.00  0.00     0.112 A 
HETATM    9  C20 UNL     1       0.701   6.425  84.655  1.00  0.00     0.126 A 
HETATM   10  C7  UNL     1      -0.680   7.356  86.320  1.00  0.00     0.029 C 
HETATM   11  C8  UNL     1      -1.030   5.856  86.167  1.00  0.00     0.021 C 
HETATM   12  C9  UNL     1      -0.513   5.512  84.806  1.00  0.00     0.042 C 
BRANCH  12  13
HETATM   13  C10 UNL     1      -1.578   5.966  83.814  1.00  0.00     0.243 C 
HETATM   14  O2  UNL     1      -2.736   5.968  84.134  1.00  0.00    -0.306 OA
ENDBRANCH  12  13
BRANCH  12  15
HETATM   15  C11 UNL     1      -0.205   4.123  84.484  1.00  0.00     0.049 C 
HETATM   16  C12 UNL     1      -0.276   3.829  82.967  1.00  0.00     0.202 C 
HETATM   17  N2  UNL     1       1.036   3.554  82.470  1.00  0.00    -0.041 N 
HETATM   18  C17 UNL     1      -0.947   2.477  83.269  1.00  0.00     0.065 C 
HETATM   19  C13 UNL     1       1.377   2.207  82.956  1.00  0.00     0.350 C 
ATOM     20  H22 UNL     1       1.117   3.654  81.458  1.00  0.00     0.280 HD
ATOM     21  H21 UNL     1       1.723   4.264  82.720  1.00  0.00     0.280 HD
HETATM   22  C15 UNL     1       0.056   1.463  82.955  1.00  0.00     0.184 C 
HETATM   23  C18 UNL     1      -1.144   2.998  84.658  1.00  0.00     0.103 C 
BRANCH  19  24
HETATM   24  O3  UNL     1       2.342   1.713  82.134  1.00  0.00    -0.362 OA
HETATM   25  C14 UNL     1       1.967   1.683  80.790  1.00  0.00     0.204 C 
ENDBRANCH  19  24
BRANCH  22  26
HETATM   26  O4  UNL     1       0.070   0.278  83.613  1.00  0.00    -0.386 OA
HETATM   27  C16 UNL     1      -0.070  -0.819  82.751  1.00  0.00     0.202 C 
ENDBRANCH  22  26
BRANCH  23  28
HETATM   28  C19 UNL     1      -0.796   2.078  85.744  1.00  0.00     0.178 C 
HETATM   29  O5  UNL     1       0.278   2.152  86.381  1.00  0.00    -0.648 OA
HETATM   30  O6  UNL     1      -1.659   1.041  86.138  1.00  0.00    -0.648 OA
ENDBRANCH  23  28
ENDBRANCH  12  15
ENDBRANCH   4   5
TORSDOF 6
ENDMDL
MODEL 4
REMARK VINA RESULT: -6.611776003      2.722      4.837
REMARK  6 active torsions:
REMARK  status: ('A' for Active; 'I' for Inactive)
REMARK    1  A    between atoms: C4_4  and  C5_5 
REMARK       I    between atoms: C5_5  and  N1_7 
REMARK    2  A    between atoms: C9_11  and  C10_12 
REMARK    3  A    between atoms: C9_11  and  C11_14 
REMARK    4  A    between atoms: C13_19  and  O3_20 
REMARK    5  A    between atoms: C15_22  and  O4_23 
REMARK    6  A    between atoms: C18_26  and  C19_27 
ROOT
HETATM    1  C1  UNL     1      -3.502   1.382  87.712  1.00  0.00     0.017 C 
HETATM    2  C2  UNL     1      -2.325   1.644  87.625  1.00  0.00    -0.089 C 
HETATM    3  C3  UNL     1      -0.905   1.947  87.494  1.00  0.00     0.069 C 
HETATM    4  C4  UNL     1      -0.110   1.569  86.621  1.00  0.00     0.083 C 
ENDROOT
BRANCH   4   5
HETATM    5  C5  UNL     1      -0.354   0.717  85.480  1.00  0.00     0.244 C 
HETATM    6  O1  UNL     1      -0.921  -0.396  85.517  1.00  0.00    -0.268 OA
HETATM    7  N1  UNL     1       0.095   1.181  84.211  1.00  0.00    -0.334 N 
HETATM    8  C6  UNL     1       0.369   1.173  82.819  1.00  0.00     0.112 A 
HETATM    9  C20 UNL     1       0.609   2.388  83.540  1.00  0.00     0.126 A 
HETATM   10  C7  UNL     1      -0.724   1.442  81.845  1.00  0.00     0.029 C 
HETATM   11  C8  UNL     1      -0.912   2.977  81.823  1.00  0.00     0.021 C 
HETATM   12  C9  UNL     1      -0.476   3.403  83.190  1.00  0.00     0.042 C 
BRANCH  12  13
HETATM   13  C10 UNL     1      -1.665   3.169  84.113  1.00  0.00     0.243 C 
HETATM   14  O2  UNL     1      -2.024   4.035  84.863  1.00  0.00    -0.306 OA
ENDBRANCH  12  13
BRANCH  12  15
HETATM   15  C11 UNL     1      -0.038   4.778  83.409  1.00  0.00     0.049 C 
HETATM   16  C12 UNL     1      -0.849   5.804  82.583  1.00  0.00     0.202 C 
HETATM   17  N2  UNL     1      -1.643   6.605  83.460  1.00  0.00    -0.041 N 
HETATM   18  C17 UNL     1       0.447   6.582  82.294  1.00  0.00     0.065 C 
HETATM   19  C13 UNL     1      -0.707   7.525  84.126  1.00  0.00     0.350 C 
ATOM     20  H22 UNL     1      -2.416   7.080  82.991  1.00  0.00     0.280 HD
ATOM     21  H21 UNL     1      -2.210   6.059  84.109  1.00  0.00     0.280 HD
HETATM   22  C15 UNL     1       0.345   7.814  83.073  1.00  0.00     0.184 C 
HETATM   23  C18 UNL     1       1.169   5.376  82.805  1.00  0.00     0.103 C 
BRANCH  19  24
HETATM   24  O3  UNL     1      -1.428   8.594  84.559  1.00  0.00    -0.362 OA
HETATM   25  C14 UNL     1      -2.413   8.260  85.492  1.00  0.00     0.204 C 
ENDBRANCH  19  24
BRANCH  22  26
HETATM   26  O4  UNL     1       1.459   8.434  83.535  1.00  0.00    -0.386 OA
HETATM   27  C16 UNL     1       2.107   9.188  82.547  1.00  0.00     0.202 C 
ENDBRANCH  22  26
BRANCH  23  28
HETATM   28  C19 UNL     1       2.258   5.633  83.752  1.00  0.00     0.178 C 
HETATM   29  O5  UNL     1       3.422   5.912  83.390  1.00  0.00    -0.648 OA
HETATM   30  O6  UNL     1       2.057   5.576  85.141  1.00  0.00    -0.648 OA
ENDBRANCH  23  28
ENDBRANCH  12  15
ENDBRANCH   4   5
TORSDOF 6
ENDMDL
MODEL 5
REMARK VINA RESULT: -6.599100216      2.510      5.196
REMARK  6 active torsions:
REMARK  status: ('A' for Active; 'I' for Inactive)
REMARK    1  A    between atoms: C4_4  and  C5_5 
REMARK       I    between atoms: C5_5  and  N1_7 
REMARK    2  A    between atoms: C9_11  and  C10_12 
REMARK    3  A    between atoms: C9_11  and  C11_14 
REMARK    4  A    between atoms: C13_19  and  O3_20 
REMARK    5  A    between atoms: C15_22  and  O4_23 
REMARK    6  A    between atoms: C18_26  and  C19_27 
ROOT
HETATM    1  C1  UNL     1       4.552   7.458  83.217  1.00  0.00     0.017 C 
HETATM    2  C2  UNL     1       3.572   7.351  82.517  1.00  0.00    -0.089 C 
HETATM    3  C3  UNL     1       2.376   7.240  81.691  1.00  0.00     0.069 C 
HETATM    4  C4  UNL     1       1.240   7.684  81.912  1.00  0.00     0.083 C 
ENDROOT
BRANCH   4   5
HETATM    5  C5  UNL     1       0.764   8.438  83.049  1.00  0.00     0.244 C 
HETATM    6  O1  UNL     1       0.406   9.635  83.023  1.00  0.00    -0.268 OA
HETATM    7  N1  UNL     1       0.705   7.762  84.300  1.00  0.00    -0.334 N 
HETATM    8  C6  UNL     1       0.511   7.567  85.692  1.00  0.00     0.112 A 
HETATM    9  C20 UNL     1       0.795   6.415  84.889  1.00  0.00     0.126 A 
HETATM   10  C7  UNL     1      -0.866   7.404  86.235  1.00  0.00     0.029 C 
HETATM   11  C8  UNL     1      -1.269   5.938  85.949  1.00  0.00     0.021 C 
HETATM   12  C9  UNL     1      -0.479   5.589  84.727  1.00  0.00     0.042 C 
BRANCH  12  13
HETATM   13  C10 UNL     1      -1.258   6.141  83.539  1.00  0.00     0.243 C 
HETATM   14  O2  UNL     1      -2.446   6.301  83.621  1.00  0.00    -0.306 OA
ENDBRANCH  12  13
BRANCH  12  15
HETATM   15  C11 UNL     1      -0.196   4.188  84.429  1.00  0.00     0.049 C 
HETATM   16  C12 UNL     1      -0.240   3.877  82.915  1.00  0.00     0.202 C 
HETATM   17  N2  UNL     1       1.075   3.564  82.451  1.00  0.00    -0.041 N 
HETATM   18  C17 UNL     1      -0.951   2.545  83.218  1.00  0.00     0.065 C 
HETATM   19  C13 UNL     1       1.373   2.217  82.962  1.00  0.00     0.350 C 
ATOM     20  H22 UNL     1       1.182   3.650  81.440  1.00  0.00     0.280 HD
ATOM     21  H21 UNL     1       1.773   4.262  82.708  1.00  0.00     0.280 HD
HETATM   22  C15 UNL     1       0.035   1.504  82.940  1.00  0.00     0.184 C 
HETATM   23  C18 UNL     1      -1.166   3.088  84.595  1.00  0.00     0.103 C 
BRANCH  19  24
HETATM   24  O3  UNL     1       2.345   1.689  82.168  1.00  0.00    -0.362 OA
HETATM   25  C14 UNL     1       2.002   1.660  80.815  1.00  0.00     0.204 C 
ENDBRANCH  19  24
BRANCH  22  26
HETATM   26  O4  UNL     1       0.005   0.327  83.612  1.00  0.00    -0.386 OA
HETATM   27  C16 UNL     1      -0.113  -0.779  82.759  1.00  0.00     0.202 C 
ENDBRANCH  22  26
BRANCH  23  28
HETATM   28  C19 UNL     1      -0.864   2.174  85.701  1.00  0.00     0.178 C 
HETATM   29  O5  UNL     1      -1.668   1.304  86.103  1.00  0.00    -0.648 OA
HETATM   30  O6  UNL     1       0.361   2.224  86.385  1.00  0.00    -0.648 OA
ENDBRANCH  23  28
ENDBRANCH  12  15
ENDBRANCH   4   5
TORSDOF 6
ENDMDL
