MODEL 1
REMARK VINA RESULT: -7.685273932      0.000      0.000
REMARK  8 active torsions:
REMARK  status: ('A' for Active; 'I' for Inactive)
REMARK    1  A    between atoms: C1_2  and  C2_3 
REMARK       I    between atoms: C1_2  and  N3_20 
REMARK    2  A    between atoms: C2_3  and  O2_4 
REMARK    3  A    between atoms: O2_4  and  C3_5 
REMARK    4  A    between atoms: C3_5  and  C4_7 
REMARK    5  A    between atoms: C4_7  and  N1_8 
REMARK       I    between atoms: N1_8  and  C5_10 
REMARK    6  A    between atoms: C5_10  and  C6_12 
REMARK       I    between atoms: C6_12  and  N2_14 
REMARK    7  A    between atoms: N3_20  and  N4_22 
REMARK    8  A    between atoms: C11_24  and  N5_25 
ROOT
HETATM    1  O2  UNL     1      -1.007   1.272  87.997  1.00  0.00    -0.311 OA
ENDROOT
BRANCH   1   2
HETATM    2  C2  UNL     1      -0.138   1.523  86.944  1.00  0.00     0.283 C 
BRANCH   2   3
HETATM    3  C1  UNL     1      -0.380   0.757  85.710  1.00  0.00     0.260 C 
HETATM    4  O1  UNL     1      -0.834  -0.422  85.879  1.00  0.00    -0.269 OA
HETATM    5  N3  UNL     1      -0.135   1.276  84.417  1.00  0.00    -0.267 N 
ATOM      6  H3  UNL     1       0.223   2.224  84.303  1.00  0.00     0.190 HD
BRANCH   5   7
HETATM    7  N4  UNL     1      -0.392   0.470  83.283  1.00  0.00    -0.294 N 
HETATM    8  C11 UNL     1       0.194   0.740  82.159  1.00  0.00     0.195 C 
ATOM      9  H4  UNL     1      -1.034  -0.319  83.350  1.00  0.00     0.187 HD
BRANCH   8  10
HETATM   10  N5  UNL     1       1.083   1.839  82.081  1.00  0.00    -0.376 N 
HETATM   11  C12 UNL     1       2.517   1.651  82.104  1.00  0.00     0.123 C 
HETATM   12  C13 UNL     1       3.109   2.734  81.223  1.00  0.00     0.020 C 
HETATM   13  C14 UNL     1       2.151   3.071  80.090  1.00  0.00     0.003 C 
HETATM   14  C15 UNL     1       0.877   3.689  80.567  1.00  0.00     0.020 C 
HETATM   15  C16 UNL     1       0.579   3.190  81.974  1.00  0.00     0.123 C 
ENDBRANCH   8  10
ENDBRANCH   5   7
ENDBRANCH   2   3
ENDBRANCH   1   2
BRANCH   1  16
HETATM   16  C3  UNL     1      -2.075   2.061  88.354  1.00  0.00     0.277 C 
HETATM   17  O3  UNL     1      -2.329   2.230  89.569  1.00  0.00    -0.263 OA
BRANCH  16  18
HETATM   18  C4  UNL     1      -2.871   2.675  87.275  1.00  0.00     0.234 C 
BRANCH  18  19
HETATM   19  N1  UNL     1      -2.413   3.968  86.859  1.00  0.00    -0.344 N 
HETATM   20  C5  UNL     1      -2.193   4.278  85.497  1.00  0.00     0.309 C 
HETATM   21  O4  UNL     1      -2.411   3.362  84.665  1.00  0.00    -0.262 OA
ATOM     22  H1  UNL     1      -2.242   4.684  87.564  1.00  0.00     0.163 HD
BRANCH  20  23
HETATM   23  C6  UNL     1      -1.736   5.593  85.115  1.00  0.00     0.311 C 
HETATM   24  O5  UNL     1      -2.608   6.486  84.916  1.00  0.00    -0.262 OA
HETATM   25  N2  UNL     1      -0.382   5.938  84.950  1.00  0.00    -0.340 N 
HETATM   26  C7  UNL     1      -0.061   7.304  84.557  1.00  0.00     0.152 C 
HETATM   27  C10 UNL     1       0.642   4.945  85.171  1.00  0.00     0.152 C 
HETATM   28  C8  UNL     1       1.392   7.601  84.743  1.00  0.00     0.187 C 
HETATM   29  O6  UNL     1       2.093   6.559  84.099  1.00  0.00    -0.388 OA
HETATM   30  C9  UNL     1       2.049   5.496  85.000  1.00  0.00     0.187 C 
ENDBRANCH  20  23
ENDBRANCH  18  19
ENDBRANCH  16  18
ENDBRANCH   1  16
TORSDOF 8
ENDMDL
MODEL 2
REMARK VINA RESULT: -7.627865096      2.913      6.470
REMARK  8 active torsions:
REMARK  status: ('A' for Active; 'I' for Inactive)
REMARK    1  A    between atoms: C1_2  and  C2_3 
REMARK       I    between atoms: C1_2  and  N3_20 
REMARK    2  A    between atoms: C2_3  and  O2_4 
REMARK    3  A    between atoms: O2_4  and  C3_5 
REMARK    4  A    between atoms: C3_5  and  C4_7 
REMARK    5  A    between atoms: C4_7  and  N1_8 
REMARK       I    between atoms: N1_8  and  C5_10 
REMARK    6  A    between atoms: C5_10  and  C6_12 
REMARK       I    between atoms: C6_12  and  N2_14 
REMARK    7  A    between atoms: N3_20  and  N4_22 
REMARK    8  A    between atoms: C11_24  and  N5_25 
ROOT
HETATM    1  O2  UNL     1      -0.486   0.013  82.347  1.00  0.00    -0.311 OA
ENDROOT
BRANCH   1   2
HETATM    2  C2  UNL     1      -0.965   1.279  82.037  1.00  0.00     0.283 C 
BRANCH   2   3
HETATM    3  C1  UNL     1      -0.585   2.359  82.964  1.00  0.00     0.260 C 
HETATM    4  O1  UNL     1      -1.045   3.513  82.675  1.00  0.00    -0.269 OA
HETATM    5  N3  UNL     1       0.227   2.151  84.102  1.00  0.00    -0.267 N 
ATOM      6  H3  UNL     1       0.580   1.219  84.318  1.00  0.00     0.190 HD
BRANCH   5   7
HETATM    7  N4  UNL     1       0.547   3.246  84.939  1.00  0.00    -0.294 N 
HETATM    8  C11 UNL     1      -0.051   3.376  86.081  1.00  0.00     0.195 C 
ATOM      9  H4  UNL     1       1.245   3.929  84.645  1.00  0.00     0.187 HD
BRANCH   8  10
HETATM   10  N5  UNL     1      -1.018   2.421  86.477  1.00  0.00    -0.376 N 
HETATM   11  C12 UNL     1      -0.630   1.136  87.016  1.00  0.00     0.123 C 
HETATM   12  C13 UNL     1      -1.688   0.759  88.036  1.00  0.00     0.020 C 
HETATM   13  C14 UNL     1      -2.244   2.010  88.701  1.00  0.00     0.003 C 
HETATM   14  C15 UNL     1      -2.994   2.890  87.755  1.00  0.00     0.020 C 
HETATM   15  C16 UNL     1      -2.430   2.706  86.352  1.00  0.00     0.123 C 
ENDBRANCH   8  10
ENDBRANCH   5   7
ENDBRANCH   2   3
ENDBRANCH   1   2
BRANCH   1  16
HETATM   16  C3  UNL     1       0.599  -0.593  81.760  1.00  0.00     0.277 C 
HETATM   17  O3  UNL     1       0.830  -1.799  82.008  1.00  0.00    -0.263 OA
BRANCH  16  18
HETATM   18  C4  UNL     1       1.440   0.217  80.861  1.00  0.00     0.234 C 
BRANCH  18  19
HETATM   19  N1  UNL     1       2.310   1.140  81.530  1.00  0.00    -0.344 N 
HETATM   20  C5  UNL     1       2.360   2.508  81.175  1.00  0.00     0.309 C 
HETATM   21  O4  UNL     1       1.608   2.878  80.239  1.00  0.00    -0.262 OA
ATOM     22  H1  UNL     1       2.909   0.800  82.282  1.00  0.00     0.163 HD
BRANCH  20  23
HETATM   23  C6  UNL     1       3.244   3.409  81.876  1.00  0.00     0.311 C 
HETATM   24  O5  UNL     1       2.933   3.745  83.053  1.00  0.00    -0.262 OA
HETATM   25  N2  UNL     1       4.428   3.934  81.326  1.00  0.00    -0.340 N 
HETATM   26  C7  UNL     1       5.227   4.838  82.142  1.00  0.00     0.152 C 
HETATM   27  C10 UNL     1       4.818   3.569  79.984  1.00  0.00     0.152 C 
HETATM   28  C8  UNL     1       6.589   5.043  81.563  1.00  0.00     0.187 C 
HETATM   29  O6  UNL     1       6.393   5.394  80.210  1.00  0.00    -0.388 OA
HETATM   30  C9  UNL     1       6.144   4.183  79.564  1.00  0.00     0.187 C 
ENDBRANCH  20  23
ENDBRANCH  18  19
ENDBRANCH  16  18
ENDBRANCH   1  16
TORSDOF 8
ENDMDL
MODEL 3
REMARK VINA RESULT: -7.419007928      1.655      4.688
REMARK  8 active torsions:
REMARK  status: ('A' for Active; 'I' for Inactive)
REMARK    1  A    between atoms: C1_2  and  C2_3 
REMARK       I    between atoms: C1_2  and  N3_20 
REMARK    2  A    between atoms: C2_3  and  O2_4 
REMARK    3  A    between atoms: O2_4  and  C3_5 
REMARK    4  A    between atoms: C3_5  and  C4_7 
REMARK    5  A    between atoms: C4_7  and  N1_8 
REMARK       I    between atoms: N1_8  and  C5_10 
REMARK    6  A    between atoms: C5_10  and  C6_12 
REMARK       I    between atoms: C6_12  and  N2_14 
REMARK    7  A    between atoms: N3_20  and  N4_22 
REMARK    8  A    between atoms: C11_24  and  N5_25 
ROOT
HETATM    1  O2  UNL     1      -2.318   1.953  86.885  1.00  0.00    -0.311 OA
ENDROOT
BRANCH   1   2
HETATM    2  C2  UNL     1      -2.319   3.322  87.112  1.00  0.00     0.283 C 
BRANCH   2   3
HETATM    3  C1  UNL     1      -2.369   4.177  85.913  1.00  0.00     0.260 C 
HETATM    4  O1  UNL     1      -2.620   3.569  84.820  1.00  0.00    -0.269 OA
HETATM    5  N3  UNL     1      -2.159   5.574  85.950  1.00  0.00    -0.267 N 
ATOM      6  H3  UNL     1      -1.964   6.041  86.836  1.00  0.00     0.190 HD
BRANCH   5   7
HETATM    7  N4  UNL     1      -2.221   6.320  84.750  1.00  0.00    -0.294 N 
HETATM    8  C11 UNL     1      -1.124   6.674  84.157  1.00  0.00     0.195 C 
ATOM      9  H4  UNL     1      -3.124   6.578  84.353  1.00  0.00     0.187 HD
BRANCH   8  10
HETATM   10  N5  UNL     1       0.123   6.310  84.720  1.00  0.00    -0.376 N 
HETATM   11  C12 UNL     1       0.783   5.075  84.355  1.00  0.00     0.123 C 
HETATM   12  C13 UNL     1       2.273   5.351  84.404  1.00  0.00     0.020 C 
HETATM   13  C14 UNL     1       2.552   6.798  84.024  1.00  0.00     0.003 C 
HETATM   14  C15 UNL     1       2.000   7.777  85.008  1.00  0.00     0.020 C 
HETATM   15  C16 UNL     1       0.778   7.168  85.682  1.00  0.00     0.123 C 
ENDBRANCH   8  10
ENDBRANCH   5   7
ENDBRANCH   2   3
ENDBRANCH   1   2
BRANCH   1  16
HETATM   16  C3  UNL     1      -1.288   1.096  87.191  1.00  0.00     0.277 C 
HETATM   17  O3  UNL     1      -1.150   0.707  88.374  1.00  0.00    -0.263 OA
BRANCH  16  18
HETATM   18  C4  UNL     1      -0.391   0.675  86.099  1.00  0.00     0.234 C 
BRANCH  18  19
HETATM   19  N1  UNL     1      -0.451   1.501  84.928  1.00  0.00    -0.344 N 
HETATM   20  C5  UNL     1      -0.434   0.951  83.626  1.00  0.00     0.309 C 
HETATM   21  O4  UNL     1      -0.359  -0.301  83.540  1.00  0.00    -0.262 OA
ATOM     22  H1  UNL     1      -0.506   2.514  85.038  1.00  0.00     0.163 HD
BRANCH  20  23
HETATM   23  C6  UNL     1      -0.501   1.814  82.471  1.00  0.00     0.311 C 
HETATM   24  O5  UNL     1      -1.644   2.111  82.020  1.00  0.00    -0.262 OA
HETATM   25  N2  UNL     1       0.628   2.342  81.818  1.00  0.00    -0.340 N 
HETATM   26  C7  UNL     1       0.417   3.199  80.658  1.00  0.00     0.152 C 
HETATM   27  C10 UNL     1       1.950   2.028  82.306  1.00  0.00     0.152 C 
HETATM   28  C8  UNL     1       1.664   3.935  80.285  1.00  0.00     0.187 C 
HETATM   29  O6  UNL     1       2.683   2.963  80.196  1.00  0.00    -0.388 OA
HETATM   30  C9  UNL     1       3.053   2.719  81.519  1.00  0.00     0.187 C 
ENDBRANCH  20  23
ENDBRANCH  18  19
ENDBRANCH  16  18
ENDBRANCH   1  16
TORSDOF 8
ENDMDL
MODEL 4
REMARK VINA RESULT: -7.409176059      3.042      6.594
REMARK  8 active torsions:
REMARK  status: ('A' for Active; 'I' for Inactive)
REMARK    1  A    between atoms: C1_2  and  C2_3 
REMARK       I    between atoms: C1_2  and  N3_20 
REMARK    2  A    between atoms: C2_3  and  O2_4 
REMARK    3  A    between atoms: O2_4  and  C3_5 
REMARK    4  A    between atoms: C3_5  and  C4_7 
REMARK    5  A    between atoms: C4_7  and  N1_8 
REMARK       I    between atoms: N1_8  and  C5_10 
REMARK    6  A    between atoms: C5_10  and  C6_12 
REMARK       I    between atoms: C6_12  and  N2_14 
REMARK    7  A    between atoms: N3_20  and  N4_22 
REMARK    8  A    between atoms: C11_24  and  N5_25 
ROOT
HETATM    1  O2  UNL     1      -0.059   0.948  81.020  1.00  0.00    -0.311 OA
ENDROOT
BRANCH   1   2
HETATM    2  C2  UNL     1      -1.030   1.511  81.837  1.00  0.00     0.283 C 
BRANCH   2   3
HETATM    3  C1  UNL     1      -0.556   2.506  82.814  1.00  0.00     0.260 C 
HETATM    4  O1  UNL     1      -0.816   3.721  82.525  1.00  0.00    -0.269 OA
HETATM    5  N3  UNL     1       0.136   2.160  83.997  1.00  0.00    -0.267 N 
ATOM      6  H3  UNL     1       0.329   1.181  84.212  1.00  0.00     0.190 HD
BRANCH   5   7
HETATM    7  N4  UNL     1       0.560   3.179  84.880  1.00  0.00    -0.294 N 
HETATM    8  C11 UNL     1       0.001   3.293  86.045  1.00  0.00     0.195 C 
ATOM      9  H4  UNL     1       1.301   3.822  84.603  1.00  0.00     0.187 HD
BRANCH   8  10
HETATM   10  N5  UNL     1      -1.027   2.393  86.417  1.00  0.00    -0.376 N 
HETATM   11  C12 UNL     1      -0.727   1.056  86.879  1.00  0.00     0.123 C 
HETATM   12  C13 UNL     1      -1.787   0.706  87.906  1.00  0.00     0.020 C 
HETATM   13  C14 UNL     1      -2.230   1.959  88.649  1.00  0.00     0.003 C 
HETATM   14  C15 UNL     1      -2.931   2.942  87.769  1.00  0.00     0.020 C 
HETATM   15  C16 UNL     1      -2.416   2.790  86.345  1.00  0.00     0.123 C 
ENDBRANCH   8  10
ENDBRANCH   5   7
ENDBRANCH   2   3
ENDBRANCH   1   2
BRANCH   1  16
HETATM   16  C3  UNL     1       0.943   0.106  81.440  1.00  0.00     0.277 C 
HETATM   17  O3  UNL     1       0.664  -1.084  81.715  1.00  0.00    -0.263 OA
BRANCH  16  18
HETATM   18  C4  UNL     1       2.308   0.655  81.545  1.00  0.00     0.234 C 
BRANCH  18  19
HETATM   19  N1  UNL     1       2.489   1.926  80.906  1.00  0.00    -0.344 N 
HETATM   20  C5  UNL     1       2.819   3.089  81.640  1.00  0.00     0.309 C 
HETATM   21  O4  UNL     1       2.940   2.959  82.884  1.00  0.00    -0.262 OA
ATOM     22  H1  UNL     1       2.377   1.993  79.895  1.00  0.00     0.163 HD
BRANCH  20  23
HETATM   23  C6  UNL     1       2.998   4.350  80.961  1.00  0.00     0.311 C 
HETATM   24  O5  UNL     1       2.027   5.158  80.948  1.00  0.00    -0.262 OA
HETATM   25  N2  UNL     1       4.187   4.732  80.313  1.00  0.00    -0.340 N 
HETATM   26  C7  UNL     1       4.232   6.034  79.661  1.00  0.00     0.152 C 
HETATM   27  C10 UNL     1       5.320   3.836  80.309  1.00  0.00     0.152 C 
HETATM   28  C8  UNL     1       5.631   6.428  79.315  1.00  0.00     0.187 C 
HETATM   29  O6  UNL     1       6.187   5.334  78.616  1.00  0.00    -0.388 OA
HETATM   30  C9  UNL     1       6.538   4.422  79.611  1.00  0.00     0.187 C 
ENDBRANCH  20  23
ENDBRANCH  18  19
ENDBRANCH  16  18
ENDBRANCH   1  16
TORSDOF 8
ENDMDL
MODEL 5
REMARK VINA RESULT: -7.281779126      2.983      6.504
REMARK  8 active torsions:
REMARK  status: ('A' for Active; 'I' for Inactive)
REMARK    1  A    between atoms: C1_2  and  C2_3 
REMARK       I    between atoms: C1_2  and  N3_20 
REMARK    2  A    between atoms: C2_3  and  O2_4 
REMARK    3  A    between atoms: O2_4  and  C3_5 
REMARK    4  A    between atoms: C3_5  and  C4_7 
REMARK    5  A    between atoms: C4_7  and  N1_8 
REMARK       I    between atoms: N1_8  and  C5_10 
REMARK    6  A    between atoms: C5_10  and  C6_12 
REMARK       I    between atoms: C6_12  and  N2_14 
REMARK    7  A    between atoms: N3_20  and  N4_22 
REMARK    8  A    between atoms: C11_24  and  N5_25 
ROOT
HETATM    1  O2  UNL     1      -0.092   1.190  81.142  1.00  0.00    -0.311 OA
ENDROOT
BRANCH   1   2
HETATM    2  C2  UNL     1      -1.070   1.841  81.882  1.00  0.00     0.283 C 
BRANCH   2   3
HETATM    3  C1  UNL     1      -0.586   2.772  82.915  1.00  0.00     0.260 C 
HETATM    4  O1  UNL     1      -0.918   3.992  82.749  1.00  0.00    -0.269 OA
HETATM    5  N3  UNL     1       0.190   2.363  84.023  1.00  0.00    -0.267 N 
ATOM      6  H3  UNL     1       0.441   1.381  84.141  1.00  0.00     0.190 HD
BRANCH   5   7
HETATM    7  N4  UNL     1       0.618   3.324  84.969  1.00  0.00    -0.294 N 
HETATM    8  C11 UNL     1       0.064   3.362  86.140  1.00  0.00     0.195 C 
ATOM      9  H4  UNL     1       1.358   3.984  84.730  1.00  0.00     0.187 HD
BRANCH   8  10
HETATM   10  N5  UNL     1      -0.962   2.441  86.458  1.00  0.00    -0.376 N 
HETATM   11  C12 UNL     1      -0.658   1.100  86.908  1.00  0.00     0.123 C 
HETATM   12  C13 UNL     1      -1.749   0.715  87.889  1.00  0.00     0.020 C 
HETATM   13  C14 UNL     1      -2.239   1.947  88.636  1.00  0.00     0.003 C 
HETATM   14  C15 UNL     1      -2.923   2.935  87.749  1.00  0.00     0.020 C 
HETATM   15  C16 UNL     1      -2.354   2.817  86.342  1.00  0.00     0.123 C 
ENDBRANCH   8  10
ENDBRANCH   5   7
ENDBRANCH   2   3
ENDBRANCH   1   2
BRANCH   1  16
HETATM   16  C3  UNL     1       0.671   0.136  81.585  1.00  0.00     0.277 C 
HETATM   17  O3  UNL     1       0.111  -0.952  81.852  1.00  0.00    -0.263 OA
BRANCH  16  18
HETATM   18  C4  UNL     1       2.124   0.345  81.722  1.00  0.00     0.234 C 
BRANCH  18  19
HETATM   19  N1  UNL     1       2.643   1.441  80.956  1.00  0.00    -0.344 N 
HETATM   20  C5  UNL     1       3.038   2.654  81.565  1.00  0.00     0.309 C 
HETATM   21  O4  UNL     1       2.909   2.731  82.812  1.00  0.00    -0.262 OA
ATOM     22  H1  UNL     1       2.728   1.342  79.944  1.00  0.00     0.163 HD
BRANCH  20  23
HETATM   23  C6  UNL     1       3.561   3.734  80.761  1.00  0.00     0.311 C 
HETATM   24  O5  UNL     1       4.816   3.841  80.660  1.00  0.00    -0.262 OA
HETATM   25  N2  UNL     1       2.758   4.673  80.087  1.00  0.00    -0.340 N 
HETATM   26  C7  UNL     1       3.417   5.716  79.314  1.00  0.00     0.152 C 
HETATM   27  C10 UNL     1       1.320   4.580  80.177  1.00  0.00     0.152 C 
HETATM   28  C8  UNL     1       2.457   6.417  78.407  1.00  0.00     0.187 C 
HETATM   29  O6  UNL     1       1.363   6.800  79.212  1.00  0.00    -0.388 OA
HETATM   30  C9  UNL     1       0.605   5.638  79.351  1.00  0.00     0.187 C 
ENDBRANCH  20  23
ENDBRANCH  18  19
ENDBRANCH  16  18
ENDBRANCH   1  16
TORSDOF 8
ENDMDL
