MODEL 1
REMARK VINA RESULT: -8.103215325      0.000      0.000
REMARK  7 active torsions:
REMARK  status: ('A' for Active; 'I' for Inactive)
REMARK    1  A    between atoms: C1_2  and  C2_4 
REMARK    2  A    between atoms: C2_4  and  N1_5 
REMARK       I    between atoms: N1_5  and  C3_7 
REMARK    3  A    between atoms: C3_7  and  C4_9 
REMARK    4  A    between atoms: C4_9  and  C5_10 
REMARK    5  A    between atoms: C4_9  and  C10_17 
REMARK    6  A    between atoms: C5_10  and  N2_11 
REMARK       I    between atoms: C10_17  and  N3_19 
REMARK    7  A    between atoms: N4_22  and  C13_23 
ROOT
HETATM    1  C4  UNL     1      -0.050   2.876  84.889  1.00  0.00     0.198 C 
ENDROOT
BRANCH   1   2
HETATM    2  C3  UNL     1      -0.294   2.356  86.277  1.00  0.00     0.233 C 
HETATM    3  N1  UNL     1      -1.570   2.546  86.847  1.00  0.00    -0.350 N 
ATOM      4  H1  UNL     1      -2.295   3.028  86.316  1.00  0.00     0.163 HD
HETATM    5  O3  UNL     1       0.615   1.767  86.917  1.00  0.00    -0.273 OA
BRANCH   3   6
HETATM    6  C2  UNL     1      -1.855   2.061  88.176  1.00  0.00     0.235 C 
BRANCH   6   7
HETATM    7  C1  UNL     1      -2.585   0.788  88.120  1.00  0.00     0.191 C 
HETATM    8  O1  UNL     1      -3.829   0.685  87.895  1.00  0.00    -0.647 OA
HETATM    9  O2  UNL     1      -1.932  -0.436  88.316  1.00  0.00    -0.647 OA
ENDBRANCH   6   7
ENDBRANCH   3   6
ENDBRANCH   1   2
BRANCH   1  10
HETATM   10  C5  UNL     1      -0.321   1.763  83.927  1.00  0.00     0.296 C 
BRANCH  10  11
HETATM   11  N2  UNL     1      -0.032   2.076  82.565  1.00  0.00     0.093 N 
HETATM   12  C6  UNL     1       1.230   1.540  82.120  1.00  0.00     0.298 C 
HETATM   13  C7  UNL     1       1.129   0.068  81.818  1.00  0.00     0.198 C 
HETATM   14  O4  UNL     1      -0.167  -0.401  81.872  1.00  0.00    -0.388 OA
HETATM   15  C8  UNL     1      -0.962   0.374  81.024  1.00  0.00     0.198 C 
HETATM   16  C9  UNL     1      -1.097   1.739  81.682  1.00  0.00     0.298 C 
ENDBRANCH  10  11
ENDBRANCH   1  10
BRANCH   1  17
HETATM   17  C10 UNL     1      -1.009   4.010  84.690  1.00  0.00     0.236 C 
HETATM   18  O5  UNL     1      -2.208   3.714  84.419  1.00  0.00    -0.272 OA
HETATM   19  N3  UNL     1      -0.660   5.372  84.785  1.00  0.00    -0.324 N 
HETATM   20  C11 UNL     1       0.655   5.895  85.061  1.00  0.00     0.158 C 
HETATM   21  C18 UNL     1      -1.538   6.506  84.630  1.00  0.00     0.400 C 
HETATM   22  C12 UNL     1       0.384   7.217  85.744  1.00  0.00     0.294 C 
HETATM   23  N4  UNL     1      -1.005   7.537  85.479  1.00  0.00     0.112 N 
BRANCH  23  24
HETATM   24  C13 UNL     1      -1.155   8.850  84.888  1.00  0.00     0.225 C 
HETATM   25  C14 UNL     1      -1.598   8.814  83.461  1.00  0.00     0.036 C 
HETATM   26  C15 UNL     1      -0.961  10.026  82.812  1.00  0.00     0.002 C 
HETATM   27  C16 UNL     1       0.383  10.083  83.466  1.00  0.00     0.002 C 
HETATM   28  C17 UNL     1       0.149   9.607  84.868  1.00  0.00     0.036 C 
ENDBRANCH  23  24
ENDBRANCH   1  17
TORSDOF 7
ENDMDL
MODEL 2
REMARK VINA RESULT: -7.963801526      0.871      1.174
REMARK  7 active torsions:
REMARK  status: ('A' for Active; 'I' for Inactive)
REMARK    1  A    between atoms: C1_2  and  C2_4 
REMARK    2  A    between atoms: C2_4  and  N1_5 
REMARK       I    between atoms: N1_5  and  C3_7 
REMARK    3  A    between atoms: C3_7  and  C4_9 
REMARK    4  A    between atoms: C4_9  and  C5_10 
REMARK    5  A    between atoms: C4_9  and  C10_17 
REMARK    6  A    between atoms: C5_10  and  N2_11 
REMARK       I    between atoms: C10_17  and  N3_19 
REMARK    7  A    between atoms: N4_22  and  C13_23 
ROOT
HETATM    1  C4  UNL     1      -0.127   2.874  84.884  1.00  0.00     0.198 C 
ENDROOT
BRANCH   1   2
HETATM    2  C3  UNL     1      -0.342   2.365  86.281  1.00  0.00     0.233 C 
HETATM    3  N1  UNL     1      -1.610   2.545  86.870  1.00  0.00    -0.350 N 
ATOM      4  H1  UNL     1      -2.349   3.015  86.348  1.00  0.00     0.163 HD
HETATM    5  O3  UNL     1       0.584   1.792  86.910  1.00  0.00    -0.273 OA
BRANCH   3   6
HETATM    6  C2  UNL     1      -1.867   2.070  88.209  1.00  0.00     0.235 C 
BRANCH   6   7
HETATM    7  C1  UNL     1      -2.580   0.787  88.177  1.00  0.00     0.191 C 
HETATM    8  O1  UNL     1      -3.834   0.667  88.024  1.00  0.00    -0.647 OA
HETATM    9  O2  UNL     1      -1.899  -0.429  88.315  1.00  0.00    -0.647 OA
ENDBRANCH   6   7
ENDBRANCH   3   6
ENDBRANCH   1   2
BRANCH   1  10
HETATM   10  C5  UNL     1      -0.494   1.779  83.934  1.00  0.00     0.296 C 
BRANCH  10  11
HETATM   11  N2  UNL     1       0.358   1.675  82.793  1.00  0.00     0.093 N 
HETATM   12  C6  UNL     1      -0.134   0.745  81.807  1.00  0.00     0.298 C 
HETATM   13  C7  UNL     1      -1.246   1.347  80.989  1.00  0.00     0.198 C 
HETATM   14  O4  UNL     1      -1.435   2.688  81.247  1.00  0.00    -0.388 OA
HETATM   15  C8  UNL     1      -0.221   3.356  81.069  1.00  0.00     0.198 C 
HETATM   16  C9  UNL     1       0.678   2.939  82.224  1.00  0.00     0.298 C 
ENDBRANCH  10  11
ENDBRANCH   1  10
BRANCH   1  17
HETATM   17  C10 UNL     1      -1.032   4.056  84.724  1.00  0.00     0.236 C 
HETATM   18  O5  UNL     1      -2.247   3.825  84.461  1.00  0.00    -0.272 OA
HETATM   19  N3  UNL     1      -0.617   5.398  84.846  1.00  0.00    -0.324 N 
HETATM   20  C11 UNL     1       0.724   5.851  85.118  1.00  0.00     0.158 C 
HETATM   21  C18 UNL     1      -1.442   6.576  84.730  1.00  0.00     0.400 C 
HETATM   22  C12 UNL     1       0.524   7.168  85.835  1.00  0.00     0.294 C 
HETATM   23  N4  UNL     1      -0.850   7.560  85.596  1.00  0.00     0.112 N 
BRANCH  23  24
HETATM   24  C13 UNL     1      -0.944   8.893  85.038  1.00  0.00     0.225 C 
HETATM   25  C14 UNL     1      -1.579   8.929  83.686  1.00  0.00     0.036 C 
HETATM   26  C15 UNL     1      -0.916  10.083  82.961  1.00  0.00     0.002 C 
HETATM   27  C16 UNL     1       0.504   9.990  83.424  1.00  0.00     0.002 C 
HETATM   28  C17 UNL     1       0.416   9.513  84.843  1.00  0.00     0.036 C 
ENDBRANCH  23  24
ENDBRANCH   1  17
TORSDOF 7
ENDMDL
MODEL 3
REMARK VINA RESULT: -7.884780084      1.076      1.460
REMARK  7 active torsions:
REMARK  status: ('A' for Active; 'I' for Inactive)
REMARK    1  A    between atoms: C1_2  and  C2_4 
REMARK    2  A    between atoms: C2_4  and  N1_5 
REMARK       I    between atoms: N1_5  and  C3_7 
REMARK    3  A    between atoms: C3_7  and  C4_9 
REMARK    4  A    between atoms: C4_9  and  C5_10 
REMARK    5  A    between atoms: C4_9  and  C10_17 
REMARK    6  A    between atoms: C5_10  and  N2_11 
REMARK       I    between atoms: C10_17  and  N3_19 
REMARK    7  A    between atoms: N4_22  and  C13_23 
ROOT
HETATM    1  C4  UNL     1      -0.132   3.208  84.554  1.00  0.00     0.198 C 
ENDROOT
BRANCH   1   2
HETATM    2  C3  UNL     1      -0.438   2.776  85.960  1.00  0.00     0.233 C 
HETATM    3  N1  UNL     1      -1.777   2.821  86.397  1.00  0.00    -0.350 N 
ATOM      4  H1  UNL     1      -2.507   3.145  85.762  1.00  0.00     0.163 HD
HETATM    5  O3  UNL     1       0.477   2.384  86.730  1.00  0.00    -0.273 OA
BRANCH   3   6
HETATM    6  C2  UNL     1      -2.122   2.413  87.738  1.00  0.00     0.235 C 
BRANCH   6   7
HETATM    7  C1  UNL     1      -2.682   1.055  87.740  1.00  0.00     0.191 C 
HETATM    8  O1  UNL     1      -3.923   0.792  87.760  1.00  0.00    -0.647 OA
HETATM    9  O2  UNL     1      -1.854  -0.074  87.717  1.00  0.00    -0.647 OA
ENDBRANCH   6   7
ENDBRANCH   3   6
ENDBRANCH   1   2
BRANCH   1  10
HETATM   10  C5  UNL     1      -0.862   2.293  83.623  1.00  0.00     0.296 C 
BRANCH  10  11
HETATM   11  N2  UNL     1      -0.427   2.361  82.266  1.00  0.00     0.093 N 
HETATM   12  C6  UNL     1       0.948   1.959  82.095  1.00  0.00     0.298 C 
HETATM   13  C7  UNL     1       1.090   0.460  82.122  1.00  0.00     0.198 C 
HETATM   14  O4  UNL     1      -0.124  -0.193  82.138  1.00  0.00    -0.388 OA
HETATM   15  C8  UNL     1      -0.887   0.249  81.056  1.00  0.00     0.198 C 
HETATM   16  C9  UNL     1      -1.299   1.681  81.370  1.00  0.00     0.298 C 
ENDBRANCH  10  11
ENDBRANCH   1  10
BRANCH   1  17
HETATM   17  C10 UNL     1      -0.627   4.616  84.430  1.00  0.00     0.236 C 
HETATM   18  O5  UNL     1      -1.877   4.784  84.332  1.00  0.00    -0.272 OA
HETATM   19  N3  UNL     1       0.205   5.753  84.416  1.00  0.00    -0.324 N 
HETATM   20  C11 UNL     1       1.645   5.754  84.493  1.00  0.00     0.158 C 
HETATM   21  C18 UNL     1      -0.210   7.132  84.325  1.00  0.00     0.400 C 
HETATM   22  C12 UNL     1       1.972   7.080  85.144  1.00  0.00     0.294 C 
HETATM   23  N4  UNL     1       0.774   7.890  85.049  1.00  0.00     0.112 N 
BRANCH  23  24
HETATM   24  C13 UNL     1       1.034   9.170  84.422  1.00  0.00     0.225 C 
HETATM   25  C14 UNL     1       2.068   9.982  85.131  1.00  0.00     0.036 C 
HETATM   26  C15 UNL     1       1.663  11.426  84.913  1.00  0.00     0.002 C 
HETATM   27  C16 UNL     1       0.171  11.367  84.998  1.00  0.00     0.002 C 
HETATM   28  C17 UNL     1      -0.196  10.041  84.403  1.00  0.00     0.036 C 
ENDBRANCH  23  24
ENDBRANCH   1  17
TORSDOF 7
ENDMDL
MODEL 4
REMARK VINA RESULT: -7.854241676      1.620      4.830
REMARK  7 active torsions:
REMARK  status: ('A' for Active; 'I' for Inactive)
REMARK    1  A    between atoms: C1_2  and  C2_4 
REMARK    2  A    between atoms: C2_4  and  N1_5 
REMARK       I    between atoms: N1_5  and  C3_7 
REMARK    3  A    between atoms: C3_7  and  C4_9 
REMARK    4  A    between atoms: C4_9  and  C5_10 
REMARK    5  A    between atoms: C4_9  and  C10_17 
REMARK    6  A    between atoms: C5_10  and  N2_11 
REMARK       I    between atoms: C10_17  and  N3_19 
REMARK    7  A    between atoms: N4_22  and  C13_23 
ROOT
HETATM    1  C4  UNL     1      -1.149   2.891  84.455  1.00  0.00     0.198 C 
ENDROOT
BRANCH   1   2
HETATM    2  C3  UNL     1      -0.703   2.233  83.180  1.00  0.00     0.233 C 
HETATM    3  N1  UNL     1       0.338   1.285  83.245  1.00  0.00    -0.350 N 
ATOM      4  H1  UNL     1       0.770   1.067  84.143  1.00  0.00     0.163 HD
HETATM    5  O3  UNL     1      -1.245   2.519  82.081  1.00  0.00    -0.273 OA
BRANCH   3   6
HETATM    6  C2  UNL     1       0.799   0.624  82.047  1.00  0.00     0.235 C 
BRANCH   6   7
HETATM    7  C1  UNL     1       1.940   1.340  81.463  1.00  0.00     0.191 C 
HETATM    8  O1  UNL     1       2.139   1.475  80.218  1.00  0.00    -0.647 OA
HETATM    9  O2  UNL     1       2.914   1.940  82.272  1.00  0.00    -0.647 OA
ENDBRANCH   6   7
ENDBRANCH   3   6
ENDBRANCH   1   2
BRANCH   1  10
HETATM   10  C5  UNL     1      -1.081   1.870  85.547  1.00  0.00     0.296 C 
BRANCH  10  11
HETATM   11  N2  UNL     1      -1.341   2.383  86.853  1.00  0.00     0.093 N 
HETATM   12  C6  UNL     1      -2.722   2.750  87.049  1.00  0.00     0.298 C 
HETATM   13  C7  UNL     1      -3.583   1.539  87.295  1.00  0.00     0.198 C 
HETATM   14  O4  UNL     1      -2.849   0.381  87.440  1.00  0.00    -0.388 OA
HETATM   15  C8  UNL     1      -1.901   0.573  88.447  1.00  0.00     0.198 C 
HETATM   16  C9  UNL     1      -0.861   1.533  87.887  1.00  0.00     0.298 C 
ENDBRANCH  10  11
ENDBRANCH   1  10
BRANCH   1  17
HETATM   17  C10 UNL     1      -0.190   4.015  84.705  1.00  0.00     0.236 C 
HETATM   18  O5  UNL     1       1.030   3.715  84.846  1.00  0.00    -0.272 OA
HETATM   19  N3  UNL     1      -0.561   5.372  84.791  1.00  0.00    -0.324 N 
HETATM   20  C11 UNL     1      -1.901   5.895  84.679  1.00  0.00     0.158 C 
HETATM   21  C18 UNL     1       0.313   6.499  85.003  1.00  0.00     0.400 C 
HETATM   22  C12 UNL     1      -1.700   7.290  84.130  1.00  0.00     0.294 C 
HETATM   23  N4  UNL     1      -0.298   7.607  84.319  1.00  0.00     0.112 N 
BRANCH  23  24
HETATM   24  C13 UNL     1      -0.116   8.850  85.041  1.00  0.00     0.225 C 
HETATM   25  C14 UNL     1      -0.492  10.060  84.249  1.00  0.00     0.036 C 
HETATM   26  C15 UNL     1       0.435  11.158  84.730  1.00  0.00     0.002 C 
HETATM   27  C16 UNL     1       1.726  10.431  84.939  1.00  0.00     0.002 C 
HETATM   28  C17 UNL     1       1.327   9.068  85.420  1.00  0.00     0.036 C 
ENDBRANCH  23  24
ENDBRANCH   1  17
TORSDOF 7
ENDMDL
MODEL 5
REMARK VINA RESULT: -7.708048967      1.321      4.581
REMARK  7 active torsions:
REMARK  status: ('A' for Active; 'I' for Inactive)
REMARK    1  A    between atoms: C1_2  and  C2_4 
REMARK    2  A    between atoms: C2_4  and  N1_5 
REMARK       I    between atoms: N1_5  and  C3_7 
REMARK    3  A    between atoms: C3_7  and  C4_9 
REMARK    4  A    between atoms: C4_9  and  C5_10 
REMARK    5  A    between atoms: C4_9  and  C10_17 
REMARK    6  A    between atoms: C5_10  and  N2_11 
REMARK       I    between atoms: C10_17  and  N3_19 
REMARK    7  A    between atoms: N4_22  and  C13_23 
ROOT
HETATM    1  C4  UNL     1      -1.063   3.221  84.787  1.00  0.00     0.198 C 
ENDROOT
BRANCH   1   2
HETATM    2  C3  UNL     1      -0.598   2.711  83.453  1.00  0.00     0.233 C 
HETATM    3  N1  UNL     1       0.322   1.644  83.428  1.00  0.00    -0.350 N 
ATOM      4  H1  UNL     1       0.656   1.242  84.304  1.00  0.00     0.163 HD
HETATM    5  O3  UNL     1      -1.019   3.223  82.383  1.00  0.00    -0.273 OA
BRANCH   3   6
HETATM    6  C2  UNL     1       0.795   1.116  82.170  1.00  0.00     0.235 C 
BRANCH   6   7
HETATM    7  C1  UNL     1      -0.086   0.043  81.693  1.00  0.00     0.191 C 
HETATM    8  O1  UNL     1      -0.087  -1.140  82.150  1.00  0.00    -0.647 OA
HETATM    9  O2  UNL     1      -1.015   0.265  80.668  1.00  0.00    -0.647 OA
ENDBRANCH   6   7
ENDBRANCH   3   6
ENDBRANCH   1   2
BRANCH   1  10
HETATM   10  C5  UNL     1      -1.040   2.077  85.750  1.00  0.00     0.296 C 
BRANCH  10  11
HETATM   11  N2  UNL     1      -1.379   2.426  87.092  1.00  0.00     0.093 N 
HETATM   12  C6  UNL     1      -2.776   2.744  87.253  1.00  0.00     0.298 C 
HETATM   13  C7  UNL     1      -3.623   1.500  87.305  1.00  0.00     0.198 C 
HETATM   14  O4  UNL     1      -2.872   0.344  87.353  1.00  0.00    -0.388 OA
HETATM   15  C8  UNL     1      -1.983   0.429  88.426  1.00  0.00     0.198 C 
HETATM   16  C9  UNL     1      -0.936   1.464  88.042  1.00  0.00     0.298 C 
ENDBRANCH  10  11
ENDBRANCH   1  10
BRANCH   1  17
HETATM   17  C10 UNL     1      -0.091   4.288  85.190  1.00  0.00     0.236 C 
HETATM   18  O5  UNL     1       1.024   3.912  85.651  1.00  0.00    -0.272 OA
HETATM   19  N3  UNL     1      -0.342   5.671  85.089  1.00  0.00    -0.324 N 
HETATM   20  C11 UNL     1      -1.559   6.281  84.611  1.00  0.00     0.158 C 
HETATM   21  C18 UNL     1       0.557   6.745  85.434  1.00  0.00     0.400 C 
HETATM   22  C12 UNL     1      -1.100   7.603  84.036  1.00  0.00     0.294 C 
HETATM   23  N4  UNL     1       0.238   7.830  84.546  1.00  0.00     0.112 N 
BRANCH  23  24
HETATM   24  C13 UNL     1       0.356   9.114  85.204  1.00  0.00     0.225 C 
HETATM   25  C14 UNL     1      -0.307  10.228  84.461  1.00  0.00     0.036 C 
HETATM   26  C15 UNL     1       0.521  11.461  84.762  1.00  0.00     0.002 C 
HETATM   27  C16 UNL     1       1.918  10.925  84.771  1.00  0.00     0.002 C 
HETATM   28  C17 UNL     1       1.796   9.542  85.337  1.00  0.00     0.036 C 
ENDBRANCH  23  24
ENDBRANCH   1  17
TORSDOF 7
ENDMDL
