MODEL 1
REMARK VINA RESULT: -8.406228394      0.000      0.000
REMARK  7 active torsions:
REMARK  status: ('A' for Active; 'I' for Inactive)
REMARK    1  A    between atoms: C2_2  and  C3_3 
REMARK       I    between atoms: C3_3  and  N1_5 
REMARK    2  A    between atoms: N1_5  and  C4_7 
REMARK    3  A    between atoms: C4_7  and  C5_8 
REMARK    4  A    between atoms: C6_9  and  N2_10 
REMARK       I    between atoms: N3_19  and  C14_20 
REMARK       I    between atoms: C14_20  and  N4_22 
REMARK    5  A    between atoms: N4_22  and  C15_24 
REMARK    6  A    between atoms: C15_24  and  C16_25 
REMARK    7  A    between atoms: C16_25  and  C17_27 
ROOT
HETATM    1  C5  UNL     1       0.172   4.262  82.995  1.00  0.00     0.129 C 
HETATM    2  C6  UNL     1       0.243   5.732  82.729  1.00  0.00     0.111 C 
HETATM    3  C11 UNL     1       1.378   6.393  83.505  1.00  0.00     0.029 C 
HETATM    4  C12 UNL     1       0.989   6.242  84.983  1.00  0.00     0.022 C 
HETATM    5  C13 UNL     1       1.091   4.729  85.249  1.00  0.00     0.128 C 
HETATM    6  N3  UNL     1       0.054   4.133  84.452  1.00  0.00    -0.326 N 
HETATM    7  C14 UNL     1      -1.038   3.465  85.047  1.00  0.00     0.319 C 
HETATM    8  O3  UNL     1      -1.958   2.960  84.302  1.00  0.00    -0.247 OA
HETATM    9  N4  UNL     1      -1.229   3.288  86.440  1.00  0.00    -0.335 N 
ATOM     10  H4  UNL     1      -0.530   3.668  87.079  1.00  0.00     0.164 HD
ENDROOT
BRANCH   1  11
HETATM   11  C4  UNL     1       1.331   3.465  82.524  1.00  0.00     0.150 C 
BRANCH  11  12
HETATM   12  N1  UNL     1       1.147   2.036  82.759  1.00  0.00    -0.356 N 
HETATM   13  C3  UNL     1       1.208   1.159  81.630  1.00  0.00     0.240 C 
HETATM   14  O1  UNL     1       1.416   1.618  80.464  1.00  0.00    -0.269 OA
ATOM     15  H1  UNL     1       0.981   1.674  83.698  1.00  0.00     0.162 HD
BRANCH  13  16
HETATM   16  C2  UNL     1       1.039  -0.277  81.760  1.00  0.00     0.064 C 
HETATM   17  C1  UNL     1       0.012  -0.815  82.395  1.00  0.00     0.017 C 
ENDBRANCH  13  16
ENDBRANCH  11  12
ENDBRANCH   1  11
BRANCH   2  18
HETATM   18  N2  UNL     1       0.292   6.164  81.387  1.00  0.00    -0.345 N 
HETATM   19  C7  UNL     1       1.442   6.531  80.549  1.00  0.00     0.127 C 
HETATM   20  C8  UNL     1       0.852   7.579  79.601  1.00  0.00     0.029 C 
HETATM   21  C9  UNL     1      -0.501   6.998  79.325  1.00  0.00     0.104 C 
HETATM   22  C10 UNL     1      -0.866   6.336  80.569  1.00  0.00     0.220 C 
HETATM   23  O2  UNL     1      -2.063   5.980  80.842  1.00  0.00    -0.273 OA
ENDBRANCH   2  18
BRANCH   9  24
HETATM   24  C15 UNL     1      -2.363   2.598  86.995  1.00  0.00     0.214 C 
BRANCH  24  25
HETATM   25  C16 UNL     1      -2.044   1.174  87.176  1.00  0.00     0.242 C 
HETATM   26  O4  UNL     1      -2.886   0.408  87.693  1.00  0.00    -0.284 OA
BRANCH  25  27
HETATM   27  C17 UNL     1      -0.756   0.601  86.769  1.00  0.00     0.248 C 
HETATM   28  O5  UNL     1      -0.774  -0.402  85.997  1.00  0.00    -0.642 OA
HETATM   29  O6  UNL     1       0.439   1.114  87.197  1.00  0.00    -0.642 OA
ENDBRANCH  25  27
ENDBRANCH  24  25
ENDBRANCH   9  24
TORSDOF 7
ENDMDL
MODEL 2
REMARK VINA RESULT: -8.284943842      1.156      1.173
REMARK  7 active torsions:
REMARK  status: ('A' for Active; 'I' for Inactive)
REMARK    1  A    between atoms: C2_2  and  C3_3 
REMARK       I    between atoms: C3_3  and  N1_5 
REMARK    2  A    between atoms: N1_5  and  C4_7 
REMARK    3  A    between atoms: C4_7  and  C5_8 
REMARK    4  A    between atoms: C6_9  and  N2_10 
REMARK       I    between atoms: N3_19  and  C14_20 
REMARK       I    between atoms: C14_20  and  N4_22 
REMARK    5  A    between atoms: N4_22  and  C15_24 
REMARK    6  A    between atoms: C15_24  and  C16_25 
REMARK    7  A    between atoms: C16_25  and  C17_27 
ROOT
HETATM    1  C5  UNL     1      -0.420   4.897  83.145  1.00  0.00     0.129 C 
HETATM    2  C6  UNL     1      -0.241   6.382  83.175  1.00  0.00     0.111 C 
HETATM    3  C11 UNL     1       1.083   6.778  83.822  1.00  0.00     0.029 C 
HETATM    4  C12 UNL     1       0.958   6.331  85.286  1.00  0.00     0.022 C 
HETATM    5  C13 UNL     1       0.943   4.794  85.213  1.00  0.00     0.128 C 
HETATM    6  N3  UNL     1      -0.281   4.458  84.538  1.00  0.00    -0.326 N 
HETATM    7  C14 UNL     1      -1.312   3.749  85.195  1.00  0.00     0.319 C 
HETATM    8  O3  UNL     1      -2.403   3.484  84.565  1.00  0.00    -0.247 OA
HETATM    9  N4  UNL     1      -1.261   3.284  86.532  1.00  0.00    -0.335 N 
ATOM     10  H4  UNL     1      -0.419   3.466  87.079  1.00  0.00     0.164 HD
ENDROOT
BRANCH   1  11
HETATM   11  C4  UNL     1       0.538   4.148  82.298  1.00  0.00     0.150 C 
BRANCH  11  12
HETATM   12  N1  UNL     1      -0.071   2.971  81.686  1.00  0.00    -0.356 N 
HETATM   13  C3  UNL     1       0.131   1.706  82.324  1.00  0.00     0.240 C 
HETATM   14  O1  UNL     1       0.820   1.619  83.388  1.00  0.00    -0.269 OA
ATOM     15  H1  UNL     1      -0.623   3.048  80.832  1.00  0.00     0.162 HD
BRANCH  13  16
HETATM   16  C2  UNL     1      -0.434   0.477  81.795  1.00  0.00     0.064 C 
HETATM   17  C1  UNL     1       0.013  -0.716  82.146  1.00  0.00     0.017 C 
ENDBRANCH  13  16
ENDBRANCH  11  12
ENDBRANCH   1  11
BRANCH   2  18
HETATM   18  N2  UNL     1      -0.392   7.094  81.967  1.00  0.00    -0.345 N 
HETATM   19  C7  UNL     1       0.619   7.664  81.066  1.00  0.00     0.127 C 
HETATM   20  C8  UNL     1      -0.100   8.876  80.468  1.00  0.00     0.029 C 
HETATM   21  C9  UNL     1      -1.483   8.334  80.278  1.00  0.00     0.104 C 
HETATM   22  C10 UNL     1      -1.660   7.408  81.388  1.00  0.00     0.220 C 
HETATM   23  O2  UNL     1      -2.804   6.971  81.754  1.00  0.00    -0.273 OA
ENDBRANCH   2  18
BRANCH   9  24
HETATM   24  C15 UNL     1      -2.342   2.565  87.154  1.00  0.00     0.214 C 
BRANCH  24  25
HETATM   25  C16 UNL     1      -2.042   1.126  87.171  1.00  0.00     0.242 C 
HETATM   26  O4  UNL     1      -2.911   0.314  87.558  1.00  0.00    -0.284 OA
BRANCH  25  27
HETATM   27  C17 UNL     1      -0.745   0.589  86.745  1.00  0.00     0.248 C 
HETATM   28  O5  UNL     1      -0.743  -0.332  85.877  1.00  0.00    -0.642 OA
HETATM   29  O6  UNL     1       0.439   1.052  87.255  1.00  0.00    -0.642 OA
ENDBRANCH  25  27
ENDBRANCH  24  25
ENDBRANCH   9  24
TORSDOF 7
ENDMDL
MODEL 3
REMARK VINA RESULT: -8.029482098      2.051      2.748
REMARK  7 active torsions:
REMARK  status: ('A' for Active; 'I' for Inactive)
REMARK    1  A    between atoms: C2_2  and  C3_3 
REMARK       I    between atoms: C3_3  and  N1_5 
REMARK    2  A    between atoms: N1_5  and  C4_7 
REMARK    3  A    between atoms: C4_7  and  C5_8 
REMARK    4  A    between atoms: C6_9  and  N2_10 
REMARK       I    between atoms: N3_19  and  C14_20 
REMARK       I    between atoms: C14_20  and  N4_22 
REMARK    5  A    between atoms: N4_22  and  C15_24 
REMARK    6  A    between atoms: C15_24  and  C16_25 
REMARK    7  A    between atoms: C16_25  and  C17_27 
ROOT
HETATM    1  C5  UNL     1      -1.037   6.092  83.694  1.00  0.00     0.129 C 
HETATM    2  C6  UNL     1      -1.908   7.284  83.450  1.00  0.00     0.111 C 
HETATM    3  C11 UNL     1      -1.727   8.346  84.530  1.00  0.00     0.029 C 
HETATM    4  C12 UNL     1      -2.244   7.694  85.820  1.00  0.00     0.022 C 
HETATM    5  C13 UNL     1      -1.223   6.581  86.117  1.00  0.00     0.128 C 
HETATM    6  N3  UNL     1      -1.373   5.633  85.046  1.00  0.00    -0.326 N 
HETATM    7  C14 UNL     1      -1.838   4.321  85.286  1.00  0.00     0.319 C 
HETATM    8  O3  UNL     1      -1.979   3.506  84.300  1.00  0.00    -0.247 OA
HETATM    9  N4  UNL     1      -2.178   3.793  86.556  1.00  0.00    -0.335 N 
ATOM     10  H4  UNL     1      -2.086   4.395  87.374  1.00  0.00     0.164 HD
ENDROOT
BRANCH   1  11
HETATM   11  C4  UNL     1       0.423   6.331  83.606  1.00  0.00     0.150 C 
BRANCH  11  12
HETATM   12  N1  UNL     1       1.070   5.437  82.650  1.00  0.00    -0.356 N 
HETATM   13  C3  UNL     1       1.710   4.263  83.160  1.00  0.00     0.240 C 
HETATM   14  O1  UNL     1       1.711   4.015  84.406  1.00  0.00    -0.269 OA
ATOM     15  H1  UNL     1       1.066   5.643  81.651  1.00  0.00     0.162 HD
BRANCH  13  16
HETATM   16  C2  UNL     1       2.380   3.312  82.292  1.00  0.00     0.064 C 
HETATM   17  C1  UNL     1       1.907   2.097  82.074  1.00  0.00     0.017 C 
ENDBRANCH  13  16
ENDBRANCH  11  12
ENDBRANCH   1  11
BRANCH   2  18
HETATM   18  N2  UNL     1      -1.849   7.902  82.183  1.00  0.00    -0.345 N 
HETATM   19  C7  UNL     1      -1.601   9.304  81.820  1.00  0.00     0.127 C 
HETATM   20  C8  UNL     1      -2.401   9.468  80.525  1.00  0.00     0.029 C 
HETATM   21  C9  UNL     1      -2.147   8.154  79.853  1.00  0.00     0.104 C 
HETATM   22  C10 UNL     1      -2.049   7.204  80.953  1.00  0.00     0.220 C 
HETATM   23  O2  UNL     1      -2.136   5.939  80.790  1.00  0.00    -0.273 OA
ENDBRANCH   2  18
BRANCH   9  24
HETATM   24  C15 UNL     1      -2.649   2.445  86.744  1.00  0.00     0.214 C 
BRANCH  24  25
HETATM   25  C16 UNL     1      -1.660   1.673  87.512  1.00  0.00     0.242 C 
HETATM   26  O4  UNL     1      -1.712   1.666  88.762  1.00  0.00    -0.284 OA
BRANCH  25  27
HETATM   27  C17 UNL     1      -0.597   0.896  86.866  1.00  0.00     0.248 C 
HETATM   28  O5  UNL     1       0.592   1.315  86.976  1.00  0.00    -0.642 OA
HETATM   29  O6  UNL     1      -0.857  -0.249  86.161  1.00  0.00    -0.642 OA
ENDBRANCH  25  27
ENDBRANCH  24  25
ENDBRANCH   9  24
TORSDOF 7
ENDMDL
MODEL 4
REMARK VINA RESULT: -7.917850876      2.402      6.477
REMARK  7 active torsions:
REMARK  status: ('A' for Active; 'I' for Inactive)
REMARK    1  A    between atoms: C2_2  and  C3_3 
REMARK       I    between atoms: C3_3  and  N1_5 
REMARK    2  A    between atoms: N1_5  and  C4_7 
REMARK    3  A    between atoms: C4_7  and  C5_8 
REMARK    4  A    between atoms: C6_9  and  N2_10 
REMARK       I    between atoms: N3_19  and  C14_20 
REMARK       I    between atoms: C14_20  and  N4_22 
REMARK    5  A    between atoms: N4_22  and  C15_24 
REMARK    6  A    between atoms: C15_24  and  C16_25 
REMARK    7  A    between atoms: C16_25  and  C17_27 
ROOT
HETATM    1  C5  UNL     1      -0.260   3.231  84.359  1.00  0.00     0.129 C 
HETATM    2  C6  UNL     1      -0.823   3.715  85.658  1.00  0.00     0.111 C 
HETATM    3  C11 UNL     1      -1.839   4.835  85.450  1.00  0.00     0.029 C 
HETATM    4  C12 UNL     1      -1.029   6.004  84.871  1.00  0.00     0.022 C 
HETATM    5  C13 UNL     1      -0.612   5.519  83.471  1.00  0.00     0.128 C 
HETATM    6  N3  UNL     1       0.290   4.423  83.702  1.00  0.00    -0.326 N 
HETATM    7  C14 UNL     1       1.649   4.497  83.327  1.00  0.00     0.319 C 
HETATM    8  O3  UNL     1       2.431   3.504  83.568  1.00  0.00    -0.247 OA
HETATM    9  N4  UNL     1       2.261   5.602  82.685  1.00  0.00    -0.335 N 
ATOM     10  H4  UNL     1       1.688   6.419  82.469  1.00  0.00     0.164 HD
ENDROOT
BRANCH   1  11
HETATM   11  C4  UNL     1      -1.221   2.567  83.446  1.00  0.00     0.150 C 
BRANCH  11  12
HETATM   12  N1  UNL     1      -0.549   1.779  82.418  1.00  0.00    -0.356 N 
HETATM   13  C3  UNL     1      -0.220   0.421  82.725  1.00  0.00     0.240 C 
HETATM   14  O1  UNL     1      -0.507  -0.075  83.859  1.00  0.00    -0.269 OA
ATOM     15  H1  UNL     1      -0.321   2.183  81.510  1.00  0.00     0.162 HD
BRANCH  13  16
HETATM   16  C2  UNL     1       0.448  -0.445  81.771  1.00  0.00     0.064 C 
HETATM   17  C1  UNL     1       0.940  -1.625  82.108  1.00  0.00     0.017 C 
ENDBRANCH  13  16
ENDBRANCH  11  12
ENDBRANCH   1  11
BRANCH   2  18
HETATM   18  N2  UNL     1      -1.365   2.762  86.544  1.00  0.00    -0.345 N 
HETATM   19  C7  UNL     1      -2.753   2.548  86.977  1.00  0.00     0.127 C 
HETATM   20  C8  UNL     1      -2.587   1.994  88.395  1.00  0.00     0.029 C 
HETATM   21  C9  UNL     1      -1.395   1.102  88.225  1.00  0.00     0.104 C 
HETATM   22  C10 UNL     1      -0.582   1.780  87.225  1.00  0.00     0.220 C 
HETATM   23  O2  UNL     1       0.649   1.500  87.023  1.00  0.00    -0.273 OA
ENDBRANCH   2  18
BRANCH   9  24
HETATM   24  C15 UNL     1       3.654   5.627  82.323  1.00  0.00     0.214 C 
BRANCH  24  25
HETATM   25  C16 UNL     1       3.812   5.237  80.914  1.00  0.00     0.242 C 
HETATM   26  O4  UNL     1       3.502   6.042  80.008  1.00  0.00    -0.284 OA
BRANCH  25  27
HETATM   27  C17 UNL     1       4.328   3.923  80.515  1.00  0.00     0.248 C 
HETATM   28  O5  UNL     1       3.520   2.949  80.511  1.00  0.00    -0.642 OA
HETATM   29  O6  UNL     1       5.635   3.731  80.156  1.00  0.00    -0.642 OA
ENDBRANCH  25  27
ENDBRANCH  24  25
ENDBRANCH   9  24
TORSDOF 7
ENDMDL
MODEL 5
REMARK VINA RESULT: -7.878271843      2.341      6.462
REMARK  7 active torsions:
REMARK  status: ('A' for Active; 'I' for Inactive)
REMARK    1  A    between atoms: C2_2  and  C3_3 
REMARK       I    between atoms: C3_3  and  N1_5 
REMARK    2  A    between atoms: N1_5  and  C4_7 
REMARK    3  A    between atoms: C4_7  and  C5_8 
REMARK    4  A    between atoms: C6_9  and  N2_10 
REMARK       I    between atoms: N3_19  and  C14_20 
REMARK       I    between atoms: C14_20  and  N4_22 
REMARK    5  A    between atoms: N4_22  and  C15_24 
REMARK    6  A    between atoms: C15_24  and  C16_25 
REMARK    7  A    between atoms: C16_25  and  C17_27 
ROOT
HETATM    1  C5  UNL     1      -0.143   3.003  84.089  1.00  0.00     0.129 C 
HETATM    2  C6  UNL     1      -0.644   3.639  85.347  1.00  0.00     0.111 C 
HETATM    3  C11 UNL     1      -1.564   4.820  85.054  1.00  0.00     0.029 C 
HETATM    4  C12 UNL     1      -0.666   5.864  84.373  1.00  0.00     0.022 C 
HETATM    5  C13 UNL     1      -0.312   5.231  83.016  1.00  0.00     0.128 C 
HETATM    6  N3  UNL     1       0.497   4.084  83.331  1.00  0.00    -0.326 N 
HETATM    7  C14 UNL     1       1.851   4.010  82.940  1.00  0.00     0.319 C 
HETATM    8  O3  UNL     1       2.550   2.977  83.258  1.00  0.00    -0.247 OA
HETATM    9  N4  UNL     1       2.546   5.002  82.204  1.00  0.00    -0.335 N 
ATOM     10  H4  UNL     1       2.041   5.844  81.925  1.00  0.00     0.164 HD
ENDROOT
BRANCH   1  11
HETATM   11  C4  UNL     1      -1.170   2.351  83.242  1.00  0.00     0.150 C 
BRANCH  11  12
HETATM   12  N1  UNL     1      -0.579   1.460  82.248  1.00  0.00    -0.356 N 
HETATM   13  C3  UNL     1      -0.241   0.131  82.657  1.00  0.00     0.240 C 
HETATM   14  O1  UNL     1      -0.452  -0.253  83.850  1.00  0.00    -0.269 OA
ATOM     15  H1  UNL     1      -0.412   1.775  81.292  1.00  0.00     0.162 HD
BRANCH  13  16
HETATM   16  C2  UNL     1       0.350  -0.830  81.743  1.00  0.00     0.064 C 
HETATM   17  C1  UNL     1       0.991  -1.906  82.165  1.00  0.00     0.017 C 
ENDBRANCH  13  16
ENDBRANCH  11  12
ENDBRANCH   1  11
BRANCH   2  18
HETATM   18  N2  UNL     1      -1.252   2.812  86.314  1.00  0.00    -0.345 N 
HETATM   19  C7  UNL     1      -2.662   2.692  86.711  1.00  0.00     0.127 C 
HETATM   20  C8  UNL     1      -2.568   2.302  88.188  1.00  0.00     0.029 C 
HETATM   21  C9  UNL     1      -1.404   1.360  88.172  1.00  0.00     0.104 C 
HETATM   22  C10 UNL     1      -0.531   1.892  87.134  1.00  0.00     0.220 C 
HETATM   23  O2  UNL     1       0.696   1.553  87.017  1.00  0.00    -0.273 OA
ENDBRANCH   2  18
BRANCH   9  24
HETATM   24  C15 UNL     1       3.931   4.877  81.832  1.00  0.00     0.214 C 
BRANCH  24  25
HETATM   25  C16 UNL     1       4.039   4.202  80.529  1.00  0.00     0.242 C 
HETATM   26  O4  UNL     1       5.160   3.836  80.111  1.00  0.00    -0.284 OA
BRANCH  25  27
HETATM   27  C17 UNL     1       2.871   3.935  79.684  1.00  0.00     0.248 C 
HETATM   28  O5  UNL     1       2.487   4.851  78.900  1.00  0.00    -0.642 OA
HETATM   29  O6  UNL     1       2.201   2.741  79.723  1.00  0.00    -0.642 OA
ENDBRANCH  25  27
ENDBRANCH  24  25
ENDBRANCH   9  24
TORSDOF 7
ENDMDL
