MODEL 1
REMARK VINA RESULT: -8.086259320      0.000      0.000
REMARK  7 active torsions:
REMARK  status: ('A' for Active; 'I' for Inactive)
REMARK    1  A    between atoms: C1_2  and  C2_3 
REMARK    2  A    between atoms: C2_3  and  N1_4 
REMARK    3  A    between atoms: C2_3  and  C11_17 
REMARK       I    between atoms: N1_4  and  C3_6 
REMARK    4  A    between atoms: C3_6  and  C4_8 
REMARK    5  A    between atoms: C5_9  and  C6_10 
REMARK    6  A    between atoms: C14_21  and  N3_22 
REMARK       I    between atoms: N3_22  and  C15_24 
REMARK    7  A    between atoms: C15_24  and  C16_26 
ROOT
HETATM    1  C2  UNL     1       1.944   3.109  81.766  1.00  0.00     0.153 C 
ENDROOT
BRANCH   1   2
HETATM    2  C1  UNL     1       0.968   3.316  80.641  1.00  0.00     0.256 C 
HETATM    3  O1  UNL     1       1.330   3.677  79.554  1.00  0.00    -0.305 OA
ENDBRANCH   1   2
BRANCH   1   4
HETATM    4  N1  UNL     1       1.750   4.164  82.714  1.00  0.00    -0.346 N 
HETATM    5  C3  UNL     1       2.854   5.095  83.031  1.00  0.00     0.241 C 
HETATM    6  O2  UNL     1       3.896   4.862  82.414  1.00  0.00    -0.269 OA
ATOM      7  H1  UNL     1       0.845   4.274  83.174  1.00  0.00     0.163 HD
BRANCH   5   8
HETATM    8  C4  UNL     1       2.649   6.133  83.967  1.00  0.00     0.075 C 
HETATM    9  C5  UNL     1       1.748   6.771  84.580  1.00  0.00     0.018 C 
BRANCH   9  10
HETATM   10  C6  UNL     1       0.318   6.757  84.636  1.00  0.00    -0.021 A 
HETATM   11  C7  UNL     1      -0.324   6.555  85.883  1.00  0.00     0.014 A 
HETATM   12  C8  UNL     1      -1.680   6.544  85.992  1.00  0.00     0.018 A 
HETATM   13  C9  UNL     1      -2.503   6.725  84.923  1.00  0.00     0.087 A 
HETATM   14  N2  UNL     1      -1.924   6.916  83.741  1.00  0.00    -0.374 N 
HETATM   15  C10 UNL     1      -0.571   6.932  83.604  1.00  0.00     0.099 A 
ATOM     16  H2  UNL     1      -2.509   7.055  82.918  1.00  0.00     0.164 HD
ENDBRANCH   9  10
ENDBRANCH   5   8
ENDBRANCH   1   4
BRANCH   1  17
HETATM   17  C11 UNL     1       1.621   1.772  82.369  1.00  0.00     0.052 C 
HETATM   18  C12 UNL     1       1.511   0.628  81.387  1.00  0.00     0.090 C 
HETATM   19  C13 UNL     1       0.358   0.131  82.177  1.00  0.00     0.150 C 
HETATM   20  O3  UNL     1      -0.183  -0.936  82.342  1.00  0.00    -0.296 OA
HETATM   21  C14 UNL     1       0.160   1.514  82.673  1.00  0.00     0.161 C 
BRANCH  21  22
HETATM   22  N3  UNL     1      -0.181   1.612  84.079  1.00  0.00    -0.347 N 
HETATM   23  C15 UNL     1      -0.879   2.708  84.627  1.00  0.00     0.247 C 
HETATM   24  O4  UNL     1      -1.227   3.649  83.884  1.00  0.00    -0.271 OA
ATOM     25  H3  UNL     1       0.096   0.852  84.700  1.00  0.00     0.163 HD
BRANCH  23  26
HETATM   26  C16 UNL     1      -1.203   2.763  86.061  1.00  0.00     0.224 C 
HETATM   27  C17 UNL     1      -0.383   1.829  86.906  1.00  0.00     0.052 C 
HETATM   28  C18 UNL     1      -1.310   1.594  88.097  1.00  0.00     0.114 C 
HETATM   29  C19 UNL     1      -2.633   1.566  87.420  1.00  0.00     0.259 C 
HETATM   30  O5  UNL     1      -3.629   0.894  87.806  1.00  0.00    -0.265 OA
HETATM   31  O6  UNL     1      -2.548   2.397  86.320  1.00  0.00    -0.306 OA
ENDBRANCH  23  26
ENDBRANCH  21  22
ENDBRANCH   1  17
TORSDOF 7
ENDMDL
MODEL 2
REMARK VINA RESULT: -7.872355239      1.439      1.681
REMARK  7 active torsions:
REMARK  status: ('A' for Active; 'I' for Inactive)
REMARK    1  A    between atoms: C1_2  and  C2_3 
REMARK    2  A    between atoms: C2_3  and  N1_4 
REMARK    3  A    between atoms: C2_3  and  C11_17 
REMARK       I    between atoms: N1_4  and  C3_6 
REMARK    4  A    between atoms: C3_6  and  C4_8 
REMARK    5  A    between atoms: C5_9  and  C6_10 
REMARK    6  A    between atoms: C14_21  and  N3_22 
REMARK       I    between atoms: N3_22  and  C15_24 
REMARK    7  A    between atoms: C15_24  and  C16_26 
ROOT
HETATM    1  C2  UNL     1       1.885   2.860  81.581  1.00  0.00     0.153 C 
ENDROOT
BRANCH   1   2
HETATM    2  C1  UNL     1       2.475   2.558  80.231  1.00  0.00     0.256 C 
HETATM    3  O1  UNL     1       2.212   3.224  79.267  1.00  0.00    -0.305 OA
ENDBRANCH   1   2
BRANCH   1   4
HETATM    4  N1  UNL     1       0.683   3.611  81.375  1.00  0.00    -0.346 N 
HETATM    5  C3  UNL     1       0.644   5.056  81.688  1.00  0.00     0.241 C 
HETATM    6  O2  UNL     1       1.709   5.501  82.122  1.00  0.00    -0.269 OA
ATOM      7  H1  UNL     1      -0.150   3.148  81.010  1.00  0.00     0.163 HD
BRANCH   5   8
HETATM    8  C4  UNL     1      -0.547   5.787  81.480  1.00  0.00     0.075 C 
HETATM    9  C5  UNL     1      -1.341   6.594  82.037  1.00  0.00     0.018 C 
BRANCH   9  10
HETATM   10  C6  UNL     1      -1.441   7.246  83.307  1.00  0.00    -0.021 A 
HETATM   11  C7  UNL     1      -2.368   6.760  84.263  1.00  0.00     0.014 A 
HETATM   12  C8  UNL     1      -2.494   7.336  85.490  1.00  0.00     0.018 A 
HETATM   13  C9  UNL     1      -1.746   8.406  85.877  1.00  0.00     0.087 A 
HETATM   14  N2  UNL     1      -0.868   8.880  84.998  1.00  0.00    -0.374 N 
HETATM   15  C10 UNL     1      -0.722   8.322  83.765  1.00  0.00     0.099 A 
ATOM     16  H2  UNL     1      -0.291   9.680  85.253  1.00  0.00     0.164 HD
ENDBRANCH   9  10
ENDBRANCH   5   8
ENDBRANCH   1   4
BRANCH   1  17
HETATM   17  C11 UNL     1       1.592   1.535  82.224  1.00  0.00     0.052 C 
HETATM   18  C12 UNL     1       1.419   0.376  81.270  1.00  0.00     0.090 C 
HETATM   19  C13 UNL     1       0.312  -0.102  82.134  1.00  0.00     0.150 C 
HETATM   20  O3  UNL     1      -0.223  -1.163  82.350  1.00  0.00    -0.296 OA
HETATM   21  C14 UNL     1       0.150   1.290  82.618  1.00  0.00     0.161 C 
BRANCH  21  22
HETATM   22  N3  UNL     1      -0.108   1.414  84.039  1.00  0.00    -0.347 N 
HETATM   23  C15 UNL     1      -0.904   2.439  84.591  1.00  0.00     0.247 C 
HETATM   24  O4  UNL     1      -1.418   3.291  83.837  1.00  0.00    -0.271 OA
ATOM     25  H3  UNL     1       0.304   0.726  84.669  1.00  0.00     0.163 HD
BRANCH  23  26
HETATM   26  C16 UNL     1      -1.138   2.524  86.041  1.00  0.00     0.224 C 
HETATM   27  C17 UNL     1      -0.386   1.496  86.839  1.00  0.00     0.052 C 
HETATM   28  C18 UNL     1      -1.265   1.364  88.081  1.00  0.00     0.114 C 
HETATM   29  C19 UNL     1      -2.618   1.494  87.480  1.00  0.00     0.259 C 
HETATM   30  O5  UNL     1      -3.662   0.941  87.923  1.00  0.00    -0.265 OA
HETATM   31  O6  UNL     1      -2.500   2.316  86.376  1.00  0.00    -0.306 OA
ENDBRANCH  23  26
ENDBRANCH  21  22
ENDBRANCH   1  17
TORSDOF 7
ENDMDL
MODEL 3
REMARK VINA RESULT: -7.751787134      2.503      5.129
REMARK  7 active torsions:
REMARK  status: ('A' for Active; 'I' for Inactive)
REMARK    1  A    between atoms: C1_2  and  C2_3 
REMARK    2  A    between atoms: C2_3  and  N1_4 
REMARK    3  A    between atoms: C2_3  and  C11_17 
REMARK       I    between atoms: N1_4  and  C3_6 
REMARK    4  A    between atoms: C3_6  and  C4_8 
REMARK    5  A    between atoms: C5_9  and  C6_10 
REMARK    6  A    between atoms: C14_21  and  N3_22 
REMARK       I    between atoms: N3_22  and  C15_24 
REMARK    7  A    between atoms: C15_24  and  C16_26 
ROOT
HETATM    1  C2  UNL     1       2.841   4.896  83.195  1.00  0.00     0.153 C 
ENDROOT
BRANCH   1   2
HETATM    2  C1  UNL     1       3.197   6.306  82.814  1.00  0.00     0.256 C 
HETATM    3  O1  UNL     1       3.238   7.186  83.631  1.00  0.00    -0.305 OA
ENDBRANCH   1   2
BRANCH   1   4
HETATM    4  N1  UNL     1       1.418   4.825  83.332  1.00  0.00    -0.346 N 
HETATM    5  C3  UNL     1       0.810   4.447  84.625  1.00  0.00     0.241 C 
HETATM    6  O2  UNL     1       1.633   4.214  85.514  1.00  0.00    -0.269 OA
ATOM      7  H1  UNL     1       0.819   5.037  82.532  1.00  0.00     0.163 HD
BRANCH   5   8
HETATM    8  C4  UNL     1      -0.596   4.382  84.747  1.00  0.00     0.075 C 
HETATM    9  C5  UNL     1      -1.527   3.747  85.316  1.00  0.00     0.018 C 
BRANCH   9  10
HETATM   10  C6  UNL     1      -1.632   2.646  86.225  1.00  0.00    -0.021 A 
HETATM   11  C7  UNL     1      -2.730   2.591  87.120  1.00  0.00     0.014 A 
HETATM   12  C8  UNL     1      -2.882   1.561  87.997  1.00  0.00     0.018 A 
HETATM   13  C9  UNL     1      -2.001   0.525  88.072  1.00  0.00     0.087 A 
HETATM   14  N2  UNL     1      -0.963   0.555  87.241  1.00  0.00    -0.374 N 
HETATM   15  C10 UNL     1      -0.786   1.572  86.355  1.00  0.00     0.099 A 
ATOM     16  H2  UNL     1      -0.282  -0.203  87.270  1.00  0.00     0.164 HD
ENDBRANCH   9  10
ENDBRANCH   5   8
ENDBRANCH   1   4
BRANCH   1  17
HETATM   17  C11 UNL     1       3.323   4.018  82.077  1.00  0.00     0.052 C 
HETATM   18  C12 UNL     1       4.061   4.729  80.966  1.00  0.00     0.090 C 
HETATM   19  C13 UNL     1       3.358   3.847  80.004  1.00  0.00     0.150 C 
HETATM   20  O3  UNL     1       3.562   3.453  78.881  1.00  0.00    -0.296 OA
HETATM   21  C14 UNL     1       2.297   3.659  81.022  1.00  0.00     0.161 C 
BRANCH  21  22
HETATM   22  N3  UNL     1       1.786   2.306  81.125  1.00  0.00    -0.347 N 
HETATM   23  C15 UNL     1       0.430   2.013  81.379  1.00  0.00     0.247 C 
HETATM   24  O4  UNL     1      -0.385   2.948  81.527  1.00  0.00    -0.271 OA
ATOM     25  H3  UNL     1       2.437   1.531  81.008  1.00  0.00     0.163 HD
BRANCH  23  26
HETATM   26  C16 UNL     1      -0.043   0.623  81.475  1.00  0.00     0.224 C 
HETATM   27  C17 UNL     1      -0.406   0.199  82.871  1.00  0.00     0.052 C 
HETATM   28  C18 UNL     1      -0.198  -1.313  82.799  1.00  0.00     0.114 C 
HETATM   29  C19 UNL     1       0.997  -1.388  81.918  1.00  0.00     0.259 C 
HETATM   30  O5  UNL     1       1.880  -2.289  81.972  1.00  0.00    -0.265 OA
HETATM   31  O6  UNL     1       0.943  -0.308  81.060  1.00  0.00    -0.306 OA
ENDBRANCH  23  26
ENDBRANCH  21  22
ENDBRANCH   1  17
TORSDOF 7
ENDMDL
MODEL 4
REMARK VINA RESULT: -7.567116178      2.188      5.490
REMARK  7 active torsions:
REMARK  status: ('A' for Active; 'I' for Inactive)
REMARK    1  A    between atoms: C1_2  and  C2_3 
REMARK    2  A    between atoms: C2_3  and  N1_4 
REMARK    3  A    between atoms: C2_3  and  C11_17 
REMARK       I    between atoms: N1_4  and  C3_6 
REMARK    4  A    between atoms: C3_6  and  C4_8 
REMARK    5  A    between atoms: C5_9  and  C6_10 
REMARK    6  A    between atoms: C14_21  and  N3_22 
REMARK       I    between atoms: N3_22  and  C15_24 
REMARK    7  A    between atoms: C15_24  and  C16_26 
ROOT
HETATM    1  C2  UNL     1       2.085   6.728  84.867  1.00  0.00     0.153 C 
ENDROOT
BRANCH   1   2
HETATM    2  C1  UNL     1       2.277   8.214  84.983  1.00  0.00     0.256 C 
HETATM    3  O1  UNL     1       2.501   8.739  86.040  1.00  0.00    -0.305 OA
ENDBRANCH   1   2
BRANCH   1   4
HETATM    4  N1  UNL     1       0.683   6.457  84.981  1.00  0.00    -0.346 N 
HETATM    5  C3  UNL     1       0.214   5.132  85.439  1.00  0.00     0.241 C 
HETATM    6  O2  UNL     1       1.125   4.341  85.694  1.00  0.00    -0.269 OA
ATOM      7  H1  UNL     1       0.005   7.183  84.745  1.00  0.00     0.163 HD
BRANCH   5   8
HETATM    8  C4  UNL     1      -1.172   4.878  85.549  1.00  0.00     0.075 C 
HETATM    9  C5  UNL     1      -2.008   4.040  85.984  1.00  0.00     0.018 C 
BRANCH   9  10
HETATM   10  C6  UNL     1      -1.962   2.780  86.661  1.00  0.00    -0.021 A 
HETATM   11  C7  UNL     1      -3.066   2.382  87.457  1.00  0.00     0.014 A 
HETATM   12  C8  UNL     1      -3.077   1.189  88.113  1.00  0.00     0.018 A 
HETATM   13  C9  UNL     1      -2.041   0.307  88.049  1.00  0.00     0.087 A 
HETATM   14  N2  UNL     1      -0.994   0.658  87.308  1.00  0.00    -0.374 N 
HETATM   15  C10 UNL     1      -0.957   1.844  86.641  1.00  0.00     0.099 A 
ATOM     16  H2  UNL     1      -0.200   0.023  87.237  1.00  0.00     0.164 HD
ENDBRANCH   9  10
ENDBRANCH   5   8
ENDBRANCH   1   4
BRANCH   1  17
HETATM   17  C11 UNL     1       2.605   6.335  83.515  1.00  0.00     0.052 C 
HETATM   18  C12 UNL     1       2.811   7.474  82.544  1.00  0.00     0.090 C 
HETATM   19  C13 UNL     1       2.279   6.592  81.477  1.00  0.00     0.150 C 
HETATM   20  O3  UNL     1       2.376   6.531  80.274  1.00  0.00    -0.296 OA
HETATM   21  C14 UNL     1       1.576   5.820  82.529  1.00  0.00     0.161 C 
BRANCH  21  22
HETATM   22  N3  UNL     1       1.597   4.382  82.344  1.00  0.00    -0.347 N 
HETATM   23  C15 UNL     1       0.430   3.614  82.148  1.00  0.00     0.247 C 
HETATM   24  O4  UNL     1      -0.683   4.180  82.131  1.00  0.00    -0.271 OA
ATOM     25  H3  UNL     1       2.497   3.904  82.356  1.00  0.00     0.163 HD
BRANCH  23  26
HETATM   26  C16 UNL     1       0.501   2.157  81.964  1.00  0.00     0.224 C 
HETATM   27  C17 UNL     1      -0.717   1.566  81.311  1.00  0.00     0.052 C 
HETATM   28  C18 UNL     1      -0.687   0.133  81.836  1.00  0.00     0.114 C 
HETATM   29  C19 UNL     1      -0.199   0.354  83.223  1.00  0.00     0.259 C 
HETATM   30  O5  UNL     1      -0.499  -0.362  84.218  1.00  0.00    -0.265 OA
HETATM   31  O6  UNL     1       0.619   1.466  83.197  1.00  0.00    -0.306 OA
ENDBRANCH  23  26
ENDBRANCH  21  22
ENDBRANCH   1  17
TORSDOF 7
ENDMDL
MODEL 5
REMARK VINA RESULT: -7.552489102      2.448      5.540
REMARK  7 active torsions:
REMARK  status: ('A' for Active; 'I' for Inactive)
REMARK    1  A    between atoms: C1_2  and  C2_3 
REMARK    2  A    between atoms: C2_3  and  N1_4 
REMARK    3  A    between atoms: C2_3  and  C11_17 
REMARK       I    between atoms: N1_4  and  C3_6 
REMARK    4  A    between atoms: C3_6  and  C4_8 
REMARK    5  A    between atoms: C5_9  and  C6_10 
REMARK    6  A    between atoms: C14_21  and  N3_22 
REMARK       I    between atoms: N3_22  and  C15_24 
REMARK    7  A    between atoms: C15_24  and  C16_26 
ROOT
HETATM    1  C2  UNL     1      -1.817   7.930  82.698  1.00  0.00     0.153 C 
ENDROOT
BRANCH   1   2
HETATM    2  C1  UNL     1      -1.335   9.332  82.445  1.00  0.00     0.256 C 
HETATM    3  O1  UNL     1      -1.959  10.097  81.760  1.00  0.00    -0.305 OA
ENDBRANCH   1   2
BRANCH   1   4
HETATM    4  N1  UNL     1      -0.849   7.029  82.149  1.00  0.00    -0.346 N 
HETATM    5  C3  UNL     1      -1.188   6.191  80.979  1.00  0.00     0.241 C 
HETATM    6  O2  UNL     1      -2.338   6.356  80.564  1.00  0.00    -0.269 OA
ATOM      7  H1  UNL     1       0.080   6.965  82.566  1.00  0.00     0.163 HD
BRANCH   5   8
HETATM    8  C4  UNL     1      -0.224   5.307  80.446  1.00  0.00     0.075 C 
HETATM    9  C5  UNL     1       0.294   4.168  80.610  1.00  0.00     0.018 C 
BRANCH   9  10
HETATM   10  C6  UNL     1       0.145   3.079  81.526  1.00  0.00    -0.021 A 
HETATM   11  C7  UNL     1      -0.711   2.001  81.188  1.00  0.00     0.014 A 
HETATM   12  C8  UNL     1      -0.879   0.937  82.019  1.00  0.00     0.018 A 
HETATM   13  C9  UNL     1      -0.243   0.836  83.218  1.00  0.00     0.087 A 
HETATM   14  N2  UNL     1       0.567   1.834  83.558  1.00  0.00    -0.374 N 
HETATM   15  C10 UNL     1       0.753   2.910  82.746  1.00  0.00     0.099 A 
ATOM     16  H2  UNL     1       1.060   1.793  84.450  1.00  0.00     0.164 HD
ENDBRANCH   9  10
ENDBRANCH   5   8
ENDBRANCH   1   4
BRANCH   1  17
HETATM   17  C11 UNL     1      -1.917   7.776  84.188  1.00  0.00     0.052 C 
HETATM   18  C12 UNL     1      -1.069   8.730  84.997  1.00  0.00     0.090 C 
HETATM   19  C13 UNL     1      -0.772   7.604  85.915  1.00  0.00     0.150 C 
HETATM   20  O3  UNL     1      -0.429   7.494  87.068  1.00  0.00    -0.296 OA
HETATM   21  C14 UNL     1      -1.078   6.675  84.802  1.00  0.00     0.161 C 
BRANCH  21  22
HETATM   22  N3  UNL     1      -1.830   5.496  85.183  1.00  0.00    -0.347 N 
HETATM   23  C15 UNL     1      -1.221   4.306  85.634  1.00  0.00     0.247 C 
HETATM   24  O4  UNL     1       0.024   4.245  85.714  1.00  0.00    -0.271 OA
ATOM     25  H3  UNL     1      -2.847   5.528  85.124  1.00  0.00     0.163 HD
BRANCH  23  26
HETATM   26  C16 UNL     1      -2.026   3.134  86.011  1.00  0.00     0.224 C 
HETATM   27  C17 UNL     1      -2.802   3.314  87.286  1.00  0.00     0.052 C 
HETATM   28  C18 UNL     1      -2.958   1.871  87.761  1.00  0.00     0.114 C 
HETATM   29  C19 UNL     1      -1.644   1.303  87.361  1.00  0.00     0.259 C 
HETATM   30  O5  UNL     1      -1.046   0.369  87.964  1.00  0.00    -0.265 OA
HETATM   31  O6  UNL     1      -1.228   1.984  86.234  1.00  0.00    -0.306 OA
ENDBRANCH  23  26
ENDBRANCH  21  22
ENDBRANCH   1  17
TORSDOF 7
ENDMDL
