MODEL 1
REMARK VINA RESULT: -7.783399383      0.000      0.000
REMARK  4 active torsions:
REMARK  status: ('A' for Active; 'I' for Inactive)
REMARK    1  A    between atoms: C1_2  and  C2_3 
REMARK       I    between atoms: C1_2  and  N1_8 
REMARK    2  A    between atoms: C8_11  and  O3_12 
REMARK    3  A    between atoms: C8_11  and  C9_14 
REMARK    4  A    between atoms: C9_14  and  N2_15 
ROOT
HETATM    1  O1  UNL     1      16.890  -0.410  15.401  1.00  0.00    -0.270 OA
HETATM    2  C1  UNL     1      16.817   0.867  15.472  1.00  0.00     0.248 C 
HETATM    3  N1  UNL     1      17.011   1.636  14.312  1.00  0.00    -0.347 N 
HETATM    4  C6  UNL     1      16.938   3.065  14.169  1.00  0.00     0.129 C 
HETATM    5  C7  UNL     1      18.111   3.305  13.204  1.00  0.00     0.065 C 
HETATM    6  C8  UNL     1      17.630   2.278  12.117  1.00  0.00     0.107 C 
HETATM    7  C17 UNL     1      17.347   1.114  12.976  1.00  0.00     0.169 C 
ENDROOT
BRANCH   6   8
HETATM    8  O3  UNL     1      16.444   2.869  11.671  1.00  0.00    -0.383 OA
ATOM      9  H3  UNL     1      15.790   2.260  11.995  1.00  0.00     0.211 HD
ENDBRANCH   6   8
BRANCH   6  10
HETATM   10  C9  UNL     1      18.659   2.162  11.059  1.00  0.00     0.102 C 
BRANCH  10  11
HETATM   11  N2  UNL     1      19.298   3.364  10.743  1.00  0.00    -0.371 N 
HETATM   12  C10 UNL     1      18.938   4.171   9.668  1.00  0.00     0.064 C 
HETATM   13  C11 UNL     1      19.806   3.887   8.441  1.00  0.00     0.057 C 
HETATM   14  C12 UNL     1      21.230   4.126   8.819  1.00  0.00     0.013 C 
HETATM   15  C13 UNL     1      21.609   3.210   9.937  1.00  0.00     0.033 C 
HETATM   16  C15 UNL     1      22.210   4.179   7.668  1.00  0.00     0.243 C 
HETATM   17  C16 UNL     1      21.631   5.561   9.023  1.00  0.00     0.243 C 
HETATM   18  C14 UNL     1      20.695   3.427  11.120  1.00  0.00     0.128 C 
HETATM   19  N3  UNL     1      22.893   5.274   8.328  1.00  0.00    -0.074 N 
ATOM     20  H32 UNL     1      23.757   5.119   8.848  1.00  0.00     0.277 HD
ATOM     21  H31 UNL     1      23.373   5.996   7.790  1.00  0.00     0.277 HD
ENDBRANCH  10  11
ENDBRANCH   6  10
BRANCH   2  22
HETATM   22  C2  UNL     1      16.530   1.414  16.802  1.00  0.00     0.213 C 
HETATM   23  C3  UNL     1      15.643   0.455  17.576  1.00  0.00     0.043 C 
HETATM   24  C4  UNL     1      14.252   0.980  17.266  1.00  0.00     0.029 C 
HETATM   25  C5  UNL     1      14.497   2.395  16.870  1.00  0.00     0.168 C 
HETATM   26  O2  UNL     1      15.840   2.592  16.766  1.00  0.00    -0.376 OA
ENDBRANCH   2  22
TORSDOF 4
ENDMDL
MODEL 2
REMARK VINA RESULT: -7.250632760      1.306      1.523
REMARK  4 active torsions:
REMARK  status: ('A' for Active; 'I' for Inactive)
REMARK    1  A    between atoms: C1_2  and  C2_3 
REMARK       I    between atoms: C1_2  and  N1_8 
REMARK    2  A    between atoms: C8_11  and  O3_12 
REMARK    3  A    between atoms: C8_11  and  C9_14 
REMARK    4  A    between atoms: C9_14  and  N2_15 
ROOT
HETATM    1  O1  UNL     1      17.852   0.552  16.096  1.00  0.00    -0.270 OA
HETATM    2  C1  UNL     1      17.038   1.522  15.904  1.00  0.00     0.248 C 
HETATM    3  N1  UNL     1      16.843   2.013  14.601  1.00  0.00    -0.347 N 
HETATM    4  C6  UNL     1      15.958   3.060  14.168  1.00  0.00     0.129 C 
HETATM    5  C7  UNL     1      16.845   3.754  13.121  1.00  0.00     0.065 C 
HETATM    6  C8  UNL     1      17.155   2.455  12.295  1.00  0.00     0.107 C 
HETATM    7  C17 UNL     1      17.536   1.544  13.388  1.00  0.00     0.169 C 
ENDROOT
BRANCH   6   8
HETATM    8  O3  UNL     1      15.893   2.129  11.791  1.00  0.00    -0.383 OA
ATOM      9  H3  UNL     1      16.033   1.244  11.476  1.00  0.00     0.211 HD
ENDBRANCH   6   8
BRANCH   6  10
HETATM   10  C9  UNL     1      18.143   2.768  11.238  1.00  0.00     0.102 C 
BRANCH  10  11
HETATM   11  N2  UNL     1      19.424   3.059  11.715  1.00  0.00    -0.371 N 
HETATM   12  C10 UNL     1      19.810   4.315  12.177  1.00  0.00     0.064 C 
HETATM   13  C11 UNL     1      20.503   5.125  11.080  1.00  0.00     0.057 C 
HETATM   14  C12 UNL     1      21.692   4.350  10.618  1.00  0.00     0.013 C 
HETATM   15  C13 UNL     1      21.249   3.031  10.076  1.00  0.00     0.033 C 
HETATM   16  C15 UNL     1      22.668   5.112   9.747  1.00  0.00     0.243 C 
HETATM   17  C16 UNL     1      22.849   4.276  11.577  1.00  0.00     0.243 C 
HETATM   18  C14 UNL     1      20.486   2.265  11.131  1.00  0.00     0.128 C 
HETATM   19  N3  UNL     1      23.762   4.462  10.441  1.00  0.00    -0.074 N 
ATOM     20  H32 UNL     1      24.254   3.671  10.026  1.00  0.00     0.277 HD
ATOM     21  H31 UNL     1      24.661   4.930  10.561  1.00  0.00     0.277 HD
ENDBRANCH  10  11
ENDBRANCH   6  10
BRANCH   2  22
HETATM   22  C2  UNL     1      16.370   2.038  17.102  1.00  0.00     0.213 C 
HETATM   23  C3  UNL     1      15.941   0.886  17.994  1.00  0.00     0.043 C 
HETATM   24  C4  UNL     1      14.515   0.636  17.535  1.00  0.00     0.029 C 
HETATM   25  C5  UNL     1      14.122   1.929  16.908  1.00  0.00     0.168 C 
HETATM   26  O2  UNL     1      15.223   2.727  16.830  1.00  0.00    -0.376 OA
ENDBRANCH   2  22
TORSDOF 4
ENDMDL
MODEL 3
REMARK VINA RESULT: -7.089300865      4.669      5.540
REMARK  4 active torsions:
REMARK  status: ('A' for Active; 'I' for Inactive)
REMARK    1  A    between atoms: C1_2  and  C2_3 
REMARK       I    between atoms: C1_2  and  N1_8 
REMARK    2  A    between atoms: C8_11  and  O3_12 
REMARK    3  A    between atoms: C8_11  and  C9_14 
REMARK    4  A    between atoms: C9_14  and  N2_15 
ROOT
HETATM    1  O1  UNL     1      18.225   1.681  16.518  1.00  0.00    -0.270 OA
HETATM    2  C1  UNL     1      17.169   2.067  15.904  1.00  0.00     0.248 C 
HETATM    3  N1  UNL     1      17.168   3.307  15.244  1.00  0.00    -0.347 N 
HETATM    4  C6  UNL     1      16.111   3.905  14.475  1.00  0.00     0.129 C 
HETATM    5  C7  UNL     1      16.248   5.373  14.913  1.00  0.00     0.065 C 
HETATM    6  C8  UNL     1      17.775   5.495  14.568  1.00  0.00     0.107 C 
HETATM    7  C17 UNL     1      18.281   4.273  15.218  1.00  0.00     0.169 C 
ENDROOT
BRANCH   6   8
HETATM    8  O3  UNL     1      17.766   5.354  13.177  1.00  0.00    -0.383 OA
ATOM      9  H3  UNL     1      16.946   4.895  13.034  1.00  0.00     0.211 HD
ENDBRANCH   6   8
BRANCH   6  10
HETATM   10  C9  UNL     1      18.278   6.813  15.018  1.00  0.00     0.102 C 
BRANCH  10  11
HETATM   11  N2  UNL     1      18.496   7.729  13.986  1.00  0.00    -0.371 N 
HETATM   12  C10 UNL     1      19.744   8.266  13.681  1.00  0.00     0.064 C 
HETATM   13  C11 UNL     1      19.945   9.627  14.349  1.00  0.00     0.057 C 
HETATM   14  C12 UNL     1      18.857  10.535  13.880  1.00  0.00     0.013 C 
HETATM   15  C13 UNL     1      17.531   9.966  14.267  1.00  0.00     0.033 C 
HETATM   16  C15 UNL     1      19.049  12.001  14.200  1.00  0.00     0.243 C 
HETATM   17  C16 UNL     1      18.947  10.996  12.451  1.00  0.00     0.243 C 
HETATM   18  C14 UNL     1      17.367   8.584  13.681  1.00  0.00     0.128 C 
HETATM   19  N3  UNL     1      18.528  12.334  12.889  1.00  0.00    -0.074 N 
ATOM     20  H32 UNL     1      17.565  12.649  12.770  1.00  0.00     0.277 HD
ATOM     21  H31 UNL     1      18.839  13.170  12.395  1.00  0.00     0.277 HD
ENDBRANCH  10  11
ENDBRANCH   6  10
BRANCH   2  22
HETATM   22  C2  UNL     1      16.031   1.143  15.955  1.00  0.00     0.213 C 
HETATM   23  C3  UNL     1      14.813   1.852  16.520  1.00  0.00     0.043 C 
HETATM   24  C4  UNL     1      14.906   1.523  18.000  1.00  0.00     0.029 C 
HETATM   25  C5  UNL     1      15.747   0.295  18.029  1.00  0.00     0.168 C 
HETATM   26  O2  UNL     1      16.238   0.073  16.778  1.00  0.00    -0.376 OA
ENDBRANCH   2  22
TORSDOF 4
ENDMDL
MODEL 4
REMARK VINA RESULT: -7.016367107      3.883      4.884
REMARK  4 active torsions:
REMARK  status: ('A' for Active; 'I' for Inactive)
REMARK    1  A    between atoms: C1_2  and  C2_3 
REMARK       I    between atoms: C1_2  and  N1_8 
REMARK    2  A    between atoms: C8_11  and  O3_12 
REMARK    3  A    between atoms: C8_11  and  C9_14 
REMARK    4  A    between atoms: C9_14  and  N2_15 
ROOT
HETATM    1  O1  UNL     1      18.240   1.466  16.522  1.00  0.00    -0.270 OA
HETATM    2  C1  UNL     1      17.033   1.641  16.131  1.00  0.00     0.248 C 
HETATM    3  N1  UNL     1      16.769   2.539  15.082  1.00  0.00    -0.347 N 
HETATM    4  C6  UNL     1      15.504   2.850  14.474  1.00  0.00     0.129 C 
HETATM    5  C7  UNL     1      15.663   4.367  14.272  1.00  0.00     0.065 C 
HETATM    6  C8  UNL     1      17.024   4.277  13.494  1.00  0.00     0.107 C 
HETATM    7  C17 UNL     1      17.767   3.369  14.385  1.00  0.00     0.169 C 
ENDROOT
BRANCH   6   8
HETATM    8  O3  UNL     1      16.640   3.622  12.320  1.00  0.00    -0.383 OA
ATOM      9  H3  UNL     1      16.930   2.733  12.491  1.00  0.00     0.211 HD
ENDBRANCH   6   8
BRANCH   6  10
HETATM   10  C9  UNL     1      17.546   5.642  13.256  1.00  0.00     0.102 C 
BRANCH  10  11
HETATM   11  N2  UNL     1      18.222   6.198  14.344  1.00  0.00    -0.371 N 
HETATM   12  C10 UNL     1      17.649   7.109  15.227  1.00  0.00     0.064 C 
HETATM   13  C11 UNL     1      17.982   8.551  14.836  1.00  0.00     0.057 C 
HETATM   14  C12 UNL     1      19.467   8.694  14.829  1.00  0.00     0.013 C 
HETATM   15  C13 UNL     1      20.056   7.747  13.836  1.00  0.00     0.033 C 
HETATM   16  C15 UNL     1      19.985  10.114  14.752  1.00  0.00     0.243 C 
HETATM   17  C16 UNL     1      20.141   8.688  16.174  1.00  0.00     0.243 C 
HETATM   18  C14 UNL     1      19.655   6.329  14.168  1.00  0.00     0.128 C 
HETATM   19  N3  UNL     1      21.022   9.766  15.703  1.00  0.00    -0.074 N 
ATOM     20  H32 UNL     1      21.974   9.570  15.395  1.00  0.00     0.277 HD
ATOM     21  H31 UNL     1      21.396  10.459  16.350  1.00  0.00     0.277 HD
ENDBRANCH  10  11
ENDBRANCH   6  10
BRANCH   2  22
HETATM   22  C2  UNL     1      16.015   0.860  16.841  1.00  0.00     0.213 C 
HETATM   23  C3  UNL     1      14.682   1.586  16.799  1.00  0.00     0.043 C 
HETATM   24  C4  UNL     1      14.707   2.380  18.094  1.00  0.00     0.029 C 
HETATM   25  C5  UNL     1      15.687   1.640  18.935  1.00  0.00     0.168 C 
HETATM   26  O2  UNL     1      16.290   0.690  18.168  1.00  0.00    -0.376 OA
ENDBRANCH   2  22
TORSDOF 4
ENDMDL
MODEL 5
REMARK VINA RESULT: -6.898241225      4.593      5.299
REMARK  4 active torsions:
REMARK  status: ('A' for Active; 'I' for Inactive)
REMARK    1  A    between atoms: C1_2  and  C2_3 
REMARK       I    between atoms: C1_2  and  N1_8 
REMARK    2  A    between atoms: C8_11  and  O3_12 
REMARK    3  A    between atoms: C8_11  and  C9_14 
REMARK    4  A    between atoms: C9_14  and  N2_15 
ROOT
HETATM    1  O1  UNL     1      18.026   1.572  16.463  1.00  0.00    -0.270 OA
HETATM    2  C1  UNL     1      17.119   2.226  15.837  1.00  0.00     0.248 C 
HETATM    3  N1  UNL     1      17.481   3.341  15.062  1.00  0.00    -0.347 N 
HETATM    4  C6  UNL     1      16.633   4.182  14.262  1.00  0.00     0.129 C 
HETATM    5  C7  UNL     1      17.254   5.558  14.556  1.00  0.00     0.065 C 
HETATM    6  C8  UNL     1      18.721   5.151  14.168  1.00  0.00     0.107 C 
HETATM    7  C17 UNL     1      18.842   3.890  14.921  1.00  0.00     0.169 C 
ENDROOT
BRANCH   6   8
HETATM    8  O3  UNL     1      18.597   4.905  12.798  1.00  0.00    -0.383 OA
ATOM      9  H3  UNL     1      19.279   4.259  12.655  1.00  0.00     0.211 HD
ENDBRANCH   6   8
BRANCH   6  10
HETATM   10  C9  UNL     1      19.641   6.269  14.480  1.00  0.00     0.102 C 
BRANCH  10  11
HETATM   11  N2  UNL     1      19.070   7.538  14.352  1.00  0.00    -0.371 N 
HETATM   12  C10 UNL     1      18.951   8.212  13.140  1.00  0.00     0.064 C 
HETATM   13  C11 UNL     1      20.111   9.186  12.926  1.00  0.00     0.057 C 
HETATM   14  C12 UNL     1      20.115  10.153  14.064  1.00  0.00     0.013 C 
HETATM   15  C13 UNL     1      20.300   9.411  15.347  1.00  0.00     0.033 C 
HETATM   16  C15 UNL     1      21.003  11.365  13.885  1.00  0.00     0.243 C 
HETATM   17  C16 UNL     1      19.002  11.164  14.080  1.00  0.00     0.243 C 
HETATM   18  C14 UNL     1      19.204   8.386  15.518  1.00  0.00     0.128 C 
HETATM   19  N3  UNL     1      19.975  12.182  14.500  1.00  0.00    -0.074 N 
ATOM     20  H32 UNL     1      20.046  12.471  15.475  1.00  0.00     0.277 HD
ATOM     21  H31 UNL     1      19.856  13.161  14.241  1.00  0.00     0.277 HD
ENDBRANCH  10  11
ENDBRANCH   6  10
BRANCH   2  22
HETATM   22  C2  UNL     1      15.750   1.727  16.000  1.00  0.00     0.213 C 
HETATM   23  C3  UNL     1      15.023   2.543  17.054  1.00  0.00     0.043 C 
HETATM   24  C4  UNL     1      15.267   1.733  18.314  1.00  0.00     0.029 C 
HETATM   25  C5  UNL     1      15.572   0.371  17.797  1.00  0.00     0.168 C 
HETATM   26  O2  UNL     1      15.692   0.436  16.442  1.00  0.00    -0.376 OA
ENDBRANCH   2  22
TORSDOF 4
ENDMDL
