MODEL 1
REMARK VINA RESULT: -7.952403076      0.000      0.000
REMARK  4 active torsions:
REMARK  status: ('A' for Active; 'I' for Inactive)
REMARK       I    between atoms: C1_2  and  N1_3 
REMARK    1  A    between atoms: C1_2  and  C8_11 
REMARK    2  A    between atoms: N1_3  and  C2_5 
REMARK       I    between atoms: C8_11  and  N2_13 
REMARK    3  A    between atoms: C11_18  and  O3_19 
REMARK    4  A    between atoms: O3_19  and  C12_20 
ROOT
HETATM    1  C8  UNL     1      16.971   0.479  14.745  1.00  0.00     0.311 C 
HETATM    2  O2  UNL     1      17.115  -0.591  15.442  1.00  0.00    -0.262 OA
HETATM    3  N2  UNL     1      16.423   1.612  15.358  1.00  0.00    -0.338 N 
HETATM    4  C9  UNL     1      16.013   1.541  16.760  1.00  0.00     0.145 C 
HETATM    5  C10 UNL     1      14.641   2.210  16.794  1.00  0.00     0.136 C 
HETATM    6  N3  UNL     1      14.813   3.602  16.540  1.00  0.00    -0.394 N 
ATOM      7  H3  UNL     1      14.329   4.305  17.098  1.00  0.00     0.155 HD
HETATM    8  C11 UNL     1      15.679   3.970  15.486  1.00  0.00     0.235 C 
HETATM    9  C16 UNL     1      16.251   2.843  14.660  1.00  0.00     0.179 C 
ENDROOT
BRANCH   1  10
HETATM   10  C1  UNL     1      17.375   0.478  13.365  1.00  0.00     0.309 C 
HETATM   11  O1  UNL     1      17.026  -0.413  12.580  1.00  0.00    -0.262 OA
HETATM   12  N1  UNL     1      18.197   1.519  12.862  1.00  0.00    -0.348 N 
ATOM     13  H1  UNL     1      18.492   2.262  13.495  1.00  0.00     0.163 HD
BRANCH  12  14
HETATM   14  C2  UNL     1      18.634   1.562  11.466  1.00  0.00     0.084 C 
HETATM   15  C3  UNL     1      17.994   2.697  10.705  1.00  0.00     0.025 C 
HETATM   16  C4  UNL     1      18.718   4.003  10.884  1.00  0.00     0.002 C 
HETATM   17  C5  UNL     1      20.162   3.822  10.464  1.00  0.00     0.000 C 
HETATM   18  C6  UNL     1      20.773   2.875  11.500  1.00  0.00     0.002 C 
HETATM   19  C7  UNL     1      20.130   1.541  11.325  1.00  0.00     0.025 C 
ENDBRANCH  12  14
ENDBRANCH   1  10
BRANCH   8  20
HETATM   20  O3  UNL     1      15.040   4.832  14.561  1.00  0.00    -0.358 OA
BRANCH  20  21
HETATM   21  C12 UNL     1      15.890   5.825  14.095  1.00  0.00     0.150 C 
HETATM   22  C13 UNL     1      14.991   7.013  13.760  1.00  0.00     0.060 C 
HETATM   23  C14 UNL     1      15.112   7.900  14.983  1.00  0.00     0.170 C 
HETATM   24  O4  UNL     1      16.350   7.638  15.508  1.00  0.00    -0.389 OA
HETATM   25  C15 UNL     1      16.778   6.394  15.145  1.00  0.00     0.199 C 
ENDBRANCH  20  21
ENDBRANCH   8  20
TORSDOF 4
ENDMDL
MODEL 2
REMARK VINA RESULT: -7.591282979      2.446      5.667
REMARK  4 active torsions:
REMARK  status: ('A' for Active; 'I' for Inactive)
REMARK       I    between atoms: C1_2  and  N1_3 
REMARK    1  A    between atoms: C1_2  and  C8_11 
REMARK    2  A    between atoms: N1_3  and  C2_5 
REMARK       I    between atoms: C8_11  and  N2_13 
REMARK    3  A    between atoms: C11_18  and  O3_19 
REMARK    4  A    between atoms: O3_19  and  C12_20 
ROOT
HETATM    1  C8  UNL     1      17.700   3.683  10.628  1.00  0.00     0.311 C 
HETATM    2  O2  UNL     1      18.206   3.643   9.448  1.00  0.00    -0.262 OA
HETATM    3  N2  UNL     1      17.727   2.522  11.411  1.00  0.00    -0.338 N 
HETATM    4  C9  UNL     1      18.309   1.300  10.859  1.00  0.00     0.145 C 
HETATM    5  C10 UNL     1      17.312   0.201  11.222  1.00  0.00     0.136 C 
HETATM    6  N3  UNL     1      17.348   0.010  12.634  1.00  0.00    -0.394 N 
ATOM      7  H3  UNL     1      17.369  -0.924  13.041  1.00  0.00     0.155 HD
HETATM    8  C11 UNL     1      17.353   1.166  13.448  1.00  0.00     0.235 C 
HETATM    9  C16 UNL     1      17.207   2.490  12.737  1.00  0.00     0.179 C 
ENDROOT
BRANCH   1  10
HETATM   10  C1  UNL     1      17.124   4.912  11.106  1.00  0.00     0.309 C 
HETATM   11  O1  UNL     1      16.202   5.479  10.507  1.00  0.00    -0.262 OA
HETATM   12  N1  UNL     1      17.609   5.510  12.296  1.00  0.00    -0.348 N 
ATOM     13  H1  UNL     1      18.367   5.055  12.804  1.00  0.00     0.163 HD
BRANCH  12  14
HETATM   14  C2  UNL     1      17.055   6.759  12.822  1.00  0.00     0.084 C 
HETATM   15  C3  UNL     1      15.864   6.521  13.716  1.00  0.00     0.025 C 
HETATM   16  C4  UNL     1      16.251   6.195  15.133  1.00  0.00     0.002 C 
HETATM   17  C5  UNL     1      17.113   7.317  15.674  1.00  0.00     0.000 C 
HETATM   18  C6  UNL     1      18.416   7.254  14.873  1.00  0.00     0.002 C 
HETATM   19  C7  UNL     1      18.097   7.630  13.465  1.00  0.00     0.025 C 
ENDBRANCH  12  14
ENDBRANCH   1  10
BRANCH   8  20
HETATM   20  O3  UNL     1      16.311   1.133  14.408  1.00  0.00    -0.358 OA
BRANCH  20  21
HETATM   21  C12 UNL     1      16.623   1.866  15.544  1.00  0.00     0.150 C 
HETATM   22  C13 UNL     1      15.304   2.042  16.294  1.00  0.00     0.060 C 
HETATM   23  C14 UNL     1      15.351   0.953  17.348  1.00  0.00     0.170 C 
HETATM   24  O4  UNL     1      16.681   0.742  17.601  1.00  0.00    -0.389 OA
HETATM   25  C15 UNL     1      17.444   1.116  16.533  1.00  0.00     0.199 C 
ENDBRANCH  20  21
ENDBRANCH   8  20
TORSDOF 4
ENDMDL
MODEL 3
REMARK VINA RESULT: -7.379434574      2.044      5.664
REMARK  4 active torsions:
REMARK  status: ('A' for Active; 'I' for Inactive)
REMARK       I    between atoms: C1_2  and  N1_3 
REMARK    1  A    between atoms: C1_2  and  C8_11 
REMARK    2  A    between atoms: N1_3  and  C2_5 
REMARK       I    between atoms: C8_11  and  N2_13 
REMARK    3  A    between atoms: C11_18  and  O3_19 
REMARK    4  A    between atoms: O3_19  and  C12_20 
ROOT
HETATM    1  C8  UNL     1      15.334   4.270  15.594  1.00  0.00     0.311 C 
HETATM    2  O2  UNL     1      14.675   4.421  16.686  1.00  0.00    -0.262 OA
HETATM    3  N2  UNL     1      15.879   3.014  15.305  1.00  0.00    -0.338 N 
HETATM    4  C9  UNL     1      15.701   1.919  16.258  1.00  0.00     0.145 C 
HETATM    5  C10 UNL     1      17.081   1.274  16.366  1.00  0.00     0.136 C 
HETATM    6  N3  UNL     1      17.373   0.629  15.130  1.00  0.00    -0.394 N 
ATOM      7  H3  UNL     1      17.773  -0.309  15.104  1.00  0.00     0.155 HD
HETATM    8  C11 UNL     1      17.089   1.339  13.941  1.00  0.00     0.235 C 
HETATM    9  C16 UNL     1      16.605   2.759  14.104  1.00  0.00     0.179 C 
ENDROOT
BRANCH   1  10
HETATM   10  C1  UNL     1      15.491   5.392  14.706  1.00  0.00     0.309 C 
HETATM   11  O1  UNL     1      14.647   5.667  13.843  1.00  0.00    -0.262 OA
HETATM   12  N1  UNL     1      16.635   6.223  14.804  1.00  0.00    -0.348 N 
ATOM     13  H1  UNL     1      17.338   6.012  15.511  1.00  0.00     0.163 HD
BRANCH  12  14
HETATM   14  C2  UNL     1      16.839   7.376  13.925  1.00  0.00     0.084 C 
HETATM   15  C3  UNL     1      17.370   8.574  14.672  1.00  0.00     0.025 C 
HETATM   16  C4  UNL     1      18.865   8.543  14.839  1.00  0.00     0.002 C 
HETATM   17  C5  UNL     1      19.507   8.436  13.471  1.00  0.00     0.000 C 
HETATM   18  C6  UNL     1      19.129   7.046  12.952  1.00  0.00     0.002 C 
HETATM   19  C7  UNL     1      17.657   7.041  12.710  1.00  0.00     0.025 C 
ENDBRANCH  12  14
ENDBRANCH   1  10
BRANCH   8  20
HETATM   20  O3  UNL     1      18.223   1.419  13.096  1.00  0.00    -0.358 OA
BRANCH  20  21
HETATM   21  C12 UNL     1      17.894   1.843  11.816  1.00  0.00     0.150 C 
HETATM   22  C13 UNL     1      19.226   2.056  11.099  1.00  0.00     0.060 C 
HETATM   23  C14 UNL     1      19.406   0.777  10.306  1.00  0.00     0.170 C 
HETATM   24  O4  UNL     1      18.141   0.319  10.051  1.00  0.00    -0.389 OA
HETATM   25  C15 UNL     1      17.258   0.788  10.981  1.00  0.00     0.199 C 
ENDBRANCH  20  21
ENDBRANCH   8  20
TORSDOF 4
ENDMDL
MODEL 4
REMARK VINA RESULT: -7.262149415      2.220      5.538
REMARK  4 active torsions:
REMARK  status: ('A' for Active; 'I' for Inactive)
REMARK       I    between atoms: C1_2  and  N1_3 
REMARK    1  A    between atoms: C1_2  and  C8_11 
REMARK    2  A    between atoms: N1_3  and  C2_5 
REMARK       I    between atoms: C8_11  and  N2_13 
REMARK    3  A    between atoms: C11_18  and  O3_19 
REMARK    4  A    between atoms: O3_19  and  C12_20 
ROOT
HETATM    1  C8  UNL     1      17.159   0.744  14.283  1.00  0.00     0.311 C 
HETATM    2  O2  UNL     1      16.764  -0.335  14.859  1.00  0.00    -0.262 OA
HETATM    3  N2  UNL     1      17.472   0.702  12.919  1.00  0.00    -0.338 N 
HETATM    4  C9  UNL     1      17.360  -0.564  12.197  1.00  0.00     0.145 C 
HETATM    5  C10 UNL     1      18.641  -0.651  11.371  1.00  0.00     0.136 C 
HETATM    6  N3  UNL     1      18.589   0.348  10.355  1.00  0.00    -0.394 N 
ATOM      7  H3  UNL     1      18.855   0.138   9.393  1.00  0.00     0.155 HD
HETATM    8  C11 UNL     1      18.156   1.639  10.732  1.00  0.00     0.235 C 
HETATM    9  C16 UNL     1      17.896   1.859  12.203  1.00  0.00     0.179 C 
ENDROOT
BRANCH   1  10
HETATM   10  C1  UNL     1      17.267   1.954  15.054  1.00  0.00     0.309 C 
HETATM   11  O1  UNL     1      17.932   2.009  16.097  1.00  0.00    -0.262 OA
HETATM   12  N1  UNL     1      16.604   3.132  14.628  1.00  0.00    -0.348 N 
ATOM     13  H1  UNL     1      16.053   3.105  13.770  1.00  0.00     0.163 HD
BRANCH  12  14
HETATM   14  C2  UNL     1      16.685   4.387  15.378  1.00  0.00     0.084 C 
HETATM   15  C3  UNL     1      17.814   5.264  14.898  1.00  0.00     0.025 C 
HETATM   16  C4  UNL     1      17.439   6.100  13.705  1.00  0.00     0.002 C 
HETATM   17  C5  UNL     1      16.224   6.933  14.055  1.00  0.00     0.000 C 
HETATM   18  C6  UNL     1      15.078   5.932  14.224  1.00  0.00     0.002 C 
HETATM   19  C7  UNL     1      15.371   5.113  15.436  1.00  0.00     0.025 C 
ENDBRANCH  12  14
ENDBRANCH   1  10
BRANCH   8  20
HETATM   20  O3  UNL     1      19.092   2.634  10.359  1.00  0.00    -0.358 OA
BRANCH  20  21
HETATM   21  C12 UNL     1      19.542   3.366  11.449  1.00  0.00     0.150 C 
HETATM   22  C13 UNL     1      20.997   2.948  11.652  1.00  0.00     0.060 C 
HETATM   23  C14 UNL     1      21.778   4.052  10.969  1.00  0.00     0.170 C 
HETATM   24  O4  UNL     1      20.988   5.168  11.049  1.00  0.00    -0.389 OA
HETATM   25  C15 UNL     1      19.673   4.824  11.178  1.00  0.00     0.199 C 
ENDBRANCH  20  21
ENDBRANCH   8  20
TORSDOF 4
ENDMDL
MODEL 5
REMARK VINA RESULT: -7.242546427      2.427      5.934
REMARK  4 active torsions:
REMARK  status: ('A' for Active; 'I' for Inactive)
REMARK       I    between atoms: C1_2  and  N1_3 
REMARK    1  A    between atoms: C1_2  and  C8_11 
REMARK    2  A    between atoms: N1_3  and  C2_5 
REMARK       I    between atoms: C8_11  and  N2_13 
REMARK    3  A    between atoms: C11_18  and  O3_19 
REMARK    4  A    between atoms: O3_19  and  C12_20 
ROOT
HETATM    1  C8  UNL     1      19.201   4.310  11.751  1.00  0.00     0.311 C 
HETATM    2  O2  UNL     1      19.771   4.507  10.617  1.00  0.00    -0.262 OA
HETATM    3  N2  UNL     1      18.565   3.084  11.981  1.00  0.00    -0.338 N 
HETATM    4  C9  UNL     1      18.552   2.075  10.922  1.00  0.00     0.145 C 
HETATM    5  C10 UNL     1      17.112   1.566  10.894  1.00  0.00     0.136 C 
HETATM    6  N3  UNL     1      16.870   0.833  12.091  1.00  0.00    -0.394 N 
ATOM      7  H3  UNL     1      16.386  -0.064  12.074  1.00  0.00     0.155 HD
HETATM    8  C11 UNL     1      17.326   1.397  13.304  1.00  0.00     0.235 C 
HETATM    9  C16 UNL     1      17.928   2.779  13.219  1.00  0.00     0.179 C 
ENDROOT
BRANCH   1  10
HETATM   10  C1  UNL     1      19.232   5.350  12.744  1.00  0.00     0.309 C 
HETATM   11  O1  UNL     1      20.244   5.582  13.418  1.00  0.00    -0.262 OA
HETATM   12  N1  UNL     1      18.084   6.149  12.976  1.00  0.00    -0.348 N 
ATOM     13  H1  UNL     1      17.242   5.973  12.428  1.00  0.00     0.163 HD
BRANCH  12  14
HETATM   14  C2  UNL     1      18.067   7.219  13.975  1.00  0.00     0.084 C 
HETATM   15  C3  UNL     1      17.390   8.465  13.461  1.00  0.00     0.025 C 
HETATM   16  C4  UNL     1      15.893   8.420  13.607  1.00  0.00     0.002 C 
HETATM   17  C5  UNL     1      15.552   8.185  15.064  1.00  0.00     0.000 C 
HETATM   18  C6  UNL     1      16.031   6.765  15.372  1.00  0.00     0.002 C 
HETATM   19  C7  UNL     1      17.521   6.767  15.300  1.00  0.00     0.025 C 
ENDBRANCH  12  14
ENDBRANCH   1  10
BRANCH   8  20
HETATM   20  O3  UNL     1      16.285   1.495  14.260  1.00  0.00    -0.358 OA
BRANCH  20  21
HETATM   21  C12 UNL     1      16.746   1.923  15.496  1.00  0.00     0.150 C 
HETATM   22  C13 UNL     1      15.497   2.266  16.305  1.00  0.00     0.060 C 
HETATM   23  C14 UNL     1      15.275   1.028  17.151  1.00  0.00     0.170 C 
HETATM   24  O4  UNL     1      16.514   0.472  17.324  1.00  0.00    -0.389 OA
HETATM   25  C15 UNL     1      17.357   0.840  16.314  1.00  0.00     0.199 C 
ENDBRANCH  20  21
ENDBRANCH   8  20
TORSDOF 4
ENDMDL
