MODEL 1
REMARK VINA RESULT: -7.122448884      0.000      0.000
REMARK  5 active torsions:
REMARK  status: ('A' for Active; 'I' for Inactive)
REMARK    1  A    between atoms: N1_4  and  C3_5 
REMARK    2  A    between atoms: C3_5  and  C4_6 
REMARK    3  A    between atoms: C4_6  and  N2_7 
REMARK    4  A    between atoms: N2_7  and  C5_9 
REMARK    5  A    between atoms: C5_9  and  N3_11 
ROOT
HETATM    1  N2  UNL     1      18.668   5.908  13.462  1.00  0.00    -0.366 N 
ATOM      2  H2  UNL     1      18.153   6.676  13.031  1.00  0.00     0.161 HD
ENDROOT
BRANCH   1   3
HETATM    3  C4  UNL     1      18.333   5.573  14.819  1.00  0.00     0.142 C 
BRANCH   3   4
HETATM    4  C3  UNL     1      16.891   5.208  15.001  1.00  0.00     0.147 C 
BRANCH   4   5
HETATM    5  N1  UNL     1      16.645   3.818  15.122  1.00  0.00    -0.362 N 
HETATM    6  C2  UNL     1      17.679   3.011  15.639  1.00  0.00     0.164 C 
HETATM    7  C1  UNL     1      17.187   1.798  16.359  1.00  0.00     0.257 C 
HETATM    8  O1  UNL     1      17.989   0.836  16.497  1.00  0.00    -0.267 OA
HETATM    9  N4  UNL     1      15.868   1.707  16.879  1.00  0.00    -0.352 N 
HETATM   10  C14 UNL     1      14.982   2.828  16.646  1.00  0.00     0.167 C 
ATOM     11  H4  UNL     1      15.558   0.885  17.397  1.00  0.00     0.163 HD
HETATM   12  C13 UNL     1      15.311   3.414  15.318  1.00  0.00     0.083 C 
ENDBRANCH   4   5
ENDBRANCH   3   4
ENDBRANCH   1   3
BRANCH   1  13
HETATM   13  C5  UNL     1      19.655   5.258  12.671  1.00  0.00     0.169 C 
HETATM   14  S1  UNL     1      21.134   5.942  12.430  1.00  0.00    -0.041 SA
BRANCH  13  15
HETATM   15  N3  UNL     1      19.382   4.000  12.059  1.00  0.00    -0.358 N 
HETATM   16  C6  UNL     1      20.518   3.181  11.719  1.00  0.00     0.130 C 
HETATM   17  C7  UNL     1      20.240   1.849  11.158  1.00  0.00     0.088 C 
HETATM   18  C8  UNL     1      18.784   1.474  11.086  1.00  0.00     0.167 C 
HETATM   19  C9  UNL     1      17.948   2.688  10.663  1.00  0.00     0.088 C 
HETATM   20  O2  UNL     1      18.391   1.155  12.381  1.00  0.00    -0.353 OA
HETATM   21  O3  UNL     1      18.552   0.373  10.304  1.00  0.00    -0.353 OA
HETATM   22  C10 UNL     1      18.005   3.644  11.831  1.00  0.00     0.130 C 
HETATM   23  C11 UNL     1      17.258   0.388  12.230  1.00  0.00     0.197 C 
HETATM   24  C12 UNL     1      17.408  -0.198  10.852  1.00  0.00     0.197 C 
ENDBRANCH  13  15
ENDBRANCH   1  13
TORSDOF 5
ENDMDL
MODEL 2
REMARK VINA RESULT: -7.095653708      1.109      1.109
REMARK  5 active torsions:
REMARK  status: ('A' for Active; 'I' for Inactive)
REMARK    1  A    between atoms: N1_4  and  C3_5 
REMARK    2  A    between atoms: C3_5  and  C4_6 
REMARK    3  A    between atoms: C4_6  and  N2_7 
REMARK    4  A    between atoms: N2_7  and  C5_9 
REMARK    5  A    between atoms: C5_9  and  N3_11 
ROOT
HETATM    1  N2  UNL     1      18.477   5.975  13.563  1.00  0.00    -0.366 N 
ATOM      2  H2  UNL     1      19.149   6.742  13.520  1.00  0.00     0.161 HD
ENDROOT
BRANCH   1   3
HETATM    3  C4  UNL     1      18.093   5.510  14.867  1.00  0.00     0.142 C 
BRANCH   3   4
HETATM    4  C3  UNL     1      16.658   5.085  14.945  1.00  0.00     0.147 C 
BRANCH   4   5
HETATM    5  N1  UNL     1      16.464   3.695  15.144  1.00  0.00    -0.362 N 
HETATM    6  C2  UNL     1      17.555   2.942  15.624  1.00  0.00     0.164 C 
HETATM    7  C1  UNL     1      17.150   1.751  16.429  1.00  0.00     0.257 C 
HETATM    8  O1  UNL     1      17.989   0.819  16.554  1.00  0.00    -0.267 OA
HETATM    9  N4  UNL     1      15.872   1.646  17.041  1.00  0.00    -0.352 N 
HETATM   10  C14 UNL     1      14.938   2.730  16.819  1.00  0.00     0.167 C 
ATOM     11  H4  UNL     1      15.623   0.840  17.613  1.00  0.00     0.163 HD
HETATM   12  C13 UNL     1      15.159   3.263  15.448  1.00  0.00     0.083 C 
ENDBRANCH   4   5
ENDBRANCH   3   4
ENDBRANCH   1   3
BRANCH   1  13
HETATM   13  C5  UNL     1      17.999   5.456  12.327  1.00  0.00     0.169 C 
HETATM   14  S1  UNL     1      17.115   6.391  11.300  1.00  0.00    -0.041 SA
BRANCH  13  15
HETATM   15  N3  UNL     1      18.270   4.107  11.955  1.00  0.00    -0.358 N 
HETATM   16  C6  UNL     1      19.653   3.703  11.930  1.00  0.00     0.130 C 
HETATM   17  C7  UNL     1      19.935   2.292  11.620  1.00  0.00     0.088 C 
HETATM   18  C8  UNL     1      18.721   1.419  11.447  1.00  0.00     0.167 C 
HETATM   19  C9  UNL     1      17.629   2.181  10.688  1.00  0.00     0.088 C 
HETATM   20  O2  UNL     1      18.220   1.177  12.722  1.00  0.00    -0.353 OA
HETATM   21  O3  UNL     1      19.011   0.205  10.881  1.00  0.00    -0.353 OA
HETATM   22  C10 UNL     1      17.152   3.257  11.636  1.00  0.00     0.130 C 
HETATM   23  C11 UNL     1      17.449   0.044  12.590  1.00  0.00     0.197 C 
HETATM   24  C12 UNL     1      18.035  -0.647  11.389  1.00  0.00     0.197 C 
ENDBRANCH  13  15
ENDBRANCH   1  13
TORSDOF 5
ENDMDL
MODEL 3
REMARK VINA RESULT: -6.842825746      1.396      1.820
REMARK  5 active torsions:
REMARK  status: ('A' for Active; 'I' for Inactive)
REMARK    1  A    between atoms: N1_4  and  C3_5 
REMARK    2  A    between atoms: C3_5  and  C4_6 
REMARK    3  A    between atoms: C4_6  and  N2_7 
REMARK    4  A    between atoms: N2_7  and  C5_9 
REMARK    5  A    between atoms: C5_9  and  N3_11 
ROOT
HETATM    1  N2  UNL     1      16.773   5.504  13.792  1.00  0.00    -0.366 N 
ATOM      2  H2  UNL     1      16.201   5.927  13.060  1.00  0.00     0.161 HD
ENDROOT
BRANCH   1   3
HETATM    3  C4  UNL     1      16.154   5.300  15.074  1.00  0.00     0.142 C 
BRANCH   3   4
HETATM    4  C3  UNL     1      15.312   4.062  15.134  1.00  0.00     0.147 C 
BRANCH   4   5
HETATM    5  N1  UNL     1      15.802   3.057  16.006  1.00  0.00    -0.362 N 
HETATM    6  C2  UNL     1      14.877   2.128  16.521  1.00  0.00     0.164 C 
HETATM    7  C1  UNL     1      15.475   0.792  16.819  1.00  0.00     0.257 C 
HETATM    8  O1  UNL     1      14.864   0.047  17.632  1.00  0.00    -0.267 OA
HETATM    9  N4  UNL     1      16.687   0.353  16.222  1.00  0.00    -0.352 N 
HETATM   10  C14 UNL     1      17.363   1.275  15.333  1.00  0.00     0.167 C 
ATOM     11  H4  UNL     1      17.065  -0.575  16.411  1.00  0.00     0.163 HD
HETATM   12  C13 UNL     1      17.142   2.656  15.839  1.00  0.00     0.083 C 
ENDBRANCH   4   5
ENDBRANCH   3   4
ENDBRANCH   1   3
BRANCH   1  13
HETATM   13  C5  UNL     1      18.114   5.166  13.460  1.00  0.00     0.169 C 
HETATM   14  S1  UNL     1      19.381   6.017  14.077  1.00  0.00    -0.041 SA
BRANCH  13  15
HETATM   15  N3  UNL     1      18.390   4.083  12.574  1.00  0.00    -0.358 N 
HETATM   16  C6  UNL     1      19.766   3.889  12.192  1.00  0.00     0.130 C 
HETATM   17  C7  UNL     1      20.068   2.728  11.340  1.00  0.00     0.088 C 
HETATM   18  C8  UNL     1      18.896   1.831  11.038  1.00  0.00     0.167 C 
HETATM   19  C9  UNL     1      17.639   2.674  10.792  1.00  0.00     0.088 C 
HETATM   20  O2  UNL     1      18.655   1.090  12.190  1.00  0.00    -0.353 OA
HETATM   21  O3  UNL     1      19.147   0.946  10.024  1.00  0.00    -0.353 OA
HETATM   22  C10 UNL     1      17.284   3.272  12.133  1.00  0.00     0.130 C 
HETATM   23  C11 UNL     1      17.941  -0.006  11.763  1.00  0.00     0.197 C 
HETATM   24  C12 UNL     1      18.334  -0.145  10.316  1.00  0.00     0.197 C 
ENDBRANCH  13  15
ENDBRANCH   1  13
TORSDOF 5
ENDMDL
MODEL 4
REMARK VINA RESULT: -6.809851693      1.551      2.185
REMARK  5 active torsions:
REMARK  status: ('A' for Active; 'I' for Inactive)
REMARK    1  A    between atoms: N1_4  and  C3_5 
REMARK    2  A    between atoms: C3_5  and  C4_6 
REMARK    3  A    between atoms: C4_6  and  N2_7 
REMARK    4  A    between atoms: N2_7  and  C5_9 
REMARK    5  A    between atoms: C5_9  and  N3_11 
ROOT
HETATM    1  N2  UNL     1      16.925   5.040  12.527  1.00  0.00    -0.366 N 
ATOM      2  H2  UNL     1      15.937   5.268  12.408  1.00  0.00     0.161 HD
ENDROOT
BRANCH   1   3
HETATM    3  C4  UNL     1      17.582   5.548  13.700  1.00  0.00     0.142 C 
BRANCH   3   4
HETATM    4  C3  UNL     1      16.894   5.166  14.975  1.00  0.00     0.147 C 
BRANCH   4   5
HETATM    5  N1  UNL     1      16.661   3.776  15.126  1.00  0.00    -0.362 N 
HETATM    6  C2  UNL     1      17.689   2.996  15.694  1.00  0.00     0.164 C 
HETATM    7  C1  UNL     1      17.190   1.797  16.431  1.00  0.00     0.257 C 
HETATM    8  O1  UNL     1      17.999   0.848  16.617  1.00  0.00    -0.267 OA
HETATM    9  N4  UNL     1      15.858   1.702  16.915  1.00  0.00    -0.352 N 
HETATM   10  C14 UNL     1      14.966   2.806  16.627  1.00  0.00     0.167 C 
ATOM     11  H4  UNL     1      15.542   0.890  17.444  1.00  0.00     0.163 HD
HETATM   12  C13 UNL     1      15.326   3.360  15.294  1.00  0.00     0.083 C 
ENDBRANCH   4   5
ENDBRANCH   3   4
ENDBRANCH   1   3
BRANCH   1  13
HETATM   13  C5  UNL     1      17.537   4.246  11.517  1.00  0.00     0.169 C 
HETATM   14  S1  UNL     1      18.396   4.940  10.297  1.00  0.00    -0.041 SA
BRANCH  13  15
HETATM   15  N3  UNL     1      17.410   2.825  11.536  1.00  0.00    -0.358 N 
HETATM   16  C6  UNL     1      16.376   2.252  10.713  1.00  0.00     0.130 C 
HETATM   17  C7  UNL     1      16.289   0.784  10.670  1.00  0.00     0.088 C 
HETATM   18  C8  UNL     1      17.360   0.055  11.437  1.00  0.00     0.167 C 
HETATM   19  C9  UNL     1      17.648   0.781  12.756  1.00  0.00     0.088 C 
HETATM   20  O2  UNL     1      18.522   0.142  10.677  1.00  0.00    -0.353 OA
HETATM   21  O3  UNL     1      17.082  -1.274  11.613  1.00  0.00    -0.353 OA
HETATM   22  C10 UNL     1      18.318   2.078  12.367  1.00  0.00     0.130 C 
HETATM   23  C11 UNL     1      19.318  -0.886  11.129  1.00  0.00     0.197 C 
HETATM   24  C12 UNL     1      18.335  -1.875  11.694  1.00  0.00     0.197 C 
ENDBRANCH  13  15
ENDBRANCH   1  13
TORSDOF 5
ENDMDL
MODEL 5
REMARK VINA RESULT: -6.603547093      1.937      5.173
REMARK  5 active torsions:
REMARK  status: ('A' for Active; 'I' for Inactive)
REMARK    1  A    between atoms: N1_4  and  C3_5 
REMARK    2  A    between atoms: C3_5  and  C4_6 
REMARK    3  A    between atoms: C4_6  and  N2_7 
REMARK    4  A    between atoms: N2_7  and  C5_9 
REMARK    5  A    between atoms: C5_9  and  N3_11 
ROOT
HETATM    1  N2  UNL     1      19.445   4.075  13.688  1.00  0.00    -0.366 N 
ATOM      2  H2  UNL     1      20.243   3.713  14.210  1.00  0.00     0.161 HD
ENDROOT
BRANCH   1   3
HETATM    3  C4  UNL     1      19.594   4.202  12.264  1.00  0.00     0.142 C 
BRANCH   3   4
HETATM    4  C3  UNL     1      20.222   3.001  11.625  1.00  0.00     0.147 C 
BRANCH   4   5
HETATM    5  N1  UNL     1      19.301   2.089  11.052  1.00  0.00    -0.362 N 
HETATM    6  C2  UNL     1      19.325   0.757  11.512  1.00  0.00     0.164 C 
HETATM    7  C1  UNL     1      18.000   0.071  11.426  1.00  0.00     0.257 C 
HETATM    8  O1  UNL     1      17.995  -1.189  11.422  1.00  0.00    -0.267 OA
HETATM    9  N4  UNL     1      16.777   0.790  11.350  1.00  0.00    -0.352 N 
HETATM   10  C14 UNL     1      16.856   2.235  11.312  1.00  0.00     0.167 C 
ATOM     11  H4  UNL     1      15.879   0.307  11.324  1.00  0.00     0.163 HD
HETATM   12  C13 UNL     1      18.087   2.615  10.569  1.00  0.00     0.083 C 
ENDBRANCH   4   5
ENDBRANCH   3   4
ENDBRANCH   1   3
BRANCH   1  13
HETATM   13  C5  UNL     1      18.277   4.410  14.428  1.00  0.00     0.169 C 
HETATM   14  S1  UNL     1      17.875   5.981  14.712  1.00  0.00    -0.041 SA
BRANCH  13  15
HETATM   15  N3  UNL     1      17.431   3.388  14.950  1.00  0.00    -0.358 N 
HETATM   16  C6  UNL     1      17.792   2.026  14.646  1.00  0.00     0.130 C 
HETATM   17  C7  UNL     1      16.967   0.965  15.245  1.00  0.00     0.088 C 
HETATM   18  C8  UNL     1      15.886   1.441  16.178  1.00  0.00     0.167 C 
HETATM   19  C9  UNL     1      15.236   2.714  15.623  1.00  0.00     0.088 C 
HETATM   20  O2  UNL     1      16.515   1.803  17.364  1.00  0.00    -0.353 OA
HETATM   21  O3  UNL     1      14.970   0.467  16.479  1.00  0.00    -0.353 OA
HETATM   22  C10 UNL     1      16.292   3.789  15.735  1.00  0.00     0.130 C 
HETATM   23  C11 UNL     1      15.522   1.774  18.316  1.00  0.00     0.197 C 
HETATM   24  C12 UNL     1      14.514   0.812  17.747  1.00  0.00     0.197 C 
ENDBRANCH  13  15
ENDBRANCH   1  13
TORSDOF 5
ENDMDL
