MODEL 1
REMARK VINA RESULT: -7.422713074      0.000      0.000
REMARK  5 active torsions:
REMARK  status: ('A' for Active; 'I' for Inactive)
REMARK    1  A    between atoms: N2_8  and  C7_9 
REMARK    2  A    between atoms: C7_9  and  C8_10 
REMARK    3  A    between atoms: C8_10  and  O1_11 
REMARK       I    between atoms: N3_16  and  C12_17 
REMARK    4  A    between atoms: C12_17  and  C13_19 
REMARK    5  A    between atoms: C13_19  and  O3_20 
ROOT
HETATM    1  C8  UNL     1      17.742   4.631  14.426  1.00  0.00     0.100 C 
HETATM    2  C9  UNL     1      16.577   5.477  14.974  1.00  0.00     0.043 C 
HETATM    3  C10 UNL     1      15.296   4.687  14.863  1.00  0.00     0.023 C 
HETATM    4  C11 UNL     1      15.377   3.332  15.479  1.00  0.00     0.126 C 
HETATM    5  N3  UNL     1      16.664   2.800  15.751  1.00  0.00    -0.344 N 
HETATM    6  C12 UNL     1      16.810   1.622  16.546  1.00  0.00     0.265 C 
HETATM    7  O2  UNL     1      18.011   1.242  16.778  1.00  0.00    -0.266 OA
HETATM    8  C14 UNL     1      17.881   3.402  15.242  1.00  0.00     0.165 C 
ENDROOT
BRANCH   1   9
HETATM    9  C7  UNL     1      17.528   4.361  12.968  1.00  0.00     0.311 C 
BRANCH   9  10
HETATM   10  N2  UNL     1      18.739   4.127  12.273  1.00  0.00     0.091 N 
HETATM   11  C6  UNL     1      18.696   4.851  10.958  1.00  0.00     0.273 C 
HETATM   12  C5  UNL     1      20.152   5.157  10.688  1.00  0.00     0.041 C 
HETATM   13  C4  UNL     1      20.912   3.870  10.556  1.00  0.00    -0.009 C 
HETATM   14  C3  UNL     1      22.414   4.135  10.753  1.00  0.00     0.041 C 
HETATM   15  C16 UNL     1      20.546   2.786  11.488  1.00  0.00     0.041 C 
HETATM   16  C17 UNL     1      20.791   3.468   9.079  1.00  0.00     0.281 C 
HETATM   17  C2  UNL     1      22.980   3.762   9.399  1.00  0.00     0.272 C 
HETATM   18  N1  UNL     1      21.911   4.227   8.530  1.00  0.00     0.085 N 
HETATM   19  C1  UNL     1      22.149   3.962   7.137  1.00  0.00     0.309 C 
HETATM   20  C15 UNL     1      19.073   2.784  11.922  1.00  0.00     0.273 C 
ENDBRANCH   9  10
ENDBRANCH   1   9
BRANCH   1  21
HETATM   21  O1  UNL     1      18.856   5.431  14.609  1.00  0.00    -0.386 OA
ATOM     22  H1  UNL     1      19.164   5.370  15.505  1.00  0.00     0.210 HD
ENDBRANCH   1  21
BRANCH   6  23
HETATM   23  C13 UNL     1      15.710   0.856  17.089  1.00  0.00     0.205 C 
BRANCH  23  24
HETATM   24  O3  UNL     1      15.814  -0.497  17.157  1.00  0.00    -0.367 OA
ATOM     25  H3  UNL     1      15.093  -1.033  16.848  1.00  0.00     0.216 HD
ENDBRANCH  23  24
ENDBRANCH   6  23
TORSDOF 5
ENDMDL
MODEL 2
REMARK VINA RESULT: -6.882318254      2.481      3.474
REMARK  5 active torsions:
REMARK  status: ('A' for Active; 'I' for Inactive)
REMARK    1  A    between atoms: N2_8  and  C7_9 
REMARK    2  A    between atoms: C7_9  and  C8_10 
REMARK    3  A    between atoms: C8_10  and  O1_11 
REMARK       I    between atoms: N3_16  and  C12_17 
REMARK    4  A    between atoms: C12_17  and  C13_19 
REMARK    5  A    between atoms: C13_19  and  O3_20 
ROOT
HETATM    1  C8  UNL     1      17.526   1.926  10.986  1.00  0.00     0.100 C 
HETATM    2  C9  UNL     1      16.767   0.601  10.781  1.00  0.00     0.043 C 
HETATM    3  C10 UNL     1      17.305  -0.432  11.740  1.00  0.00     0.023 C 
HETATM    4  C11 UNL     1      17.319   0.022  13.159  1.00  0.00     0.126 C 
HETATM    5  N3  UNL     1      17.196   1.413  13.415  1.00  0.00    -0.344 N 
HETATM    6  C12 UNL     1      16.968   1.890  14.742  1.00  0.00     0.265 C 
HETATM    7  O2  UNL     1      16.823   3.157  14.869  1.00  0.00    -0.266 OA
HETATM    8  C14 UNL     1      17.302   2.410  12.368  1.00  0.00     0.165 C 
ENDROOT
BRANCH   1   9
HETATM    9  C7  UNL     1      18.974   1.736  10.646  1.00  0.00     0.311 C 
BRANCH   9  10
HETATM   10  N2  UNL     1      19.706   2.946  10.684  1.00  0.00     0.091 N 
HETATM   11  C6  UNL     1      20.306   3.197   9.331  1.00  0.00     0.273 C 
HETATM   12  C5  UNL     1      20.381   4.706   9.264  1.00  0.00     0.041 C 
HETATM   13  C4  UNL     1      21.294   5.204  10.345  1.00  0.00    -0.009 C 
HETATM   14  C3  UNL     1      21.026   6.697  10.600  1.00  0.00     0.041 C 
HETATM   15  C16 UNL     1      21.204   4.527  11.653  1.00  0.00     0.041 C 
HETATM   16  C17 UNL     1      22.706   5.173   9.740  1.00  0.00     0.281 C 
HETATM   17  C2  UNL     1      22.345   7.327  10.203  1.00  0.00     0.272 C 
HETATM   18  N1  UNL     1      22.715   6.477   9.083  1.00  0.00     0.085 N 
HETATM   19  C1  UNL     1      23.988   6.813   8.505  1.00  0.00     0.309 C 
HETATM   20  C15 UNL     1      20.813   3.044  11.580  1.00  0.00     0.273 C 
ENDBRANCH   9  10
ENDBRANCH   1   9
BRANCH   1  21
HETATM   21  O1  UNL     1      16.932   2.798  10.091  1.00  0.00    -0.386 OA
ATOM     22  H1  UNL     1      17.098   2.520   9.199  1.00  0.00     0.210 HD
ENDBRANCH   1  21
BRANCH   6  23
HETATM   23  C13 UNL     1      16.891   1.049  15.916  1.00  0.00     0.205 C 
BRANCH  23  24
HETATM   24  O3  UNL     1      18.020   0.804  16.630  1.00  0.00    -0.367 OA
ATOM     25  H3  UNL     1      17.999   0.151  17.321  1.00  0.00     0.216 HD
ENDBRANCH  23  24
ENDBRANCH   6  23
TORSDOF 5
ENDMDL
MODEL 3
REMARK VINA RESULT: -6.865898722      2.780      4.079
REMARK  5 active torsions:
REMARK  status: ('A' for Active; 'I' for Inactive)
REMARK    1  A    between atoms: N2_8  and  C7_9 
REMARK    2  A    between atoms: C7_9  and  C8_10 
REMARK    3  A    between atoms: C8_10  and  O1_11 
REMARK       I    between atoms: N3_16  and  C12_17 
REMARK    4  A    between atoms: C12_17  and  C13_19 
REMARK    5  A    between atoms: C13_19  and  O3_20 
ROOT
HETATM    1  C8  UNL     1      16.868   1.774  11.037  1.00  0.00     0.100 C 
HETATM    2  C9  UNL     1      16.684   0.251  10.901  1.00  0.00     0.043 C 
HETATM    3  C10 UNL     1      17.677  -0.450  11.795  1.00  0.00     0.023 C 
HETATM    4  C11 UNL     1      17.642   0.021  13.208  1.00  0.00     0.126 C 
HETATM    5  N3  UNL     1      16.999   1.256  13.484  1.00  0.00    -0.344 N 
HETATM    6  C12 UNL     1      16.725   1.648  14.830  1.00  0.00     0.265 C 
HETATM    7  O2  UNL     1      16.100   2.757  14.979  1.00  0.00    -0.266 OA
HETATM    8  C14 UNL     1      16.599   2.177  12.438  1.00  0.00     0.165 C 
ENDROOT
BRANCH   1   9
HETATM    9  C7  UNL     1      18.232   2.164  10.553  1.00  0.00     0.311 C 
BRANCH   9  10
HETATM   10  N2  UNL     1      18.760   3.277  11.250  1.00  0.00     0.091 N 
HETATM   11  C6  UNL     1      18.703   4.483  10.358  1.00  0.00     0.273 C 
HETATM   12  C5  UNL     1      18.560   5.627  11.337  1.00  0.00     0.041 C 
HETATM   13  C4  UNL     1      19.774   5.679  12.217  1.00  0.00    -0.009 C 
HETATM   14  C3  UNL     1      19.459   6.491  13.485  1.00  0.00     0.041 C 
HETATM   15  C16 UNL     1      20.322   4.385  12.669  1.00  0.00     0.041 C 
HETATM   16  C17 UNL     1      20.796   6.541  11.461  1.00  0.00     0.281 C 
HETATM   17  C2  UNL     1      20.403   7.667  13.349  1.00  0.00     0.272 C 
HETATM   18  N1  UNL     1      20.372   7.865  11.909  1.00  0.00     0.085 N 
HETATM   19  C1  UNL     1      21.235   8.922  11.456  1.00  0.00     0.309 C 
HETATM   20  C15 UNL     1      20.120   3.225  11.682  1.00  0.00     0.273 C 
ENDBRANCH   9  10
ENDBRANCH   1   9
BRANCH   1  21
HETATM   21  O1  UNL     1      15.894   2.308  10.212  1.00  0.00    -0.386 OA
ATOM     22  H1  UNL     1      15.179   1.692  10.103  1.00  0.00     0.210 HD
ENDBRANCH   1  21
BRANCH   6  23
HETATM   23  C13 UNL     1      17.101   0.887  16.000  1.00  0.00     0.205 C 
BRANCH  23  24
HETATM   24  O3  UNL     1      18.244   1.208  16.661  1.00  0.00    -0.367 OA
ATOM     25  H3  UNL     1      18.374   0.885  17.546  1.00  0.00     0.216 HD
ENDBRANCH  23  24
ENDBRANCH   6  23
TORSDOF 5
ENDMDL
MODEL 4
REMARK VINA RESULT: -6.752710289      3.674      6.100
REMARK  5 active torsions:
REMARK  status: ('A' for Active; 'I' for Inactive)
REMARK    1  A    between atoms: N2_8  and  C7_9 
REMARK    2  A    between atoms: C7_9  and  C8_10 
REMARK    3  A    between atoms: C8_10  and  O1_11 
REMARK       I    between atoms: N3_16  and  C12_17 
REMARK    4  A    between atoms: C12_17  and  C13_19 
REMARK    5  A    between atoms: C13_19  and  O3_20 
ROOT
HETATM    1  C8  UNL     1      17.410   2.225  11.475  1.00  0.00     0.100 C 
HETATM    2  C9  UNL     1      18.482   2.404  10.383  1.00  0.00     0.043 C 
HETATM    3  C10 UNL     1      19.758   1.731  10.826  1.00  0.00     0.023 C 
HETATM    4  C11 UNL     1      19.570   0.311  11.236  1.00  0.00     0.126 C 
HETATM    5  N3  UNL     1      18.252  -0.133  11.518  1.00  0.00    -0.344 N 
HETATM    6  C12 UNL     1      17.973  -1.524  11.686  1.00  0.00     0.265 C 
HETATM    7  O2  UNL     1      16.747  -1.833  11.891  1.00  0.00    -0.266 OA
HETATM    8  C14 UNL     1      17.135   0.781  11.659  1.00  0.00     0.165 C 
ENDROOT
BRANCH   1   9
HETATM    9  C7  UNL     1      17.848   2.916  12.731  1.00  0.00     0.311 C 
BRANCH   9  10
HETATM   10  N2  UNL     1      17.359   4.242  12.822  1.00  0.00     0.091 N 
HETATM   11  C6  UNL     1      18.519   5.194  12.780  1.00  0.00     0.273 C 
HETATM   12  C5  UNL     1      17.921   6.435  12.155  1.00  0.00     0.041 C 
HETATM   13  C4  UNL     1      16.837   6.964  13.048  1.00  0.00    -0.009 C 
HETATM   14  C3  UNL     1      15.922   7.905  12.246  1.00  0.00     0.041 C 
HETATM   15  C16 UNL     1      15.961   5.966  13.691  1.00  0.00     0.041 C 
HETATM   16  C17 UNL     1      17.543   7.889  14.050  1.00  0.00     0.281 C 
HETATM   17  C2  UNL     1      16.141   9.230  12.946  1.00  0.00     0.272 C 
HETATM   18  N1  UNL     1      17.553   9.125  13.272  1.00  0.00     0.085 N 
HETATM   19  C1  UNL     1      18.058  10.254  14.005  1.00  0.00     0.309 C 
HETATM   20  C15 UNL     1      16.638   4.621  13.994  1.00  0.00     0.273 C 
ENDBRANCH   9  10
ENDBRANCH   1   9
BRANCH   1  21
HETATM   21  O1  UNL     1      16.288   2.844  10.951  1.00  0.00    -0.386 OA
ATOM     22  H1  UNL     1      15.646   2.196  10.688  1.00  0.00     0.210 HD
ENDBRANCH   1  21
BRANCH   6  23
HETATM   23  C13 UNL     1      18.968  -2.573  11.638  1.00  0.00     0.205 C 
BRANCH  23  24
HETATM   24  O3  UNL     1      18.564  -3.870  11.640  1.00  0.00    -0.367 OA
ATOM     25  H3  UNL     1      19.212  -4.557  11.541  1.00  0.00     0.216 HD
ENDBRANCH  23  24
ENDBRANCH   6  23
TORSDOF 5
ENDMDL
MODEL 5
REMARK VINA RESULT: -6.582536234      2.743      7.922
REMARK  5 active torsions:
REMARK  status: ('A' for Active; 'I' for Inactive)
REMARK    1  A    between atoms: N2_8  and  C7_9 
REMARK    2  A    between atoms: C7_9  and  C8_10 
REMARK    3  A    between atoms: C8_10  and  O1_11 
REMARK       I    between atoms: N3_16  and  C12_17 
REMARK    4  A    between atoms: C12_17  and  C13_19 
REMARK    5  A    between atoms: C13_19  and  O3_20 
ROOT
HETATM    1  C8  UNL     1      20.211   3.930  11.687  1.00  0.00     0.100 C 
HETATM    2  C9  UNL     1      20.516   2.427  11.540  1.00  0.00     0.043 C 
HETATM    3  C10 UNL     1      19.823   1.900  10.307  1.00  0.00     0.023 C 
HETATM    4  C11 UNL     1      20.124   2.682   9.075  1.00  0.00     0.126 C 
HETATM    5  N3  UNL     1      20.681   3.978   9.227  1.00  0.00    -0.344 N 
HETATM    6  C12 UNL     1      21.206   4.681   8.099  1.00  0.00     0.265 C 
HETATM    7  O2  UNL     1      21.731   5.824   8.341  1.00  0.00    -0.266 OA
HETATM    8  C14 UNL     1      20.742   4.655  10.508  1.00  0.00     0.165 C 
ENDROOT
BRANCH   1   9
HETATM    9  C7  UNL     1      18.741   4.129  11.900  1.00  0.00     0.311 C 
BRANCH   9  10
HETATM   10  N2  UNL     1      18.302   3.642  13.155  1.00  0.00     0.091 N 
HETATM   11  C6  UNL     1      17.051   2.836  12.955  1.00  0.00     0.273 C 
HETATM   12  C5  UNL     1      17.108   1.830  14.083  1.00  0.00     0.041 C 
HETATM   13  C4  UNL     1      17.064   2.556  15.396  1.00  0.00    -0.009 C 
HETATM   14  C3  UNL     1      17.584   1.636  16.513  1.00  0.00     0.041 C 
HETATM   15  C16 UNL     1      17.835   3.811  15.486  1.00  0.00     0.041 C 
HETATM   16  C17 UNL     1      15.573   2.735  15.719  1.00  0.00     0.281 C 
HETATM   17  C2  UNL     1      16.358   1.477  17.388  1.00  0.00     0.272 C 
HETATM   18  N1  UNL     1      15.314   1.457  16.377  1.00  0.00     0.085 N 
HETATM   19  C1  UNL     1      13.988   1.357  16.924  1.00  0.00     0.309 C 
HETATM   20  C15 UNL     1      17.952   4.587  14.166  1.00  0.00     0.273 C 
ENDBRANCH   9  10
ENDBRANCH   1   9
BRANCH   1  21
HETATM   21  O1  UNL     1      20.917   4.309  12.815  1.00  0.00    -0.386 OA
ATOM     22  H1  UNL     1      21.830   4.063  12.732  1.00  0.00     0.210 HD
ENDBRANCH   1  21
BRANCH   6  23
HETATM   23  C13 UNL     1      21.180   4.188   6.740  1.00  0.00     0.205 C 
BRANCH  23  24
HETATM   24  O3  UNL     1      22.216   3.437   6.287  1.00  0.00    -0.367 OA
ATOM     25  H3  UNL     1      22.077   2.514   6.108  1.00  0.00     0.216 HD
ENDBRANCH  23  24
ENDBRANCH   6  23
TORSDOF 5
ENDMDL
