MODEL 1
REMARK VINA RESULT: -4.317021609      0.000      0.000
REMARK  3 active torsions:
REMARK  status: ('A' for Active; 'I' for Inactive)
REMARK    1  A    between atoms: N1_2  and  C2_3 
REMARK    2  A    between atoms: N1_2  and  C3_8 
REMARK    3  A    between atoms: C2_3  and  N2_4 
ROOT
HETATM    1  C3  UNL     1      79.191   6.661 -39.628  1.00  0.00     0.107 C 
HETATM    2  C4  UNL     1      77.922   7.234 -40.214  1.00  0.00     0.054 C 
HETATM    3  C5  UNL     1      78.113   6.770 -41.669  1.00  0.00     0.234 C 
HETATM    4  N3  UNL     1      78.616   5.433 -41.533  1.00  0.00    -0.073 N 
ATOM      5  H31 UNL     1      79.313   5.206 -42.243  1.00  0.00     0.277 HD
ATOM      6  H32 UNL     1      77.922   4.729 -41.785  1.00  0.00     0.277 HD
HETATM    7  C6  UNL     1      79.120   5.255 -40.188  1.00  0.00     0.257 C 
ENDROOT
BRANCH   1   8
HETATM    8  N1  UNL     1      79.323   6.737 -38.223  1.00  0.00    -0.389 N 
HETATM    9  C1  UNL     1      78.804   5.597 -37.564  1.00  0.00     0.145 C 
BRANCH   8  10
HETATM   10  C2  UNL     1      79.041   8.004 -37.648  1.00  0.00     0.349 C 
BRANCH  10  11
HETATM   11  N2  UNL     1      80.179   8.665 -37.081  1.00  0.00    -0.064 N 
ATOM     12  H23 UNL     1      81.021   8.106 -37.222  1.00  0.00     0.276 HD
ATOM     13  H22 UNL     1      80.423   9.488 -37.632  1.00  0.00     0.276 HD
ATOM     14  H21 UNL     1      80.078   8.913 -36.098  1.00  0.00     0.276 HD
ENDBRANCH  10  11
ENDBRANCH   8  10
ENDBRANCH   1   8
TORSDOF 3
ENDMDL
MODEL 2
REMARK VINA RESULT: -4.299666762      1.856      3.950
REMARK  3 active torsions:
REMARK  status: ('A' for Active; 'I' for Inactive)
REMARK    1  A    between atoms: N1_2  and  C2_3 
REMARK    2  A    between atoms: N1_2  and  C3_8 
REMARK    3  A    between atoms: C2_3  and  N2_4 
ROOT
HETATM    1  C3  UNL     1      78.447   6.154 -38.746  1.00  0.00     0.107 C 
HETATM    2  C4  UNL     1      77.552   4.939 -38.695  1.00  0.00     0.054 C 
HETATM    3  C5  UNL     1      77.581   4.698 -37.175  1.00  0.00     0.234 C 
HETATM    4  N3  UNL     1      77.478   6.019 -36.622  1.00  0.00    -0.073 N 
ATOM      5  H31 UNL     1      78.041   6.132 -35.779  1.00  0.00     0.277 HD
ATOM      6  H32 UNL     1      76.563   6.196 -36.208  1.00  0.00     0.277 HD
HETATM    7  C6  UNL     1      77.817   6.984 -37.646  1.00  0.00     0.257 C 
ENDROOT
BRANCH   1   8
HETATM    8  N1  UNL     1      78.552   6.804 -39.996  1.00  0.00    -0.389 N 
HETATM    9  C1  UNL     1      78.025   8.117 -39.975  1.00  0.00     0.145 C 
BRANCH   8  10
HETATM   10  C2  UNL     1      78.256   6.003 -41.131  1.00  0.00     0.349 C 
BRANCH  10  11
HETATM   11  N2  UNL     1      77.879   6.744 -42.298  1.00  0.00    -0.064 N 
ATOM     12  H23 UNL     1      76.975   7.196 -42.156  1.00  0.00     0.276 HD
ATOM     13  H22 UNL     1      78.471   7.568 -42.402  1.00  0.00     0.276 HD
ATOM     14  H21 UNL     1      77.872   6.199 -43.160  1.00  0.00     0.276 HD
ENDBRANCH  10  11
ENDBRANCH   8  10
ENDBRANCH   1   8
TORSDOF 3
ENDMDL
MODEL 3
REMARK VINA RESULT: -4.280248663      1.785      2.403
REMARK  3 active torsions:
REMARK  status: ('A' for Active; 'I' for Inactive)
REMARK    1  A    between atoms: N1_2  and  C2_3 
REMARK    2  A    between atoms: N1_2  and  C3_8 
REMARK    3  A    between atoms: C2_3  and  N2_4 
ROOT
HETATM    1  C3  UNL     1      79.150   5.809 -40.664  1.00  0.00     0.107 C 
HETATM    2  C4  UNL     1      78.516   4.514 -40.214  1.00  0.00     0.054 C 
HETATM    3  C5  UNL     1      79.112   3.583 -41.286  1.00  0.00     0.234 C 
HETATM    4  N3  UNL     1      80.473   4.025 -41.396  1.00  0.00    -0.073 N 
ATOM      5  H31 UNL     1      80.819   3.985 -42.355  1.00  0.00     0.277 HD
ATOM      6  H32 UNL     1      81.131   3.365 -40.980  1.00  0.00     0.277 HD
HETATM    7  C6  UNL     1      80.585   5.349 -40.824  1.00  0.00     0.257 C 
ENDROOT
BRANCH   1   8
HETATM    8  N1  UNL     1      78.973   6.923 -39.814  1.00  0.00    -0.389 N 
HETATM    9  C1  UNL     1      79.007   6.574 -38.443  1.00  0.00     0.145 C 
BRANCH   8  10
HETATM   10  C2  UNL     1      77.982   7.854 -40.222  1.00  0.00     0.349 C 
BRANCH  10  11
HETATM   11  N2  UNL     1      78.048   9.121 -39.557  1.00  0.00    -0.064 N 
ATOM     12  H23 UNL     1      78.976   9.265 -39.157  1.00  0.00     0.276 HD
ATOM     13  H22 UNL     1      78.033   9.881 -40.237  1.00  0.00     0.276 HD
ATOM     14  H21 UNL     1      77.330   9.264 -38.847  1.00  0.00     0.276 HD
ENDBRANCH  10  11
ENDBRANCH   8  10
ENDBRANCH   1   8
TORSDOF 3
ENDMDL
MODEL 4
REMARK VINA RESULT: -4.218187949      1.480      3.972
REMARK  3 active torsions:
REMARK  status: ('A' for Active; 'I' for Inactive)
REMARK    1  A    between atoms: N1_2  and  C2_3 
REMARK    2  A    between atoms: N1_2  and  C3_8 
REMARK    3  A    between atoms: C2_3  and  N2_4 
ROOT
HETATM    1  C3  UNL     1      78.734   6.313 -39.672  1.00  0.00     0.107 C 
HETATM    2  C4  UNL     1      77.774   5.570 -38.773  1.00  0.00     0.054 C 
HETATM    3  C5  UNL     1      77.826   6.511 -37.556  1.00  0.00     0.234 C 
HETATM    4  N3  UNL     1      77.810   7.821 -38.143  1.00  0.00    -0.073 N 
ATOM      5  H31 UNL     1      78.399   8.482 -37.634  1.00  0.00     0.277 HD
ATOM      6  H32 UNL     1      76.916   8.295 -38.010  1.00  0.00     0.277 HD
HETATM    7  C6  UNL     1      78.178   7.716 -39.538  1.00  0.00     0.257 C 
ENDROOT
BRANCH   1   8
HETATM    8  N1  UNL     1      78.845   5.839 -40.998  1.00  0.00    -0.389 N 
HETATM    9  C1  UNL     1      77.928   6.461 -41.878  1.00  0.00     0.145 C 
BRANCH   8  10
HETATM   10  C2  UNL     1      79.030   4.439 -41.136  1.00  0.00     0.349 C 
BRANCH  10  11
HETATM   11  N2  UNL     1      80.363   4.047 -41.488  1.00  0.00    -0.064 N 
ATOM     12  H23 UNL     1      81.040   4.701 -41.097  1.00  0.00     0.276 HD
ATOM     13  H22 UNL     1      80.628   3.200 -40.986  1.00  0.00     0.276 HD
ATOM     14  H21 UNL     1      80.519   3.930 -42.489  1.00  0.00     0.276 HD
ENDBRANCH  10  11
ENDBRANCH   8  10
ENDBRANCH   1   8
TORSDOF 3
ENDMDL
MODEL 5
REMARK VINA RESULT: -4.193385629      1.680      2.346
REMARK  3 active torsions:
REMARK  status: ('A' for Active; 'I' for Inactive)
REMARK    1  A    between atoms: N1_2  and  C2_3 
REMARK    2  A    between atoms: N1_2  and  C3_8 
REMARK    3  A    between atoms: C2_3  and  N2_4 
ROOT
HETATM    1  C3  UNL     1      78.299   6.083 -40.475  1.00  0.00     0.107 C 
HETATM    2  C4  UNL     1      78.157   4.620 -40.125  1.00  0.00     0.054 C 
HETATM    3  C5  UNL     1      79.050   4.033 -41.232  1.00  0.00     0.234 C 
HETATM    4  N3  UNL     1      80.170   4.930 -41.273  1.00  0.00    -0.073 N 
ATOM      5  H31 UNL     1      80.515   5.078 -42.222  1.00  0.00     0.277 HD
ATOM      6  H32 UNL     1      81.015   4.515 -40.878  1.00  0.00     0.277 HD
HETATM    7  C6  UNL     1      79.805   6.167 -40.618  1.00  0.00     0.257 C 
ENDROOT
BRANCH   1   8
HETATM    8  N1  UNL     1      77.734   7.003 -39.565  1.00  0.00    -0.389 N 
HETATM    9  C1  UNL     1      77.998   8.349 -39.915  1.00  0.00     0.145 C 
BRANCH   8  10
HETATM   10  C2  UNL     1      77.845   6.656 -38.193  1.00  0.00     0.349 C 
BRANCH  10  11
HETATM   11  N2  UNL     1      77.835   7.772 -37.295  1.00  0.00    -0.064 N 
ATOM     12  H23 UNL     1      77.691   7.456 -36.336  1.00  0.00     0.276 HD
ATOM     13  H22 UNL     1      78.772   8.167 -37.209  1.00  0.00     0.276 HD
ATOM     14  H21 UNL     1      77.163   8.501 -37.533  1.00  0.00     0.276 HD
ENDBRANCH  10  11
ENDBRANCH   8  10
ENDBRANCH   1   8
TORSDOF 3
ENDMDL
