MODEL 1
REMARK VINA RESULT: -4.591815231      0.000      0.000
REMARK  3 active torsions:
REMARK  status: ('A' for Active; 'I' for Inactive)
REMARK    1  A    between atoms: C1_4  and  N2_5 
REMARK    2  A    between atoms: N2_5  and  C2_7 
REMARK    3  A    between atoms: C2_7  and  C3_8 
ROOT
HETATM    1  C3  UNL     1      78.243   5.879 -39.464  1.00  0.00     0.030 C 
HETATM    2  C4  UNL     1      77.876   7.162 -40.223  1.00  0.00     0.035 C 
HETATM    3  C5  UNL     1      78.082   6.728 -41.643  1.00  0.00     0.232 C 
HETATM    4  N3  UNL     1      78.724   5.425 -41.635  1.00  0.00    -0.075 N 
ATOM      5  H31 UNL     1      79.319   5.229 -42.441  1.00  0.00     0.277 HD
ATOM      6  H32 UNL     1      78.101   4.632 -41.783  1.00  0.00     0.277 HD
HETATM    7  C6  UNL     1      79.417   5.445 -40.334  1.00  0.00     0.238 C 
ENDROOT
BRANCH   1   8
HETATM    8  C2  UNL     1      78.603   6.149 -38.049  1.00  0.00     0.126 C 
BRANCH   8   9
HETATM    9  N2  UNL     1      79.644   7.151 -37.958  1.00  0.00    -0.386 N 
ATOM     10  H2  UNL     1      80.518   7.067 -38.475  1.00  0.00     0.160 HD
BRANCH   9  11
HETATM   11  C1  UNL     1      79.379   8.259 -37.108  1.00  0.00     0.168 C 
HETATM   12  N1  UNL     1      80.312   9.042 -36.781  1.00  0.00    -0.396 N 
ATOM     13  H12 UNL     1      81.252   8.866 -37.136  1.00  0.00     0.156 HD
ATOM     14  H11 UNL     1      80.122   9.837 -36.172  1.00  0.00     0.156 HD
ENDBRANCH   9  11
ENDBRANCH   8   9
ENDBRANCH   1   8
TORSDOF 3
ENDMDL
MODEL 2
REMARK VINA RESULT: -4.588067591      0.981      1.584
REMARK  3 active torsions:
REMARK  status: ('A' for Active; 'I' for Inactive)
REMARK    1  A    between atoms: C1_4  and  N2_5 
REMARK    2  A    between atoms: N2_5  and  C2_7 
REMARK    3  A    between atoms: C2_7  and  C3_8 
ROOT
HETATM    1  C3  UNL     1      78.733   6.848 -39.925  1.00  0.00     0.030 C 
HETATM    2  C4  UNL     1      77.964   5.655 -39.338  1.00  0.00     0.035 C 
HETATM    3  C5  UNL     1      78.117   4.644 -40.433  1.00  0.00     0.232 C 
HETATM    4  N3  UNL     1      78.698   5.304 -41.589  1.00  0.00    -0.075 N 
ATOM      5  H31 UNL     1      78.440   4.908 -42.493  1.00  0.00     0.277 HD
ATOM      6  H32 UNL     1      79.702   5.165 -41.710  1.00  0.00     0.277 HD
HETATM    7  C6  UNL     1      78.280   6.701 -41.373  1.00  0.00     0.238 C 
ENDROOT
BRANCH   1   8
HETATM    8  C2  UNL     1      78.342   8.133 -39.293  1.00  0.00     0.126 C 
BRANCH   8   9
HETATM    9  N2  UNL     1      78.260   8.001 -37.853  1.00  0.00    -0.386 N 
ATOM     10  H2  UNL     1      77.365   7.944 -37.368  1.00  0.00     0.160 HD
BRANCH   9  11
HETATM   11  C1  UNL     1      79.495   7.955 -37.154  1.00  0.00     0.168 C 
HETATM   12  N1  UNL     1      80.125   9.021 -36.912  1.00  0.00    -0.396 N 
ATOM     13  H12 UNL     1      79.732   9.909 -37.225  1.00  0.00     0.156 HD
ATOM     14  H11 UNL     1      81.011   8.989 -36.409  1.00  0.00     0.156 HD
ENDBRANCH   9  11
ENDBRANCH   8   9
ENDBRANCH   1   8
TORSDOF 3
ENDMDL
MODEL 3
REMARK VINA RESULT: -4.537809031      1.767      3.954
REMARK  3 active torsions:
REMARK  status: ('A' for Active; 'I' for Inactive)
REMARK    1  A    between atoms: C1_4  and  N2_5 
REMARK    2  A    between atoms: N2_5  and  C2_7 
REMARK    3  A    between atoms: C2_7  and  C3_8 
ROOT
HETATM    1  C3  UNL     1      78.768   6.139 -39.964  1.00  0.00     0.030 C 
HETATM    2  C4  UNL     1      78.197   7.118 -41.000  1.00  0.00     0.035 C 
HETATM    3  C5  UNL     1      77.912   8.315 -40.143  1.00  0.00     0.232 C 
HETATM    4  N3  UNL     1      78.085   7.933 -38.752  1.00  0.00    -0.075 N 
ATOM      5  H31 UNL     1      77.510   8.448 -38.085  1.00  0.00     0.277 HD
ATOM      6  H32 UNL     1      78.976   8.203 -38.334  1.00  0.00     0.277 HD
HETATM    7  C6  UNL     1      77.833   6.482 -38.810  1.00  0.00     0.238 C 
ENDROOT
BRANCH   1   8
HETATM    8  C2  UNL     1      78.681   4.729 -40.419  1.00  0.00     0.126 C 
BRANCH   8   9
HETATM    9  N2  UNL     1      79.612   4.472 -41.497  1.00  0.00    -0.386 N 
ATOM     10  H2  UNL     1      79.295   4.278 -42.447  1.00  0.00     0.160 HD
BRANCH   9  11
HETATM   11  C1  UNL     1      80.992   4.504 -41.160  1.00  0.00     0.168 C 
HETATM   12  N1  UNL     1      81.861   4.217 -42.027  1.00  0.00    -0.396 N 
ATOM     13  H12 UNL     1      81.558   3.962 -42.967  1.00  0.00     0.156 HD
ATOM     14  H11 UNL     1      82.852   4.240 -41.785  1.00  0.00     0.156 HD
ENDBRANCH   9  11
ENDBRANCH   8   9
ENDBRANCH   1   8
TORSDOF 3
ENDMDL
MODEL 4
REMARK VINA RESULT: -4.446029959      1.203      1.565
REMARK  3 active torsions:
REMARK  status: ('A' for Active; 'I' for Inactive)
REMARK    1  A    between atoms: C1_4  and  N2_5 
REMARK    2  A    between atoms: N2_5  and  C2_7 
REMARK    3  A    between atoms: C2_7  and  C3_8 
ROOT
HETATM    1  C3  UNL     1      78.754   6.020 -39.537  1.00  0.00     0.030 C 
HETATM    2  C4  UNL     1      78.052   4.776 -40.100  1.00  0.00     0.035 C 
HETATM    3  C5  UNL     1      79.086   4.267 -41.059  1.00  0.00     0.232 C 
HETATM    4  N3  UNL     1      80.133   5.268 -41.176  1.00  0.00    -0.075 N 
ATOM      5  H31 UNL     1      80.617   5.287 -42.074  1.00  0.00     0.277 HD
ATOM      6  H32 UNL     1      80.970   5.088 -40.622  1.00  0.00     0.277 HD
HETATM    7  C6  UNL     1      79.403   6.501 -40.829  1.00  0.00     0.238 C 
ENDROOT
BRANCH   1   8
HETATM    8  C2  UNL     1      77.795   6.984 -38.943  1.00  0.00     0.126 C 
BRANCH   8   9
HETATM    9  N2  UNL     1      78.477   8.164 -38.455  1.00  0.00    -0.386 N 
ATOM     10  H2  UNL     1      78.333   9.082 -38.875  1.00  0.00     0.160 HD
BRANCH   9  11
HETATM   11  C1  UNL     1      79.360   7.973 -37.358  1.00  0.00     0.168 C 
HETATM   12  N1  UNL     1      80.112   8.911 -36.981  1.00  0.00    -0.396 N 
ATOM     13  H12 UNL     1      80.076   9.803 -37.474  1.00  0.00     0.156 HD
ATOM     14  H11 UNL     1      80.745   8.774 -36.193  1.00  0.00     0.156 HD
ENDBRANCH   9  11
ENDBRANCH   8   9
ENDBRANCH   1   8
TORSDOF 3
ENDMDL
MODEL 5
REMARK VINA RESULT: -4.394429894      1.376      1.680
REMARK  3 active torsions:
REMARK  status: ('A' for Active; 'I' for Inactive)
REMARK    1  A    between atoms: C1_4  and  N2_5 
REMARK    2  A    between atoms: N2_5  and  C2_7 
REMARK    3  A    between atoms: C2_7  and  C3_8 
ROOT
HETATM    1  C3  UNL     1      79.359   5.041 -39.330  1.00  0.00     0.030 C 
HETATM    2  C4  UNL     1      78.337   4.148 -40.049  1.00  0.00     0.035 C 
HETATM    3  C5  UNL     1      79.094   3.781 -41.290  1.00  0.00     0.232 C 
HETATM    4  N3  UNL     1      80.301   4.588 -41.345  1.00  0.00    -0.075 N 
ATOM      5  H31 UNL     1      80.646   4.790 -42.284  1.00  0.00     0.277 HD
ATOM      6  H32 UNL     1      81.151   4.120 -41.032  1.00  0.00     0.277 HD
HETATM    7  C6  UNL     1      79.905   5.767 -40.554  1.00  0.00     0.238 C 
ENDROOT
BRANCH   1   8
HETATM    8  C2  UNL     1      78.719   5.932 -38.330  1.00  0.00     0.126 C 
BRANCH   8   9
HETATM    9  N2  UNL     1      79.701   6.772 -37.678  1.00  0.00    -0.386 N 
ATOM     10  H2  UNL     1      80.592   6.402 -37.346  1.00  0.00     0.160 HD
BRANCH   9  11
HETATM   11  C1  UNL     1      79.356   8.142 -37.525  1.00  0.00     0.168 C 
HETATM   12  N1  UNL     1      80.133   8.925 -36.913  1.00  0.00    -0.396 N 
ATOM     13  H12 UNL     1      81.006   8.559 -36.534  1.00  0.00     0.156 HD
ATOM     14  H11 UNL     1      79.885   9.908 -36.804  1.00  0.00     0.156 HD
ENDBRANCH   9  11
ENDBRANCH   8   9
ENDBRANCH   1   8
TORSDOF 3
ENDMDL
