MODEL 1
REMARK VINA RESULT: -4.160160203      0.000      0.000
REMARK  3 active torsions:
REMARK  status: ('A' for Active; 'I' for Inactive)
REMARK    1  A    between atoms: N2_3  and  C2_5 
REMARK    2  A    between atoms: C2_5  and  C3_6 
REMARK    3  A    between atoms: C5_9  and  N3_10 
ROOT
HETATM    1  C3  UNL     1      79.127   6.778 -38.959  1.00  0.00     0.171 C 
HETATM    2  O1  UNL     1      79.081   7.440 -40.197  1.00  0.00    -0.380 OA
HETATM    3  C4  UNL     1      78.209   8.368 -39.638  1.00  0.00     0.203 C 
HETATM    4  C5  UNL     1      78.756   8.051 -38.281  1.00  0.00     0.237 C 
ENDROOT
BRANCH   1   5
HETATM    5  C2  UNL     1      78.124   5.671 -38.931  1.00  0.00     0.154 C 
BRANCH   5   6
HETATM    6  N2  UNL     1      78.469   4.598 -38.054  1.00  0.00    -0.386 N 
HETATM    7  C1  UNL     1      77.727   4.328 -37.050  1.00  0.00     0.185 C 
HETATM    8  N1  UNL     1      76.561   5.075 -36.783  1.00  0.00    -0.097 NA
ATOM      9  H2  UNL     1      79.308   4.047 -38.229  1.00  0.00     0.159 HD
ENDBRANCH   5   6
ENDBRANCH   1   5
BRANCH   4  10
HETATM   10  N3  UNL     1      77.779   7.888 -37.233  1.00  0.00    -0.070 N 
ATOM     11  H33 UNL     1      77.178   7.086 -37.423  1.00  0.00     0.274 HD
ATOM     12  H32 UNL     1      78.224   7.568 -36.373  1.00  0.00     0.274 HD
ATOM     13  H31 UNL     1      77.220   8.723 -37.059  1.00  0.00     0.274 HD
ENDBRANCH   4  10
TORSDOF 3
ENDMDL
MODEL 2
REMARK VINA RESULT: -4.132818855      5.638      6.919
REMARK  3 active torsions:
REMARK  status: ('A' for Active; 'I' for Inactive)
REMARK    1  A    between atoms: N2_3  and  C2_5 
REMARK    2  A    between atoms: C2_5  and  C3_6 
REMARK    3  A    between atoms: C5_9  and  N3_10 
ROOT
HETATM    1  C3  UNL     1      81.424   2.376 -38.761  1.00  0.00     0.171 C 
HETATM    2  O1  UNL     1      80.025   2.258 -38.701  1.00  0.00    -0.380 OA
HETATM    3  C4  UNL     1      80.126   1.047 -39.378  1.00  0.00     0.203 C 
HETATM    4  C5  UNL     1      81.530   0.896 -38.881  1.00  0.00     0.237 C 
ENDROOT
BRANCH   1   5
HETATM    5  C2  UNL     1      81.818   3.189 -39.951  1.00  0.00     0.154 C 
BRANCH   5   6
HETATM    6  N2  UNL     1      82.876   4.115 -39.697  1.00  0.00    -0.386 N 
HETATM    7  C1  UNL     1      84.068   3.841 -40.063  1.00  0.00     0.185 C 
HETATM    8  N1  UNL     1      84.370   2.630 -40.720  1.00  0.00    -0.097 NA
ATOM      9  H2  UNL     1      82.679   4.995 -39.221  1.00  0.00     0.159 HD
ENDBRANCH   5   6
ENDBRANCH   1   5
BRANCH   4  10
HETATM   10  N3  UNL     1      82.498   0.460 -39.857  1.00  0.00    -0.070 N 
ATOM     11  H33 UNL     1      83.286   1.107 -39.896  1.00  0.00     0.274 HD
ATOM     12  H32 UNL     1      82.982  -0.378 -39.535  1.00  0.00     0.274 HD
ATOM     13  H31 UNL     1      82.106   0.314 -40.787  1.00  0.00     0.274 HD
ENDBRANCH   4  10
TORSDOF 3
ENDMDL
MODEL 3
REMARK VINA RESULT: -4.059160180      4.514      5.683
REMARK  3 active torsions:
REMARK  status: ('A' for Active; 'I' for Inactive)
REMARK    1  A    between atoms: N2_3  and  C2_5 
REMARK    2  A    between atoms: C2_5  and  C3_6 
REMARK    3  A    between atoms: C5_9  and  N3_10 
ROOT
HETATM    1  C3  UNL     1      80.693   4.497 -40.268  1.00  0.00     0.171 C 
HETATM    2  O1  UNL     1      79.594   4.895 -41.047  1.00  0.00    -0.380 OA
HETATM    3  C4  UNL     1      79.220   3.560 -41.154  1.00  0.00     0.203 C 
HETATM    4  C5  UNL     1      79.956   3.261 -39.885  1.00  0.00     0.237 C 
ENDROOT
BRANCH   1   5
HETATM    5  C2  UNL     1      81.901   4.332 -41.134  1.00  0.00     0.154 C 
BRANCH   5   6
HETATM    6  N2  UNL     1      83.121   4.729 -40.507  1.00  0.00    -0.386 N 
HETATM    7  C1  UNL     1      83.998   3.852 -40.200  1.00  0.00     0.185 C 
HETATM    8  N1  UNL     1      83.786   2.484 -40.468  1.00  0.00    -0.097 NA
ATOM      9  H2  UNL     1      83.293   5.713 -40.304  1.00  0.00     0.159 HD
ENDBRANCH   5   6
ENDBRANCH   1   5
BRANCH   4  10
HETATM   10  N3  UNL     1      80.771   2.071 -39.896  1.00  0.00    -0.070 N 
ATOM     11  H33 UNL     1      81.650   2.242 -40.385  1.00  0.00     0.274 HD
ATOM     12  H32 UNL     1      81.130   1.872 -38.963  1.00  0.00     0.274 HD
ATOM     13  H31 UNL     1      80.298   1.254 -40.282  1.00  0.00     0.274 HD
ENDBRANCH   4  10
TORSDOF 3
ENDMDL
MODEL 4
REMARK VINA RESULT: -4.048701302      2.137      3.788
REMARK  3 active torsions:
REMARK  status: ('A' for Active; 'I' for Inactive)
REMARK    1  A    between atoms: N2_3  and  C2_5 
REMARK    2  A    between atoms: C2_5  and  C3_6 
REMARK    3  A    between atoms: C5_9  and  N3_10 
ROOT
HETATM    1  C3  UNL     1      77.468   5.994 -36.715  1.00  0.00     0.171 C 
HETATM    2  O1  UNL     1      76.770   5.279 -37.702  1.00  0.00    -0.380 OA
HETATM    3  C4  UNL     1      77.802   4.347 -37.719  1.00  0.00     0.203 C 
HETATM    4  C5  UNL     1      78.167   4.739 -36.322  1.00  0.00     0.237 C 
ENDROOT
BRANCH   1   5
HETATM    5  C2  UNL     1      78.293   7.067 -37.347  1.00  0.00     0.154 C 
BRANCH   5   6
HETATM    6  N2  UNL     1      77.622   7.775 -38.391  1.00  0.00    -0.386 N 
HETATM    7  C1  UNL     1      78.134   7.829 -39.560  1.00  0.00     0.185 C 
HETATM    8  N1  UNL     1      79.362   7.199 -39.848  1.00  0.00    -0.097 NA
ATOM      9  H2  UNL     1      76.734   8.238 -38.202  1.00  0.00     0.159 HD
ENDBRANCH   5   6
ENDBRANCH   1   5
BRANCH   4  10
HETATM   10  N3  UNL     1      79.576   4.915 -36.066  1.00  0.00    -0.070 N 
ATOM     11  H33 UNL     1      79.926   5.747 -36.541  1.00  0.00     0.274 HD
ATOM     12  H32 UNL     1      79.735   5.192 -35.098  1.00  0.00     0.274 HD
ATOM     13  H31 UNL     1      80.141   4.100 -36.304  1.00  0.00     0.274 HD
ENDBRANCH   4  10
TORSDOF 3
ENDMDL
MODEL 5
REMARK VINA RESULT: -3.990760898      2.201      2.808
REMARK  3 active torsions:
REMARK  status: ('A' for Active; 'I' for Inactive)
REMARK    1  A    between atoms: N2_3  and  C2_5 
REMARK    2  A    between atoms: C2_5  and  C3_6 
REMARK    3  A    between atoms: C5_9  and  N3_10 
ROOT
HETATM    1  C3  UNL     1      78.326   7.645 -38.952  1.00  0.00     0.171 C 
HETATM    2  O1  UNL     1      77.160   6.996 -38.512  1.00  0.00    -0.380 OA
HETATM    3  C4  UNL     1      77.755   6.830 -37.267  1.00  0.00     0.203 C 
HETATM    4  C5  UNL     1      78.640   8.005 -37.542  1.00  0.00     0.237 C 
ENDROOT
BRANCH   1   5
HETATM    5  C2  UNL     1      79.233   6.666 -39.626  1.00  0.00     0.154 C 
BRANCH   5   6
HETATM    6  N2  UNL     1      78.858   6.359 -40.970  1.00  0.00    -0.386 N 
HETATM    7  C1  UNL     1      78.389   5.206 -41.256  1.00  0.00     0.185 C 
HETATM    8  N1  UNL     1      78.232   4.216 -40.264  1.00  0.00    -0.097 NA
ATOM      9  H2  UNL     1      78.964   7.061 -41.702  1.00  0.00     0.159 HD
ENDBRANCH   5   6
ENDBRANCH   1   5
BRANCH   4  10
HETATM   10  N3  UNL     1      80.031   7.839 -37.195  1.00  0.00    -0.070 N 
ATOM     11  H33 UNL     1      80.211   6.885 -36.881  1.00  0.00     0.274 HD
ATOM     12  H32 UNL     1      80.614   7.856 -38.031  1.00  0.00     0.274 HD
ATOM     13  H31 UNL     1      80.366   8.514 -36.508  1.00  0.00     0.274 HD
ENDBRANCH   4  10
TORSDOF 3
ENDMDL
