MODEL 1
REMARK VINA RESULT: -4.025000240      0.000      0.000
REMARK  4 active torsions:
REMARK  status: ('A' for Active; 'I' for Inactive)
REMARK    1  A    between atoms: N1_1  and  C1_5 
REMARK    2  A    between atoms: C1_5  and  C2_6 
REMARK    3  A    between atoms: C2_6  and  N2_7 
REMARK    4  A    between atoms: C4_9  and  N3_10 
ROOT
HETATM    1  N2  UNL     1     -22.552  21.927 -25.268  1.00  0.00    -0.228 NA
HETATM    2  C3  UNL     1     -22.068  21.130 -24.184  1.00  0.00     0.161 C 
HETATM    3  C4  UNL     1     -23.471  21.103 -23.614  1.00  0.00     0.304 C 
HETATM    4  N4  UNL     1     -23.850  21.577 -24.925  1.00  0.00    -0.130 NA
ENDROOT
BRANCH   1   5
HETATM    5  C2  UNL     1     -22.220  23.310 -25.321  1.00  0.00     0.137 C 
BRANCH   5   6
HETATM    6  C1  UNL     1     -21.724  23.629 -26.722  1.00  0.00     0.245 C 
BRANCH   6   7
HETATM    7  N1  UNL     1     -21.863  22.413 -27.533  1.00  0.00    -0.078 N 
ATOM      8  H13 UNL     1     -21.098  21.753 -27.394  1.00  0.00     0.274 HD
ATOM      9  H12 UNL     1     -22.620  21.809 -27.215  1.00  0.00     0.274 HD
ATOM     10  H11 UNL     1     -21.967  22.700 -28.507  1.00  0.00     0.274 HD
ENDBRANCH   6   7
ENDBRANCH   5   6
ENDBRANCH   1   5
BRANCH   3  11
HETATM   11  N3  UNL     1     -23.893  19.746 -23.325  1.00  0.00    -0.059 N 
ATOM     12  H33 UNL     1     -23.747  19.130 -24.125  1.00  0.00     0.276 HD
ATOM     13  H32 UNL     1     -23.267  19.291 -22.660  1.00  0.00     0.276 HD
ATOM     14  H31 UNL     1     -24.862  19.721 -23.005  1.00  0.00     0.276 HD
ENDBRANCH   3  11
TORSDOF 4
ENDMDL
MODEL 2
REMARK VINA RESULT: -3.772854677      1.249      1.671
REMARK  4 active torsions:
REMARK  status: ('A' for Active; 'I' for Inactive)
REMARK    1  A    between atoms: N1_1  and  C1_5 
REMARK    2  A    between atoms: C1_5  and  C2_6 
REMARK    3  A    between atoms: C2_6  and  N2_7 
REMARK    4  A    between atoms: C4_9  and  N3_10 
ROOT
HETATM    1  N2  UNL     1     -22.487  21.976 -25.239  1.00  0.00    -0.228 NA
HETATM    2  C3  UNL     1     -22.047  21.064 -24.230  1.00  0.00     0.161 C 
HETATM    3  C4  UNL     1     -23.426  21.135 -23.605  1.00  0.00     0.304 C 
HETATM    4  N4  UNL     1     -23.800  21.732 -24.867  1.00  0.00    -0.130 NA
ENDROOT
BRANCH   1   5
HETATM    5  C2  UNL     1     -22.020  23.320 -25.217  1.00  0.00     0.137 C 
BRANCH   5   6
HETATM    6  C1  UNL     1     -23.150  24.227 -25.676  1.00  0.00     0.245 C 
BRANCH   6   7
HETATM    7  N1  UNL     1     -23.744  24.840 -24.481  1.00  0.00    -0.078 N 
ATOM      8  H13 UNL     1     -23.305  24.528 -23.615  1.00  0.00     0.274 HD
ATOM      9  H12 UNL     1     -23.522  25.832 -24.393  1.00  0.00     0.274 HD
ATOM     10  H11 UNL     1     -24.747  24.659 -24.506  1.00  0.00     0.274 HD
ENDBRANCH   6   7
ENDBRANCH   5   6
ENDBRANCH   1   5
BRANCH   3  11
HETATM   11  N3  UNL     1     -23.971  19.809 -23.387  1.00  0.00    -0.059 N 
ATOM     12  H33 UNL     1     -23.732  19.175 -24.150  1.00  0.00     0.276 HD
ATOM     13  H32 UNL     1     -23.492  19.326 -22.626  1.00  0.00     0.276 HD
ATOM     14  H31 UNL     1     -24.979  19.846 -23.232  1.00  0.00     0.276 HD
ENDBRANCH   3  11
TORSDOF 4
ENDMDL
MODEL 3
REMARK VINA RESULT: -3.764676516      0.984      3.788
REMARK  4 active torsions:
REMARK  status: ('A' for Active; 'I' for Inactive)
REMARK    1  A    between atoms: N1_1  and  C1_5 
REMARK    2  A    between atoms: C1_5  and  C2_6 
REMARK    3  A    between atoms: C2_6  and  N2_7 
REMARK    4  A    between atoms: C4_9  and  N3_10 
ROOT
HETATM    1  N2  UNL     1     -23.632  21.982 -25.449  1.00  0.00    -0.228 NA
HETATM    2  C3  UNL     1     -23.480  23.030 -26.410  1.00  0.00     0.161 C 
HETATM    3  C4  UNL     1     -21.999  23.067 -26.094  1.00  0.00     0.304 C 
HETATM    4  N4  UNL     1     -22.258  21.795 -25.458  1.00  0.00    -0.130 NA
ENDROOT
BRANCH   1   5
HETATM    5  C2  UNL     1     -24.266  22.261 -24.206  1.00  0.00     0.137 C 
BRANCH   5   6
HETATM    6  C1  UNL     1     -23.592  21.426 -23.128  1.00  0.00     0.245 C 
BRANCH   6   7
HETATM    7  N1  UNL     1     -23.870  20.014 -23.418  1.00  0.00    -0.078 N 
ATOM      8  H13 UNL     1     -24.776  19.707 -23.063  1.00  0.00     0.274 HD
ATOM      9  H12 UNL     1     -24.049  19.840 -24.407  1.00  0.00     0.274 HD
ATOM     10  H11 UNL     1     -23.094  19.463 -23.052  1.00  0.00     0.274 HD
ENDBRANCH   6   7
ENDBRANCH   5   6
ENDBRANCH   1   5
BRANCH   3  11
HETATM   11  N3  UNL     1     -21.203  22.979 -27.302  1.00  0.00    -0.059 N 
ATOM     12  H33 UNL     1     -21.132  22.017 -27.635  1.00  0.00     0.276 HD
ATOM     13  H32 UNL     1     -21.688  23.386 -28.102  1.00  0.00     0.276 HD
ATOM     14  H31 UNL     1     -20.282  23.398 -27.169  1.00  0.00     0.276 HD
ENDBRANCH   3  11
TORSDOF 4
ENDMDL
MODEL 4
REMARK VINA RESULT: -3.653182302      1.516      2.380
REMARK  4 active torsions:
REMARK  status: ('A' for Active; 'I' for Inactive)
REMARK    1  A    between atoms: N1_1  and  C1_5 
REMARK    2  A    between atoms: C1_5  and  C2_6 
REMARK    3  A    between atoms: C2_6  and  N2_7 
REMARK    4  A    between atoms: C4_9  and  N3_10 
ROOT
HETATM    1  N2  UNL     1     -23.033  21.839 -24.991  1.00  0.00    -0.228 NA
HETATM    2  C3  UNL     1     -22.049  21.125 -24.239  1.00  0.00     0.161 C 
HETATM    3  C4  UNL     1     -23.164  20.495 -23.430  1.00  0.00     0.304 C 
HETATM    4  N4  UNL     1     -24.008  20.986 -24.495  1.00  0.00    -0.130 NA
ENDROOT
BRANCH   1   5
HETATM    5  C2  UNL     1     -23.193  23.237 -24.782  1.00  0.00     0.137 C 
BRANCH   5   6
HETATM    6  C1  UNL     1     -24.678  23.561 -24.823  1.00  0.00     0.245 C 
BRANCH   6   7
HETATM    7  N1  UNL     1     -25.156  23.643 -23.437  1.00  0.00    -0.078 N 
ATOM      8  H13 UNL     1     -24.806  22.885 -22.851  1.00  0.00     0.274 HD
ATOM      9  H12 UNL     1     -24.738  24.416 -22.920  1.00  0.00     0.274 HD
ATOM     10  H11 UNL     1     -26.175  23.688 -23.463  1.00  0.00     0.274 HD
ENDBRANCH   6   7
ENDBRANCH   5   6
ENDBRANCH   1   5
BRANCH   3  11
HETATM   11  N3  UNL     1     -23.032  19.051 -23.391  1.00  0.00    -0.059 N 
ATOM     12  H33 UNL     1     -22.608  18.691 -24.246  1.00  0.00     0.276 HD
ATOM     13  H32 UNL     1     -22.317  18.758 -22.726  1.00  0.00     0.276 HD
ATOM     14  H31 UNL     1     -23.928  18.604 -23.200  1.00  0.00     0.276 HD
ENDBRANCH   3  11
TORSDOF 4
ENDMDL
MODEL 5
REMARK VINA RESULT: -3.598659741      2.038      3.759
REMARK  4 active torsions:
REMARK  status: ('A' for Active; 'I' for Inactive)
REMARK    1  A    between atoms: N1_1  and  C1_5 
REMARK    2  A    between atoms: C1_5  and  C2_6 
REMARK    3  A    between atoms: C2_6  and  N2_7 
REMARK    4  A    between atoms: C4_9  and  N3_10 
ROOT
HETATM    1  N2  UNL     1     -23.890  22.089 -25.233  1.00  0.00    -0.228 NA
HETATM    2  C3  UNL     1     -23.694  22.970 -26.342  1.00  0.00     0.161 C 
HETATM    3  C4  UNL     1     -22.205  22.945 -26.063  1.00  0.00     0.304 C 
HETATM    4  N4  UNL     1     -22.533  21.803 -25.240  1.00  0.00    -0.130 NA
ENDROOT
BRANCH   1   5
HETATM    5  C2  UNL     1     -24.466  22.595 -24.034  1.00  0.00     0.137 C 
BRANCH   5   6
HETATM    6  C1  UNL     1     -25.532  23.613 -24.407  1.00  0.00     0.245 C 
BRANCH   6   7
HETATM    7  N1  UNL     1     -25.152  24.897 -23.805  1.00  0.00    -0.078 N 
ATOM      8  H13 UNL     1     -24.462  24.798 -23.061  1.00  0.00     0.274 HD
ATOM      9  H12 UNL     1     -24.593  25.478 -24.430  1.00  0.00     0.274 HD
ATOM     10  H11 UNL     1     -26.007  25.359 -23.495  1.00  0.00     0.274 HD
ENDBRANCH   6   7
ENDBRANCH   5   6
ENDBRANCH   1   5
BRANCH   3  11
HETATM   11  N3  UNL     1     -21.453  22.621 -27.260  1.00  0.00    -0.059 N 
ATOM     12  H33 UNL     1     -22.067  22.330 -28.021  1.00  0.00     0.276 HD
ATOM     13  H32 UNL     1     -21.055  23.455 -27.690  1.00  0.00     0.276 HD
ATOM     14  H31 UNL     1     -20.737  21.920 -27.067  1.00  0.00     0.276 HD
ENDBRANCH   3  11
TORSDOF 4
ENDMDL
