MODEL 1
REMARK VINA RESULT: -4.096128437      0.000      0.000
REMARK  3 active torsions:
REMARK  status: ('A' for Active; 'I' for Inactive)
REMARK    1  A    between atoms: N1_1  and  C1_5 
REMARK    2  A    between atoms: C1_5  and  C2_6 
REMARK    3  A    between atoms: C4_8  and  N2_9 
ROOT
HETATM    1  C2  UNL     1     -22.117  22.977 -26.921  1.00  0.00     0.213 C 
HETATM    2  C3  UNL     1     -22.478  24.310 -26.296  1.00  0.00     0.069 C 
HETATM    3  C4  UNL     1     -23.552  23.818 -25.316  1.00  0.00     0.211 C 
HETATM    4  C5  UNL     1     -22.837  22.605 -24.739  1.00  0.00     0.265 C 
HETATM    5  N3  UNL     1     -21.922  22.145 -25.756  1.00  0.00    -0.067 N 
ATOM      6  H31 UNL     1     -20.952  22.123 -25.440  1.00  0.00     0.277 HD
ATOM      7  H32 UNL     1     -22.018  21.149 -25.957  1.00  0.00     0.277 HD
ENDROOT
BRANCH   1   8
HETATM    8  C1  UNL     1     -20.887  23.071 -27.783  1.00  0.00     0.262 C 
BRANCH   8   9
HETATM    9  N1  UNL     1     -20.954  22.219 -28.942  1.00  0.00    -0.077 N 
ATOM     10  H13 UNL     1     -21.903  21.875 -29.088  1.00  0.00     0.274 HD
ATOM     11  H12 UNL     1     -20.839  22.758 -29.800  1.00  0.00     0.274 HD
ATOM     12  H11 UNL     1     -20.286  21.448 -28.903  1.00  0.00     0.274 HD
ENDBRANCH   8   9
ENDBRANCH   1   8
BRANCH   3  13
HETATM   13  N2  UNL     1     -23.847  24.764 -24.302  1.00  0.00    -0.073 N 
ATOM     14  H23 UNL     1     -23.311  24.571 -23.456  1.00  0.00     0.274 HD
ATOM     15  H22 UNL     1     -23.466  25.681 -24.535  1.00  0.00     0.274 HD
ATOM     16  H21 UNL     1     -24.845  24.826 -24.095  1.00  0.00     0.274 HD
ENDBRANCH   3  13
TORSDOF 3
ENDMDL
MODEL 2
REMARK VINA RESULT: -4.002621626      1.111      1.225
REMARK  3 active torsions:
REMARK  status: ('A' for Active; 'I' for Inactive)
REMARK    1  A    between atoms: N1_1  and  C1_5 
REMARK    2  A    between atoms: C1_5  and  C2_6 
REMARK    3  A    between atoms: C4_8  and  N2_9 
ROOT
HETATM    1  C2  UNL     1     -22.507  22.643 -26.328  1.00  0.00     0.213 C 
HETATM    2  C3  UNL     1     -23.491  23.590 -25.670  1.00  0.00     0.069 C 
HETATM    3  C4  UNL     1     -24.248  22.569 -24.809  1.00  0.00     0.211 C 
HETATM    4  C5  UNL     1     -23.070  21.795 -24.235  1.00  0.00     0.265 C 
HETATM    5  N3  UNL     1     -21.997  21.908 -25.194  1.00  0.00    -0.067 N 
ATOM      6  H31 UNL     1     -21.151  22.321 -24.799  1.00  0.00     0.277 HD
ATOM      7  H32 UNL     1     -21.596  21.005 -25.451  1.00  0.00     0.277 HD
ENDROOT
BRANCH   1   8
HETATM    8  C1  UNL     1     -21.430  23.378 -27.078  1.00  0.00     0.262 C 
BRANCH   8   9
HETATM    9  N1  UNL     1     -20.879  22.604 -28.160  1.00  0.00    -0.077 N 
ATOM     10  H13 UNL     1     -20.322  21.826 -27.807  1.00  0.00     0.274 HD
ATOM     11  H12 UNL     1     -21.608  22.079 -28.644  1.00  0.00     0.274 HD
ATOM     12  H11 UNL     1     -20.341  23.171 -28.816  1.00  0.00     0.274 HD
ENDBRANCH   8   9
ENDBRANCH   1   8
BRANCH   3  13
HETATM   13  N2  UNL     1     -25.009  23.175 -23.777  1.00  0.00    -0.073 N 
ATOM     14  H23 UNL     1     -24.921  22.654 -22.905  1.00  0.00     0.274 HD
ATOM     15  H22 UNL     1     -24.590  24.059 -23.486  1.00  0.00     0.274 HD
ATOM     16  H21 UNL     1     -25.989  23.301 -24.028  1.00  0.00     0.274 HD
ENDBRANCH   3  13
TORSDOF 3
ENDMDL
MODEL 3
REMARK VINA RESULT: -3.946820615      2.645      3.197
REMARK  3 active torsions:
REMARK  status: ('A' for Active; 'I' for Inactive)
REMARK    1  A    between atoms: N1_1  and  C1_5 
REMARK    2  A    between atoms: C1_5  and  C2_6 
REMARK    3  A    between atoms: C4_8  and  N2_9 
ROOT
HETATM    1  C2  UNL     1     -22.833  23.070 -23.927  1.00  0.00     0.213 C 
HETATM    2  C3  UNL     1     -24.194  22.603 -24.404  1.00  0.00     0.069 C 
HETATM    3  C4  UNL     1     -25.051  23.697 -23.752  1.00  0.00     0.211 C 
HETATM    4  C5  UNL     1     -24.229  24.923 -24.123  1.00  0.00     0.265 C 
HETATM    5  N3  UNL     1     -22.864  24.474 -24.266  1.00  0.00    -0.067 N 
ATOM      6  H31 UNL     1     -22.474  24.670 -25.188  1.00  0.00     0.277 HD
ATOM      7  H32 UNL     1     -22.203  25.030 -23.722  1.00  0.00     0.277 HD
ENDROOT
BRANCH   1   8
HETATM    8  C1  UNL     1     -21.712  22.331 -24.605  1.00  0.00     0.262 C 
BRANCH   8   9
HETATM    9  N1  UNL     1     -21.755  20.912 -24.365  1.00  0.00    -0.077 N 
ATOM     10  H13 UNL     1     -21.527  20.391 -25.212  1.00  0.00     0.274 HD
ATOM     11  H12 UNL     1     -20.977  20.617 -23.775  1.00  0.00     0.274 HD
ATOM     12  H11 UNL     1     -22.646  20.605 -23.975  1.00  0.00     0.274 HD
ENDBRANCH   8   9
ENDBRANCH   1   8
BRANCH   3  13
HETATM   13  N2  UNL     1     -26.356  23.775 -24.301  1.00  0.00    -0.073 N 
ATOM     14  H23 UNL     1     -26.800  24.662 -24.063  1.00  0.00     0.274 HD
ATOM     15  H22 UNL     1     -26.319  23.876 -25.316  1.00  0.00     0.274 HD
ATOM     16  H21 UNL     1     -26.947  22.988 -24.034  1.00  0.00     0.274 HD
ENDBRANCH   3  13
TORSDOF 3
ENDMDL
MODEL 4
REMARK VINA RESULT: -3.924857648      1.487      3.811
REMARK  3 active torsions:
REMARK  status: ('A' for Active; 'I' for Inactive)
REMARK    1  A    between atoms: N1_1  and  C1_5 
REMARK    2  A    between atoms: C1_5  and  C2_6 
REMARK    3  A    between atoms: C4_8  and  N2_9 
ROOT
HETATM    1  C2  UNL     1     -22.946  24.477 -24.481  1.00  0.00     0.213 C 
HETATM    2  C3  UNL     1     -22.775  24.336 -25.980  1.00  0.00     0.069 C 
HETATM    3  C4  UNL     1     -21.484  23.505 -25.985  1.00  0.00     0.211 C 
HETATM    4  C5  UNL     1     -21.837  22.478 -24.918  1.00  0.00     0.265 C 
HETATM    5  N3  UNL     1     -22.783  23.114 -24.032  1.00  0.00    -0.067 N 
ATOM      6  H31 UNL     1     -23.667  22.608 -23.964  1.00  0.00     0.277 HD
ATOM      7  H32 UNL     1     -22.516  23.046 -23.049  1.00  0.00     0.277 HD
ENDROOT
BRANCH   1   8
HETATM    8  C1  UNL     1     -24.286  25.054 -24.116  1.00  0.00     0.262 C 
BRANCH   8   9
HETATM    9  N1  UNL     1     -25.247  24.044 -23.755  1.00  0.00    -0.077 N 
ATOM     10  H13 UNL     1     -25.098  23.190 -24.291  1.00  0.00     0.274 HD
ATOM     11  H12 UNL     1     -25.066  23.685 -22.817  1.00  0.00     0.274 HD
ATOM     12  H11 UNL     1     -26.211  24.368 -23.842  1.00  0.00     0.274 HD
ENDBRANCH   8   9
ENDBRANCH   1   8
BRANCH   3  13
HETATM   13  N2  UNL     1     -21.237  22.877 -27.232  1.00  0.00    -0.073 N 
ATOM     14  H23 UNL     1     -21.969  23.102 -27.905  1.00  0.00     0.274 HD
ATOM     15  H22 UNL     1     -20.439  23.303 -27.704  1.00  0.00     0.274 HD
ATOM     16  H21 UNL     1     -21.116  21.867 -27.150  1.00  0.00     0.274 HD
ENDBRANCH   3  13
TORSDOF 3
ENDMDL
MODEL 5
REMARK VINA RESULT: -3.887244340      2.211      3.676
REMARK  3 active torsions:
REMARK  status: ('A' for Active; 'I' for Inactive)
REMARK    1  A    between atoms: N1_1  and  C1_5 
REMARK    2  A    between atoms: C1_5  and  C2_6 
REMARK    3  A    between atoms: C4_8  and  N2_9 
ROOT
HETATM    1  C2  UNL     1     -23.052  21.531 -23.754  1.00  0.00     0.213 C 
HETATM    2  C3  UNL     1     -23.816  22.471 -24.665  1.00  0.00     0.069 C 
HETATM    3  C4  UNL     1     -22.718  23.522 -24.881  1.00  0.00     0.211 C 
HETATM    4  C5  UNL     1     -21.535  22.604 -25.157  1.00  0.00     0.265 C 
HETATM    5  N3  UNL     1     -21.810  21.362 -24.473  1.00  0.00    -0.067 N 
ATOM      6  H31 UNL     1     -21.819  20.556 -25.099  1.00  0.00     0.277 HD
ATOM      7  H32 UNL     1     -21.041  21.058 -23.875  1.00  0.00     0.277 HD
ENDROOT
BRANCH   1   8
HETATM    8  C1  UNL     1     -23.782  20.234 -23.539  1.00  0.00     0.262 C 
BRANCH   8   9
HETATM    9  N1  UNL     1     -22.892  19.108 -23.416  1.00  0.00    -0.077 N 
ATOM     10  H13 UNL     1     -23.286  18.280 -23.863  1.00  0.00     0.274 HD
ATOM     11  H12 UNL     1     -22.063  19.231 -23.998  1.00  0.00     0.274 HD
ATOM     12  H11 UNL     1     -22.633  18.914 -22.449  1.00  0.00     0.274 HD
ENDBRANCH   8   9
ENDBRANCH   1   8
BRANCH   3  13
HETATM   13  N2  UNL     1     -22.974  24.367 -25.990  1.00  0.00    -0.073 N 
ATOM     14  H23 UNL     1     -22.336  24.164 -26.759  1.00  0.00     0.274 HD
ATOM     15  H22 UNL     1     -23.858  24.124 -26.438  1.00  0.00     0.274 HD
ATOM     16  H21 UNL     1     -22.949  25.358 -25.748  1.00  0.00     0.274 HD
ENDBRANCH   3  13
TORSDOF 3
ENDMDL
