MODEL 1
REMARK VINA RESULT: -3.668921307      0.000      0.000
REMARK  3 active torsions:
REMARK  status: ('A' for Active; 'I' for Inactive)
REMARK    1  A    between atoms: N1_2  and  C2_5 
REMARK    2  A    between atoms: C2_5  and  C3_6 
REMARK    3  A    between atoms: C3_6  and  N2_7 
ROOT
HETATM    1  C2  UNL     1     -22.249  22.675 -25.041  1.00  0.00     0.195 C 
HETATM    2  C4  UNL     1     -23.136  23.430 -24.099  1.00  0.00     0.274 C 
HETATM    3  N3  UNL     1     -22.165  24.473 -23.927  1.00  0.00    -0.070 N 
ATOM      4  H31 UNL     1     -21.947  24.823 -22.994  1.00  0.00     0.277 HD
ATOM      5  H32 UNL     1     -22.373  25.424 -24.230  1.00  0.00     0.277 HD
HETATM    6  C5  UNL     1     -21.197  23.669 -24.653  1.00  0.00     0.274 C 
ENDROOT
BRANCH   1   7
HETATM    7  N1  UNL     1     -22.030  21.320 -24.606  1.00  0.00    -0.065 N 
HETATM    8  C1  UNL     1     -23.074  20.835 -23.735  1.00  0.00     0.268 C 
ATOM      9  H12 UNL     1     -21.114  21.221 -24.169  1.00  0.00     0.277 HD
ATOM     10  H11 UNL     1     -21.902  20.698 -25.404  1.00  0.00     0.277 HD
ENDBRANCH   1   7
BRANCH   1  11
HETATM   11  C3  UNL     1     -22.573  22.758 -26.493  1.00  0.00     0.271 C 
BRANCH  11  12
HETATM   12  N2  UNL     1     -21.300  22.903 -27.212  1.00  0.00    -0.077 N 
ATOM     13  H23 UNL     1     -20.491  22.639 -26.649  1.00  0.00     0.274 HD
ATOM     14  H22 UNL     1     -21.177  22.210 -27.951  1.00  0.00     0.274 HD
ATOM     15  H21 UNL     1     -21.255  23.863 -27.552  1.00  0.00     0.274 HD
ENDBRANCH  11  12
ENDBRANCH   1  11
TORSDOF 3
ENDMDL
MODEL 2
REMARK VINA RESULT: -3.668917103      1.138      2.551
REMARK  3 active torsions:
REMARK  status: ('A' for Active; 'I' for Inactive)
REMARK    1  A    between atoms: N1_2  and  C2_5 
REMARK    2  A    between atoms: C2_5  and  C3_6 
REMARK    3  A    between atoms: C3_6  and  N2_7 
ROOT
HETATM    1  C2  UNL     1     -22.224  23.022 -24.955  1.00  0.00     0.195 C 
HETATM    2  C4  UNL     1     -21.917  24.141 -24.007  1.00  0.00     0.274 C 
HETATM    3  N3  UNL     1     -23.105  24.857 -24.376  1.00  0.00    -0.070 N 
ATOM      4  H31 UNL     1     -23.063  25.858 -24.569  1.00  0.00     0.277 HD
ATOM      5  H32 UNL     1     -23.837  25.027 -23.687  1.00  0.00     0.277 HD
HETATM    6  C5  UNL     1     -23.321  23.911 -25.456  1.00  0.00     0.274 C 
ENDROOT
BRANCH   1   7
HETATM    7  N1  UNL     1     -21.140  22.778 -25.870  1.00  0.00    -0.065 N 
HETATM    8  C1  UNL     1     -21.427  23.225 -27.212  1.00  0.00     0.268 C 
ATOM      9  H12 UNL     1     -20.870  21.794 -25.862  1.00  0.00     0.277 HD
ATOM     10  H11 UNL     1     -20.272  23.190 -25.526  1.00  0.00     0.277 HD
ENDBRANCH   1   7
BRANCH   1  11
HETATM   11  C3  UNL     1     -22.763  21.763 -24.367  1.00  0.00     0.271 C 
BRANCH  11  12
HETATM   12  N2  UNL     1     -21.656  20.798 -24.325  1.00  0.00    -0.077 N 
ATOM     13  H23 UNL     1     -21.484  20.347 -25.224  1.00  0.00     0.274 HD
ATOM     14  H22 UNL     1     -20.742  21.241 -24.224  1.00  0.00     0.274 HD
ATOM     15  H21 UNL     1     -21.864  20.135 -23.578  1.00  0.00     0.274 HD
ENDBRANCH  11  12
ENDBRANCH   1  11
TORSDOF 3
ENDMDL
MODEL 3
REMARK VINA RESULT: -3.658558208      1.534      2.830
REMARK  3 active torsions:
REMARK  status: ('A' for Active; 'I' for Inactive)
REMARK    1  A    between atoms: N1_2  and  C2_5 
REMARK    2  A    between atoms: C2_5  and  C3_6 
REMARK    3  A    between atoms: C3_6  and  N2_7 
ROOT
HETATM    1  C2  UNL     1     -22.787  22.796 -25.365  1.00  0.00     0.195 C 
HETATM    2  C4  UNL     1     -23.287  24.204 -25.262  1.00  0.00     0.274 C 
HETATM    3  N3  UNL     1     -24.521  23.785 -24.663  1.00  0.00    -0.070 N 
ATOM      4  H31 UNL     1     -25.408  24.168 -24.990  1.00  0.00     0.277 HD
ATOM      5  H32 UNL     1     -24.754  24.071 -23.712  1.00  0.00     0.277 HD
HETATM    6  C5  UNL     1     -24.171  22.404 -24.946  1.00  0.00     0.274 C 
ENDROOT
BRANCH   1   7
HETATM    7  N1  UNL     1     -22.413  22.453 -26.713  1.00  0.00    -0.065 N 
HETATM    8  C1  UNL     1     -21.357  23.288 -27.232  1.00  0.00     0.268 C 
ATOM      9  H12 UNL     1     -23.225  22.465 -27.330  1.00  0.00     0.277 HD
ATOM     10  H11 UNL     1     -22.166  21.466 -26.783  1.00  0.00     0.277 HD
ENDBRANCH   1   7
BRANCH   1  11
HETATM   11  C3  UNL     1     -21.768  22.362 -24.368  1.00  0.00     0.271 C 
BRANCH  11  12
HETATM   12  N2  UNL     1     -21.743  20.893 -24.387  1.00  0.00    -0.077 N 
ATOM     13  H23 UNL     1     -22.343  20.492 -25.108  1.00  0.00     0.274 HD
ATOM     14  H22 UNL     1     -20.859  20.512 -24.725  1.00  0.00     0.274 HD
ATOM     15  H21 UNL     1     -21.982  20.577 -23.447  1.00  0.00     0.274 HD
ENDBRANCH  11  12
ENDBRANCH   1  11
TORSDOF 3
ENDMDL
MODEL 4
REMARK VINA RESULT: -3.609473199      0.957      2.811
REMARK  3 active torsions:
REMARK  status: ('A' for Active; 'I' for Inactive)
REMARK    1  A    between atoms: N1_2  and  C2_5 
REMARK    2  A    between atoms: C2_5  and  C3_6 
REMARK    3  A    between atoms: C3_6  and  N2_7 
ROOT
HETATM    1  C2  UNL     1     -22.479  23.073 -24.983  1.00  0.00     0.195 C 
HETATM    2  C4  UNL     1     -23.036  23.247 -26.363  1.00  0.00     0.274 C 
HETATM    3  N3  UNL     1     -21.773  22.946 -26.974  1.00  0.00    -0.070 N 
ATOM      4  H31 UNL     1     -21.416  23.529 -27.732  1.00  0.00     0.277 HD
ATOM      5  H32 UNL     1     -21.671  22.123 -27.567  1.00  0.00     0.277 HD
HETATM    6  C5  UNL     1     -21.147  22.987 -25.663  1.00  0.00     0.274 C 
ENDROOT
BRANCH   1   7
HETATM    7  N1  UNL     1     -22.697  24.236 -24.163  1.00  0.00    -0.065 N 
HETATM    8  C1  UNL     1     -23.991  24.839 -24.377  1.00  0.00     0.268 C 
ATOM      9  H12 UNL     1     -21.950  24.919 -24.293  1.00  0.00     0.277 HD
ATOM     10  H11 UNL     1     -22.554  24.019 -23.177  1.00  0.00     0.277 HD
ENDBRANCH   1   7
BRANCH   1  11
HETATM   11  C3  UNL     1     -22.814  21.807 -24.270  1.00  0.00     0.271 C 
BRANCH  11  12
HETATM   12  N2  UNL     1     -21.622  20.951 -24.328  1.00  0.00    -0.077 N 
ATOM     13  H23 UNL     1     -21.708  20.107 -23.763  1.00  0.00     0.274 HD
ATOM     14  H22 UNL     1     -21.502  20.492 -25.232  1.00  0.00     0.274 HD
ATOM     15  H21 UNL     1     -20.824  21.529 -24.065  1.00  0.00     0.274 HD
ENDBRANCH  11  12
ENDBRANCH   1  11
TORSDOF 3
ENDMDL
MODEL 5
REMARK VINA RESULT: -3.569688154      1.259      2.618
REMARK  3 active torsions:
REMARK  status: ('A' for Active; 'I' for Inactive)
REMARK    1  A    between atoms: N1_2  and  C2_5 
REMARK    2  A    between atoms: C2_5  and  C3_6 
REMARK    3  A    between atoms: C3_6  and  N2_7 
ROOT
HETATM    1  C2  UNL     1     -22.657  22.514 -24.529  1.00  0.00     0.195 C 
HETATM    2  C4  UNL     1     -22.216  21.118 -24.210  1.00  0.00     0.274 C 
HETATM    3  N3  UNL     1     -23.409  20.850 -23.460  1.00  0.00    -0.070 N 
ATOM      4  H31 UNL     1     -23.352  20.395 -22.548  1.00  0.00     0.277 HD
ATOM      5  H32 UNL     1     -24.061  20.130 -23.771  1.00  0.00     0.277 HD
HETATM    6  C5  UNL     1     -23.767  22.254 -23.557  1.00  0.00     0.274 C 
ENDROOT
BRANCH   1   7
HETATM    7  N1  UNL     1     -21.681  23.493 -24.126  1.00  0.00    -0.065 N 
HETATM    8  C1  UNL     1     -22.227  24.826 -24.038  1.00  0.00     0.268 C 
ATOM      9  H12 UNL     1     -20.867  23.471 -24.741  1.00  0.00     0.277 HD
ATOM     10  H11 UNL     1     -21.234  23.223 -23.250  1.00  0.00     0.277 HD
ENDBRANCH   1   7
BRANCH   1  11
HETATM   11  C3  UNL     1     -23.177  22.766 -25.902  1.00  0.00     0.271 C 
BRANCH  11  12
HETATM   12  N2  UNL     1     -22.085  22.467 -26.839  1.00  0.00    -0.077 N 
ATOM     13  H23 UNL     1     -21.343  23.166 -26.824  1.00  0.00     0.274 HD
ATOM     14  H22 UNL     1     -21.518  21.669 -26.551  1.00  0.00     0.274 HD
ATOM     15  H21 UNL     1     -22.505  22.348 -27.761  1.00  0.00     0.274 HD
ENDBRANCH  11  12
ENDBRANCH   1  11
TORSDOF 3
ENDMDL
