MODEL 1
REMARK VINA RESULT: -5.037808059      0.000      0.000
REMARK  3 active torsions:
REMARK  status: ('A' for Active; 'I' for Inactive)
REMARK    1  A    between atoms: C2_2  and  N1_3 
REMARK    2  A    between atoms: N1_3  and  N2_5 
REMARK    3  A    between atoms: N2_5  and  C3_7 
ROOT
HETATM    1  C3  UNL     1     -22.793  21.603 -24.143  1.00  0.00     0.725 A 
HETATM    2  N3  UNL     1     -23.846  20.989 -23.575  1.00  0.00    -0.117 N 
ATOM      3  H3  UNL     1     -24.741  21.412 -23.332  1.00  0.00     0.207 HD
HETATM    4  N4  UNL     1     -23.494  19.732 -23.393  1.00  0.00    -0.211 N 
ATOM      5  H4  UNL     1     -24.075  19.003 -22.980  1.00  0.00     0.206 HD
HETATM    6  N5  UNL     1     -22.258  19.581 -23.838  1.00  0.00     0.009 NA
HETATM    7  N6  UNL     1     -21.790  20.724 -24.311  1.00  0.00    -0.112 N 
ATOM      8  H6  UNL     1     -20.870  20.900 -24.716  1.00  0.00     0.203 HD
ENDROOT
BRANCH   1   9
HETATM    9  N2  UNL     1     -22.780  22.842 -24.462  1.00  0.00    -0.134 N 
ATOM     10  H2  UNL     1     -21.903  23.352 -24.362  1.00  0.00     0.205 HD
BRANCH   9  11
HETATM   11  N1  UNL     1     -23.888  23.537 -24.935  1.00  0.00    -0.323 N 
ATOM     12  H1  UNL     1     -24.203  23.373 -25.892  1.00  0.00     0.180 HD
BRANCH  11  13
HETATM   13  C2  UNL     1     -24.602  24.476 -24.121  1.00  0.00     0.135 C 
HETATM   14  C1  UNL     1     -26.012  23.989 -23.794  1.00  0.00     0.028 C 
ENDBRANCH  11  13
ENDBRANCH   9  11
ENDBRANCH   1   9
TORSDOF 3
ENDMDL
MODEL 2
REMARK VINA RESULT: -4.953631973      1.893      2.201
REMARK  3 active torsions:
REMARK  status: ('A' for Active; 'I' for Inactive)
REMARK    1  A    between atoms: C2_2  and  N1_3 
REMARK    2  A    between atoms: N1_3  and  N2_5 
REMARK    3  A    between atoms: N2_5  and  C3_7 
ROOT
HETATM    1  C3  UNL     1     -22.373  21.328 -24.145  1.00  0.00     0.725 A 
HETATM    2  N3  UNL     1     -23.601  21.107 -23.643  1.00  0.00    -0.117 N 
ATOM      3  H3  UNL     1     -24.344  21.795 -23.525  1.00  0.00     0.207 HD
HETATM    4  N4  UNL     1     -23.655  19.828 -23.334  1.00  0.00    -0.211 N 
ATOM      5  H4  UNL     1     -24.457  19.345 -22.929  1.00  0.00     0.206 HD
HETATM    6  N5  UNL     1     -22.491  19.280 -23.638  1.00  0.00     0.009 NA
HETATM    7  N6  UNL     1     -21.669  20.184 -24.145  1.00  0.00    -0.112 N 
ATOM      8  H6  UNL     1     -20.710  20.043 -24.465  1.00  0.00     0.203 HD
ENDROOT
BRANCH   1   9
HETATM    9  N2  UNL     1     -21.967  22.471 -24.552  1.00  0.00    -0.134 N 
ATOM     10  H2  UNL     1     -22.180  23.287 -23.978  1.00  0.00     0.205 HD
BRANCH   9  11
HETATM   11  N1  UNL     1     -21.253  22.671 -25.729  1.00  0.00    -0.323 N 
ATOM     12  H1  UNL     1     -20.387  22.152 -25.877  1.00  0.00     0.180 HD
BRANCH  11  13
HETATM   13  C2  UNL     1     -21.696  23.584 -26.742  1.00  0.00     0.135 C 
HETATM   14  C1  UNL     1     -22.643  24.642 -26.180  1.00  0.00     0.028 C 
ENDBRANCH  11  13
ENDBRANCH   9  11
ENDBRANCH   1   9
TORSDOF 3
ENDMDL
MODEL 3
REMARK VINA RESULT: -4.836635006      0.765      1.396
REMARK  3 active torsions:
REMARK  status: ('A' for Active; 'I' for Inactive)
REMARK    1  A    between atoms: C2_2  and  N1_3 
REMARK    2  A    between atoms: N1_3  and  N2_5 
REMARK    3  A    between atoms: N2_5  and  C3_7 
ROOT
HETATM    1  C3  UNL     1     -23.320  21.201 -23.799  1.00  0.00     0.725 A 
HETATM    2  N3  UNL     1     -22.093  21.230 -24.347  1.00  0.00    -0.117 N 
ATOM      3  H3  UNL     1     -21.633  22.035 -24.771  1.00  0.00     0.207 HD
HETATM    4  N4  UNL     1     -21.600  20.014 -24.229  1.00  0.00    -0.211 N 
ATOM      5  H4  UNL     1     -20.681  19.707 -24.548  1.00  0.00     0.206 HD
HETATM    6  N5  UNL     1     -22.503  19.260 -23.624  1.00  0.00     0.009 NA
HETATM    7  N6  UNL     1     -23.586  19.965 -23.342  1.00  0.00    -0.112 N 
ATOM      8  H6  UNL     1     -24.437  19.642 -22.880  1.00  0.00     0.203 HD
ENDROOT
BRANCH   1   9
HETATM    9  N2  UNL     1     -24.096  22.217 -23.739  1.00  0.00    -0.134 N 
ATOM     10  H2  UNL     1     -25.092  22.051 -23.598  1.00  0.00     0.205 HD
BRANCH   9  11
HETATM   11  N1  UNL     1     -23.665  23.535 -23.854  1.00  0.00    -0.323 N 
ATOM     12  H1  UNL     1     -22.670  23.739 -23.768  1.00  0.00     0.180 HD
BRANCH  11  13
HETATM   13  C2  UNL     1     -24.577  24.615 -24.090  1.00  0.00     0.135 C 
HETATM   14  C1  UNL     1     -26.029  24.192 -23.876  1.00  0.00     0.028 C 
ENDBRANCH  11  13
ENDBRANCH   9  11
ENDBRANCH   1   9
TORSDOF 3
ENDMDL
MODEL 4
REMARK VINA RESULT: -4.820934623      1.229      1.620
REMARK  3 active torsions:
REMARK  status: ('A' for Active; 'I' for Inactive)
REMARK    1  A    between atoms: C2_2  and  N1_3 
REMARK    2  A    between atoms: N1_3  and  N2_5 
REMARK    3  A    between atoms: N2_5  and  C3_7 
ROOT
HETATM    1  C3  UNL     1     -23.542  21.148 -23.833  1.00  0.00     0.725 A 
HETATM    2  N3  UNL     1     -24.005  19.997 -23.314  1.00  0.00    -0.117 N 
ATOM      3  H3  UNL     1     -24.932  19.833 -22.924  1.00  0.00     0.207 HD
HETATM    4  N4  UNL     1     -23.025  19.122 -23.409  1.00  0.00    -0.211 N 
ATOM      5  H4  UNL     1     -23.060  18.150 -23.103  1.00  0.00     0.206 HD
HETATM    6  N5  UNL     1     -21.989  19.722 -23.971  1.00  0.00     0.009 NA
HETATM    7  N6  UNL     1     -22.275  20.984 -24.248  1.00  0.00    -0.112 N 
ATOM      8  H6  UNL     1     -21.667  21.679 -24.682  1.00  0.00     0.203 HD
ENDROOT
BRANCH   1   9
HETATM    9  N2  UNL     1     -24.232  22.224 -23.904  1.00  0.00    -0.134 N 
ATOM     10  H2  UNL     1     -24.863  22.439 -23.132  1.00  0.00     0.205 HD
BRANCH   9  11
HETATM   11  N1  UNL     1     -24.175  23.118 -24.968  1.00  0.00    -0.323 N 
ATOM     12  H1  UNL     1     -24.530  22.826 -25.879  1.00  0.00     0.180 HD
BRANCH  11  13
HETATM   13  C2  UNL     1     -23.634  24.437 -24.825  1.00  0.00     0.135 C 
HETATM   14  C1  UNL     1     -22.769  24.829 -26.021  1.00  0.00     0.028 C 
ENDBRANCH  11  13
ENDBRANCH   9  11
ENDBRANCH   1   9
TORSDOF 3
ENDMDL
MODEL 5
REMARK VINA RESULT: -4.765277813      1.223      1.544
REMARK  3 active torsions:
REMARK  status: ('A' for Active; 'I' for Inactive)
REMARK    1  A    between atoms: C2_2  and  N1_3 
REMARK    2  A    between atoms: N1_3  and  N2_5 
REMARK    3  A    between atoms: N2_5  and  C3_7 
ROOT
HETATM    1  C3  UNL     1     -22.441  21.461 -24.151  1.00  0.00     0.725 A 
HETATM    2  N3  UNL     1     -23.642  21.134 -23.642  1.00  0.00    -0.117 N 
ATOM      3  H3  UNL     1     -24.433  21.760 -23.494  1.00  0.00     0.207 HD
HETATM    4  N4  UNL     1     -23.596  19.846 -23.371  1.00  0.00    -0.211 N 
ATOM      5  H4  UNL     1     -24.354  19.291 -22.972  1.00  0.00     0.206 HD
HETATM    6  N5  UNL     1     -22.399  19.396 -23.705  1.00  0.00     0.009 NA
HETATM    7  N6  UNL     1     -21.653  20.373 -24.194  1.00  0.00    -0.112 N 
ATOM      8  H6  UNL     1     -20.691  20.315 -24.529  1.00  0.00     0.203 HD
ENDROOT
BRANCH   1   9
HETATM    9  N2  UNL     1     -22.127  22.643 -24.527  1.00  0.00    -0.134 N 
ATOM     10  H2  UNL     1     -21.510  22.740 -25.333  1.00  0.00     0.205 HD
BRANCH   9  11
HETATM   11  N1  UNL     1     -22.576  23.804 -23.906  1.00  0.00    -0.323 N 
ATOM     12  H1  UNL     1     -22.301  23.987 -22.941  1.00  0.00     0.180 HD
BRANCH  11  13
HETATM   13  C2  UNL     1     -23.412  24.753 -24.581  1.00  0.00     0.135 C 
HETATM   14  C1  UNL     1     -22.850  25.136 -25.948  1.00  0.00     0.028 C 
ENDBRANCH  11  13
ENDBRANCH   9  11
ENDBRANCH   1   9
TORSDOF 3
ENDMDL
