MODEL 1
REMARK VINA RESULT: -8.218390621      0.000      0.000
REMARK  6 active torsions:
REMARK  status: ('A' for Active; 'I' for Inactive)
REMARK    1  A    between atoms: C2_2  and  C3_3 
REMARK    2  A    between atoms: C3_3  and  C4_4 
REMARK    3  A    between atoms: C4_4  and  C5_5 
REMARK    4  A    between atoms: C5_5  and  C6_6 
REMARK    5  A    between atoms: C6_6  and  C8_8 
REMARK    6  A    between atoms: C15_15  and  N1_17 
ROOT
HETATM    1  C8  UNL     1      63.537  47.567  28.789  1.00  0.00    -0.002 C 
HETATM    2  C9  UNL     1      63.780  46.052  28.957  1.00  0.00     0.006 C 
HETATM    3  C10 UNL     1      65.284  45.995  29.017  1.00  0.00     0.006 C 
HETATM    4  C11 UNL     1      65.757  47.307  29.487  1.00  0.00    -0.002 C 
HETATM    5  C12 UNL     1      66.681  47.343  30.621  1.00  0.00    -0.003 C 
HETATM    6  C13 UNL     1      67.921  46.514  30.493  1.00  0.00     0.008 C 
HETATM    7  C14 UNL     1      68.318  46.177  31.915  1.00  0.00     0.039 C 
HETATM    8  C15 UNL     1      67.219  46.723  32.812  1.00  0.00     0.124 C 
HETATM    9  C16 UNL     1      67.605  48.042  33.426  1.00  0.00     0.046 C 
HETATM   10  C17 UNL     1      66.054  46.796  31.897  1.00  0.00     0.025 C 
HETATM   11  C18 UNL     1      65.015  47.819  32.287  1.00  0.00     0.008 C 
HETATM   12  C19 UNL     1      63.988  47.908  31.203  1.00  0.00     0.010 C 
HETATM   13  C20 UNL     1      64.495  48.087  29.818  1.00  0.00    -0.036 C 
HETATM   14  C21 UNL     1      64.755  49.561  29.597  1.00  0.00     0.016 C 
ENDROOT
BRANCH   1  15
HETATM   15  C6  UNL     1      62.080  47.842  29.066  1.00  0.00    -0.014 C 
HETATM   16  C7  UNL     1      61.484  48.683  27.990  1.00  0.00     0.010 C 
BRANCH  15  17
HETATM   17  C5  UNL     1      61.286  46.564  29.189  1.00  0.00     0.005 C 
BRANCH  17  18
HETATM   18  C4  UNL     1      60.445  46.600  30.425  1.00  0.00     0.000 C 
BRANCH  18  19
HETATM   19  C3  UNL     1      58.968  46.362  30.157  1.00  0.00    -0.000 C 
BRANCH  19  20
HETATM   20  C2  UNL     1      58.675  46.629  28.707  1.00  0.00    -0.005 C 
HETATM   21  C1  UNL     1      57.875  47.921  28.543  1.00  0.00     0.005 C 
ENDBRANCH  19  20
ENDBRANCH  18  19
ENDBRANCH  17  18
ENDBRANCH  15  17
ENDBRANCH   1  15
BRANCH   8  22
HETATM   22  N1  UNL     1      67.044  45.776  33.905  1.00  0.00    -0.070 N 
ATOM     23  H13 UNL     1      66.896  44.819  33.584  1.00  0.00     0.275 HD
ATOM     24  H12 UNL     1      67.903  45.608  34.430  1.00  0.00     0.275 HD
ATOM     25  H11 UNL     1      66.282  46.124  34.488  1.00  0.00     0.275 HD
ENDBRANCH   8  22
TORSDOF 6
ENDMDL
MODEL 2
REMARK VINA RESULT: -7.955468021      0.640      1.305
REMARK  6 active torsions:
REMARK  status: ('A' for Active; 'I' for Inactive)
REMARK    1  A    between atoms: C2_2  and  C3_3 
REMARK    2  A    between atoms: C3_3  and  C4_4 
REMARK    3  A    between atoms: C4_4  and  C5_5 
REMARK    4  A    between atoms: C5_5  and  C6_6 
REMARK    5  A    between atoms: C6_6  and  C8_8 
REMARK    6  A    between atoms: C15_15  and  N1_17 
ROOT
HETATM    1  C8  UNL     1      63.646  47.593  28.676  1.00  0.00    -0.002 C 
HETATM    2  C9  UNL     1      63.858  46.076  28.871  1.00  0.00     0.006 C 
HETATM    3  C10 UNL     1      65.359  45.994  28.970  1.00  0.00     0.006 C 
HETATM    4  C11 UNL     1      65.843  47.304  29.434  1.00  0.00    -0.002 C 
HETATM    5  C12 UNL     1      66.738  47.339  30.591  1.00  0.00    -0.003 C 
HETATM    6  C13 UNL     1      67.966  46.488  30.506  1.00  0.00     0.008 C 
HETATM    7  C14 UNL     1      68.321  46.163  31.943  1.00  0.00     0.039 C 
HETATM    8  C15 UNL     1      67.210  46.741  32.803  1.00  0.00     0.124 C 
HETATM    9  C16 UNL     1      67.603  48.062  33.409  1.00  0.00     0.046 C 
HETATM   10  C17 UNL     1      66.069  46.821  31.858  1.00  0.00     0.025 C 
HETATM   11  C18 UNL     1      65.039  47.868  32.207  1.00  0.00     0.008 C 
HETATM   12  C19 UNL     1      64.042  47.959  31.096  1.00  0.00     0.010 C 
HETATM   13  C20 UNL     1      64.587  48.110  29.723  1.00  0.00    -0.036 C 
HETATM   14  C21 UNL     1      64.878  49.576  29.488  1.00  0.00     0.016 C 
ENDROOT
BRANCH   1  15
HETATM   15  C6  UNL     1      62.188  47.896  28.912  1.00  0.00    -0.014 C 
HETATM   16  C7  UNL     1      61.661  48.817  27.866  1.00  0.00     0.010 C 
BRANCH  15  17
HETATM   17  C5  UNL     1      61.353  46.639  28.928  1.00  0.00     0.005 C 
BRANCH  17  18
HETATM   18  C4  UNL     1      59.912  46.984  29.136  1.00  0.00     0.000 C 
BRANCH  18  19
HETATM   19  C3  UNL     1      59.336  46.417  30.422  1.00  0.00    -0.000 C 
BRANCH  19  20
HETATM   20  C2  UNL     1      60.447  45.845  31.258  1.00  0.00    -0.005 C 
HETATM   21  C1  UNL     1      60.881  46.838  32.337  1.00  0.00     0.005 C 
ENDBRANCH  19  20
ENDBRANCH  18  19
ENDBRANCH  17  18
ENDBRANCH  15  17
ENDBRANCH   1  15
BRANCH   8  22
HETATM   22  N1  UNL     1      66.990  45.812  33.904  1.00  0.00    -0.070 N 
ATOM     23  H13 UNL     1      66.020  45.507  33.982  1.00  0.00     0.275 HD
ATOM     24  H12 UNL     1      67.405  44.895  33.741  1.00  0.00     0.275 HD
ATOM     25  H11 UNL     1      67.336  46.261  34.752  1.00  0.00     0.275 HD
ENDBRANCH   8  22
TORSDOF 6
ENDMDL
MODEL 3
REMARK VINA RESULT: -7.458519594      0.899      1.109
REMARK  6 active torsions:
REMARK  status: ('A' for Active; 'I' for Inactive)
REMARK    1  A    between atoms: C2_2  and  C3_3 
REMARK    2  A    between atoms: C3_3  and  C4_4 
REMARK    3  A    between atoms: C4_4  and  C5_5 
REMARK    4  A    between atoms: C5_5  and  C6_6 
REMARK    5  A    between atoms: C6_6  and  C8_8 
REMARK    6  A    between atoms: C15_15  and  N1_17 
ROOT
HETATM    1  C8  UNL     1      63.958  47.827  28.037  1.00  0.00    -0.002 C 
HETATM    2  C9  UNL     1      63.723  46.381  28.526  1.00  0.00     0.006 C 
HETATM    3  C10 UNL     1      65.128  45.940  28.843  1.00  0.00     0.006 C 
HETATM    4  C11 UNL     1      65.916  47.149  29.128  1.00  0.00    -0.002 C 
HETATM    5  C12 UNL     1      66.686  47.194  30.371  1.00  0.00    -0.003 C 
HETATM    6  C13 UNL     1      67.631  46.058  30.608  1.00  0.00     0.008 C 
HETATM    7  C14 UNL     1      67.760  45.960  32.114  1.00  0.00     0.039 C 
HETATM    8  C15 UNL     1      66.786  46.969  32.698  1.00  0.00     0.124 C 
HETATM    9  C16 UNL     1      67.479  48.241  33.108  1.00  0.00     0.046 C 
HETATM   10  C17 UNL     1      65.796  47.140  31.607  1.00  0.00     0.025 C 
HETATM   11  C18 UNL     1      65.072  48.465  31.620  1.00  0.00     0.008 C 
HETATM   12  C19 UNL     1      64.237  48.575  30.384  1.00  0.00     0.010 C 
HETATM   13  C20 UNL     1      64.915  48.292  29.094  1.00  0.00    -0.036 C 
HETATM   14  C21 UNL     1      65.621  49.552  28.644  1.00  0.00     0.016 C 
ENDROOT
BRANCH   1  15
HETATM   15  C6  UNL     1      62.628  48.536  28.013  1.00  0.00    -0.014 C 
HETATM   16  C7  UNL     1      62.633  49.642  27.015  1.00  0.00     0.010 C 
BRANCH  15  17
HETATM   17  C5  UNL     1      61.497  47.588  27.694  1.00  0.00     0.005 C 
BRANCH  17  18
HETATM   18  C4  UNL     1      60.365  47.802  28.647  1.00  0.00     0.000 C 
BRANCH  18  19
HETATM   19  C3  UNL     1      60.369  46.832  29.817  1.00  0.00    -0.000 C 
BRANCH  19  20
HETATM   20  C2  UNL     1      59.087  46.047  29.819  1.00  0.00    -0.005 C 
HETATM   21  C1  UNL     1      57.914  46.923  29.380  1.00  0.00     0.005 C 
ENDBRANCH  19  20
ENDBRANCH  18  19
ENDBRANCH  17  18
ENDBRANCH  15  17
ENDBRANCH   1  15
BRANCH   8  22
HETATM   22  N1  UNL     1      66.225  46.378  33.906  1.00  0.00    -0.070 N 
ATOM     23  H13 UNL     1      65.393  46.864  34.240  1.00  0.00     0.275 HD
ATOM     24  H12 UNL     1      65.791  45.469  33.742  1.00  0.00     0.275 HD
ATOM     25  H11 UNL     1      66.972  46.344  34.600  1.00  0.00     0.275 HD
ENDBRANCH   8  22
TORSDOF 6
ENDMDL
MODEL 4
REMARK VINA RESULT: -6.473985607      1.481      3.175
REMARK  6 active torsions:
REMARK  status: ('A' for Active; 'I' for Inactive)
REMARK    1  A    between atoms: C2_2  and  C3_3 
REMARK    2  A    between atoms: C3_3  and  C4_4 
REMARK    3  A    between atoms: C4_4  and  C5_5 
REMARK    4  A    between atoms: C5_5  and  C6_6 
REMARK    5  A    between atoms: C6_6  and  C8_8 
REMARK    6  A    between atoms: C15_15  and  N1_17 
ROOT
HETATM    1  C8  UNL     1      64.413  47.986  29.295  1.00  0.00    -0.002 C 
HETATM    2  C9  UNL     1      64.533  49.233  30.197  1.00  0.00     0.006 C 
HETATM    3  C10 UNL     1      64.471  48.617  31.570  1.00  0.00     0.006 C 
HETATM    4  C11 UNL     1      64.926  47.222  31.448  1.00  0.00    -0.002 C 
HETATM    5  C12 UNL     1      65.983  46.759  32.348  1.00  0.00    -0.003 C 
HETATM    6  C13 UNL     1      65.741  46.955  33.811  1.00  0.00     0.008 C 
HETATM    7  C14 UNL     1      67.121  47.055  34.430  1.00  0.00     0.039 C 
HETATM    8  C15 UNL     1      68.112  47.035  33.278  1.00  0.00     0.124 C 
HETATM    9  C16 UNL     1      68.718  45.671  33.087  1.00  0.00     0.046 C 
HETATM   10  C17 UNL     1      67.295  47.504  32.132  1.00  0.00     0.025 C 
HETATM   11  C18 UNL     1      67.786  47.039  30.782  1.00  0.00     0.008 C 
HETATM   12  C19 UNL     1      66.789  47.436  29.740  1.00  0.00     0.010 C 
HETATM   13  C20 UNL     1      65.372  47.076  30.002  1.00  0.00    -0.036 C 
HETATM   14  C21 UNL     1      65.157  45.645  29.563  1.00  0.00     0.016 C 
ENDROOT
BRANCH   1  15
HETATM   15  C6  UNL     1      64.810  48.380  27.895  1.00  0.00    -0.014 C 
HETATM   16  C7  UNL     1      64.546  47.271  26.935  1.00  0.00     0.010 C 
BRANCH  15  17
HETATM   17  C5  UNL     1      64.076  49.617  27.434  1.00  0.00     0.005 C 
BRANCH  17  18
HETATM   18  C4  UNL     1      62.680  49.263  27.030  1.00  0.00     0.000 C 
BRANCH  18  19
HETATM   19  C3  UNL     1      61.713  49.188  28.199  1.00  0.00    -0.000 C 
BRANCH  19  20
HETATM   20  C2  UNL     1      60.942  47.899  28.127  1.00  0.00    -0.005 C 
HETATM   21  C1  UNL     1      61.121  47.087  29.409  1.00  0.00     0.005 C 
ENDBRANCH  19  20
ENDBRANCH  18  19
ENDBRANCH  17  18
ENDBRANCH  15  17
ENDBRANCH   1  15
BRANCH   8  22
HETATM   22  N1  UNL     1      69.198  47.941  33.629  1.00  0.00    -0.070 N 
ATOM     23  H13 UNL     1      68.876  48.883  33.854  1.00  0.00     0.275 HD
ATOM     24  H12 UNL     1      69.621  47.727  34.532  1.00  0.00     0.275 HD
ATOM     25  H11 UNL     1      69.868  47.922  32.860  1.00  0.00     0.275 HD
ENDBRANCH   8  22
TORSDOF 6
ENDMDL
MODEL 5
REMARK VINA RESULT: -6.370902378      2.911      6.276
REMARK  6 active torsions:
REMARK  status: ('A' for Active; 'I' for Inactive)
REMARK    1  A    between atoms: C2_2  and  C3_3 
REMARK    2  A    between atoms: C3_3  and  C4_4 
REMARK    3  A    between atoms: C4_4  and  C5_5 
REMARK    4  A    between atoms: C5_5  and  C6_6 
REMARK    5  A    between atoms: C6_6  and  C8_8 
REMARK    6  A    between atoms: C15_15  and  N1_17 
ROOT
HETATM    1  C8  UNL     1      65.109  47.837  33.021  1.00  0.00    -0.002 C 
HETATM    2  C9  UNL     1      66.450  47.933  32.262  1.00  0.00     0.006 C 
HETATM    3  C10 UNL     1      66.191  47.035  31.081  1.00  0.00     0.006 C 
HETATM    4  C11 UNL     1      64.736  46.995  30.868  1.00  0.00    -0.002 C 
HETATM    5  C12 UNL     1      64.226  47.283  29.527  1.00  0.00    -0.003 C 
HETATM    6  C13 UNL     1      64.798  46.468  28.410  1.00  0.00     0.008 C 
HETATM    7  C14 UNL     1      64.670  47.342  27.179  1.00  0.00     0.039 C 
HETATM    8  C15 UNL     1      64.139  48.684  27.654  1.00  0.00     0.124 C 
HETATM    9  C16 UNL     1      62.657  48.809  27.425  1.00  0.00     0.046 C 
HETATM   10  C17 UNL     1      64.537  48.708  29.083  1.00  0.00     0.025 C 
HETATM   11  C18 UNL     1      63.673  49.583  29.959  1.00  0.00     0.008 C 
HETATM   12  C19 UNL     1      64.073  49.388  31.387  1.00  0.00     0.010 C 
HETATM   13  C20 UNL     1      64.162  47.985  31.868  1.00  0.00    -0.036 C 
HETATM   14  C21 UNL     1      62.775  47.533  32.267  1.00  0.00     0.016 C 
ENDROOT
BRANCH   1  15
HETATM   15  C6  UNL     1      65.065  48.948  34.039  1.00  0.00    -0.014 C 
HETATM   16  C7  UNL     1      63.785  48.922  34.800  1.00  0.00     0.010 C 
BRANCH  15  17
HETATM   17  C5  UNL     1      66.218  48.859  35.010  1.00  0.00     0.005 C 
BRANCH  17  18
HETATM   18  C4  UNL     1      66.303  47.479  35.580  1.00  0.00     0.000 C 
BRANCH  18  19
HETATM   19  C3  UNL     1      67.401  46.635  34.957  1.00  0.00    -0.000 C 
BRANCH  19  20
HETATM   20  C2  UNL     1      66.877  45.250  34.694  1.00  0.00    -0.005 C 
HETATM   21  C1  UNL     1      67.553  44.637  33.468  1.00  0.00     0.005 C 
ENDBRANCH  19  20
ENDBRANCH  18  19
ENDBRANCH  17  18
ENDBRANCH  15  17
ENDBRANCH   1  15
BRANCH   8  22
HETATM   22  N1  UNL     1      64.786  49.713  26.851  1.00  0.00    -0.070 N 
ATOM     23  H13 UNL     1      65.715  49.442  26.528  1.00  0.00     0.275 HD
ATOM     24  H12 UNL     1      64.357  49.833  25.934  1.00  0.00     0.275 HD
ATOM     25  H11 UNL     1      64.791  50.569  27.405  1.00  0.00     0.275 HD
ENDBRANCH   8  22
TORSDOF 6
ENDMDL
