MODEL 1
REMARK VINA RESULT: -8.563711063      0.000      0.000
REMARK  6 active torsions:
REMARK  status: ('A' for Active; 'I' for Inactive)
REMARK    1  A    between atoms: C2_2  and  C3_3 
REMARK    2  A    between atoms: C3_3  and  C4_4 
REMARK    3  A    between atoms: C4_4  and  C6_6 
REMARK    4  A    between atoms: C6_6  and  N2_13 
REMARK    5  A    between atoms: N1_7  and  C7_9 
REMARK    6  A    between atoms: N2_13  and  C11_15 
ROOT
HETATM    1  C6  UNL     1      65.083  47.719  32.274  1.00  0.00     0.077 C 
HETATM    2  N1  UNL     1      66.035  46.969  32.390  1.00  0.00    -0.371 N 
ATOM      3  H1  UNL     1      65.936  46.598  33.334  1.00  0.00     0.161 HD
ENDROOT
BRANCH   1   4
HETATM    4  C4  UNL     1      64.180  47.791  33.532  1.00  0.00     0.049 C 
HETATM    5  C5  UNL     1      62.766  47.560  33.224  1.00  0.00     0.018 C 
BRANCH   4   6
HETATM    6  C3  UNL     1      64.502  49.000  34.302  1.00  0.00     0.011 C 
BRANCH   6   7
HETATM    7  C2  UNL     1      65.827  49.080  34.944  1.00  0.00    -0.004 C 
HETATM    8  C1  UNL     1      66.326  47.847  35.632  1.00  0.00     0.005 C 
ENDBRANCH   6   7
ENDBRANCH   4   6
ENDBRANCH   1   4
BRANCH   1   9
HETATM    9  N2  UNL     1      64.631  48.563  31.244  1.00  0.00    -0.370 N 
ATOM     10  H2  UNL     1      64.523  49.535  31.533  1.00  0.00     0.161 HD
BRANCH   9  11
HETATM   11  C11 UNL     1      64.297  48.337  29.892  1.00  0.00     0.032 C 
HETATM   12  C12 UNL     1      63.308  49.455  29.498  1.00  0.00     0.035 C 
HETATM   13  C13 UNL     1      62.939  49.430  28.054  1.00  0.00    -0.012 C 
HETATM   14  C14 UNL     1      62.231  48.121  27.763  1.00  0.00     0.009 C 
HETATM   15  C18 UNL     1      64.215  49.581  27.249  1.00  0.00     0.009 C 
HETATM   16  C15 UNL     1      63.195  47.028  28.115  1.00  0.00    -0.012 C 
HETATM   17  C16 UNL     1      64.383  47.133  27.184  1.00  0.00     0.009 C 
HETATM   18  C20 UNL     1      63.625  47.038  29.566  1.00  0.00     0.035 C 
HETATM   19  C17 UNL     1      65.103  48.397  27.520  1.00  0.00    -0.012 C 
HETATM   20  C19 UNL     1      65.513  48.410  28.971  1.00  0.00     0.035 C 
ENDBRANCH   9  11
ENDBRANCH   1   9
BRANCH   2  21
HETATM   21  C7  UNL     1      67.162  46.363  31.925  1.00  0.00     0.020 C 
HETATM   22  C8  UNL     1      68.283  47.345  31.527  1.00  0.00     0.037 C 
HETATM   23  C9  UNL     1      67.823  45.513  33.021  1.00  0.00     0.037 C 
HETATM   24  C10 UNL     1      67.006  45.459  30.718  1.00  0.00     0.037 C 
ENDBRANCH   2  21
TORSDOF 6
ENDMDL
MODEL 2
REMARK VINA RESULT: -8.380700734      0.272      1.555
REMARK  6 active torsions:
REMARK  status: ('A' for Active; 'I' for Inactive)
REMARK    1  A    between atoms: C2_2  and  C3_3 
REMARK    2  A    between atoms: C3_3  and  C4_4 
REMARK    3  A    between atoms: C4_4  and  C6_6 
REMARK    4  A    between atoms: C6_6  and  N2_13 
REMARK    5  A    between atoms: N1_7  and  C7_9 
REMARK    6  A    between atoms: N2_13  and  C11_15 
ROOT
HETATM    1  C6  UNL     1      64.932  47.813  32.204  1.00  0.00     0.077 C 
HETATM    2  N1  UNL     1      65.866  47.034  32.265  1.00  0.00    -0.371 N 
ATOM      3  H1  UNL     1      65.764  46.608  33.186  1.00  0.00     0.161 HD
ENDROOT
BRANCH   1   4
HETATM    4  C4  UNL     1      64.040  47.828  33.471  1.00  0.00     0.049 C 
HETATM    5  C5  UNL     1      62.640  47.510  33.178  1.00  0.00     0.018 C 
BRANCH   4   6
HETATM    6  C3  UNL     1      64.293  49.055  34.239  1.00  0.00     0.011 C 
BRANCH   6   7
HETATM    7  C2  UNL     1      65.613  49.211  34.879  1.00  0.00    -0.004 C 
HETATM    8  C1  UNL     1      66.213  47.991  35.507  1.00  0.00     0.005 C 
ENDBRANCH   6   7
ENDBRANCH   4   6
ENDBRANCH   1   4
BRANCH   1   9
HETATM    9  N2  UNL     1      64.495  48.730  31.232  1.00  0.00    -0.370 N 
ATOM     10  H2  UNL     1      64.506  49.698  31.553  1.00  0.00     0.161 HD
BRANCH   9  11
HETATM   11  C11 UNL     1      64.043  48.583  29.904  1.00  0.00     0.032 C 
HETATM   12  C12 UNL     1      65.284  48.764  29.002  1.00  0.00     0.035 C 
HETATM   13  C13 UNL     1      65.000  48.525  27.559  1.00  0.00    -0.012 C 
HETATM   14  C14 UNL     1      63.988  49.553  27.092  1.00  0.00     0.009 C 
HETATM   15  C18 UNL     1      64.480  47.108  27.420  1.00  0.00     0.009 C 
HETATM   16  C15 UNL     1      62.768  49.366  27.942  1.00  0.00    -0.012 C 
HETATM   17  C16 UNL     1      62.203  47.992  27.656  1.00  0.00     0.009 C 
HETATM   18  C20 UNL     1      63.019  49.564  29.422  1.00  0.00     0.035 C 
HETATM   19  C17 UNL     1      63.182  46.990  28.172  1.00  0.00    -0.012 C 
HETATM   20  C19 UNL     1      63.443  47.204  29.641  1.00  0.00     0.035 C 
ENDBRANCH   9  11
ENDBRANCH   1   9
BRANCH   2  21
HETATM   21  C7  UNL     1      66.974  46.432  31.754  1.00  0.00     0.020 C 
HETATM   22  C8  UNL     1      68.188  47.372  31.607  1.00  0.00     0.037 C 
HETATM   23  C9  UNL     1      67.497  45.343  32.704  1.00  0.00     0.037 C 
HETATM   24  C10 UNL     1      66.834  45.780  30.393  1.00  0.00     0.037 C 
ENDBRANCH   2  21
TORSDOF 6
ENDMDL
MODEL 3
REMARK VINA RESULT: -8.296712686      0.627      1.785
REMARK  6 active torsions:
REMARK  status: ('A' for Active; 'I' for Inactive)
REMARK    1  A    between atoms: C2_2  and  C3_3 
REMARK    2  A    between atoms: C3_3  and  C4_4 
REMARK    3  A    between atoms: C4_4  and  C6_6 
REMARK    4  A    between atoms: C6_6  and  N2_13 
REMARK    5  A    between atoms: N1_7  and  C7_9 
REMARK    6  A    between atoms: N2_13  and  C11_15 
ROOT
HETATM    1  C6  UNL     1      65.329  47.713  32.224  1.00  0.00     0.077 C 
HETATM    2  N1  UNL     1      66.207  46.878  32.350  1.00  0.00    -0.371 N 
ATOM      3  H1  UNL     1      66.021  46.469  33.265  1.00  0.00     0.161 HD
ENDROOT
BRANCH   1   4
HETATM    4  C4  UNL     1      64.361  47.797  33.431  1.00  0.00     0.049 C 
HETATM    5  C5  UNL     1      62.965  47.564  33.051  1.00  0.00     0.018 C 
BRANCH   4   6
HETATM    6  C3  UNL     1      64.643  49.013  34.206  1.00  0.00     0.011 C 
BRANCH   6   7
HETATM    7  C2  UNL     1      65.876  49.050  35.015  1.00  0.00    -0.004 C 
HETATM    8  C1  UNL     1      66.327  47.759  35.625  1.00  0.00     0.005 C 
ENDBRANCH   6   7
ENDBRANCH   4   6
ENDBRANCH   1   4
BRANCH   1   9
HETATM    9  N2  UNL     1      65.013  48.645  31.220  1.00  0.00    -0.370 N 
ATOM     10  H2  UNL     1      65.193  49.611  31.491  1.00  0.00     0.161 HD
BRANCH   9  11
HETATM   11  C11 UNL     1      64.495  48.514  29.914  1.00  0.00     0.032 C 
HETATM   12  C12 UNL     1      64.172  47.016  29.723  1.00  0.00     0.035 C 
HETATM   13  C13 UNL     1      63.506  46.721  28.423  1.00  0.00    -0.012 C 
HETATM   14  C14 UNL     1      64.456  47.091  27.302  1.00  0.00     0.009 C 
HETATM   15  C18 UNL     1      62.220  47.522  28.372  1.00  0.00     0.009 C 
HETATM   16  C15 UNL     1      64.753  48.551  27.461  1.00  0.00    -0.012 C 
HETATM   17  C16 UNL     1      63.465  49.317  27.252  1.00  0.00     0.009 C 
HETATM   18  C20 UNL     1      65.399  48.903  28.784  1.00  0.00     0.035 C 
HETATM   19  C17 UNL     1      62.561  48.988  28.393  1.00  0.00    -0.012 C 
HETATM   20  C19 UNL     1      63.216  49.322  29.710  1.00  0.00     0.035 C 
ENDBRANCH   9  11
ENDBRANCH   1   9
BRANCH   2  21
HETATM   21  C7  UNL     1      67.305  46.203  31.915  1.00  0.00     0.020 C 
HETATM   22  C8  UNL     1      68.538  46.354  32.830  1.00  0.00     0.037 C 
HETATM   23  C9  UNL     1      67.058  44.686  31.922  1.00  0.00     0.037 C 
HETATM   24  C10 UNL     1      67.818  46.546  30.531  1.00  0.00     0.037 C 
ENDBRANCH   2  21
TORSDOF 6
ENDMDL
MODEL 4
REMARK VINA RESULT: -8.238510484      1.066      3.624
REMARK  6 active torsions:
REMARK  status: ('A' for Active; 'I' for Inactive)
REMARK    1  A    between atoms: C2_2  and  C3_3 
REMARK    2  A    between atoms: C3_3  and  C4_4 
REMARK    3  A    between atoms: C4_4  and  C6_6 
REMARK    4  A    between atoms: C6_6  and  N2_13 
REMARK    5  A    between atoms: N1_7  and  C7_9 
REMARK    6  A    between atoms: N2_13  and  C11_15 
ROOT
HETATM    1  C6  UNL     1      66.402  47.339  31.695  1.00  0.00     0.077 C 
HETATM    2  N1  UNL     1      65.826  47.438  32.763  1.00  0.00    -0.371 N 
ATOM      3  H1  UNL     1      66.249  46.706  33.333  1.00  0.00     0.161 HD
ENDROOT
BRANCH   1   4
HETATM    4  C4  UNL     1      67.466  46.213  31.654  1.00  0.00     0.049 C 
HETATM    5  C5  UNL     1      68.515  46.466  30.662  1.00  0.00     0.018 C 
BRANCH   4   6
HETATM    6  C3  UNL     1      66.800  44.905  31.596  1.00  0.00     0.011 C 
BRANCH   6   7
HETATM    7  C2  UNL     1      67.007  43.972  32.718  1.00  0.00    -0.004 C 
HETATM    8  C1  UNL     1      67.466  44.560  34.016  1.00  0.00     0.005 C 
ENDBRANCH   6   7
ENDBRANCH   4   6
ENDBRANCH   1   4
BRANCH   1   9
HETATM    9  N2  UNL     1      66.295  48.017  30.468  1.00  0.00    -0.370 N 
ATOM     10  H2  UNL     1      67.130  48.549  30.223  1.00  0.00     0.161 HD
BRANCH   9  11
HETATM   11  C11 UNL     1      65.265  48.111  29.507  1.00  0.00     0.032 C 
HETATM   12  C12 UNL     1      64.807  46.664  29.220  1.00  0.00     0.035 C 
HETATM   13  C13 UNL     1      63.636  46.591  28.301  1.00  0.00    -0.012 C 
HETATM   14  C14 UNL     1      64.040  47.177  26.963  1.00  0.00     0.009 C 
HETATM   15  C18 UNL     1      62.498  47.361  28.942  1.00  0.00     0.009 C 
HETATM   16  C15 UNL     1      64.460  48.592  27.226  1.00  0.00    -0.012 C 
HETATM   17  C16 UNL     1      63.251  49.354  27.723  1.00  0.00     0.009 C 
HETATM   18  C20 UNL     1      65.624  48.715  28.184  1.00  0.00     0.035 C 
HETATM   19  C17 UNL     1      62.899  48.806  29.066  1.00  0.00    -0.012 C 
HETATM   20  C19 UNL     1      64.068  48.914  30.011  1.00  0.00     0.035 C 
ENDBRANCH   9  11
ENDBRANCH   1   9
BRANCH   2  21
HETATM   21  C7  UNL     1      64.917  48.009  33.599  1.00  0.00     0.020 C 
HETATM   22  C8  UNL     1      63.462  47.566  33.340  1.00  0.00     0.037 C 
HETATM   23  C9  UNL     1      65.155  47.573  35.053  1.00  0.00     0.037 C 
HETATM   24  C10 UNL     1      64.853  49.523  33.611  1.00  0.00     0.037 C 
ENDBRANCH   2  21
TORSDOF 6
ENDMDL
MODEL 5
REMARK VINA RESULT: -8.236819124      0.808      1.977
REMARK  6 active torsions:
REMARK  status: ('A' for Active; 'I' for Inactive)
REMARK    1  A    between atoms: C2_2  and  C3_3 
REMARK    2  A    between atoms: C3_3  and  C4_4 
REMARK    3  A    between atoms: C4_4  and  C6_6 
REMARK    4  A    between atoms: C6_6  and  N2_13 
REMARK    5  A    between atoms: N1_7  and  C7_9 
REMARK    6  A    between atoms: N2_13  and  C11_15 
ROOT
HETATM    1  C6  UNL     1      65.650  47.665  32.344  1.00  0.00     0.077 C 
HETATM    2  N1  UNL     1      66.372  46.739  32.666  1.00  0.00    -0.371 N 
ATOM      3  H1  UNL     1      66.112  46.558  33.635  1.00  0.00     0.161 HD
ENDROOT
BRANCH   1   4
HETATM    4  C4  UNL     1      64.701  48.147  33.471  1.00  0.00     0.049 C 
HETATM    5  C5  UNL     1      65.399  48.357  34.743  1.00  0.00     0.018 C 
BRANCH   4   6
HETATM    6  C3  UNL     1      63.502  47.299  33.504  1.00  0.00     0.011 C 
BRANCH   6   7
HETATM    7  C2  UNL     1      62.300  47.770  32.791  1.00  0.00    -0.004 C 
HETATM    8  C1  UNL     1      61.333  46.726  32.325  1.00  0.00     0.005 C 
ENDBRANCH   6   7
ENDBRANCH   4   6
ENDBRANCH   1   4
BRANCH   1   9
HETATM    9  N2  UNL     1      65.503  48.417  31.165  1.00  0.00    -0.370 N 
ATOM     10  H2  UNL     1      65.967  49.325  31.202  1.00  0.00     0.161 HD
BRANCH   9  11
HETATM   11  C11 UNL     1      64.845  48.171  29.942  1.00  0.00     0.032 C 
HETATM   12  C12 UNL     1      63.670  49.170  29.873  1.00  0.00     0.035 C 
HETATM   13  C13 UNL     1      62.932  49.119  28.579  1.00  0.00    -0.012 C 
HETATM   14  C14 UNL     1      62.320  47.741  28.430  1.00  0.00     0.009 C 
HETATM   15  C18 UNL     1      63.920  49.429  27.472  1.00  0.00     0.009 C 
HETATM   16  C15 UNL     1      63.456  46.764  28.466  1.00  0.00    -0.012 C 
HETATM   17  C16 UNL     1      64.332  47.018  27.259  1.00  0.00     0.009 C 
HETATM   18  C20 UNL     1      64.257  46.806  29.750  1.00  0.00     0.035 C 
HETATM   19  C17 UNL     1      64.972  48.353  27.446  1.00  0.00    -0.012 C 
HETATM   20  C19 UNL     1      65.754  48.397  28.735  1.00  0.00     0.035 C 
ENDBRANCH   9  11
ENDBRANCH   1   9
BRANCH   2  21
HETATM   21  C7  UNL     1      67.343  45.819  32.417  1.00  0.00     0.020 C 
HETATM   22  C8  UNL     1      67.692  45.664  30.923  1.00  0.00     0.037 C 
HETATM   23  C9  UNL     1      68.681  46.247  33.040  1.00  0.00     0.037 C 
HETATM   24  C10 UNL     1      67.083  44.403  32.892  1.00  0.00     0.037 C 
ENDBRANCH   2  21
TORSDOF 6
ENDMDL
