MODEL 1
REMARK VINA RESULT: -8.084879115      0.000      0.000
REMARK  5 active torsions:
REMARK  status: ('A' for Active; 'I' for Inactive)
REMARK    1  A    between atoms: C2_2  and  C3_3 
REMARK    2  A    between atoms: C11_11  and  C13_13 
REMARK    3  A    between atoms: C13_13  and  C14_14 
REMARK    4  A    between atoms: C14_14  and  C15_15 
REMARK    5  A    between atoms: C15_15  and  N1_16 
ROOT
HETATM    1  C3  UNL     1      65.221  46.862  34.125  1.00  0.00    -0.019 C 
HETATM    2  C4  UNL     1      63.752  47.021  34.209  1.00  0.00     0.018 C 
HETATM    3  C5  UNL     1      63.240  48.415  34.254  1.00  0.00    -0.018 C 
HETATM    4  C6  UNL     1      63.309  49.055  35.614  1.00  0.00     0.010 C 
HETATM    5  C7  UNL     1      63.989  49.322  33.278  1.00  0.00     0.005 C 
HETATM    6  C8  UNL     1      65.404  49.360  33.803  1.00  0.00     0.006 C 
HETATM    7  C9  UNL     1      66.032  48.026  33.782  1.00  0.00    -0.001 C 
HETATM    8  C10 UNL     1      66.617  47.802  32.381  1.00  0.00     0.015 C 
HETATM    9  C11 UNL     1      66.797  46.297  32.360  1.00  0.00    -0.043 C 
HETATM   10  C12 UNL     1      68.041  45.958  33.136  1.00  0.00     0.015 C 
HETATM   11  C21 UNL     1      65.540  45.830  33.032  1.00  0.00     0.023 C 
ENDROOT
BRANCH   9  12
HETATM   12  C13 UNL     1      66.867  45.812  30.925  1.00  0.00     0.011 C 
BRANCH  12  13
HETATM   13  C14 UNL     1      66.293  46.787  29.959  1.00  0.00     0.039 C 
BRANCH  13  14
HETATM   14  C15 UNL     1      64.963  46.433  29.387  1.00  0.00     0.123 C 
HETATM   15  C16 UNL     1      63.840  46.879  30.335  1.00  0.00     0.038 C 
HETATM   16  C17 UNL     1      63.049  48.007  29.743  1.00  0.00     0.002 C 
HETATM   17  C18 UNL     1      63.966  49.109  29.279  1.00  0.00     0.000 C 
HETATM   18  C19 UNL     1      64.856  48.611  28.158  1.00  0.00     0.002 C 
HETATM   19  C20 UNL     1      64.805  47.105  28.044  1.00  0.00     0.038 C 
BRANCH  14  20
HETATM   20  N1  UNL     1      64.781  45.017  29.196  1.00  0.00    -0.070 N 
ATOM     21  H13 UNL     1      63.989  44.833  28.580  1.00  0.00     0.275 HD
ATOM     22  H12 UNL     1      65.532  44.629  28.625  1.00  0.00     0.275 HD
ATOM     23  H11 UNL     1      64.687  44.499  30.070  1.00  0.00     0.275 HD
ENDBRANCH  14  20
ENDBRANCH  13  14
ENDBRANCH  12  13
ENDBRANCH   9  12
BRANCH   1  24
HETATM   24  C2  UNL     1      65.693  46.237  35.397  1.00  0.00    -0.027 C 
HETATM   25  C1  UNL     1      66.331  47.001  36.263  1.00  0.00     0.008 C 
ENDBRANCH   1  24
TORSDOF 5
ENDMDL
MODEL 2
REMARK VINA RESULT: -8.021294528      1.288      2.425
REMARK  5 active torsions:
REMARK  status: ('A' for Active; 'I' for Inactive)
REMARK    1  A    between atoms: C2_2  and  C3_3 
REMARK    2  A    between atoms: C11_11  and  C13_13 
REMARK    3  A    between atoms: C13_13  and  C14_14 
REMARK    4  A    between atoms: C14_14  and  C15_15 
REMARK    5  A    between atoms: C15_15  and  N1_16 
ROOT
HETATM    1  C3  UNL     1      66.626  45.958  33.061  1.00  0.00    -0.019 C 
HETATM    2  C4  UNL     1      66.034  45.338  34.267  1.00  0.00     0.018 C 
HETATM    3  C5  UNL     1      65.331  46.254  35.203  1.00  0.00    -0.018 C 
HETATM    4  C6  UNL     1      66.243  47.009  36.132  1.00  0.00     0.010 C 
HETATM    5  C7  UNL     1      64.482  47.281  34.453  1.00  0.00     0.005 C 
HETATM    6  C8  UNL     1      65.481  48.119  33.692  1.00  0.00     0.006 C 
HETATM    7  C9  UNL     1      66.229  47.317  32.706  1.00  0.00    -0.001 C 
HETATM    8  C10 UNL     1      65.392  47.248  31.422  1.00  0.00     0.015 C 
HETATM    9  C11 UNL     1      66.022  46.069  30.706  1.00  0.00    -0.043 C 
HETATM   10  C12 UNL     1      67.304  46.532  30.068  1.00  0.00     0.015 C 
HETATM   11  C21 UNL     1      66.243  45.109  31.838  1.00  0.00     0.023 C 
ENDROOT
BRANCH   9  12
HETATM   12  C13 UNL     1      65.046  45.507  29.691  1.00  0.00     0.011 C 
BRANCH  12  13
HETATM   13  C14 UNL     1      63.982  46.478  29.317  1.00  0.00     0.039 C 
BRANCH  13  14
HETATM   14  C15 UNL     1      63.963  46.908  27.890  1.00  0.00     0.123 C 
HETATM   15  C16 UNL     1      62.533  47.271  27.463  1.00  0.00     0.038 C 
HETATM   16  C17 UNL     1      62.401  48.744  27.214  1.00  0.00     0.002 C 
HETATM   17  C18 UNL     1      62.935  49.528  28.385  1.00  0.00     0.000 C 
HETATM   18  C19 UNL     1      64.421  49.280  28.546  1.00  0.00     0.002 C 
HETATM   19  C20 UNL     1      64.874  48.100  27.717  1.00  0.00     0.038 C 
BRANCH  14  20
HETATM   20  N1  UNL     1      64.401  45.882  26.978  1.00  0.00    -0.070 N 
ATOM     21  H13 UNL     1      65.024  45.224  27.445  1.00  0.00     0.275 HD
ATOM     22  H12 UNL     1      63.632  45.252  26.747  1.00  0.00     0.275 HD
ATOM     23  H11 UNL     1      64.832  46.251  26.131  1.00  0.00     0.275 HD
ENDBRANCH  14  20
ENDBRANCH  13  14
ENDBRANCH  12  13
ENDBRANCH   9  12
BRANCH   1  24
HETATM   24  C2  UNL     1      68.111  45.843  33.162  1.00  0.00    -0.027 C 
HETATM   25  C1  UNL     1      68.799  46.932  33.446  1.00  0.00     0.008 C 
ENDBRANCH   1  24
TORSDOF 5
ENDMDL
MODEL 3
REMARK VINA RESULT: -7.940394293      1.414      2.183
REMARK  5 active torsions:
REMARK  status: ('A' for Active; 'I' for Inactive)
REMARK    1  A    between atoms: C2_2  and  C3_3 
REMARK    2  A    between atoms: C11_11  and  C13_13 
REMARK    3  A    between atoms: C13_13  and  C14_14 
REMARK    4  A    between atoms: C14_14  and  C15_15 
REMARK    5  A    between atoms: C15_15  and  N1_16 
ROOT
HETATM    1  C3  UNL     1      65.971  45.885  33.042  1.00  0.00    -0.019 C 
HETATM    2  C4  UNL     1      64.881  46.354  33.926  1.00  0.00     0.018 C 
HETATM    3  C5  UNL     1      65.257  47.336  34.975  1.00  0.00    -0.018 C 
HETATM    4  C6  UNL     1      65.882  46.724  36.199  1.00  0.00     0.010 C 
HETATM    5  C7  UNL     1      66.227  48.389  34.439  1.00  0.00     0.005 C 
HETATM    6  C8  UNL     1      67.478  47.616  34.096  1.00  0.00     0.006 C 
HETATM    7  C9  UNL     1      67.233  46.619  33.038  1.00  0.00    -0.001 C 
HETATM    8  C10 UNL     1      67.367  47.327  31.684  1.00  0.00     0.015 C 
HETATM    9  C11 UNL     1      66.662  46.356  30.757  1.00  0.00    -0.043 C 
HETATM   10  C12 UNL     1      67.599  45.216  30.463  1.00  0.00     0.015 C 
HETATM   11  C21 UNL     1      65.481  45.947  31.586  1.00  0.00     0.023 C 
ENDROOT
BRANCH   9  12
HETATM   12  C13 UNL     1      66.226  47.078  29.497  1.00  0.00     0.011 C 
BRANCH  12  13
HETATM   13  C14 UNL     1      64.806  47.520  29.549  1.00  0.00     0.039 C 
BRANCH  13  14
HETATM   14  C15 UNL     1      63.889  46.891  28.556  1.00  0.00     0.123 C 
HETATM   15  C16 UNL     1      62.466  46.803  29.126  1.00  0.00     0.038 C 
HETATM   16  C17 UNL     1      61.536  47.729  28.401  1.00  0.00     0.002 C 
HETATM   17  C18 UNL     1      62.113  49.118  28.341  1.00  0.00     0.000 C 
HETATM   18  C19 UNL     1      63.392  49.119  27.529  1.00  0.00     0.002 C 
HETATM   19  C20 UNL     1      63.890  47.712  27.289  1.00  0.00     0.038 C 
BRANCH  14  20
HETATM   20  N1  UNL     1      64.261  45.543  28.209  1.00  0.00    -0.070 N 
ATOM     21  H13 UNL     1      65.112  45.535  27.647  1.00  0.00     0.275 HD
ATOM     22  H12 UNL     1      64.595  45.037  29.029  1.00  0.00     0.275 HD
ATOM     23  H11 UNL     1      63.516  45.025  27.743  1.00  0.00     0.275 HD
ENDBRANCH  14  20
ENDBRANCH  13  14
ENDBRANCH  12  13
ENDBRANCH   9  12
BRANCH   1  24
HETATM   24  C2  UNL     1      66.197  44.434  33.313  1.00  0.00    -0.027 C 
HETATM   25  C1  UNL     1      67.308  44.085  33.932  1.00  0.00     0.008 C 
ENDBRANCH   1  24
TORSDOF 5
ENDMDL
MODEL 4
REMARK VINA RESULT: -7.806083622      1.535      2.560
REMARK  5 active torsions:
REMARK  status: ('A' for Active; 'I' for Inactive)
REMARK    1  A    between atoms: C2_2  and  C3_3 
REMARK    2  A    between atoms: C11_11  and  C13_13 
REMARK    3  A    between atoms: C13_13  and  C14_14 
REMARK    4  A    between atoms: C14_14  and  C15_15 
REMARK    5  A    between atoms: C15_15  and  N1_16 
ROOT
HETATM    1  C3  UNL     1      65.973  45.880  32.918  1.00  0.00    -0.019 C 
HETATM    2  C4  UNL     1      64.835  46.338  33.745  1.00  0.00     0.018 C 
HETATM    3  C5  UNL     1      65.150  47.318  34.817  1.00  0.00    -0.018 C 
HETATM    4  C6  UNL     1      65.714  46.705  36.069  1.00  0.00     0.010 C 
HETATM    5  C7  UNL     1      66.141  48.379  34.336  1.00  0.00     0.005 C 
HETATM    6  C8  UNL     1      67.412  47.615  34.056  1.00  0.00     0.006 C 
HETATM    7  C9  UNL     1      67.228  46.621  32.982  1.00  0.00    -0.001 C 
HETATM    8  C10 UNL     1      67.429  47.336  31.640  1.00  0.00     0.015 C 
HETATM    9  C11 UNL     1      66.779  46.364  30.674  1.00  0.00    -0.043 C 
HETATM   10  C12 UNL     1      67.737  45.231  30.425  1.00  0.00     0.015 C 
HETATM   11  C21 UNL     1      65.559  45.944  31.439  1.00  0.00     0.023 C 
ENDROOT
BRANCH   9  12
HETATM   12  C13 UNL     1      66.405  47.089  29.395  1.00  0.00     0.011 C 
BRANCH  12  13
HETATM   13  C14 UNL     1      65.007  46.813  28.967  1.00  0.00     0.039 C 
BRANCH  13  14
HETATM   14  C15 UNL     1      64.229  47.989  28.480  1.00  0.00     0.123 C 
HETATM   15  C16 UNL     1      63.086  47.528  27.565  1.00  0.00     0.038 C 
HETATM   16  C17 UNL     1      61.752  47.756  28.210  1.00  0.00     0.002 C 
HETATM   17  C18 UNL     1      61.730  47.173  29.599  1.00  0.00     0.000 C 
HETATM   18  C19 UNL     1      62.730  47.889  30.483  1.00  0.00     0.002 C 
HETATM   19  C20 UNL     1      63.674  48.742  29.665  1.00  0.00     0.038 C 
BRANCH  14  20
HETATM   20  N1  UNL     1      65.015  48.911  27.700  1.00  0.00    -0.070 N 
ATOM     21  H13 UNL     1      64.432  49.399  27.021  1.00  0.00     0.275 HD
ATOM     22  H12 UNL     1      65.312  49.704  28.269  1.00  0.00     0.275 HD
ATOM     23  H11 UNL     1      65.815  48.474  27.243  1.00  0.00     0.275 HD
ENDBRANCH  14  20
ENDBRANCH  13  14
ENDBRANCH  12  13
ENDBRANCH   9  12
BRANCH   1  24
HETATM   24  C2  UNL     1      66.193  44.429  33.195  1.00  0.00    -0.027 C 
HETATM   25  C1  UNL     1      67.254  44.087  33.900  1.00  0.00     0.008 C 
ENDBRANCH   1  24
TORSDOF 5
ENDMDL
MODEL 5
REMARK VINA RESULT: -7.669067775      1.444      3.536
REMARK  5 active torsions:
REMARK  status: ('A' for Active; 'I' for Inactive)
REMARK    1  A    between atoms: C2_2  and  C3_3 
REMARK    2  A    between atoms: C11_11  and  C13_13 
REMARK    3  A    between atoms: C13_13  and  C14_14 
REMARK    4  A    between atoms: C14_14  and  C15_15 
REMARK    5  A    between atoms: C15_15  and  N1_16 
ROOT
HETATM    1  C3  UNL     1      66.179  47.516  33.659  1.00  0.00    -0.019 C 
HETATM    2  C4  UNL     1      67.512  47.874  33.127  1.00  0.00     0.018 C 
HETATM    3  C5  UNL     1      68.339  46.753  32.609  1.00  0.00    -0.018 C 
HETATM    4  C6  UNL     1      69.060  45.973  33.675  1.00  0.00     0.010 C 
HETATM    5  C7  UNL     1      67.502  45.763  31.799  1.00  0.00     0.005 C 
HETATM    6  C8  UNL     1      66.540  45.169  32.799  1.00  0.00     0.006 C 
HETATM    7  C9  UNL     1      65.641  46.191  33.367  1.00  0.00    -0.001 C 
HETATM    8  C10 UNL     1      64.454  46.360  32.410  1.00  0.00     0.015 C 
HETATM    9  C11 UNL     1      63.891  47.697  32.849  1.00  0.00    -0.043 C 
HETATM   10  C12 UNL     1      63.089  47.484  34.103  1.00  0.00     0.015 C 
HETATM   11  C21 UNL     1      65.142  48.493  33.080  1.00  0.00     0.023 C 
ENDROOT
BRANCH   9  12
HETATM   12  C13 UNL     1      63.060  48.293  31.730  1.00  0.00     0.011 C 
BRANCH  12  13
HETATM   13  C14 UNL     1      63.710  48.165  30.398  1.00  0.00     0.039 C 
BRANCH  13  14
HETATM   14  C15 UNL     1      62.822  47.751  29.275  1.00  0.00     0.123 C 
HETATM   15  C16 UNL     1      62.155  48.981  28.642  1.00  0.00     0.038 C 
HETATM   16  C17 UNL     1      62.677  49.225  27.257  1.00  0.00     0.002 C 
HETATM   17  C18 UNL     1      64.183  49.245  27.256  1.00  0.00     0.000 C 
HETATM   18  C19 UNL     1      64.725  47.888  27.654  1.00  0.00     0.002 C 
HETATM   19  C20 UNL     1      63.640  47.014  28.241  1.00  0.00     0.038 C 
BRANCH  14  20
HETATM   20  N1  UNL     1      61.746  46.885  29.686  1.00  0.00    -0.070 N 
ATOM     21  H13 UNL     1      62.092  46.141  30.293  1.00  0.00     0.275 HD
ATOM     22  H12 UNL     1      61.127  47.363  30.341  1.00  0.00     0.275 HD
ATOM     23  H11 UNL     1      61.218  46.498  28.905  1.00  0.00     0.275 HD
ENDBRANCH  14  20
ENDBRANCH  13  14
ENDBRANCH  12  13
ENDBRANCH   9  12
BRANCH   1  24
HETATM   24  C2  UNL     1      66.181  47.780  35.129  1.00  0.00    -0.027 C 
HETATM   25  C1  UNL     1      66.107  46.746  35.945  1.00  0.00     0.008 C 
ENDBRANCH   1  24
TORSDOF 5
ENDMDL
