MODEL 1
REMARK VINA RESULT: -9.841698895      0.000      0.000
REMARK  4 active torsions:
REMARK  status: ('A' for Active; 'I' for Inactive)
REMARK    1  A    between atoms: C2_2  and  N1_3 
REMARK    2  A    between atoms: N1_3  and  C3_6 
REMARK    3  A    between atoms: C3_6  and  C4_7 
REMARK    4  A    between atoms: C10_13  and  C11_14 
ROOT
HETATM    1  C4  UNL     1      61.127  47.484  28.485  1.00  0.00     0.011 C 
HETATM    2  C5  UNL     1      61.400  48.930  28.718  1.00  0.00     0.006 C 
HETATM    3  C6  UNL     1      62.579  49.506  28.017  1.00  0.00     0.000 C 
HETATM    4  C7  UNL     1      63.181  48.740  26.909  1.00  0.00     0.000 C 
HETATM    5  C8  UNL     1      64.039  47.569  27.195  1.00  0.00     0.000 C 
HETATM    6  C9  UNL     1      64.806  47.600  28.468  1.00  0.00     0.005 C 
HETATM    7  C10 UNL     1      64.314  46.598  29.511  1.00  0.00    -0.006 C 
HETATM    8  C21 UNL     1      63.004  46.973  30.112  1.00  0.00     0.006 C 
HETATM    9  C22 UNL     1      61.778  46.528  29.379  1.00  0.00     0.007 C 
ENDROOT
BRANCH   7  10
HETATM   10  C11 UNL     1      65.450  46.386  30.451  1.00  0.00    -0.036 C 
HETATM   11  C12 UNL     1      65.117  46.767  31.909  1.00  0.00     0.014 C 
HETATM   12  C13 UNL     1      66.211  46.337  32.845  1.00  0.00    -0.013 C 
HETATM   13  C14 UNL     1      67.462  47.129  32.462  1.00  0.00     0.009 C 
HETATM   14  C18 UNL     1      66.508  44.870  32.837  1.00  0.00     0.009 C 
HETATM   15  C15 UNL     1      67.800  46.727  31.055  1.00  0.00    -0.013 C 
HETATM   16  C16 UNL     1      68.074  45.248  30.960  1.00  0.00     0.009 C 
HETATM   17  C20 UNL     1      66.695  47.117  30.096  1.00  0.00     0.014 C 
HETATM   18  C17 UNL     1      66.857  44.516  31.407  1.00  0.00    -0.013 C 
HETATM   19  C19 UNL     1      65.686  44.878  30.545  1.00  0.00     0.014 C 
ENDBRANCH   7  10
BRANCH   1  20
HETATM   20  C3  UNL     1      59.606  47.328  28.522  1.00  0.00     0.237 C 
BRANCH  20  21
HETATM   21  N1  UNL     1      59.177  46.233  29.352  1.00  0.00    -0.075 N 
ATOM     22  H12 UNL     1      59.637  46.262  30.263  1.00  0.00     0.277 HD
ATOM     23  H11 UNL     1      59.546  45.347  29.010  1.00  0.00     0.277 HD
BRANCH  21  24
HETATM   24  C2  UNL     1      57.741  46.178  29.496  1.00  0.00     0.228 C 
HETATM   25  C1  UNL     1      57.237  45.967  30.887  1.00  0.00     0.034 C 
ENDBRANCH  21  24
ENDBRANCH  20  21
ENDBRANCH   1  20
TORSDOF 4
ENDMDL
MODEL 2
REMARK VINA RESULT: -9.704977068      0.155      1.533
REMARK  4 active torsions:
REMARK  status: ('A' for Active; 'I' for Inactive)
REMARK    1  A    between atoms: C2_2  and  N1_3 
REMARK    2  A    between atoms: N1_3  and  C3_6 
REMARK    3  A    between atoms: C3_6  and  C4_7 
REMARK    4  A    between atoms: C10_13  and  C11_14 
ROOT
HETATM    1  C4  UNL     1      61.133  47.523  28.490  1.00  0.00     0.011 C 
HETATM    2  C5  UNL     1      61.444  48.951  28.783  1.00  0.00     0.006 C 
HETATM    3  C6  UNL     1      62.641  49.523  28.111  1.00  0.00     0.000 C 
HETATM    4  C7  UNL     1      63.227  48.786  26.973  1.00  0.00     0.000 C 
HETATM    5  C8  UNL     1      64.052  47.581  27.214  1.00  0.00     0.000 C 
HETATM    6  C9  UNL     1      64.813  47.539  28.489  1.00  0.00     0.005 C 
HETATM    7  C10 UNL     1      64.290  46.509  29.488  1.00  0.00    -0.006 C 
HETATM    8  C21 UNL     1      62.988  46.894  30.100  1.00  0.00     0.006 C 
HETATM    9  C22 UNL     1      61.754  46.514  29.345  1.00  0.00     0.007 C 
ENDROOT
BRANCH   7  10
HETATM   10  C11 UNL     1      65.416  46.228  30.423  1.00  0.00    -0.036 C 
HETATM   11  C12 UNL     1      66.698  47.020  30.093  1.00  0.00     0.014 C 
HETATM   12  C13 UNL     1      67.723  46.869  31.181  1.00  0.00    -0.013 C 
HETATM   13  C14 UNL     1      68.120  45.392  31.215  1.00  0.00     0.009 C 
HETATM   14  C18 UNL     1      67.275  47.313  32.538  1.00  0.00     0.009 C 
HETATM   15  C15 UNL     1      66.876  44.630  31.571  1.00  0.00    -0.013 C 
HETATM   16  C16 UNL     1      66.340  45.055  32.915  1.00  0.00     0.009 C 
HETATM   17  C20 UNL     1      65.811  44.798  30.507  1.00  0.00     0.014 C 
HETATM   18  C17 UNL     1      66.033  46.510  32.859  1.00  0.00    -0.013 C 
HETATM   19  C19 UNL     1      65.019  46.786  31.791  1.00  0.00     0.014 C 
ENDBRANCH   7  10
BRANCH   1  20
HETATM   20  C3  UNL     1      59.608  47.408  28.515  1.00  0.00     0.237 C 
BRANCH  20  21
HETATM   21  N1  UNL     1      59.146  46.297  29.306  1.00  0.00    -0.075 N 
ATOM     22  H12 UNL     1      59.600  46.283  30.219  1.00  0.00     0.277 HD
ATOM     23  H11 UNL     1      59.494  45.413  28.936  1.00  0.00     0.277 HD
BRANCH  21  24
HETATM   24  C2  UNL     1      57.708  46.274  29.439  1.00  0.00     0.228 C 
HETATM   25  C1  UNL     1      57.189  46.051  30.822  1.00  0.00     0.034 C 
ENDBRANCH  21  24
ENDBRANCH  20  21
ENDBRANCH   1  20
TORSDOF 4
ENDMDL
MODEL 3
REMARK VINA RESULT: -9.641411084      1.292      2.174
REMARK  4 active torsions:
REMARK  status: ('A' for Active; 'I' for Inactive)
REMARK    1  A    between atoms: C2_2  and  N1_3 
REMARK    2  A    between atoms: N1_3  and  C3_6 
REMARK    3  A    between atoms: C3_6  and  C4_7 
REMARK    4  A    between atoms: C10_13  and  C11_14 
ROOT
HETATM    1  C4  UNL     1      62.070  47.413  28.734  1.00  0.00     0.011 C 
HETATM    2  C5  UNL     1      62.967  48.318  27.960  1.00  0.00     0.006 C 
HETATM    3  C6  UNL     1      64.177  47.698  27.357  1.00  0.00     0.000 C 
HETATM    4  C7  UNL     1      64.242  46.226  27.266  1.00  0.00     0.000 C 
HETATM    5  C8  UNL     1      64.541  45.419  28.470  1.00  0.00     0.000 C 
HETATM    6  C9  UNL     1      65.404  46.054  29.500  1.00  0.00     0.005 C 
HETATM    7  C10 UNL     1      64.668  46.407  30.791  1.00  0.00    -0.006 C 
HETATM    8  C21 UNL     1      63.737  47.559  30.639  1.00  0.00     0.006 C 
HETATM    9  C22 UNL     1      62.356  47.246  30.158  1.00  0.00     0.007 C 
ENDROOT
BRANCH   7  10
HETATM   10  C11 UNL     1      65.713  46.521  31.847  1.00  0.00    -0.036 C 
HETATM   11  C12 UNL     1      65.914  45.221  32.653  1.00  0.00     0.014 C 
HETATM   12  C13 UNL     1      67.116  45.320  33.549  1.00  0.00    -0.013 C 
HETATM   13  C14 UNL     1      66.823  46.423  34.567  1.00  0.00     0.009 C 
HETATM   14  C18 UNL     1      68.407  45.598  32.846  1.00  0.00     0.009 C 
HETATM   15  C15 UNL     1      66.664  47.691  33.779  1.00  0.00    -0.013 C 
HETATM   16  C16 UNL     1      67.917  48.016  33.007  1.00  0.00     0.009 C 
HETATM   17  C20 UNL     1      65.479  47.603  32.838  1.00  0.00     0.014 C 
HETATM   18  C17 UNL     1      68.204  46.888  32.080  1.00  0.00    -0.013 C 
HETATM   19  C19 UNL     1      67.058  46.686  31.136  1.00  0.00     0.014 C 
ENDBRANCH   7  10
BRANCH   1  20
HETATM   20  C3  UNL     1      60.649  47.934  28.512  1.00  0.00     0.237 C 
BRANCH  20  21
HETATM   21  N1  UNL     1      59.642  47.030  29.001  1.00  0.00    -0.075 N 
ATOM     22  H12 UNL     1      59.384  47.253  29.963  1.00  0.00     0.277 HD
ATOM     23  H11 UNL     1      60.025  46.096  29.147  1.00  0.00     0.277 HD
BRANCH  21  24
HETATM   24  C2  UNL     1      58.477  46.985  28.148  1.00  0.00     0.228 C 
HETATM   25  C1  UNL     1      57.323  47.829  28.583  1.00  0.00     0.034 C 
ENDBRANCH  21  24
ENDBRANCH  20  21
ENDBRANCH   1  20
TORSDOF 4
ENDMDL
MODEL 4
REMARK VINA RESULT: -9.608752158      1.294      1.855
REMARK  4 active torsions:
REMARK  status: ('A' for Active; 'I' for Inactive)
REMARK    1  A    between atoms: C2_2  and  N1_3 
REMARK    2  A    between atoms: N1_3  and  C3_6 
REMARK    3  A    between atoms: C3_6  and  C4_7 
REMARK    4  A    between atoms: C10_13  and  C11_14 
ROOT
HETATM    1  C4  UNL     1      62.092  47.332  28.748  1.00  0.00     0.011 C 
HETATM    2  C5  UNL     1      62.983  48.170  27.897  1.00  0.00     0.006 C 
HETATM    3  C6  UNL     1      64.153  47.486  27.284  1.00  0.00     0.000 C 
HETATM    4  C7  UNL     1      64.174  46.010  27.266  1.00  0.00     0.000 C 
HETATM    5  C8  UNL     1      64.496  45.256  28.498  1.00  0.00     0.000 C 
HETATM    6  C9  UNL     1      65.413  45.917  29.463  1.00  0.00     0.005 C 
HETATM    7  C10 UNL     1      64.736  46.355  30.760  1.00  0.00    -0.006 C 
HETATM    8  C21 UNL     1      63.832  47.525  30.583  1.00  0.00     0.006 C 
HETATM    9  C22 UNL     1      62.425  47.229  30.167  1.00  0.00     0.007 C 
ENDROOT
BRANCH   7  10
HETATM   10  C11 UNL     1      65.822  46.492  31.770  1.00  0.00    -0.036 C 
HETATM   11  C12 UNL     1      65.501  47.512  32.882  1.00  0.00     0.014 C 
HETATM   12  C13 UNL     1      66.522  47.455  33.982  1.00  0.00    -0.013 C 
HETATM   13  C14 UNL     1      67.858  47.882  33.372  1.00  0.00     0.009 C 
HETATM   14  C18 UNL     1      66.662  46.121  34.645  1.00  0.00     0.009 C 
HETATM   15  C15 UNL     1      68.182  46.865  32.316  1.00  0.00    -0.013 C 
HETATM   16  C16 UNL     1      68.299  45.482  32.905  1.00  0.00     0.009 C 
HETATM   17  C20 UNL     1      67.145  46.877  31.211  1.00  0.00     0.014 C 
HETATM   18  C17 UNL     1      67.002  45.135  33.548  1.00  0.00    -0.013 C 
HETATM   19  C19 UNL     1      65.895  45.171  32.538  1.00  0.00     0.014 C 
ENDBRANCH   7  10
BRANCH   1  20
HETATM   20  C3  UNL     1      60.678  47.882  28.550  1.00  0.00     0.237 C 
BRANCH  20  21
HETATM   21  N1  UNL     1      59.662  47.005  29.070  1.00  0.00    -0.075 N 
ATOM     22  H12 UNL     1      59.393  47.275  30.017  1.00  0.00     0.277 HD
ATOM     23  H11 UNL     1      60.040  46.079  29.265  1.00  0.00     0.277 HD
BRANCH  21  24
HETATM   24  C2  UNL     1      58.507  46.923  28.205  1.00  0.00     0.228 C 
HETATM   25  C1  UNL     1      57.358  47.803  28.575  1.00  0.00     0.034 C 
ENDBRANCH  21  24
ENDBRANCH  20  21
ENDBRANCH   1  20
TORSDOF 4
ENDMDL
MODEL 5
REMARK VINA RESULT: -9.368019196      1.305      2.374
REMARK  4 active torsions:
REMARK  status: ('A' for Active; 'I' for Inactive)
REMARK    1  A    between atoms: C2_2  and  N1_3 
REMARK    2  A    between atoms: N1_3  and  C3_6 
REMARK    3  A    between atoms: C3_6  and  C4_7 
REMARK    4  A    between atoms: C10_13  and  C11_14 
ROOT
HETATM    1  C4  UNL     1      62.103  47.383  28.676  1.00  0.00     0.011 C 
HETATM    2  C5  UNL     1      63.020  48.312  27.958  1.00  0.00     0.006 C 
HETATM    3  C6  UNL     1      64.223  47.705  27.327  1.00  0.00     0.000 C 
HETATM    4  C7  UNL     1      64.261  46.239  27.154  1.00  0.00     0.000 C 
HETATM    5  C8  UNL     1      64.538  45.361  28.312  1.00  0.00     0.000 C 
HETATM    6  C9  UNL     1      65.406  45.921  29.380  1.00  0.00     0.005 C 
HETATM    7  C10 UNL     1      64.669  46.214  30.686  1.00  0.00    -0.006 C 
HETATM    8  C21 UNL     1      63.760  47.390  30.594  1.00  0.00     0.006 C 
HETATM    9  C22 UNL     1      62.376  47.131  30.089  1.00  0.00     0.007 C 
ENDROOT
BRANCH   7  10
HETATM   10  C11 UNL     1      65.710  46.250  31.751  1.00  0.00    -0.036 C 
HETATM   11  C12 UNL     1      66.967  47.051  31.353  1.00  0.00     0.014 C 
HETATM   12  C13 UNL     1      67.884  47.237  32.528  1.00  0.00    -0.013 C 
HETATM   13  C14 UNL     1      68.367  45.846  32.941  1.00  0.00     0.009 C 
HETATM   14  C18 UNL     1      67.275  47.940  33.700  1.00  0.00     0.009 C 
HETATM   15  C15 UNL     1      67.144  45.084  33.361  1.00  0.00    -0.013 C 
HETATM   16  C16 UNL     1      66.449  45.757  34.517  1.00  0.00     0.009 C 
HETATM   17  C20 UNL     1      66.183  44.914  32.202  1.00  0.00     0.014 C 
HETATM   18  C17 UNL     1      66.059  47.130  34.095  1.00  0.00    -0.013 C 
HETATM   19  C19 UNL     1      65.143  47.070  32.912  1.00  0.00     0.014 C 
ENDBRANCH   7  10
BRANCH   1  20
HETATM   20  C3  UNL     1      60.693  47.941  28.475  1.00  0.00     0.237 C 
BRANCH  20  21
HETATM   21  N1  UNL     1      59.668  47.057  28.968  1.00  0.00    -0.075 N 
ATOM     22  H12 UNL     1      59.377  47.322  29.909  1.00  0.00     0.277 HD
ATOM     23  H11 UNL     1      60.047  46.132  29.168  1.00  0.00     0.277 HD
BRANCH  21  24
HETATM   24  C2  UNL     1      58.534  46.974  28.077  1.00  0.00     0.228 C 
HETATM   25  C1  UNL     1      57.351  47.802  28.455  1.00  0.00     0.034 C 
ENDBRANCH  21  24
ENDBRANCH  20  21
ENDBRANCH   1  20
TORSDOF 4
ENDMDL
