MODEL 1
REMARK VINA RESULT: -11.083325950      0.000      0.000
REMARK  4 active torsions:
REMARK  status: ('A' for Active; 'I' for Inactive)
REMARK    1  A    between atoms: C2_4  and  C3_5 
REMARK    2  A    between atoms: C9_11  and  C10_12 
REMARK    3  A    between atoms: C10_12  and  N2_13 
REMARK    4  A    between atoms: C14_17  and  C15_18 
ROOT
HETATM    1  N2  UNL     1      64.667  46.726  30.269  1.00  0.00     0.097 N 
HETATM    2  C11 UNL     1      65.283  45.725  29.425  1.00  0.00     0.273 C 
HETATM    3  C12 UNL     1      66.097  44.929  30.435  1.00  0.00     0.032 C 
HETATM    4  C13 UNL     1      66.620  46.039  31.308  1.00  0.00     0.038 C 
HETATM    5  C14 UNL     1      65.572  47.135  31.266  1.00  0.00     0.227 C 
ENDROOT
BRANCH   1   6
HETATM    6  C10 UNL     1      64.012  47.736  29.497  1.00  0.00     0.313 C 
BRANCH   6   7
HETATM    7  C9  UNL     1      62.583  47.523  29.251  1.00  0.00    -0.013 A 
HETATM    8  C1  UNL     1      61.772  48.280  28.447  1.00  0.00     0.097 A 
HETATM    9  N1  UNL     1      60.526  47.783  28.467  1.00  0.00    -0.368 N 
HETATM   10  C2  UNL     1      60.508  46.713  29.270  1.00  0.00     0.013 A 
ATOM     11  H1  UNL     1      59.727  48.157  27.955  1.00  0.00     0.165 HD
HETATM   12  C8  UNL     1      61.767  46.542  29.760  1.00  0.00     0.035 A 
BRANCH  10  13
HETATM   13  C3  UNL     1      59.275  45.917  29.521  1.00  0.00     0.035 C 
HETATM   14  C4  UNL     1      58.831  45.999  30.954  1.00  0.00     0.011 C 
HETATM   15  C5  UNL     1      57.306  46.072  30.857  1.00  0.00     0.001 C 
HETATM   16  C6  UNL     1      57.050  46.878  29.621  1.00  0.00     0.001 C 
HETATM   17  C7  UNL     1      58.160  46.475  28.686  1.00  0.00     0.011 C 
ENDBRANCH  10  13
ENDBRANCH   6   7
ENDBRANCH   1   6
BRANCH   5  18
HETATM   18  C15 UNL     1      65.043  47.314  32.651  1.00  0.00     0.019 C 
HETATM   19  C16 UNL     1      66.011  48.024  33.570  1.00  0.00     0.007 C 
HETATM   20  C17 UNL     1      65.556  47.808  35.021  1.00  0.00     0.000 C 
HETATM   21  C18 UNL     1      64.672  48.913  35.502  1.00  0.00     0.000 C 
HETATM   22  C19 UNL     1      63.260  48.810  35.042  1.00  0.00     0.000 C 
HETATM   23  C20 UNL     1      63.033  47.705  34.037  1.00  0.00     0.000 C 
HETATM   24  C21 UNL     1      63.717  48.035  32.726  1.00  0.00     0.007 C 
ENDBRANCH   5  18
TORSDOF 4
ENDMDL
MODEL 2
REMARK VINA RESULT: -10.486621063      0.716      1.339
REMARK  4 active torsions:
REMARK  status: ('A' for Active; 'I' for Inactive)
REMARK    1  A    between atoms: C2_4  and  C3_5 
REMARK    2  A    between atoms: C9_11  and  C10_12 
REMARK    3  A    between atoms: C10_12  and  N2_13 
REMARK    4  A    between atoms: C14_17  and  C15_18 
ROOT
HETATM    1  N2  UNL     1      64.498  46.740  29.856  1.00  0.00     0.097 N 
HETATM    2  C11 UNL     1      64.847  45.594  29.045  1.00  0.00     0.273 C 
HETATM    3  C12 UNL     1      65.784  44.833  29.972  1.00  0.00     0.032 C 
HETATM    4  C13 UNL     1      66.561  45.972  30.578  1.00  0.00     0.038 C 
HETATM    5  C14 UNL     1      65.618  47.160  30.597  1.00  0.00     0.227 C 
ENDROOT
BRANCH   1   6
HETATM    6  C10 UNL     1      63.781  47.721  29.102  1.00  0.00     0.313 C 
BRANCH   6   7
HETATM    7  C9  UNL     1      62.333  47.519  29.007  1.00  0.00    -0.013 A 
HETATM    8  C1  UNL     1      61.439  48.320  28.346  1.00  0.00     0.097 A 
HETATM    9  N1  UNL     1      60.202  47.818  28.478  1.00  0.00    -0.368 N 
HETATM   10  C2  UNL     1      60.270  46.703  29.213  1.00  0.00     0.013 A 
ATOM     11  H1  UNL     1      59.351  48.219  28.083  1.00  0.00     0.165 HD
HETATM   12  C8  UNL     1      61.576  46.507  29.546  1.00  0.00     0.035 A 
BRANCH  10  13
HETATM   13  C3  UNL     1      59.071  45.889  29.554  1.00  0.00     0.035 C 
HETATM   14  C4  UNL     1      58.699  46.012  31.005  1.00  0.00     0.011 C 
HETATM   15  C5  UNL     1      57.170  46.049  30.984  1.00  0.00     0.001 C 
HETATM   16  C6  UNL     1      56.832  46.805  29.737  1.00  0.00     0.001 C 
HETATM   17  C7  UNL     1      57.902  46.393  28.760  1.00  0.00     0.011 C 
ENDBRANCH  10  13
ENDBRANCH   6   7
ENDBRANCH   1   6
BRANCH   5  18
HETATM   18  C15 UNL     1      65.400  47.545  32.024  1.00  0.00     0.019 C 
HETATM   19  C16 UNL     1      63.944  47.774  32.362  1.00  0.00     0.007 C 
HETATM   20  C17 UNL     1      63.865  48.532  33.696  1.00  0.00     0.000 C 
HETATM   21  C18 UNL     1      63.735  47.604  34.860  1.00  0.00     0.000 C 
HETATM   22  C19 UNL     1      65.016  46.979  35.289  1.00  0.00     0.000 C 
HETATM   23  C20 UNL     1      66.169  47.267  34.358  1.00  0.00     0.000 C 
HETATM   24  C21 UNL     1      65.962  46.568  33.030  1.00  0.00     0.007 C 
ENDBRANCH   5  18
TORSDOF 4
ENDMDL
MODEL 3
REMARK VINA RESULT: -10.019319763      2.651      4.047
REMARK  4 active torsions:
REMARK  status: ('A' for Active; 'I' for Inactive)
REMARK    1  A    between atoms: C2_4  and  C3_5 
REMARK    2  A    between atoms: C9_11  and  C10_12 
REMARK    3  A    between atoms: C10_12  and  N2_13 
REMARK    4  A    between atoms: C14_17  and  C15_18 
ROOT
HETATM    1  N2  UNL     1      66.519  45.398  32.331  1.00  0.00     0.097 N 
HETATM    2  C11 UNL     1      66.927  44.083  32.775  1.00  0.00     0.273 C 
HETATM    3  C12 UNL     1      66.620  44.150  34.263  1.00  0.00     0.032 C 
HETATM    4  C13 UNL     1      67.066  45.554  34.577  1.00  0.00     0.038 C 
HETATM    5  C14 UNL     1      66.848  46.356  33.308  1.00  0.00     0.227 C 
ENDROOT
BRANCH   1   6
HETATM    6  C10 UNL     1      66.917  45.646  30.980  1.00  0.00     0.313 C 
BRANCH   6   7
HETATM    7  C9  UNL     1      65.834  45.704  29.996  1.00  0.00    -0.013 A 
HETATM    8  C1  UNL     1      65.129  44.642  29.494  1.00  0.00     0.097 A 
HETATM    9  N1  UNL     1      64.214  45.082  28.616  1.00  0.00    -0.368 N 
HETATM   10  C2  UNL     1      64.308  46.413  28.535  1.00  0.00     0.013 A 
ATOM     11  H1  UNL     1      63.558  44.498  28.098  1.00  0.00     0.165 HD
HETATM   12  C8  UNL     1      65.300  46.810  29.379  1.00  0.00     0.035 A 
BRANCH  10  13
HETATM   13  C3  UNL     1      63.434  47.228  27.648  1.00  0.00     0.035 C 
HETATM   14  C4  UNL     1      62.193  47.699  28.354  1.00  0.00     0.011 C 
HETATM   15  C5  UNL     1      61.997  49.123  27.831  1.00  0.00     0.001 C 
HETATM   16  C6  UNL     1      63.388  49.654  27.666  1.00  0.00     0.001 C 
HETATM   17  C7  UNL     1      64.185  48.456  27.223  1.00  0.00     0.011 C 
ENDBRANCH  10  13
ENDBRANCH   6   7
ENDBRANCH   1   6
BRANCH   5  18
HETATM   18  C15 UNL     1      65.840  47.416  33.606  1.00  0.00     0.019 C 
HETATM   19  C16 UNL     1      64.421  46.991  33.301  1.00  0.00     0.007 C 
HETATM   20  C17 UNL     1      63.533  48.243  33.260  1.00  0.00     0.000 C 
HETATM   21  C18 UNL     1      62.902  48.527  34.585  1.00  0.00     0.000 C 
HETATM   22  C19 UNL     1      63.805  49.197  35.561  1.00  0.00     0.000 C 
HETATM   23  C20 UNL     1      65.234  49.305  35.084  1.00  0.00     0.000 C 
HETATM   24  C21 UNL     1      65.876  47.933  35.026  1.00  0.00     0.007 C 
ENDBRANCH   5  18
TORSDOF 4
ENDMDL
MODEL 4
REMARK VINA RESULT: -9.958620089      1.487      6.829
REMARK  4 active torsions:
REMARK  status: ('A' for Active; 'I' for Inactive)
REMARK    1  A    between atoms: C2_4  and  C3_5 
REMARK    2  A    between atoms: C9_11  and  C10_12 
REMARK    3  A    between atoms: C10_12  and  N2_13 
REMARK    4  A    between atoms: C14_17  and  C15_18 
ROOT
HETATM    1  N2  UNL     1      63.044  47.440  29.283  1.00  0.00     0.097 N 
HETATM    2  C11 UNL     1      63.639  48.740  29.060  1.00  0.00     0.273 C 
HETATM    3  C12 UNL     1      62.414  49.597  28.778  1.00  0.00     0.032 C 
HETATM    4  C13 UNL     1      61.600  48.650  27.935  1.00  0.00     0.038 C 
HETATM    5  C14 UNL     1      61.959  47.254  28.407  1.00  0.00     0.227 C 
ENDROOT
BRANCH   1   6
HETATM    6  C10 UNL     1      64.036  46.412  29.358  1.00  0.00     0.313 C 
BRANCH   6   7
HETATM    7  C9  UNL     1      65.133  46.653  30.299  1.00  0.00    -0.013 A 
HETATM    8  C1  UNL     1      66.473  46.579  30.026  1.00  0.00     0.097 A 
HETATM    9  N1  UNL     1      67.176  46.864  31.133  1.00  0.00    -0.368 N 
HETATM   10  C2  UNL     1      66.318  47.124  32.126  1.00  0.00     0.013 A 
ATOM     11  H1  UNL     1      68.193  46.881  31.205  1.00  0.00     0.165 HD
HETATM   12  C8  UNL     1      65.057  46.997  31.627  1.00  0.00     0.035 A 
BRANCH  10  13
HETATM   13  C3  UNL     1      66.764  47.479  33.502  1.00  0.00     0.035 C 
HETATM   14  C4  UNL     1      65.803  48.412  34.183  1.00  0.00     0.011 C 
HETATM   15  C5  UNL     1      65.775  47.911  35.628  1.00  0.00     0.001 C 
HETATM   16  C6  UNL     1      65.903  46.423  35.509  1.00  0.00     0.001 C 
HETATM   17  C7  UNL     1      66.820  46.230  34.330  1.00  0.00     0.011 C 
ENDBRANCH  10  13
ENDBRANCH   6   7
ENDBRANCH   1   6
BRANCH   5  18
HETATM   18  C15 UNL     1      60.722  46.628  28.961  1.00  0.00     0.019 C 
HETATM   19  C16 UNL     1      60.702  46.584  30.472  1.00  0.00     0.007 C 
HETATM   20  C17 UNL     1      59.616  45.594  30.919  1.00  0.00     0.000 C 
HETATM   21  C18 UNL     1      58.307  46.272  31.167  1.00  0.00     0.000 C 
HETATM   22  C19 UNL     1      57.530  46.571  29.934  1.00  0.00     0.000 C 
HETATM   23  C20 UNL     1      58.290  46.288  28.659  1.00  0.00     0.000 C 
HETATM   24  C21 UNL     1      59.434  47.269  28.498  1.00  0.00     0.007 C 
ENDBRANCH   5  18
TORSDOF 4
ENDMDL
MODEL 5
REMARK VINA RESULT: -9.926612375      1.554      6.890
REMARK  4 active torsions:
REMARK  status: ('A' for Active; 'I' for Inactive)
REMARK    1  A    between atoms: C2_4  and  C3_5 
REMARK    2  A    between atoms: C9_11  and  C10_12 
REMARK    3  A    between atoms: C10_12  and  N2_13 
REMARK    4  A    between atoms: C14_17  and  C15_18 
ROOT
HETATM    1  N2  UNL     1      63.639  47.532  28.884  1.00  0.00     0.097 N 
HETATM    2  C11 UNL     1      64.485  48.508  28.231  1.00  0.00     0.273 C 
HETATM    3  C12 UNL     1      63.461  49.502  27.705  1.00  0.00     0.032 C 
HETATM    4  C13 UNL     1      62.378  48.565  27.238  1.00  0.00     0.038 C 
HETATM    5  C14 UNL     1      62.459  47.348  28.139  1.00  0.00     0.227 C 
ENDROOT
BRANCH   1   6
HETATM    6  C10 UNL     1      64.378  46.372  29.276  1.00  0.00     0.313 C 
BRANCH   6   7
HETATM    7  C9  UNL     1      65.409  46.588  30.295  1.00  0.00    -0.013 A 
HETATM    8  C1  UNL     1      66.755  46.379  30.150  1.00  0.00     0.097 A 
HETATM    9  N1  UNL     1      67.385  46.686  31.294  1.00  0.00    -0.368 N 
HETATM   10  C2  UNL     1      66.474  47.092  32.185  1.00  0.00     0.013 A 
ATOM     11  H1  UNL     1      68.390  46.621  31.457  1.00  0.00     0.165 HD
HETATM   12  C8  UNL     1      65.254  47.037  31.584  1.00  0.00     0.035 A 
BRANCH  10  13
HETATM   13  C3  UNL     1      66.833  47.511  33.568  1.00  0.00     0.035 C 
HETATM   14  C4  UNL     1      65.803  48.427  34.166  1.00  0.00     0.011 C 
HETATM   15  C5  UNL     1      65.718  47.973  35.624  1.00  0.00     0.001 C 
HETATM   16  C6  UNL     1      65.908  46.489  35.565  1.00  0.00     0.001 C 
HETATM   17  C7  UNL     1      66.893  46.293  34.443  1.00  0.00     0.011 C 
ENDBRANCH  10  13
ENDBRANCH   6   7
ENDBRANCH   1   6
BRANCH   5  18
HETATM   18  C15 UNL     1      61.173  47.250  28.892  1.00  0.00     0.019 C 
HETATM   19  C16 UNL     1      59.958  47.224  27.992  1.00  0.00     0.007 C 
HETATM   20  C17 UNL     1      58.713  47.520  28.842  1.00  0.00     0.000 C 
HETATM   21  C18 UNL     1      58.066  46.270  29.343  1.00  0.00     0.000 C 
HETATM   22  C19 UNL     1      58.734  45.668  30.528  1.00  0.00     0.000 C 
HETATM   23  C20 UNL     1      60.038  46.339  30.891  1.00  0.00     0.000 C 
HETATM   24  C21 UNL     1      61.084  46.068  29.829  1.00  0.00     0.007 C 
ENDBRANCH   5  18
TORSDOF 4
ENDMDL
