MODEL 1
REMARK VINA RESULT: -8.738294237      0.000      0.000
REMARK  5 active torsions:
REMARK  status: ('A' for Active; 'I' for Inactive)
REMARK    1  A    between atoms: C2_2  and  C3_3 
REMARK    2  A    between atoms: C2_2  and  C10_10 
REMARK    3  A    between atoms: C3_3  and  C4_4 
REMARK    4  A    between atoms: C4_4  and  C5_5 
REMARK    5  A    between atoms: C5_5  and  C6_6 
ROOT
HETATM    1  C10 UNL     1      63.202  47.008  28.971  1.00  0.00     0.022 C 
HETATM    2  C11 UNL     1      63.542  45.984  27.928  1.00  0.00     0.010 C 
HETATM    3  C12 UNL     1      64.649  45.157  28.568  1.00  0.00     0.006 C 
HETATM    4  C13 UNL     1      64.896  45.771  29.887  1.00  0.00    -0.004 C 
HETATM    5  C14 UNL     1      66.222  45.606  30.505  1.00  0.00     0.029 C 
HETATM    6  C15 UNL     1      66.189  46.178  31.901  1.00  0.00     0.046 C 
HETATM    7  C16 UNL     1      66.294  45.055  32.955  1.00  0.00     0.031 C 
HETATM    8  C17 UNL     1      67.370  47.028  32.194  1.00  0.00     0.069 C 
HETATM    9  N1  UNL     1      68.289  47.703  32.405  1.00  0.00    -0.196 NA
HETATM   10  C18 UNL     1      64.902  46.858  32.150  1.00  0.00     0.025 C 
HETATM   11  C19 UNL     1      64.334  47.734  31.095  1.00  0.00     0.012 C 
HETATM   12  C20 UNL     1      64.478  47.241  29.673  1.00  0.00    -0.033 C 
HETATM   13  C21 UNL     1      65.552  47.920  28.909  1.00  0.00     0.016 C 
ENDROOT
BRANCH   1  14
HETATM   14  C2  UNL     1      62.321  48.106  28.523  1.00  0.00    -0.083 C 
HETATM   15  C1  UNL     1      62.801  48.966  27.415  1.00  0.00     0.043 C 
BRANCH  14  16
HETATM   16  C3  UNL     1      60.853  47.934  28.676  1.00  0.00    -0.024 C 
BRANCH  16  17
HETATM   17  C4  UNL     1      60.244  46.721  29.220  1.00  0.00     0.028 C 
BRANCH  17  18
HETATM   18  C5  UNL     1      58.934  46.277  28.618  1.00  0.00     0.012 C 
BRANCH  18  19
HETATM   19  C6  UNL     1      57.775  46.503  29.575  1.00  0.00    -0.051 C 
HETATM   20  C7  UNL     1      56.743  45.430  29.509  1.00  0.00     0.014 C 
HETATM   21  C8  UNL     1      57.153  47.843  29.314  1.00  0.00     0.014 C 
HETATM   22  C9  UNL     1      58.364  46.517  30.971  1.00  0.00     0.014 C 
ENDBRANCH  18  19
ENDBRANCH  17  18
ENDBRANCH  16  17
ENDBRANCH  14  16
ENDBRANCH   1  14
TORSDOF 5
ENDMDL
MODEL 2
REMARK VINA RESULT: -8.368287333      1.636      2.087
REMARK  5 active torsions:
REMARK  status: ('A' for Active; 'I' for Inactive)
REMARK    1  A    between atoms: C2_2  and  C3_3 
REMARK    2  A    between atoms: C2_2  and  C10_10 
REMARK    3  A    between atoms: C3_3  and  C4_4 
REMARK    4  A    between atoms: C4_4  and  C5_5 
REMARK    5  A    between atoms: C5_5  and  C6_6 
ROOT
HETATM    1  C10 UNL     1      63.295  47.224  30.063  1.00  0.00     0.022 C 
HETATM    2  C11 UNL     1      64.464  47.188  29.122  1.00  0.00     0.010 C 
HETATM    3  C12 UNL     1      65.675  47.103  30.040  1.00  0.00     0.006 C 
HETATM    4  C13 UNL     1      65.140  47.138  31.414  1.00  0.00    -0.004 C 
HETATM    5  C14 UNL     1      66.005  47.635  32.497  1.00  0.00     0.029 C 
HETATM    6  C15 UNL     1      65.306  47.432  33.819  1.00  0.00     0.046 C 
HETATM    7  C16 UNL     1      66.018  46.344  34.651  1.00  0.00     0.031 C 
HETATM    8  C17 UNL     1      65.383  48.630  34.691  1.00  0.00     0.069 C 
HETATM    9  N1  UNL     1      65.435  49.578  35.357  1.00  0.00    -0.196 NA
HETATM   10  C18 UNL     1      63.926  46.950  33.604  1.00  0.00     0.025 C 
HETATM   11  C19 UNL     1      63.101  47.580  32.544  1.00  0.00     0.012 C 
HETATM   12  C20 UNL     1      63.817  47.916  31.255  1.00  0.00    -0.033 C 
HETATM   13  C21 UNL     1      64.143  49.355  31.110  1.00  0.00     0.016 C 
ENDROOT
BRANCH   1  14
HETATM   14  C2  UNL     1      61.993  47.555  29.449  1.00  0.00    -0.083 C 
HETATM   15  C1  UNL     1      61.939  48.720  28.533  1.00  0.00     0.043 C 
BRANCH  14  16
HETATM   16  C3  UNL     1      61.025  46.451  29.219  1.00  0.00    -0.024 C 
BRANCH  16  17
HETATM   17  C4  UNL     1      59.708  46.399  29.852  1.00  0.00     0.028 C 
BRANCH  17  18
HETATM   18  C5  UNL     1      58.505  46.401  28.942  1.00  0.00     0.012 C 
BRANCH  18  19
HETATM   19  C6  UNL     1      57.208  46.418  29.734  1.00  0.00    -0.051 C 
HETATM   20  C7  UNL     1      56.336  45.241  29.456  1.00  0.00     0.014 C 
HETATM   21  C8  UNL     1      56.464  47.693  29.467  1.00  0.00     0.014 C 
HETATM   22  C9  UNL     1      57.595  46.393  31.199  1.00  0.00     0.014 C 
ENDBRANCH  18  19
ENDBRANCH  17  18
ENDBRANCH  16  17
ENDBRANCH  14  16
ENDBRANCH   1  14
TORSDOF 5
ENDMDL
MODEL 3
REMARK VINA RESULT: -8.360133672      3.564      6.268
REMARK  5 active torsions:
REMARK  status: ('A' for Active; 'I' for Inactive)
REMARK    1  A    between atoms: C2_2  and  C3_3 
REMARK    2  A    between atoms: C2_2  and  C10_10 
REMARK    3  A    between atoms: C3_3  and  C4_4 
REMARK    4  A    between atoms: C4_4  and  C5_5 
REMARK    5  A    between atoms: C5_5  and  C6_6 
ROOT
HETATM    1  C10 UNL     1      66.684  46.202  32.369  1.00  0.00     0.022 C 
HETATM    2  C11 UNL     1      68.016  45.908  31.740  1.00  0.00     0.010 C 
HETATM    3  C12 UNL     1      67.913  46.523  30.351  1.00  0.00     0.006 C 
HETATM    4  C13 UNL     1      66.549  47.078  30.259  1.00  0.00    -0.004 C 
HETATM    5  C14 UNL     1      65.934  47.223  28.929  1.00  0.00     0.029 C 
HETATM    6  C15 UNL     1      64.617  47.948  29.071  1.00  0.00     0.046 C 
HETATM    7  C16 UNL     1      64.702  49.359  28.452  1.00  0.00     0.031 C 
HETATM    8  C17 UNL     1      63.528  47.303  28.297  1.00  0.00     0.069 C 
HETATM    9  N1  UNL     1      62.681  46.781  27.702  1.00  0.00    -0.196 NA
HETATM   10  C18 UNL     1      64.287  48.143  30.498  1.00  0.00     0.025 C 
HETATM   11  C19 UNL     1      64.494  47.019  31.444  1.00  0.00     0.012 C 
HETATM   12  C20 UNL     1      65.743  46.193  31.234  1.00  0.00    -0.033 C 
HETATM   13  C21 UNL     1      65.495  44.889  30.575  1.00  0.00     0.016 C 
ENDROOT
BRANCH   1  14
HETATM   14  C2  UNL     1      66.413  45.503  33.641  1.00  0.00    -0.083 C 
HETATM   15  C1  UNL     1      66.735  44.058  33.716  1.00  0.00     0.043 C 
BRANCH  14  16
HETATM   16  C3  UNL     1      66.476  46.290  34.901  1.00  0.00    -0.024 C 
BRANCH  16  17
HETATM   17  C4  UNL     1      65.311  46.952  35.486  1.00  0.00     0.028 C 
BRANCH  17  18
HETATM   18  C5  UNL     1      65.130  48.420  35.186  1.00  0.00     0.012 C 
BRANCH  18  19
HETATM   19  C6  UNL     1      63.715  48.723  34.723  1.00  0.00    -0.051 C 
HETATM   20  C7  UNL     1      62.873  49.350  35.782  1.00  0.00     0.014 C 
HETATM   21  C8  UNL     1      63.065  47.470  34.215  1.00  0.00     0.014 C 
HETATM   22  C9  UNL     1      63.836  49.696  33.568  1.00  0.00     0.014 C 
ENDBRANCH  18  19
ENDBRANCH  17  18
ENDBRANCH  16  17
ENDBRANCH  14  16
ENDBRANCH   1  14
TORSDOF 5
ENDMDL
MODEL 4
REMARK VINA RESULT: -7.829814634      2.351      4.230
REMARK  5 active torsions:
REMARK  status: ('A' for Active; 'I' for Inactive)
REMARK    1  A    between atoms: C2_2  and  C3_3 
REMARK    2  A    between atoms: C2_2  and  C10_10 
REMARK    3  A    between atoms: C3_3  and  C4_4 
REMARK    4  A    between atoms: C4_4  and  C5_5 
REMARK    5  A    between atoms: C5_5  and  C6_6 
ROOT
HETATM    1  C10 UNL     1      65.738  45.368  30.898  1.00  0.00     0.022 C 
HETATM    2  C11 UNL     1      66.832  44.384  31.199  1.00  0.00     0.010 C 
HETATM    3  C12 UNL     1      66.984  44.452  32.712  1.00  0.00     0.006 C 
HETATM    4  C13 UNL     1      66.024  45.476  33.167  1.00  0.00    -0.004 C 
HETATM    5  C14 UNL     1      66.291  46.185  34.429  1.00  0.00     0.029 C 
HETATM    6  C15 UNL     1      65.108  47.060  34.763  1.00  0.00     0.046 C 
HETATM    7  C16 UNL     1      64.359  46.518  35.999  1.00  0.00     0.031 C 
HETATM    8  C17 UNL     1      65.512  48.424  35.184  1.00  0.00     0.069 C 
HETATM    9  N1  UNL     1      65.839  49.492  35.495  1.00  0.00    -0.196 NA
HETATM   10  C18 UNL     1      64.132  47.054  33.654  1.00  0.00     0.025 C 
HETATM   11  C19 UNL     1      64.626  47.166  32.259  1.00  0.00     0.012 C 
HETATM   12  C20 UNL     1      65.891  46.402  31.939  1.00  0.00    -0.033 C 
HETATM   13  C21 UNL     1      67.103  47.252  31.870  1.00  0.00     0.016 C 
ENDROOT
BRANCH   1  14
HETATM   14  C2  UNL     1      65.548  45.690  29.470  1.00  0.00    -0.083 C 
HETATM   15  C1  UNL     1      64.537  44.910  28.716  1.00  0.00     0.043 C 
BRANCH  14  16
HETATM   16  C3  UNL     1      65.819  47.082  29.022  1.00  0.00    -0.024 C 
BRANCH  16  17
HETATM   17  C4  UNL     1      64.836  47.897  28.311  1.00  0.00     0.028 C 
BRANCH  17  18
HETATM   18  C5  UNL     1      63.702  48.474  29.122  1.00  0.00     0.012 C 
BRANCH  18  19
HETATM   19  C6  UNL     1      62.351  48.058  28.563  1.00  0.00    -0.051 C 
HETATM   20  C7  UNL     1      61.648  47.055  29.414  1.00  0.00     0.014 C 
HETATM   21  C8  UNL     1      62.515  47.534  27.167  1.00  0.00     0.014 C 
HETATM   22  C9  UNL     1      61.503  49.313  28.502  1.00  0.00     0.014 C 
ENDBRANCH  18  19
ENDBRANCH  17  18
ENDBRANCH  16  17
ENDBRANCH  14  16
ENDBRANCH   1  14
TORSDOF 5
ENDMDL
MODEL 5
REMARK VINA RESULT: -7.773670130      1.079      1.245
REMARK  5 active torsions:
REMARK  status: ('A' for Active; 'I' for Inactive)
REMARK    1  A    between atoms: C2_2  and  C3_3 
REMARK    2  A    between atoms: C2_2  and  C10_10 
REMARK    3  A    between atoms: C3_3  and  C4_4 
REMARK    4  A    between atoms: C4_4  and  C5_5 
REMARK    5  A    between atoms: C5_5  and  C6_6 
ROOT
HETATM    1  C10 UNL     1      64.178  46.705  29.528  1.00  0.00     0.022 C 
HETATM    2  C11 UNL     1      64.470  45.621  28.531  1.00  0.00     0.010 C 
HETATM    3  C12 UNL     1      65.346  44.640  29.298  1.00  0.00     0.006 C 
HETATM    4  C13 UNL     1      65.531  45.230  30.638  1.00  0.00    -0.004 C 
HETATM    5  C14 UNL     1      66.730  44.866  31.410  1.00  0.00     0.029 C 
HETATM    6  C15 UNL     1      66.625  45.461  32.793  1.00  0.00     0.046 C 
HETATM    7  C16 UNL     1      66.422  44.354  33.850  1.00  0.00     0.031 C 
HETATM    8  C17 UNL     1      67.883  46.117  33.227  1.00  0.00     0.069 C 
HETATM    9  N1  UNL     1      68.867  46.640  33.547  1.00  0.00    -0.196 NA
HETATM   10  C18 UNL     1      65.442  46.342  32.888  1.00  0.00     0.025 C 
HETATM   11  C19 UNL     1      65.152  47.279  31.774  1.00  0.00     0.012 C 
HETATM   12  C20 UNL     1      65.382  46.744  30.378  1.00  0.00    -0.033 C 
HETATM   13  C21 UNL     1      66.634  47.229  29.750  1.00  0.00     0.016 C 
ENDROOT
BRANCH   1  14
HETATM   14  C2  UNL     1      63.544  47.921  28.979  1.00  0.00    -0.083 C 
HETATM   15  C1  UNL     1      64.045  48.434  27.681  1.00  0.00     0.043 C 
BRANCH  14  16
HETATM   16  C3  UNL     1      62.123  48.188  29.324  1.00  0.00    -0.024 C 
BRANCH  16  17
HETATM   17  C4  UNL     1      61.125  47.130  29.473  1.00  0.00     0.028 C 
BRANCH  17  18
HETATM   18  C5  UNL     1      60.002  47.096  28.466  1.00  0.00     0.012 C 
BRANCH  18  19
HETATM   19  C6  UNL     1      58.656  46.893  29.141  1.00  0.00    -0.051 C 
HETATM   20  C7  UNL     1      57.879  45.755  28.570  1.00  0.00     0.014 C 
HETATM   21  C8  UNL     1      57.854  48.159  29.071  1.00  0.00     0.014 C 
HETATM   22  C9  UNL     1      58.943  46.593  30.599  1.00  0.00     0.014 C 
ENDBRANCH  18  19
ENDBRANCH  17  18
ENDBRANCH  16  17
ENDBRANCH  14  16
ENDBRANCH   1  14
TORSDOF 5
ENDMDL
