MODEL 1
REMARK VINA RESULT: -10.058812869      0.000      0.000
REMARK  7 active torsions:
REMARK  status: ('A' for Active; 'I' for Inactive)
REMARK    1  A    between atoms: N1_2  and  C2_5 
REMARK    2  A    between atoms: C2_5  and  C3_6 
REMARK    3  A    between atoms: C3_6  and  C4_7 
REMARK    4  A    between atoms: C15_19  and  C16_20 
REMARK    5  A    between atoms: C16_20  and  N2_21 
REMARK    6  A    between atoms: N2_21  and  S1_23 
REMARK    7  A    between atoms: S1_23  and  C17_26 
ROOT
HETATM    1  C4  UNL     1      14.403  20.880   5.841  1.00  0.00    -0.022 A 
HETATM    2  C5  UNL     1      14.970  20.221   4.723  1.00  0.00     0.024 A 
HETATM    3 BR1  UNL     1      16.669  19.427   4.988  1.00  0.00    -0.050 Br
HETATM    4  C6  UNL     1      14.341  20.115   3.518  1.00  0.00    -0.043 A 
HETATM    5  C7  UNL     1      15.012  19.414   2.414  1.00  0.00     0.049 C 
HETATM    6  C8  UNL     1      13.089  20.663   3.338  1.00  0.00     0.020 A 
HETATM    7  C9  UNL     1      12.486  21.312   4.385  1.00  0.00    -0.019 A 
HETATM    8  C10 UNL     1      11.246  21.816   4.035  1.00  0.00     0.021 C 
HETATM    9  C11 UNL     1      10.533  22.775   4.721  1.00  0.00    -0.032 C 
HETATM   10  C12 UNL     1       9.228  23.244   4.193  1.00  0.00     0.050 C 
HETATM   11  C13 UNL     1      10.888  23.406   5.916  1.00  0.00     0.068 A 
HETATM   12  C14 UNL     1      10.320  24.545   6.402  1.00  0.00     0.064 A 
HETATM   13  C15 UNL     1      10.942  24.842   7.594  1.00  0.00     0.067 A 
HETATM   14  N3  UNL     1      11.865  23.904   7.830  1.00  0.00    -0.289 N 
ATOM     15  H3  UNL     1      12.483  23.862   8.640  1.00  0.00     0.188 HD
HETATM   16  N4  UNL     1      11.839  23.052   6.841  1.00  0.00    -0.219 N 
HETATM   17  C25 UNL     1      12.640  21.982   6.767  1.00  0.00     0.278 C 
HETATM   18  O3  UNL     1      12.967  21.419   7.824  1.00  0.00    -0.265 OA
HETATM   19  C26 UNL     1      13.158  21.408   5.628  1.00  0.00     0.052 A 
ENDROOT
BRANCH  13  20
HETATM   20  C16 UNL     1      10.592  26.041   8.446  1.00  0.00     0.131 C 
BRANCH  20  21
HETATM   21  N2  UNL     1       9.226  26.040   8.731  1.00  0.00    -0.289 N 
ATOM     22  H2  UNL     1       8.822  25.256   9.245  1.00  0.00     0.178 HD
BRANCH  21  23
HETATM   23  S1  UNL     1       8.241  27.301   8.247  1.00  0.00     0.263 S 
HETATM   24  O1  UNL     1       9.147  28.455   7.826  1.00  0.00    -0.200 OA
HETATM   25  O2  UNL     1       7.555  27.844   9.513  1.00  0.00    -0.200 OA
BRANCH  23  26
HETATM   26  C17 UNL     1       7.022  26.991   7.080  1.00  0.00     0.085 A 
HETATM   27  C18 UNL     1       5.698  26.887   7.537  1.00  0.00     0.026 A 
HETATM   28  C19 UNL     1       4.631  26.596   6.731  1.00  0.00     0.008 A 
HETATM   29  C20 UNL     1       4.828  26.388   5.391  1.00  0.00    -0.061 A 
HETATM   30  C21 UNL     1       3.696  26.068   4.476  1.00  0.00     0.048 C 
HETATM   31  C22 UNL     1       6.110  26.486   4.919  1.00  0.00     0.015 A 
HETATM   32  C23 UNL     1       7.183  26.781   5.739  1.00  0.00    -0.038 A 
HETATM   33  C24 UNL     1       8.509  26.913   5.115  1.00  0.00     0.050 C 
ENDBRANCH  23  26
ENDBRANCH  21  23
ENDBRANCH  20  21
ENDBRANCH  13  20
BRANCH   1  34
HETATM   34  C3  UNL     1      15.182  20.991   7.048  1.00  0.00     0.068 C 
BRANCH  34  35
HETATM   35  C2  UNL     1      15.840  22.408   6.905  1.00  0.00     0.236 C 
BRANCH  35  36
HETATM   36  N1  UNL     1      15.628  23.189   8.107  1.00  0.00    -0.079 N 
HETATM   37  C1  UNL     1      16.282  22.536   9.225  1.00  0.00     0.267 C 
ATOM     38  H12 UNL     1      14.638  23.362   8.285  1.00  0.00     0.276 HD
ATOM     39  H11 UNL     1      15.926  24.158   7.996  1.00  0.00     0.276 HD
ENDBRANCH  35  36
ENDBRANCH  34  35
ENDBRANCH   1  34
TORSDOF 7
ENDMDL
MODEL 2
REMARK VINA RESULT: -10.013337576      3.338      8.869
REMARK  7 active torsions:
REMARK  status: ('A' for Active; 'I' for Inactive)
REMARK    1  A    between atoms: N1_2  and  C2_5 
REMARK    2  A    between atoms: C2_5  and  C3_6 
REMARK    3  A    between atoms: C3_6  and  C4_7 
REMARK    4  A    between atoms: C15_19  and  C16_20 
REMARK    5  A    between atoms: C16_20  and  N2_21 
REMARK    6  A    between atoms: N2_21  and  S1_23 
REMARK    7  A    between atoms: S1_23  and  C17_26 
ROOT
HETATM    1  C4  UNL     1       6.292  26.711   5.669  1.00  0.00    -0.022 A 
HETATM    2  C5  UNL     1       4.894  26.525   5.552  1.00  0.00     0.024 A 
HETATM    3 BR1  UNL     1       3.816  27.451   6.805  1.00  0.00    -0.050 Br
HETATM    4  C6  UNL     1       4.318  25.758   4.583  1.00  0.00    -0.043 A 
HETATM    5  C7  UNL     1       2.855  25.624   4.544  1.00  0.00     0.049 C 
HETATM    6  C8  UNL     1       5.103  25.115   3.650  1.00  0.00     0.020 A 
HETATM    7  C9  UNL     1       6.466  25.258   3.710  1.00  0.00    -0.019 A 
HETATM    8  C10 UNL     1       7.105  24.537   2.716  1.00  0.00     0.021 C 
HETATM    9  C11 UNL     1       8.440  24.201   2.684  1.00  0.00    -0.032 C 
HETATM   10  C12 UNL     1       8.970  23.384   1.565  1.00  0.00     0.050 C 
HETATM   11  C13 UNL     1       9.426  24.542   3.614  1.00  0.00     0.068 A 
HETATM   12  C14 UNL     1      10.650  23.953   3.713  1.00  0.00     0.064 A 
HETATM   13  C15 UNL     1      11.324  24.568   4.745  1.00  0.00     0.067 A 
HETATM   14  N3  UNL     1      10.528  25.511   5.261  1.00  0.00    -0.289 N 
ATOM     15  H3  UNL     1      10.758  26.129   6.039  1.00  0.00     0.188 HD
HETATM   16  N4  UNL     1       9.404  25.500   4.597  1.00  0.00    -0.219 N 
HETATM   17  C25 UNL     1       8.384  26.329   4.858  1.00  0.00     0.278 C 
HETATM   18  O3  UNL     1       8.646  27.473   5.262  1.00  0.00    -0.265 OA
HETATM   19  C26 UNL     1       7.041  26.062   4.724  1.00  0.00     0.052 A 
ENDROOT
BRANCH  13  20
HETATM   20  C16 UNL     1      12.724  24.194   5.173  1.00  0.00     0.131 C 
BRANCH  20  21
HETATM   21  N2  UNL     1      12.694  23.601   6.435  1.00  0.00    -0.289 N 
ATOM     22  H2  UNL     1      12.641  24.192   7.266  1.00  0.00     0.178 HD
BRANCH  21  23
HETATM   23  S1  UNL     1      12.744  21.939   6.611  1.00  0.00     0.263 S 
HETATM   24  O1  UNL     1      11.302  21.441   6.673  1.00  0.00    -0.200 OA
HETATM   25  O2  UNL     1      13.268  21.655   8.030  1.00  0.00    -0.200 OA
BRANCH  23  26
HETATM   26  C17 UNL     1      13.686  21.022   5.509  1.00  0.00     0.085 A 
HETATM   27  C18 UNL     1      14.985  20.664   5.909  1.00  0.00     0.026 A 
HETATM   28  C19 UNL     1      15.866  19.977   5.118  1.00  0.00     0.008 A 
HETATM   29  C20 UNL     1      15.493  19.599   3.855  1.00  0.00    -0.061 A 
HETATM   30  C21 UNL     1      16.419  18.851   2.958  1.00  0.00     0.048 C 
HETATM   31  C22 UNL     1      14.230  19.934   3.441  1.00  0.00     0.015 A 
HETATM   32  C23 UNL     1      13.346  20.628   4.246  1.00  0.00    -0.038 A 
HETATM   33  C24 UNL     1      11.997  20.889   3.718  1.00  0.00     0.050 C 
ENDBRANCH  23  26
ENDBRANCH  21  23
ENDBRANCH  20  21
ENDBRANCH  13  20
BRANCH   1  34
HETATM   34  C3  UNL     1       6.799  27.489   6.771  1.00  0.00     0.068 C 
BRANCH  34  35
HETATM   35  C2  UNL     1       6.939  26.422   7.912  1.00  0.00     0.236 C 
BRANCH  35  36
HETATM   36  N1  UNL     1       8.324  26.289   8.316  1.00  0.00    -0.079 N 
HETATM   37  C1  UNL     1       8.661  24.882   8.416  1.00  0.00     0.267 C 
ATOM     38  H12 UNL     1       8.526  26.798   9.177  1.00  0.00     0.276 HD
ATOM     39  H11 UNL     1       8.957  26.796   7.697  1.00  0.00     0.276 HD
ENDBRANCH  35  36
ENDBRANCH  34  35
ENDBRANCH   1  34
TORSDOF 7
ENDMDL
MODEL 3
REMARK VINA RESULT: -9.931019163      5.039     10.943
REMARK  7 active torsions:
REMARK  status: ('A' for Active; 'I' for Inactive)
REMARK    1  A    between atoms: N1_2  and  C2_5 
REMARK    2  A    between atoms: C2_5  and  C3_6 
REMARK    3  A    between atoms: C3_6  and  C4_7 
REMARK    4  A    between atoms: C15_19  and  C16_20 
REMARK    5  A    between atoms: C16_20  and  N2_21 
REMARK    6  A    between atoms: N2_21  and  S1_23 
REMARK    7  A    between atoms: S1_23  and  C17_26 
ROOT
HETATM    1  C4  UNL     1      10.575  23.520   5.609  1.00  0.00    -0.022 A 
HETATM    2  C5  UNL     1      10.138  24.649   6.343  1.00  0.00     0.024 A 
HETATM    3 BR1  UNL     1       8.763  25.685   5.551  1.00  0.00    -0.050 Br
HETATM    4  C6  UNL     1      10.630  24.983   7.570  1.00  0.00    -0.043 A 
HETATM    5  C7  UNL     1      10.114  26.176   8.254  1.00  0.00     0.049 C 
HETATM    6  C8  UNL     1      11.605  24.207   8.160  1.00  0.00     0.020 A 
HETATM    7  C9  UNL     1      12.069  23.098   7.499  1.00  0.00    -0.019 A 
HETATM    8  C10 UNL     1      13.052  22.442   8.218  1.00  0.00     0.021 C 
HETATM    9  C11 UNL     1      13.940  21.511   7.724  1.00  0.00    -0.032 C 
HETATM   10  C12 UNL     1      14.969  20.925   8.616  1.00  0.00     0.050 C 
HETATM   11  C13 UNL     1      14.010  21.013   6.420  1.00  0.00     0.068 A 
HETATM   12  C14 UNL     1      15.069  20.334   5.895  1.00  0.00     0.064 A 
HETATM   13  C15 UNL     1      14.751  20.015   4.593  1.00  0.00     0.067 A 
HETATM   14  N3  UNL     1      13.528  20.487   4.333  1.00  0.00    -0.289 N 
ATOM     15  H3  UNL     1      13.028  20.401   3.448  1.00  0.00     0.188 HD
HETATM   16  N4  UNL     1      13.084  21.078   5.409  1.00  0.00    -0.219 N 
HETATM   17  C25 UNL     1      11.880  21.659   5.490  1.00  0.00     0.278 C 
HETATM   18  O3  UNL     1      10.943  21.162   4.843  1.00  0.00    -0.265 OA
HETATM   19  C26 UNL     1      11.540  22.770   6.227  1.00  0.00     0.052 A 
ENDROOT
BRANCH  13  20
HETATM   20  C16 UNL     1      15.675  19.257   3.667  1.00  0.00     0.131 C 
BRANCH  20  21
HETATM   21  N2  UNL     1      16.218  18.157   4.332  1.00  0.00    -0.289 N 
ATOM     22  H2  UNL     1      15.594  17.455   4.732  1.00  0.00     0.178 HD
BRANCH  21  23
HETATM   23  S1  UNL     1      17.872  17.969   4.485  1.00  0.00     0.263 S 
HETATM   24  O1  UNL     1      18.433  19.279   5.032  1.00  0.00    -0.200 OA
HETATM   25  O2  UNL     1      18.449  17.914   3.059  1.00  0.00    -0.200 OA
BRANCH  23  26
HETATM   26  C17 UNL     1      18.470  16.611   5.347  1.00  0.00     0.085 A 
HETATM   27  C18 UNL     1      18.918  15.513   4.595  1.00  0.00     0.026 A 
HETATM   28  C19 UNL     1      19.375  14.345   5.145  1.00  0.00     0.008 A 
HETATM   29  C20 UNL     1      19.413  14.205   6.507  1.00  0.00    -0.061 A 
HETATM   30  C21 UNL     1      19.902  12.952   7.150  1.00  0.00     0.048 C 
HETATM   31  C22 UNL     1      18.983  15.264   7.264  1.00  0.00     0.015 A 
HETATM   32  C23 UNL     1      18.524  16.439   6.701  1.00  0.00    -0.038 A 
HETATM   33  C24 UNL     1      18.136  17.530   7.611  1.00  0.00     0.050 C 
ENDBRANCH  23  26
ENDBRANCH  21  23
ENDBRANCH  20  21
ENDBRANCH  13  20
BRANCH   1  34
HETATM   34  C3  UNL     1      10.035  23.298   4.292  1.00  0.00     0.068 C 
BRANCH  34  35
HETATM   35  C2  UNL     1      11.017  24.106   3.374  1.00  0.00     0.236 C 
BRANCH  35  36
HETATM   36  N1  UNL     1      10.287  24.777   2.318  1.00  0.00    -0.079 N 
HETATM   37  C1  UNL     1       9.519  23.800   1.570  1.00  0.00     0.267 C 
ATOM     38  H12 UNL     1      10.898  25.331   1.717  1.00  0.00     0.276 HD
ATOM     39  H11 UNL     1       9.705  25.536   2.672  1.00  0.00     0.276 HD
ENDBRANCH  35  36
ENDBRANCH  34  35
ENDBRANCH   1  34
TORSDOF 7
ENDMDL
MODEL 4
REMARK VINA RESULT: -9.847230959      3.289      8.801
REMARK  7 active torsions:
REMARK  status: ('A' for Active; 'I' for Inactive)
REMARK    1  A    between atoms: N1_2  and  C2_5 
REMARK    2  A    between atoms: C2_5  and  C3_6 
REMARK    3  A    between atoms: C3_6  and  C4_7 
REMARK    4  A    between atoms: C15_19  and  C16_20 
REMARK    5  A    between atoms: C16_20  and  N2_21 
REMARK    6  A    between atoms: N2_21  and  S1_23 
REMARK    7  A    between atoms: S1_23  and  C17_26 
ROOT
HETATM    1  C4  UNL     1       6.378  26.654   5.552  1.00  0.00    -0.022 A 
HETATM    2  C5  UNL     1       4.991  26.428   5.373  1.00  0.00     0.024 A 
HETATM    3 BR1  UNL     1       3.831  27.359   6.545  1.00  0.00    -0.050 Br
HETATM    4  C6  UNL     1       4.484  25.619   4.400  1.00  0.00    -0.043 A 
HETATM    5  C7  UNL     1       3.029  25.444   4.295  1.00  0.00     0.049 C 
HETATM    6  C8  UNL     1       5.330  24.970   3.526  1.00  0.00     0.020 A 
HETATM    7  C9  UNL     1       6.684  25.151   3.647  1.00  0.00    -0.019 A 
HETATM    8  C10 UNL     1       7.389  24.420   2.707  1.00  0.00     0.021 C 
HETATM    9  C11 UNL     1       8.732  24.119   2.749  1.00  0.00    -0.032 C 
HETATM   10  C12 UNL     1       9.337  23.285   1.682  1.00  0.00     0.050 C 
HETATM   11  C13 UNL     1       9.662  24.513   3.715  1.00  0.00     0.068 A 
HETATM   12  C14 UNL     1      10.895  23.959   3.891  1.00  0.00     0.064 A 
HETATM   13  C15 UNL     1      11.501  24.621   4.936  1.00  0.00     0.067 A 
HETATM   14  N3  UNL     1      10.657  25.556   5.385  1.00  0.00    -0.289 N 
ATOM     15  H3  UNL     1      10.833  26.202   6.154  1.00  0.00     0.188 HD
HETATM   16  N4  UNL     1       9.568  25.497   4.668  1.00  0.00    -0.219 N 
HETATM   17  C25 UNL     1       8.516  26.305   4.854  1.00  0.00     0.278 C 
HETATM   18  O3  UNL     1       8.728  27.467   5.237  1.00  0.00    -0.265 OA
HETATM   19  C26 UNL     1       7.188  25.998   4.664  1.00  0.00     0.052 A 
ENDROOT
BRANCH  13  20
HETATM   20  C16 UNL     1      12.887  24.296   5.442  1.00  0.00     0.131 C 
BRANCH  20  21
HETATM   21  N2  UNL     1      12.803  23.582   6.638  1.00  0.00    -0.289 N 
ATOM     22  H2  UNL     1      12.741  24.089   7.521  1.00  0.00     0.178 HD
BRANCH  21  23
HETATM   23  S1  UNL     1      12.802  21.910   6.648  1.00  0.00     0.263 S 
HETATM   24  O1  UNL     1      11.346  21.452   6.655  1.00  0.00    -0.200 OA
HETATM   25  O2  UNL     1      13.309  21.471   8.033  1.00  0.00    -0.200 OA
BRANCH  23  26
HETATM   26  C17 UNL     1      13.723  21.079   5.463  1.00  0.00     0.085 A 
HETATM   27  C18 UNL     1      13.073  20.719   4.271  1.00  0.00     0.026 A 
HETATM   28  C19 UNL     1      13.665  20.012   3.260  1.00  0.00     0.008 A 
HETATM   29  C20 UNL     1      14.971  19.616   3.382  1.00  0.00    -0.061 A 
HETATM   30  C21 UNL     1      15.658  18.844   2.307  1.00  0.00     0.048 C 
HETATM   31  C22 UNL     1      15.630  19.956   4.535  1.00  0.00     0.015 A 
HETATM   32  C23 UNL     1      15.024  20.670   5.552  1.00  0.00    -0.038 A 
HETATM   33  C24 UNL     1      15.842  21.026   6.723  1.00  0.00     0.050 C 
ENDBRANCH  23  26
ENDBRANCH  21  23
ENDBRANCH  20  21
ENDBRANCH  13  20
BRANCH   1  34
HETATM   34  C3  UNL     1       6.809  27.476   6.654  1.00  0.00     0.068 C 
BRANCH  34  35
HETATM   35  C2  UNL     1       6.928  26.444   7.829  1.00  0.00     0.236 C 
BRANCH  35  36
HETATM   36  N1  UNL     1       8.313  26.276   8.220  1.00  0.00    -0.079 N 
HETATM   37  C1  UNL     1       8.560  24.880   8.524  1.00  0.00     0.267 C 
ATOM     38  H12 UNL     1       8.575  26.893   8.990  1.00  0.00     0.276 HD
ATOM     39  H11 UNL     1       8.959  26.639   7.518  1.00  0.00     0.276 HD
ENDBRANCH  35  36
ENDBRANCH  34  35
ENDBRANCH   1  34
TORSDOF 7
ENDMDL
MODEL 5
REMARK VINA RESULT: -9.730706992      3.718      8.829
REMARK  7 active torsions:
REMARK  status: ('A' for Active; 'I' for Inactive)
REMARK    1  A    between atoms: N1_2  and  C2_5 
REMARK    2  A    between atoms: C2_5  and  C3_6 
REMARK    3  A    between atoms: C3_6  and  C4_7 
REMARK    4  A    between atoms: C15_19  and  C16_20 
REMARK    5  A    between atoms: C16_20  and  N2_21 
REMARK    6  A    between atoms: N2_21  and  S1_23 
REMARK    7  A    between atoms: S1_23  and  C17_26 
ROOT
HETATM    1  C4  UNL     1       6.352  26.796   5.800  1.00  0.00    -0.022 A 
HETATM    2  C5  UNL     1       4.945  26.645   5.855  1.00  0.00     0.024 A 
HETATM    3 BR1  UNL     1       4.048  27.629   7.203  1.00  0.00    -0.050 Br
HETATM    4  C6  UNL     1       4.240  25.872   4.982  1.00  0.00    -0.043 A 
HETATM    5  C7  UNL     1       2.780  25.776   5.121  1.00  0.00     0.049 C 
HETATM    6  C8  UNL     1       4.892  25.185   3.980  1.00  0.00     0.020 A 
HETATM    7  C9  UNL     1       6.255  25.292   3.874  1.00  0.00    -0.019 A 
HETATM    8  C10 UNL     1       6.753  24.532   2.831  1.00  0.00     0.021 C 
HETATM    9  C11 UNL     1       8.067  24.158   2.649  1.00  0.00    -0.032 C 
HETATM   10  C12 UNL     1       8.439  23.301   1.497  1.00  0.00     0.050 C 
HETATM   11  C13 UNL     1       9.164  24.495   3.446  1.00  0.00     0.068 A 
HETATM   12  C14 UNL     1      10.377  23.875   3.415  1.00  0.00     0.064 A 
HETATM   13  C15 UNL     1      11.183  24.495   4.343  1.00  0.00     0.067 A 
HETATM   14  N3  UNL     1      10.478  25.471   4.925  1.00  0.00    -0.289 N 
ATOM     15  H3  UNL     1      10.814  26.101   5.652  1.00  0.00     0.188 HD
HETATM   16  N4  UNL     1       9.283  25.476   4.399  1.00  0.00    -0.219 N 
HETATM   17  C25 UNL     1       8.322  26.338   4.757  1.00  0.00     0.278 C 
HETATM   18  O3  UNL     1       8.657  27.483   5.096  1.00  0.00    -0.265 OA
HETATM   19  C26 UNL     1       6.966  26.104   4.791  1.00  0.00     0.052 A 
ENDROOT
BRANCH  13  20
HETATM   20  C16 UNL     1      12.615  24.093   4.611  1.00  0.00     0.131 C 
BRANCH  20  21
HETATM   21  N2  UNL     1      12.872  22.842   4.047  1.00  0.00    -0.289 N 
ATOM     22  H2  UNL     1      13.077  22.774   3.050  1.00  0.00     0.178 HD
BRANCH  21  23
HETATM   23  S1  UNL     1      12.849  21.454   4.978  1.00  0.00     0.263 S 
HETATM   24  O1  UNL     1      13.456  20.331   4.141  1.00  0.00    -0.200 OA
HETATM   25  O2  UNL     1      11.376  21.029   5.110  1.00  0.00    -0.200 OA
BRANCH  23  26
HETATM   26  C17 UNL     1      13.524  21.508   6.555  1.00  0.00     0.085 A 
HETATM   27  C18 UNL     1      14.722  20.807   6.771  1.00  0.00     0.026 A 
HETATM   28  C19 UNL     1      15.348  20.720   7.985  1.00  0.00     0.008 A 
HETATM   29  C20 UNL     1      14.804  21.344   9.077  1.00  0.00    -0.061 A 
HETATM   30  C21 UNL     1      15.450  21.276  10.418  1.00  0.00     0.048 C 
HETATM   31  C22 UNL     1      13.636  22.037   8.892  1.00  0.00     0.015 A 
HETATM   32  C23 UNL     1      13.010  22.120   7.663  1.00  0.00    -0.038 A 
HETATM   33  C24 UNL     1      11.787  22.935   7.569  1.00  0.00     0.050 C 
ENDBRANCH  23  26
ENDBRANCH  21  23
ENDBRANCH  20  21
ENDBRANCH  13  20
BRANCH   1  34
HETATM   34  C3  UNL     1       7.005  27.585   6.814  1.00  0.00     0.068 C 
BRANCH  34  35
HETATM   35  C2  UNL     1       7.192  26.558   7.985  1.00  0.00     0.236 C 
BRANCH  35  36
HETATM   36  N1  UNL     1       8.592  26.221   8.145  1.00  0.00    -0.079 N 
HETATM   37  C1  UNL     1       8.710  24.822   8.508  1.00  0.00     0.267 C 
ATOM     38  H12 UNL     1       9.064  26.835   8.809  1.00  0.00     0.276 HD
ATOM     39  H11 UNL     1       9.142  26.453   7.318  1.00  0.00     0.276 HD
ENDBRANCH  35  36
ENDBRANCH  34  35
ENDBRANCH   1  34
TORSDOF 7
ENDMDL
