MODEL 1
REMARK VINA RESULT: -9.605555876      0.000      0.000
REMARK  7 active torsions:
REMARK  status: ('A' for Active; 'I' for Inactive)
REMARK    1  A    between atoms: N1_2  and  S1_4 
REMARK    2  A    between atoms: S1_4  and  C3_7 
REMARK    3  A    between atoms: C6_10  and  S2_11 
REMARK    4  A    between atoms: S2_11  and  N2_14 
REMARK    5  A    between atoms: N2_14  and  C7_16 
REMARK    6  A    between atoms: C11_20  and  C12_21 
REMARK    7  A    between atoms: C14_27  and  C15_28 
ROOT
HETATM    1  C7  UNL     1      13.528  20.285   4.794  1.00  0.00     0.043 A 
HETATM    2  C8  UNL     1      14.397  19.457   4.147  1.00  0.00     0.030 A 
HETATM    3  C9  UNL     1      15.741  19.497   4.532  1.00  0.00     0.003 A 
HETATM    4  C10 UNL     1      16.184  20.339   5.529  1.00  0.00     0.014 A 
HETATM    5  C11 UNL     1      15.315  21.185   6.196  1.00  0.00    -0.005 A 
HETATM    6  C21 UNL     1      14.000  21.136   5.809  1.00  0.00     0.043 A 
ENDROOT
BRANCH   1   7
HETATM    7  N2  UNL     1      12.146  20.342   4.487  1.00  0.00    -0.279 N 
ATOM      8  H2  UNL     1      11.601  19.501   4.678  1.00  0.00     0.179 HD
BRANCH   7   9
HETATM    9  S2  UNL     1      11.296  21.667   3.831  1.00  0.00     0.278 S 
HETATM   10  O3  UNL     1      10.178  21.153   2.941  1.00  0.00    -0.199 OA
HETATM   11  O4  UNL     1      12.180  22.517   2.948  1.00  0.00    -0.199 OA
BRANCH   9  12
HETATM   12  C6  UNL     1      10.670  22.691   5.085  1.00  0.00     0.149 A 
HETATM   13  C5  UNL     1      11.132  22.588   6.403  1.00  0.00     0.045 A 
HETATM   14  C4  UNL     1      10.663  23.398   7.408  1.00  0.00     0.029 A 
HETATM   15  C3  UNL     1       9.706  24.338   7.087  1.00  0.00     0.090 A 
HETATM   16  C22 UNL     1       9.254  24.438   5.800  1.00  0.00     0.113 A 
HETATM   17  N5  UNL     1       9.728  23.636   4.840  1.00  0.00    -0.354 N 
ATOM     18  H5  UNL     1       9.369  23.738   3.891  1.00  0.00     0.166 HD
BRANCH  15  19
HETATM   19  S1  UNL     1       9.071  25.405   8.346  1.00  0.00     0.244 S 
HETATM   20  O1  UNL     1       7.976  24.667   9.060  1.00  0.00    -0.206 OA
HETATM   21  O2  UNL     1      10.134  25.750   9.324  1.00  0.00    -0.206 OA
BRANCH  19  22
HETATM   22  N1  UNL     1       8.388  26.805   7.610  1.00  0.00    -0.215 NA
HETATM   23  C1  UNL     1       6.953  26.798   7.607  1.00  0.00     0.129 C 
HETATM   24  C2  UNL     1       8.978  28.015   8.102  1.00  0.00     0.129 C 
ENDBRANCH  19  22
ENDBRANCH  15  19
ENDBRANCH   9  12
ENDBRANCH   7   9
ENDBRANCH   1   7
BRANCH   5  25
HETATM   25  C12 UNL     1      15.758  22.085   7.253  1.00  0.00     0.070 A 
HETATM   26  N3  UNL     1      15.776  23.435   7.142  1.00  0.00    -0.299 N 
HETATM   27  N4  UNL     1      16.221  23.996   8.249  1.00  0.00    -0.311 N 
ATOM     28  H3  UNL     1      15.483  23.950   6.311  1.00  0.00     0.187 HD
HETATM   29  C13 UNL     1      16.501  23.015   9.106  1.00  0.00     0.121 A 
ATOM     30  H4  UNL     1      16.331  24.995   8.417  1.00  0.00     0.186 HD
HETATM   31  C14 UNL     1      16.220  21.787   8.511  1.00  0.00     0.020 A 
BRANCH  31  32
HETATM   32  C15 UNL     1      16.369  20.460   9.064  1.00  0.00    -0.022 A 
HETATM   33  C16 UNL     1      15.353  19.795   9.714  1.00  0.00     0.014 A 
HETATM   34  C17 UNL     1      15.553  18.530  10.220  1.00  0.00     0.020 A 
HETATM   35  C18 UNL     1      16.779  17.882  10.096  1.00  0.00     0.011 A 
HETATM   36 BR1  UNL     1      17.028  16.136  10.805  1.00  0.00    -0.051 Br
HETATM   37  C19 UNL     1      17.796  18.544   9.448  1.00  0.00     0.020 A 
HETATM   38  C20 UNL     1      17.579  19.815   8.944  1.00  0.00     0.014 A 
ENDBRANCH  31  32
ENDBRANCH   5  25
TORSDOF 7
ENDMDL
MODEL 2
REMARK VINA RESULT: -9.358174565      3.580      4.778
REMARK  7 active torsions:
REMARK  status: ('A' for Active; 'I' for Inactive)
REMARK    1  A    between atoms: N1_2  and  S1_4 
REMARK    2  A    between atoms: S1_4  and  C3_7 
REMARK    3  A    between atoms: C6_10  and  S2_11 
REMARK    4  A    between atoms: S2_11  and  N2_14 
REMARK    5  A    between atoms: N2_14  and  C7_16 
REMARK    6  A    between atoms: C11_20  and  C12_21 
REMARK    7  A    between atoms: C14_27  and  C15_28 
ROOT
HETATM    1  C7  UNL     1      10.290  23.304   2.582  1.00  0.00     0.043 A 
HETATM    2  C8  UNL     1       9.791  22.038   2.492  1.00  0.00     0.030 A 
HETATM    3  C9  UNL     1      10.359  21.057   3.311  1.00  0.00     0.003 A 
HETATM    4  C10 UNL     1      11.386  21.345   4.182  1.00  0.00     0.014 A 
HETATM    5  C11 UNL     1      11.904  22.625   4.285  1.00  0.00    -0.005 A 
HETATM    6  C21 UNL     1      11.339  23.578   3.478  1.00  0.00     0.043 A 
ENDROOT
BRANCH   1   7
HETATM    7  N2  UNL     1       9.805  24.380   1.798  1.00  0.00    -0.279 N 
ATOM      8  H2  UNL     1      10.358  24.633   0.979  1.00  0.00     0.179 HD
BRANCH   7   9
HETATM    9  S2  UNL     1       8.395  25.298   2.077  1.00  0.00     0.278 S 
HETATM   10  O3  UNL     1       7.176  24.450   1.757  1.00  0.00    -0.199 OA
HETATM   11  O4  UNL     1       8.322  26.501   1.167  1.00  0.00    -0.199 OA
BRANCH   9  12
HETATM   12  C6  UNL     1       8.339  25.874   3.714  1.00  0.00     0.149 A 
HETATM   13  C5  UNL     1       7.124  26.221   4.318  1.00  0.00     0.045 A 
HETATM   14  C4  UNL     1       7.053  26.663   5.616  1.00  0.00     0.029 A 
HETATM   15  C3  UNL     1       8.230  26.761   6.331  1.00  0.00     0.090 A 
HETATM   16  C22 UNL     1       9.416  26.423   5.740  1.00  0.00     0.113 A 
HETATM   17  N5  UNL     1       9.456  25.995   4.473  1.00  0.00    -0.354 N 
ATOM     18  H5  UNL     1      10.358  25.751   4.064  1.00  0.00     0.166 HD
BRANCH  15  19
HETATM   19  S1  UNL     1       8.191  27.325   8.006  1.00  0.00     0.244 S 
HETATM   20  O1  UNL     1       9.093  28.522   8.106  1.00  0.00    -0.206 OA
HETATM   21  O2  UNL     1       6.815  27.728   8.391  1.00  0.00    -0.206 OA
BRANCH  19  22
HETATM   22  N1  UNL     1       8.816  26.092   9.033  1.00  0.00    -0.215 NA
HETATM   23  C1  UNL     1       8.246  24.800   8.778  1.00  0.00     0.129 C 
HETATM   24  C2  UNL     1      10.248  26.112   9.089  1.00  0.00     0.129 C 
ENDBRANCH  19  22
ENDBRANCH  15  19
ENDBRANCH   9  12
ENDBRANCH   7   9
ENDBRANCH   1   7
BRANCH   5  25
HETATM   25  C12 UNL     1      12.991  22.957   5.198  1.00  0.00     0.070 A 
HETATM   26  N3  UNL     1      12.924  23.930   6.137  1.00  0.00    -0.299 N 
HETATM   27  N4  UNL     1      14.049  24.011   6.819  1.00  0.00    -0.311 N 
ATOM     28  H3  UNL     1      12.108  24.523   6.296  1.00  0.00     0.187 HD
HETATM   29  C13 UNL     1      14.874  23.084   6.333  1.00  0.00     0.121 A 
ATOM     30  H4  UNL     1      14.250  24.662   7.577  1.00  0.00     0.186 HD
HETATM   31  C14 UNL     1      14.239  22.394   5.303  1.00  0.00     0.020 A 
BRANCH  31  32
HETATM   32  C15 UNL     1      14.749  21.311   4.492  1.00  0.00    -0.022 A 
HETATM   33  C16 UNL     1      14.283  21.034   3.226  1.00  0.00     0.014 A 
HETATM   34  C17 UNL     1      14.808  19.988   2.498  1.00  0.00     0.020 A 
HETATM   35  C18 UNL     1      15.818  19.180   3.011  1.00  0.00     0.011 A 
HETATM   36 BR1  UNL     1      16.523  17.743   1.986  1.00  0.00    -0.051 Br
HETATM   37  C19 UNL     1      16.285  19.454   4.277  1.00  0.00     0.020 A 
HETATM   38  C20 UNL     1      15.748  20.509   4.995  1.00  0.00     0.014 A 
ENDBRANCH  31  32
ENDBRANCH   5  25
TORSDOF 7
ENDMDL
MODEL 3
REMARK VINA RESULT: -9.170801484      5.587      9.309
REMARK  7 active torsions:
REMARK  status: ('A' for Active; 'I' for Inactive)
REMARK    1  A    between atoms: N1_2  and  S1_4 
REMARK    2  A    between atoms: S1_4  and  C3_7 
REMARK    3  A    between atoms: C6_10  and  S2_11 
REMARK    4  A    between atoms: S2_11  and  N2_14 
REMARK    5  A    between atoms: N2_14  and  C7_16 
REMARK    6  A    between atoms: C11_20  and  C12_21 
REMARK    7  A    between atoms: C14_27  and  C15_28 
ROOT
HETATM    1  C7  UNL     1      15.146  19.203   4.688  1.00  0.00     0.043 A 
HETATM    2  C8  UNL     1      13.817  19.222   4.380  1.00  0.00     0.030 A 
HETATM    3  C9  UNL     1      13.028  20.212   4.975  1.00  0.00     0.003 A 
HETATM    4  C10 UNL     1      13.561  21.140   5.843  1.00  0.00     0.014 A 
HETATM    5  C11 UNL     1      14.907  21.134   6.165  1.00  0.00    -0.005 A 
HETATM    6  C21 UNL     1      15.670  20.159   5.576  1.00  0.00     0.043 A 
ENDROOT
BRANCH   1   7
HETATM    7  N2  UNL     1      16.045  18.244   4.158  1.00  0.00    -0.279 N 
ATOM      8  H2  UNL     1      15.631  17.470   3.639  1.00  0.00     0.179 HD
BRANCH   7   9
HETATM    9  S2  UNL     1      17.744  18.247   4.295  1.00  0.00     0.278 S 
HETATM   10  O3  UNL     1      18.196  19.571   4.884  1.00  0.00    -0.199 OA
HETATM   11  O4  UNL     1      18.414  18.135   2.946  1.00  0.00    -0.199 OA
BRANCH   9  12
HETATM   12  C6  UNL     1      18.295  16.916   5.265  1.00  0.00     0.149 A 
HETATM   13  C5  UNL     1      18.877  15.785   4.681  1.00  0.00     0.045 A 
HETATM   14  C4  UNL     1      19.334  14.728   5.429  1.00  0.00     0.029 A 
HETATM   15  C3  UNL     1      19.207  14.804   6.801  1.00  0.00     0.090 A 
HETATM   16  C22 UNL     1      18.638  15.910   7.371  1.00  0.00     0.113 A 
HETATM   17  N5  UNL     1      18.200  16.925   6.619  1.00  0.00    -0.354 N 
ATOM     18  H5  UNL     1      17.781  17.734   7.078  1.00  0.00     0.166 HD
BRANCH  15  19
HETATM   19  S1  UNL     1      19.782  13.470   7.808  1.00  0.00     0.244 S 
HETATM   20  O1  UNL     1      19.290  13.710   9.207  1.00  0.00    -0.206 OA
HETATM   21  O2  UNL     1      19.237  12.177   7.324  1.00  0.00    -0.206 OA
BRANCH  19  22
HETATM   22  N1  UNL     1      21.504  13.480   7.832  1.00  0.00    -0.215 NA
HETATM   23  C1  UNL     1      22.089  12.701   6.778  1.00  0.00     0.129 C 
HETATM   24  C2  UNL     1      22.033  14.806   7.959  1.00  0.00     0.129 C 
ENDBRANCH  19  22
ENDBRANCH  15  19
ENDBRANCH   9  12
ENDBRANCH   7   9
ENDBRANCH   1   7
BRANCH   5  25
HETATM   25  C12 UNL     1      15.495  22.103   7.081  1.00  0.00     0.070 A 
HETATM   26  N3  UNL     1      15.531  23.437   6.854  1.00  0.00    -0.299 N 
HETATM   27  N4  UNL     1      16.120  24.072   7.847  1.00  0.00    -0.311 N 
ATOM     28  H3  UNL     1      15.150  23.892   6.023  1.00  0.00     0.187 HD
HETATM   29  C13 UNL     1      16.481  23.156   8.745  1.00  0.00     0.121 A 
ATOM     30  H4  UNL     1      16.272  25.078   7.916  1.00  0.00     0.186 HD
HETATM   31  C14 UNL     1      16.101  21.894   8.295  1.00  0.00     0.020 A 
BRANCH  31  32
HETATM   32  C15 UNL     1      16.287  20.612   8.937  1.00  0.00    -0.022 A 
HETATM   33  C16 UNL     1      15.265  19.924   9.555  1.00  0.00     0.014 A 
HETATM   34  C17 UNL     1      15.502  18.704  10.151  1.00  0.00     0.020 A 
HETATM   35  C18 UNL     1      16.769  18.128  10.152  1.00  0.00     0.011 A 
HETATM   36 BR1  UNL     1      17.067  16.444  10.982  1.00  0.00    -0.051 Br
HETATM   37  C19 UNL     1      17.791  18.814   9.536  1.00  0.00     0.020 A 
HETATM   38  C20 UNL     1      17.537  20.038   8.942  1.00  0.00     0.014 A 
ENDBRANCH  31  32
ENDBRANCH   5  25
TORSDOF 7
ENDMDL
MODEL 4
REMARK VINA RESULT: -9.151714987      5.684      9.214
REMARK  7 active torsions:
REMARK  status: ('A' for Active; 'I' for Inactive)
REMARK    1  A    between atoms: N1_2  and  S1_4 
REMARK    2  A    between atoms: S1_4  and  C3_7 
REMARK    3  A    between atoms: C6_10  and  S2_11 
REMARK    4  A    between atoms: S2_11  and  N2_14 
REMARK    5  A    between atoms: N2_14  and  C7_16 
REMARK    6  A    between atoms: C11_20  and  C12_21 
REMARK    7  A    between atoms: C14_27  and  C15_28 
ROOT
HETATM    1  C7  UNL     1      14.855  19.420   3.629  1.00  0.00     0.043 A 
HETATM    2  C8  UNL     1      14.391  20.361   2.758  1.00  0.00     0.030 A 
HETATM    3  C9  UNL     1      13.927  21.567   3.294  1.00  0.00     0.003 A 
HETATM    4  C10 UNL     1      13.932  21.808   4.651  1.00  0.00     0.014 A 
HETATM    5  C11 UNL     1      14.400  20.862   5.547  1.00  0.00    -0.005 A 
HETATM    6  C21 UNL     1      14.852  19.684   5.010  1.00  0.00     0.043 A 
ENDROOT
BRANCH   1   7
HETATM    7  N2  UNL     1      15.341  18.156   3.208  1.00  0.00    -0.279 N 
ATOM      8  H2  UNL     1      14.646  17.421   3.078  1.00  0.00     0.179 HD
BRANCH   7   9
HETATM    9  S2  UNL     1      16.963  17.735   2.897  1.00  0.00     0.278 S 
HETATM   10  O3  UNL     1      17.691  18.938   2.324  1.00  0.00    -0.199 OA
HETATM   11  O4  UNL     1      17.068  16.644   1.857  1.00  0.00    -0.199 OA
BRANCH   9  12
HETATM   12  C6  UNL     1      17.747  17.163   4.337  1.00  0.00     0.149 A 
HETATM   13  C5  UNL     1      18.451  15.952   4.347  1.00  0.00     0.045 A 
HETATM   14  C4  UNL     1      19.092  15.488   5.469  1.00  0.00     0.029 A 
HETATM   15  C3  UNL     1      19.029  16.256   6.614  1.00  0.00     0.090 A 
HETATM   16  C22 UNL     1      18.342  17.438   6.603  1.00  0.00     0.113 A 
HETATM   17  N5  UNL     1      17.726  17.867   5.496  1.00  0.00    -0.354 N 
ATOM     18  H5  UNL     1      17.222  18.753   5.525  1.00  0.00     0.166 HD
BRANCH  15  19
HETATM   19  S1  UNL     1      19.840  15.702   8.084  1.00  0.00     0.244 S 
HETATM   20  O1  UNL     1      19.694  14.208   8.150  1.00  0.00    -0.206 OA
HETATM   21  O2  UNL     1      21.284  16.041   8.045  1.00  0.00    -0.206 OA
BRANCH  19  22
HETATM   22  N1  UNL     1      19.051  16.382   9.456  1.00  0.00    -0.215 NA
HETATM   23  C1  UNL     1      17.842  15.694   9.811  1.00  0.00     0.129 C 
HETATM   24  C2  UNL     1      19.957  16.599  10.546  1.00  0.00     0.129 C 
ENDBRANCH  19  22
ENDBRANCH  15  19
ENDBRANCH   9  12
ENDBRANCH   7   9
ENDBRANCH   1   7
BRANCH   5  25
HETATM   25  C12 UNL     1      14.415  21.090   6.986  1.00  0.00     0.070 A 
HETATM   26  N3  UNL     1      15.264  20.474   7.843  1.00  0.00    -0.299 N 
HETATM   27  N4  UNL     1      15.057  20.870   9.083  1.00  0.00    -0.311 N 
ATOM     28  H3  UNL     1      15.972  19.794   7.565  1.00  0.00     0.187 HD
HETATM   29  C13 UNL     1      14.063  21.757   9.055  1.00  0.00     0.121 A 
ATOM     30  H4  UNL     1      15.563  20.555   9.910  1.00  0.00     0.186 HD
HETATM   31  C14 UNL     1      13.629  21.924   7.742  1.00  0.00     0.020 A 
BRANCH  31  32
HETATM   32  C15 UNL     1      12.579  22.781   7.239  1.00  0.00    -0.022 A 
HETATM   33  C16 UNL     1      11.366  22.305   6.795  1.00  0.00     0.014 A 
HETATM   34  C17 UNL     1      10.401  23.170   6.326  1.00  0.00     0.020 A 
HETATM   35  C18 UNL     1      10.616  24.544   6.284  1.00  0.00     0.011 A 
HETATM   36 BR1  UNL     1       9.267  25.716   5.632  1.00  0.00    -0.051 Br
HETATM   37  C19 UNL     1      11.828  25.023   6.727  1.00  0.00     0.020 A 
HETATM   38  C20 UNL     1      12.786  24.141   7.196  1.00  0.00     0.014 A 
ENDBRANCH  31  32
ENDBRANCH   5  25
TORSDOF 7
ENDMDL
MODEL 5
REMARK VINA RESULT: -9.124734072      4.284     10.406
REMARK  7 active torsions:
REMARK  status: ('A' for Active; 'I' for Inactive)
REMARK    1  A    between atoms: N1_2  and  S1_4 
REMARK    2  A    between atoms: S1_4  and  C3_7 
REMARK    3  A    between atoms: C6_10  and  S2_11 
REMARK    4  A    between atoms: S2_11  and  N2_14 
REMARK    5  A    between atoms: N2_14  and  C7_16 
REMARK    6  A    between atoms: C11_20  and  C12_21 
REMARK    7  A    between atoms: C14_27  and  C15_28 
ROOT
HETATM    1  C7  UNL     1       9.009  25.630   5.955  1.00  0.00     0.043 A 
HETATM    2  C8  UNL     1       9.208  25.002   7.149  1.00  0.00     0.030 A 
HETATM    3  C9  UNL     1       8.283  25.244   8.171  1.00  0.00     0.003 A 
HETATM    4  C10 UNL     1       7.207  26.084   7.991  1.00  0.00     0.014 A 
HETATM    5  C11 UNL     1       6.991  26.728   6.785  1.00  0.00    -0.005 A 
HETATM    6  C21 UNL     1       7.903  26.483   5.791  1.00  0.00     0.043 A 
ENDROOT
BRANCH   1   7
HETATM    7  N2  UNL     1       9.881  25.473   4.849  1.00  0.00    -0.279 N 
ATOM      8  H2  UNL     1      10.650  26.139   4.777  1.00  0.00     0.179 HD
BRANCH   7   9
HETATM    9  S2  UNL     1       9.781  24.289   3.626  1.00  0.00     0.278 S 
HETATM   10  O3  UNL     1       9.813  24.970   2.268  1.00  0.00    -0.199 OA
HETATM   11  O4  UNL     1       8.476  23.531   3.686  1.00  0.00    -0.199 OA
BRANCH   9  12
HETATM   12  C6  UNL     1      11.067  23.131   3.770  1.00  0.00     0.149 A 
HETATM   13  C5  UNL     1      10.804  21.756   3.796  1.00  0.00     0.045 A 
HETATM   14  C4  UNL     1      11.805  20.822   3.893  1.00  0.00     0.029 A 
HETATM   15  C3  UNL     1      13.107  21.274   3.967  1.00  0.00     0.090 A 
HETATM   16  C22 UNL     1      13.363  22.618   3.942  1.00  0.00     0.113 A 
HETATM   17  N5  UNL     1      12.368  23.507   3.847  1.00  0.00    -0.354 N 
ATOM     18  H5  UNL     1      12.595  24.501   3.831  1.00  0.00     0.166 HD
BRANCH  15  19
HETATM   19  S1  UNL     1      14.432  20.110   4.092  1.00  0.00     0.244 S 
HETATM   20  O1  UNL     1      13.852  18.809   4.569  1.00  0.00    -0.206 OA
HETATM   21  O2  UNL     1      15.066  19.895   2.767  1.00  0.00    -0.206 OA
BRANCH  19  22
HETATM   22  N1  UNL     1      15.561  20.662   5.270  1.00  0.00    -0.215 NA
HETATM   23  C1  UNL     1      15.001  20.759   6.588  1.00  0.00     0.129 C 
HETATM   24  C2  UNL     1      16.804  19.951   5.200  1.00  0.00     0.129 C 
ENDBRANCH  19  22
ENDBRANCH  15  19
ENDBRANCH   9  12
ENDBRANCH   7   9
ENDBRANCH   1   7
BRANCH   5  25
HETATM   25  C12 UNL     1       5.861  27.623   6.568  1.00  0.00     0.070 A 
HETATM   26  N3  UNL     1       5.816  28.907   6.996  1.00  0.00    -0.299 N 
HETATM   27  N4  UNL     1       4.677  29.480   6.661  1.00  0.00    -0.311 N 
ATOM     28  H3  UNL     1       6.566  29.370   7.510  1.00  0.00     0.187 HD
HETATM   29  C13 UNL     1       3.956  28.573   6.003  1.00  0.00     0.121 A 
ATOM     30  H4  UNL     1       4.400  30.439   6.867  1.00  0.00     0.186 HD
HETATM   31  C14 UNL     1       4.673  27.382   5.923  1.00  0.00     0.020 A 
BRANCH  31  32
HETATM   32  C15 UNL     1       4.286  26.134   5.304  1.00  0.00    -0.022 A 
HETATM   33  C16 UNL     1       4.952  25.588   4.228  1.00  0.00     0.014 A 
HETATM   34  C17 UNL     1       4.538  24.394   3.679  1.00  0.00     0.020 A 
HETATM   35  C18 UNL     1       3.442  23.702   4.185  1.00  0.00     0.011 A 
HETATM   36 BR1  UNL     1       2.891  22.057   3.408  1.00  0.00    -0.051 Br
HETATM   37  C19 UNL     1       2.774  24.245   5.260  1.00  0.00     0.020 A 
HETATM   38  C20 UNL     1       3.203  25.445   5.801  1.00  0.00     0.014 A 
ENDBRANCH  31  32
ENDBRANCH   5  25
TORSDOF 7
ENDMDL
