MODEL 1
REMARK VINA RESULT: -9.107716812      0.000      0.000
REMARK  8 active torsions:
REMARK  status: ('A' for Active; 'I' for Inactive)
REMARK    1  A    between atoms: O1_2  and  C2_3 
REMARK    2  A    between atoms: C5_6  and  N1_7 
REMARK    3  A    between atoms: N1_7  and  C6_9 
REMARK    4  A    between atoms: C9_12  and  N2_13 
REMARK    5  A    between atoms: C19_29  and  O2_30 
REMARK    6  A    between atoms: O2_30  and  C20_31 
REMARK    7  A    between atoms: C20_31  and  C21_32 
REMARK    8  A    between atoms: C21_32  and  N6_33 
ROOT
HETATM    1  C2  UNL     1      14.847  19.959   3.810  1.00  0.00     0.102 A 
HETATM    2  C3  UNL     1      14.362  21.197   4.104  1.00  0.00     0.057 A 
HETATM    3  C4  UNL     1      14.852  21.913   5.196  1.00  0.00     0.040 A 
HETATM    4  C5  UNL     1      14.560  23.147   5.718  1.00  0.00     0.133 A 
HETATM    5  N4  UNL     1      15.387  23.294   6.814  1.00  0.00    -0.284 N 
ATOM      6  H4  UNL     1      15.414  24.110   7.425  1.00  0.00     0.188 HD
HETATM    7  N5  UNL     1      16.128  22.231   6.949  1.00  0.00    -0.298 N 
ATOM      8  H5  UNL     1      16.823  22.093   7.682  1.00  0.00     0.187 HD
HETATM    9  C17 UNL     1      15.847  21.349   5.989  1.00  0.00     0.065 A 
HETATM   10  C18 UNL     1      16.322  20.087   5.666  1.00  0.00     0.071 A 
HETATM   11  C19 UNL     1      15.838  19.388   4.591  1.00  0.00     0.104 A 
ENDROOT
BRANCH   4  12
HETATM   12  N1  UNL     1      13.738  24.015   5.347  1.00  0.00    -0.341 N 
ATOM     13  H1  UNL     1      13.949  24.408   4.429  1.00  0.00     0.167 HD
BRANCH  12  14
HETATM   14  C6  UNL     1      12.617  24.543   5.920  1.00  0.00     0.035 A 
HETATM   15  C7  UNL     1      12.580  24.851   7.289  1.00  0.00     0.032 A 
HETATM   16  C8  UNL     1      11.491  25.407   7.905  1.00  0.00     0.033 A 
HETATM   17  C9  UNL     1      10.333  25.705   7.183  1.00  0.00     0.048 A 
HETATM   18  C15 UNL     1      10.353  25.410   5.838  1.00  0.00     0.039 A 
HETATM   19 BR1  UNL     1       8.758  25.825   4.839  1.00  0.00    -0.049 Br
HETATM   20  C16 UNL     1      11.444  24.851   5.214  1.00  0.00     0.051 A 
BRANCH  17  21
HETATM   21  N2  UNL     1       9.221  26.276   7.850  1.00  0.00    -0.376 N 
HETATM   22  C10 UNL     1       9.123  27.715   7.964  1.00  0.00     0.153 C 
HETATM   23  C11 UNL     1       7.756  28.221   7.615  1.00  0.00     0.291 C 
HETATM   24  N3  UNL     1       6.955  27.165   7.080  1.00  0.00     0.087 N 
HETATM   25  C12 UNL     1       5.703  27.577   6.526  1.00  0.00     0.310 C 
HETATM   26  C13 UNL     1       6.794  26.043   7.984  1.00  0.00     0.291 C 
HETATM   27  C14 UNL     1       8.136  25.513   8.442  1.00  0.00     0.153 C 
ENDBRANCH  17  21
ENDBRANCH  12  14
ENDBRANCH   4  12
BRANCH   1  28
HETATM   28  O1  UNL     1      14.320  19.285   2.704  1.00  0.00    -0.353 OA
HETATM   29  C1  UNL     1      14.796  19.538   1.398  1.00  0.00     0.210 C 
ENDBRANCH   1  28
BRANCH  11  30
HETATM   30  O2  UNL     1      16.253  18.139   4.198  1.00  0.00    -0.346 OA
BRANCH  30  31
HETATM   31  C20 UNL     1      17.301  17.777   3.409  1.00  0.00     0.206 C 
BRANCH  31  32
HETATM   32  C21 UNL     1      18.522  17.380   4.171  1.00  0.00     0.299 C 
BRANCH  32  33
HETATM   33  N6  UNL     1      18.190  16.412   5.233  1.00  0.00     0.093 N 
HETATM   34  C22 UNL     1      18.531  17.009   6.509  1.00  0.00     0.302 C 
HETATM   35  C23 UNL     1      18.599  15.962   7.607  1.00  0.00     0.302 C 
HETATM   36  N7  UNL     1      19.708  15.063   7.331  1.00  0.00     0.087 N 
HETATM   37  C24 UNL     1      20.837  15.365   8.184  1.00  0.00     0.310 C 
HETATM   38  C25 UNL     1      20.111  15.108   5.953  1.00  0.00     0.302 C 
HETATM   39  C26 UNL     1      18.943  15.194   4.996  1.00  0.00     0.302 C 
ENDBRANCH  32  33
ENDBRANCH  31  32
ENDBRANCH  30  31
ENDBRANCH  11  30
TORSDOF 8
ENDMDL
MODEL 2
REMARK VINA RESULT: -8.958007132      1.425      2.264
REMARK  8 active torsions:
REMARK  status: ('A' for Active; 'I' for Inactive)
REMARK    1  A    between atoms: O1_2  and  C2_3 
REMARK    2  A    between atoms: C5_6  and  N1_7 
REMARK    3  A    between atoms: N1_7  and  C6_9 
REMARK    4  A    between atoms: C9_12  and  N2_13 
REMARK    5  A    between atoms: C19_29  and  O2_30 
REMARK    6  A    between atoms: O2_30  and  C20_31 
REMARK    7  A    between atoms: C20_31  and  C21_32 
REMARK    8  A    between atoms: C21_32  and  N6_33 
ROOT
HETATM    1  C2  UNL     1      16.592  19.635   5.292  1.00  0.00     0.102 A 
HETATM    2  C3  UNL     1      15.938  20.829   5.315  1.00  0.00     0.057 A 
HETATM    3  C4  UNL     1      15.015  21.155   4.321  1.00  0.00     0.040 A 
HETATM    4  C5  UNL     1      14.227  22.255   4.093  1.00  0.00     0.133 A 
HETATM    5  N4  UNL     1      13.525  21.978   2.938  1.00  0.00    -0.284 N 
ATOM      6  H4  UNL     1      12.848  22.601   2.497  1.00  0.00     0.188 HD
HETATM    7  N5  UNL     1      13.857  20.798   2.495  1.00  0.00    -0.298 N 
ATOM      8  H5  UNL     1      13.477  20.361   1.656  1.00  0.00     0.187 HD
HETATM    9  C17 UNL     1      14.766  20.244   3.299  1.00  0.00     0.065 A 
HETATM   10  C18 UNL     1      15.446  19.036   3.301  1.00  0.00     0.071 A 
HETATM   11  C19 UNL     1      16.351  18.720   4.281  1.00  0.00     0.104 A 
ENDROOT
BRANCH   4  12
HETATM   12  N1  UNL     1      14.110  23.320   4.739  1.00  0.00    -0.341 N 
ATOM     13  H1  UNL     1      14.918  23.937   4.654  1.00  0.00     0.167 HD
BRANCH  12  14
HETATM   14  C6  UNL     1      13.121  23.825   5.534  1.00  0.00     0.035 A 
HETATM   15  C7  UNL     1      13.196  23.727   6.932  1.00  0.00     0.032 A 
HETATM   16  C8  UNL     1      12.245  24.241   7.773  1.00  0.00     0.033 A 
HETATM   17  C9  UNL     1      11.126  24.906   7.269  1.00  0.00     0.048 A 
HETATM   18  C15 UNL     1      11.037  25.012   5.899  1.00  0.00     0.039 A 
HETATM   19 BR1  UNL     1       9.495  25.934   5.201  1.00  0.00    -0.049 Br
HETATM   20  C16 UNL     1      11.989  24.497   5.049  1.00  0.00     0.051 A 
BRANCH  17  21
HETATM   21  N2  UNL     1      10.158  25.423   8.165  1.00  0.00    -0.376 N 
HETATM   22  C10 UNL     1      10.393  26.697   8.808  1.00  0.00     0.153 C 
HETATM   23  C11 UNL     1       9.191  27.591   8.753  1.00  0.00     0.291 C 
HETATM   24  N3  UNL     1       8.182  27.022   7.915  1.00  0.00     0.087 N 
HETATM   25  C12 UNL     1       7.077  27.880   7.628  1.00  0.00     0.310 C 
HETATM   26  C13 UNL     1       7.740  25.710   8.349  1.00  0.00     0.291 C 
HETATM   27  C14 UNL     1       8.909  24.760   8.498  1.00  0.00     0.153 C 
ENDBRANCH  17  21
ENDBRANCH  12  14
ENDBRANCH   4  12
BRANCH   1  28
HETATM   28  O1  UNL     1      17.507  19.360   6.313  1.00  0.00    -0.353 OA
HETATM   29  C1  UNL     1      17.409  19.990   7.574  1.00  0.00     0.210 C 
ENDBRANCH   1  28
BRANCH  11  30
HETATM   30  O2  UNL     1      17.064  17.549   4.362  1.00  0.00    -0.346 OA
BRANCH  30  31
HETATM   31  C20 UNL     1      18.170  17.153   3.676  1.00  0.00     0.206 C 
BRANCH  31  32
HETATM   32  C21 UNL     1      19.180  16.444   4.517  1.00  0.00     0.299 C 
BRANCH  32  33
HETATM   33  N6  UNL     1      18.526  15.679   5.596  1.00  0.00     0.093 N 
HETATM   34  C22 UNL     1      18.908  16.271   6.862  1.00  0.00     0.302 C 
HETATM   35  C23 UNL     1      18.616  15.332   8.020  1.00  0.00     0.302 C 
HETATM   36  N7  UNL     1      19.473  14.163   7.904  1.00  0.00     0.087 N 
HETATM   37  C24 UNL     1      20.570  14.237   8.844  1.00  0.00     0.310 C 
HETATM   38  C25 UNL     1      19.981  13.994   6.572  1.00  0.00     0.302 C 
HETATM   39  C26 UNL     1      18.954  14.296   5.502  1.00  0.00     0.302 C 
ENDBRANCH  32  33
ENDBRANCH  31  32
ENDBRANCH  30  31
ENDBRANCH  11  30
TORSDOF 8
ENDMDL
MODEL 3
REMARK VINA RESULT: -8.947128578      3.252     10.656
REMARK  8 active torsions:
REMARK  status: ('A' for Active; 'I' for Inactive)
REMARK    1  A    between atoms: O1_2  and  C2_3 
REMARK    2  A    between atoms: C5_6  and  N1_7 
REMARK    3  A    between atoms: N1_7  and  C6_9 
REMARK    4  A    between atoms: C9_12  and  N2_13 
REMARK    5  A    between atoms: C19_29  and  O2_30 
REMARK    6  A    between atoms: O2_30  and  C20_31 
REMARK    7  A    between atoms: C20_31  and  C21_32 
REMARK    8  A    between atoms: C21_32  and  N6_33 
ROOT
HETATM    1  C2  UNL     1      11.065  22.189   3.811  1.00  0.00     0.102 A 
HETATM    2  C3  UNL     1      12.339  21.874   4.176  1.00  0.00     0.057 A 
HETATM    3  C4  UNL     1      13.279  22.875   4.419  1.00  0.00     0.040 A 
HETATM    4  C5  UNL     1      14.599  22.855   4.791  1.00  0.00     0.133 A 
HETATM    5  N4  UNL     1      14.985  24.178   4.870  1.00  0.00    -0.284 N 
ATOM      6  H4  UNL     1      15.917  24.504   5.124  1.00  0.00     0.188 HD
HETATM    7  N5  UNL     1      13.977  24.947   4.570  1.00  0.00    -0.298 N 
ATOM      8  H5  UNL     1      14.004  25.966   4.556  1.00  0.00     0.187 HD
HETATM    9  C17 UNL     1      12.903  24.209   4.284  1.00  0.00     0.065 A 
HETATM   10  C18 UNL     1      11.601  24.501   3.911  1.00  0.00     0.071 A 
HETATM   11  C19 UNL     1      10.680  23.513   3.675  1.00  0.00     0.104 A 
ENDROOT
BRANCH   4  12
HETATM   12  N1  UNL     1      15.364  21.893   5.027  1.00  0.00    -0.341 N 
ATOM     13  H1  UNL     1      15.861  21.557   4.202  1.00  0.00     0.167 HD
BRANCH  12  14
HETATM   14  C6  UNL     1      15.669  21.201   6.164  1.00  0.00     0.035 A 
HETATM   15  C7  UNL     1      16.561  20.118   6.135  1.00  0.00     0.032 A 
HETATM   16  C8  UNL     1      16.921  19.410   7.250  1.00  0.00     0.033 A 
HETATM   17  C9  UNL     1      16.405  19.738   8.505  1.00  0.00     0.048 A 
HETATM   18  C15 UNL     1      15.528  20.799   8.552  1.00  0.00     0.039 A 
HETATM   19 BR1  UNL     1      14.817  21.256  10.284  1.00  0.00    -0.049 Br
HETATM   20  C16 UNL     1      15.163  21.513   7.435  1.00  0.00     0.051 A 
BRANCH  17  21
HETATM   21  N2  UNL     1      16.793  18.983   9.639  1.00  0.00    -0.376 N 
HETATM   22  C10 UNL     1      15.847  18.070  10.243  1.00  0.00     0.153 C 
HETATM   23  C11 UNL     1      16.457  16.731  10.533  1.00  0.00     0.291 C 
HETATM   24  N3  UNL     1      17.766  16.645   9.966  1.00  0.00     0.087 N 
HETATM   25  C12 UNL     1      18.358  15.346  10.006  1.00  0.00     0.310 C 
HETATM   26  C13 UNL     1      18.678  17.662  10.455  1.00  0.00     0.291 C 
HETATM   27  C14 UNL     1      18.104  19.049  10.262  1.00  0.00     0.153 C 
ENDBRANCH  17  21
ENDBRANCH  12  14
ENDBRANCH   4  12
BRANCH   1  28
HETATM   28  O1  UNL     1      10.163  21.147   3.580  1.00  0.00    -0.353 OA
HETATM   29  C1  UNL     1       9.437  21.061   2.371  1.00  0.00     0.210 C 
ENDBRANCH   1  28
BRANCH  11  30
HETATM   30  O2  UNL     1       9.371  23.712   3.307  1.00  0.00    -0.346 OA
BRANCH  30  31
HETATM   31  C20 UNL     1       8.631  24.853   3.307  1.00  0.00     0.206 C 
BRANCH  31  32
HETATM   32  C21 UNL     1       8.029  25.183   4.633  1.00  0.00     0.299 C 
BRANCH  32  33
HETATM   33  N6  UNL     1       8.883  26.125   5.381  1.00  0.00     0.093 N 
HETATM   34  C22 UNL     1       9.045  25.613   6.727  1.00  0.00     0.302 C 
HETATM   35  C23 UNL     1       9.562  26.688   7.667  1.00  0.00     0.302 C 
HETATM   36  N7  UNL     1       8.549  27.722   7.801  1.00  0.00     0.087 N 
HETATM   37  C24 UNL     1       7.857  27.599   9.067  1.00  0.00     0.310 C 
HETATM   38  C25 UNL     1       7.603  27.696   6.722  1.00  0.00     0.302 C 
HETATM   39  C26 UNL     1       8.242  27.426   5.378  1.00  0.00     0.302 C 
ENDBRANCH  32  33
ENDBRANCH  31  32
ENDBRANCH  30  31
ENDBRANCH  11  30
TORSDOF 8
ENDMDL
MODEL 4
REMARK VINA RESULT: -8.850502418      3.216      4.478
REMARK  8 active torsions:
REMARK  status: ('A' for Active; 'I' for Inactive)
REMARK    1  A    between atoms: O1_2  and  C2_3 
REMARK    2  A    between atoms: C5_6  and  N1_7 
REMARK    3  A    between atoms: N1_7  and  C6_9 
REMARK    4  A    between atoms: C9_12  and  N2_13 
REMARK    5  A    between atoms: C19_29  and  O2_30 
REMARK    6  A    between atoms: O2_30  and  C20_31 
REMARK    7  A    between atoms: C20_31  and  C21_32 
REMARK    8  A    between atoms: C21_32  and  N6_33 
ROOT
HETATM    1  C2  UNL     1      17.295  19.937   7.733  1.00  0.00     0.102 A 
HETATM    2  C3  UNL     1      16.419  20.940   7.450  1.00  0.00     0.057 A 
HETATM    3  C4  UNL     1      15.386  21.253   8.332  1.00  0.00     0.040 A 
HETATM    4  C5  UNL     1      14.381  22.187   8.310  1.00  0.00     0.133 A 
HETATM    5  N4  UNL     1      13.671  21.999   9.479  1.00  0.00    -0.284 N 
ATOM      6  H4  UNL     1      12.855  22.539   9.764  1.00  0.00     0.188 HD
HETATM    7  N5  UNL     1      14.203  21.026  10.163  1.00  0.00    -0.298 N 
ATOM      8  H5  UNL     1      13.863  20.692  11.065  1.00  0.00     0.187 HD
HETATM    9  C17 UNL     1      15.256  20.528   9.513  1.00  0.00     0.065 A 
HETATM   10  C18 UNL     1      16.162  19.513   9.776  1.00  0.00     0.071 A 
HETATM   11  C19 UNL     1      17.177  19.209   8.906  1.00  0.00     0.104 A 
ENDROOT
BRANCH   4  12
HETATM   12  N1  UNL     1      14.097  23.057   7.457  1.00  0.00    -0.341 N 
ATOM     13  H1  UNL     1      14.612  23.929   7.579  1.00  0.00     0.167 HD
BRANCH  12  14
HETATM   14  C6  UNL     1      13.237  23.077   6.396  1.00  0.00     0.035 A 
HETATM   15  C7  UNL     1      13.544  22.404   5.203  1.00  0.00     0.032 A 
HETATM   16  C8  UNL     1      12.704  22.371   4.122  1.00  0.00     0.033 A 
HETATM   17  C9  UNL     1      11.468  23.022   4.153  1.00  0.00     0.048 A 
HETATM   18  C15 UNL     1      11.152  23.686   5.317  1.00  0.00     0.039 A 
HETATM   19 BR1  UNL     1       9.445  24.580   5.364  1.00  0.00    -0.049 Br
HETATM   20  C16 UNL     1      11.991  23.723   6.406  1.00  0.00     0.051 A 
BRANCH  17  21
HETATM   21  N2  UNL     1      10.624  22.972   3.017  1.00  0.00    -0.376 N 
HETATM   22  C10 UNL     1       9.692  21.877   2.871  1.00  0.00     0.153 C 
HETATM   23  C11 UNL     1       8.322  22.345   2.481  1.00  0.00     0.291 C 
HETATM   24  N3  UNL     1       8.247  23.771   2.536  1.00  0.00     0.087 N 
HETATM   25  C12 UNL     1       6.935  24.315   2.382  1.00  0.00     0.310 C 
HETATM   26  C13 UNL     1       9.204  24.436   1.673  1.00  0.00     0.291 C 
HETATM   27  C14 UNL     1      10.615  23.965   1.956  1.00  0.00     0.153 C 
ENDBRANCH  17  21
ENDBRANCH  12  14
ENDBRANCH   4  12
BRANCH   1  28
HETATM   28  O1  UNL     1      18.313  19.664   6.813  1.00  0.00    -0.353 OA
HETATM   29  C1  UNL     1      18.026  19.442   5.448  1.00  0.00     0.210 C 
ENDBRANCH   1  28
BRANCH  11  30
HETATM   30  O2  UNL     1      18.118  18.225   9.088  1.00  0.00    -0.346 OA
BRANCH  30  31
HETATM   31  C20 UNL     1      18.006  17.015   9.699  1.00  0.00     0.206 C 
BRANCH  31  32
HETATM   32  C21 UNL     1      18.223  15.855   8.785  1.00  0.00     0.299 C 
BRANCH  32  33
HETATM   33  N6  UNL     1      19.069  16.237   7.639  1.00  0.00     0.093 N 
HETATM   34  C22 UNL     1      18.410  15.792   6.426  1.00  0.00     0.302 C 
HETATM   35  C23 UNL     1      19.370  15.782   5.250  1.00  0.00     0.302 C 
HETATM   36  N7  UNL     1      20.393  14.776   5.486  1.00  0.00     0.087 N 
HETATM   37  C24 UNL     1      20.138  13.591   4.694  1.00  0.00     0.310 C 
HETATM   38  C25 UNL     1      20.495  14.424   6.874  1.00  0.00     0.302 C 
HETATM   39  C26 UNL     1      20.369  15.613   7.800  1.00  0.00     0.302 C 
ENDBRANCH  32  33
ENDBRANCH  31  32
ENDBRANCH  30  31
ENDBRANCH  11  30
TORSDOF 8
ENDMDL
MODEL 5
REMARK VINA RESULT: -8.795388308      2.475      4.313
REMARK  8 active torsions:
REMARK  status: ('A' for Active; 'I' for Inactive)
REMARK    1  A    between atoms: O1_2  and  C2_3 
REMARK    2  A    between atoms: C5_6  and  N1_7 
REMARK    3  A    between atoms: N1_7  and  C6_9 
REMARK    4  A    between atoms: C9_12  and  N2_13 
REMARK    5  A    between atoms: C19_29  and  O2_30 
REMARK    6  A    between atoms: O2_30  and  C20_31 
REMARK    7  A    between atoms: C20_31  and  C21_32 
REMARK    8  A    between atoms: C21_32  and  N6_33 
ROOT
HETATM    1  C2  UNL     1      12.517  21.674   5.952  1.00  0.00     0.102 A 
HETATM    2  C3  UNL     1      11.959  22.914   5.883  1.00  0.00     0.057 A 
HETATM    3  C4  UNL     1      11.578  23.456   4.656  1.00  0.00     0.040 A 
HETATM    4  C5  UNL     1      11.007  24.650   4.293  1.00  0.00     0.133 A 
HETATM    5  N4  UNL     1      10.874  24.597   2.920  1.00  0.00    -0.284 N 
ATOM      6  H4  UNL     1      10.481  25.336   2.338  1.00  0.00     0.188 HD
HETATM    7  N5  UNL     1      11.328  23.458   2.480  1.00  0.00    -0.298 N 
ATOM      8  H5  UNL     1      11.341  23.174   1.500  1.00  0.00     0.187 HD
HETATM    9  C17 UNL     1      11.773  22.716   3.494  1.00  0.00     0.065 A 
HETATM   10  C18 UNL     1      12.343  21.456   3.594  1.00  0.00     0.071 A 
HETATM   11  C19 UNL     1      12.715  20.926   4.802  1.00  0.00     0.104 A 
ENDROOT
BRANCH   4  12
HETATM   12  N1  UNL     1      10.653  25.628   4.987  1.00  0.00    -0.341 N 
ATOM     13  H1  UNL     1      11.429  26.227   5.270  1.00  0.00     0.167 HD
BRANCH  12  14
HETATM   14  C6  UNL     1       9.440  26.057   5.445  1.00  0.00     0.035 A 
HETATM   15  C7  UNL     1       8.299  26.003   4.629  1.00  0.00     0.032 A 
HETATM   16  C8  UNL     1       7.055  26.395   5.049  1.00  0.00     0.033 A 
HETATM   17  C9  UNL     1       6.856  26.879   6.344  1.00  0.00     0.048 A 
HETATM   18  C15 UNL     1       7.965  26.938   7.158  1.00  0.00     0.039 A 
HETATM   19 BR1  UNL     1       7.691  27.602   8.946  1.00  0.00    -0.049 Br
HETATM   20  C16 UNL     1       9.216  26.547   6.741  1.00  0.00     0.051 A 
BRANCH  17  21
HETATM   21  N2  UNL     1       5.559  27.281   6.747  1.00  0.00    -0.376 N 
HETATM   22  C10 UNL     1       5.214  28.685   6.736  1.00  0.00     0.153 C 
HETATM   23  C11 UNL     1       3.880  28.938   6.101  1.00  0.00     0.291 C 
HETATM   24  N3  UNL     1       3.377  27.741   5.503  1.00  0.00     0.087 N 
HETATM   25  C12 UNL     1       2.210  27.912   4.695  1.00  0.00     0.310 C 
HETATM   26  C13 UNL     1       3.221  26.645   6.440  1.00  0.00     0.291 C 
HETATM   27  C14 UNL     1       4.512  26.370   7.179  1.00  0.00     0.153 C 
ENDBRANCH  17  21
ENDBRANCH  12  14
ENDBRANCH   4  12
BRANCH   1  28
HETATM   28  O1  UNL     1      12.881  21.177   7.208  1.00  0.00    -0.353 OA
HETATM   29  C1  UNL     1      13.766  21.889   8.047  1.00  0.00     0.210 C 
ENDBRANCH   1  28
BRANCH  11  30
HETATM   30  O2  UNL     1      13.281  19.689   4.992  1.00  0.00    -0.346 OA
BRANCH  30  31
HETATM   31  C20 UNL     1      14.479  19.205   4.567  1.00  0.00     0.206 C 
BRANCH  31  32
HETATM   32  C21 UNL     1      15.636  20.092   4.889  1.00  0.00     0.299 C 
BRANCH  32  33
HETATM   33  N6  UNL     1      16.876  19.585   4.271  1.00  0.00     0.093 N 
HETATM   34  C22 UNL     1      16.597  18.280   3.706  1.00  0.00     0.302 C 
HETATM   35  C23 UNL     1      17.879  17.522   3.409  1.00  0.00     0.302 C 
HETATM   36  N7  UNL     1      18.552  17.227   4.664  1.00  0.00     0.087 N 
HETATM   37  C24 UNL     1      18.362  15.840   5.031  1.00  0.00     0.310 C 
HETATM   38  C25 UNL     1      18.109  18.080   5.729  1.00  0.00     0.302 C 
HETATM   39  C26 UNL     1      17.902  19.515   5.295  1.00  0.00     0.302 C 
ENDBRANCH  32  33
ENDBRANCH  31  32
ENDBRANCH  30  31
ENDBRANCH  11  30
TORSDOF 8
ENDMDL
