MODEL 1
REMARK VINA RESULT: -9.884956140      0.000      0.000
REMARK  7 active torsions:
REMARK  status: ('A' for Active; 'I' for Inactive)
REMARK       I    between atoms: C1_2  and  N1_3 
REMARK    1  A    between atoms: C1_2  and  C7_11 
REMARK    2  A    between atoms: N1_3  and  C2_5 
REMARK    3  A    between atoms: C2_5  and  C3_6 
REMARK    4  A    between atoms: C9_13  and  N2_14 
REMARK       I    between atoms: N3_17  and  C12_18 
REMARK    5  A    between atoms: C12_18  and  C13_20 
REMARK    6  A    between atoms: C21_30  and  N4_31 
REMARK       I    between atoms: N4_31  and  C22_33 
REMARK    7  A    between atoms: C22_33  and  C23_35 
ROOT
HETATM    1  C7  UNL     1      11.486  23.227   6.752  1.00  0.00     0.060 A 
HETATM    2  C8  UNL     1      10.314  23.990   6.783  1.00  0.00     0.050 A 
HETATM    3  C9  UNL     1      10.193  25.177   7.474  1.00  0.00     0.053 A 
HETATM    4  C19 UNL     1      11.302  25.594   8.154  1.00  0.00     0.062 A 
HETATM    5 CL1  UNL     1      11.243  27.086   9.070  1.00  0.00    -0.082 Cl
HETATM    6  C20 UNL     1      12.483  24.870   8.152  1.00  0.00     0.056 A 
HETATM    7  C21 UNL     1      12.610  23.675   7.460  1.00  0.00     0.052 A 
ENDROOT
BRANCH   3   8
HETATM    8  N2  UNL     1       8.961  25.918   7.457  1.00  0.00    -0.376 N 
HETATM    9  C10 UNL     1       7.966  25.785   8.492  1.00  0.00     0.143 C 
HETATM   10  C11 UNL     1       6.545  25.934   7.925  1.00  0.00     0.145 C 
HETATM   11  N3  UNL     1       6.436  27.211   7.266  1.00  0.00    -0.347 N 
HETATM   12  C12 UNL     1       5.184  27.836   7.138  1.00  0.00     0.248 C 
HETATM   13  C17 UNL     1       7.620  27.836   6.744  1.00  0.00     0.145 C 
HETATM   14  O3  UNL     1       5.108  28.951   6.557  1.00  0.00    -0.270 OA
HETATM   15  C18 UNL     1       8.684  26.848   6.360  1.00  0.00     0.143 C 
BRANCH  12  16
HETATM   16  C13 UNL     1       3.919  27.254   7.655  1.00  0.00     0.213 C 
HETATM   17  C14 UNL     1       3.164  26.463   6.601  1.00  0.00     0.043 C 
HETATM   18  C15 UNL     1       1.775  26.403   7.252  1.00  0.00     0.029 C 
HETATM   19  C16 UNL     1       1.763  27.672   8.042  1.00  0.00     0.168 C 
HETATM   20  O4  UNL     1       3.012  28.233   7.975  1.00  0.00    -0.376 OA
ENDBRANCH  12  16
ENDBRANCH   3   8
BRANCH   1  21
HETATM   21  C1  UNL     1      11.561  22.037   5.926  1.00  0.00     0.254 C 
HETATM   22  O1  UNL     1      11.193  20.923   6.360  1.00  0.00    -0.268 OA
HETATM   23  N1  UNL     1      12.057  22.087   4.576  1.00  0.00    -0.354 N 
ATOM     24  H1  UNL     1      12.356  22.984   4.194  1.00  0.00     0.162 HD
BRANCH  23  25
HETATM   25  C2  UNL     1      12.146  20.909   3.746  1.00  0.00     0.155 C 
BRANCH  25  26
HETATM   26  C3  UNL     1      13.556  20.575   3.338  1.00  0.00     0.139 C 
HETATM   27  C4  UNL     1      14.524  21.631   3.848  1.00  0.00     0.035 C 
HETATM   28  C5  UNL     1      15.389  20.852   4.803  1.00  0.00     0.029 C 
HETATM   29  C6  UNL     1      14.464  19.693   5.154  1.00  0.00     0.168 C 
HETATM   30  O2  UNL     1      13.967  19.370   3.909  1.00  0.00    -0.384 OA
ENDBRANCH  25  26
ENDBRANCH  23  25
ENDBRANCH   1  21
BRANCH   7  31
HETATM   31  N4  UNL     1      13.793  22.929   7.591  1.00  0.00    -0.326 N 
HETATM   32  C22 UNL     1      14.107  22.045   8.625  1.00  0.00     0.226 C 
HETATM   33  O5  UNL     1      13.369  21.801   9.598  1.00  0.00    -0.273 OA
ATOM     34  H4  UNL     1      14.493  23.046   6.858  1.00  0.00     0.169 HD
BRANCH  32  35
HETATM   35  C23 UNL     1      15.423  21.290   8.633  1.00  0.00     0.078 C 
HETATM   36  C24 UNL     1      15.307  20.089   9.510  1.00  0.00     0.014 C 
HETATM   37  C25 UNL     1      16.637  19.632  10.063  1.00  0.00     0.001 C 
HETATM   38  C26 UNL     1      17.793  19.986   9.170  1.00  0.00     0.000 C 
HETATM   39  C27 UNL     1      17.841  21.435   8.792  1.00  0.00     0.001 C 
HETATM   40  C28 UNL     1      16.545  22.156   9.113  1.00  0.00     0.014 C 
ENDBRANCH  32  35
ENDBRANCH   7  31
TORSDOF 7
ENDMDL
MODEL 2
REMARK VINA RESULT: -9.850483912      3.523      5.990
REMARK  7 active torsions:
REMARK  status: ('A' for Active; 'I' for Inactive)
REMARK       I    between atoms: C1_2  and  N1_3 
REMARK    1  A    between atoms: C1_2  and  C7_11 
REMARK    2  A    between atoms: N1_3  and  C2_5 
REMARK    3  A    between atoms: C2_5  and  C3_6 
REMARK    4  A    between atoms: C9_13  and  N2_14 
REMARK       I    between atoms: N3_17  and  C12_18 
REMARK    5  A    between atoms: C12_18  and  C13_20 
REMARK    6  A    between atoms: C21_30  and  N4_31 
REMARK       I    between atoms: N4_31  and  C22_33 
REMARK    7  A    between atoms: C22_33  and  C23_35 
ROOT
HETATM    1  C7  UNL     1      16.643  20.114   7.567  1.00  0.00     0.060 A 
HETATM    2  C8  UNL     1      15.550  20.880   7.145  1.00  0.00     0.050 A 
HETATM    3  C9  UNL     1      14.624  21.428   8.006  1.00  0.00     0.053 A 
HETATM    4  C19 UNL     1      14.819  21.186   9.336  1.00  0.00     0.062 A 
HETATM    5 CL1  UNL     1      13.689  21.833  10.508  1.00  0.00    -0.082 Cl
HETATM    6  C20 UNL     1      15.885  20.432   9.799  1.00  0.00     0.056 A 
HETATM    7  C21 UNL     1      16.820  19.877   8.938  1.00  0.00     0.052 A 
ENDROOT
BRANCH   3   8
HETATM    8  N2  UNL     1      13.528  22.214   7.507  1.00  0.00    -0.376 N 
HETATM    9  C10 UNL     1      13.509  23.653   7.592  1.00  0.00     0.143 C 
HETATM   10  C11 UNL     1      12.082  24.183   7.811  1.00  0.00     0.145 C 
HETATM   11  N3  UNL     1      11.241  23.718   6.737  1.00  0.00    -0.347 N 
HETATM   12  C12 UNL     1      10.091  24.440   6.376  1.00  0.00     0.248 C 
HETATM   13  C17 UNL     1      11.594  22.512   6.040  1.00  0.00     0.145 C 
HETATM   14  O3  UNL     1       9.367  24.018   5.437  1.00  0.00    -0.270 OA
HETATM   15  C18 UNL     1      12.378  21.552   6.888  1.00  0.00     0.143 C 
BRANCH  12  16
HETATM   16  C13 UNL     1       9.666  25.696   7.047  1.00  0.00     0.213 C 
HETATM   17  C14 UNL     1       8.704  25.449   8.196  1.00  0.00     0.043 C 
HETATM   18  C15 UNL     1       8.114  26.857   8.361  1.00  0.00     0.029 C 
HETATM   19  C16 UNL     1       8.212  27.385   6.967  1.00  0.00     0.168 C 
HETATM   20  O4  UNL     1       8.910  26.478   6.211  1.00  0.00    -0.376 OA
ENDBRANCH  12  16
ENDBRANCH   3   8
BRANCH   1  21
HETATM   21  C1  UNL     1      17.624  19.650   6.605  1.00  0.00     0.254 C 
HETATM   22  O1  UNL     1      18.800  20.074   6.624  1.00  0.00    -0.268 OA
HETATM   23  N1  UNL     1      17.288  18.683   5.594  1.00  0.00    -0.354 N 
ATOM     24  H1  UNL     1      16.338  18.314   5.561  1.00  0.00     0.162 HD
BRANCH  23  25
HETATM   25  C2  UNL     1      18.253  18.219   4.625  1.00  0.00     0.155 C 
BRANCH  25  26
HETATM   26  C3  UNL     1      17.644  17.366   3.544  1.00  0.00     0.139 C 
HETATM   27  C4  UNL     1      16.131  17.324   3.684  1.00  0.00     0.035 C 
HETATM   28  C5  UNL     1      15.662  17.988   2.417  1.00  0.00     0.029 C 
HETATM   29  C6  UNL     1      16.887  18.819   2.054  1.00  0.00     0.168 C 
HETATM   30  O2  UNL     1      17.897  17.908   2.282  1.00  0.00    -0.384 OA
ENDBRANCH  25  26
ENDBRANCH  23  25
ENDBRANCH   1  21
BRANCH   7  31
HETATM   31  N4  UNL     1      17.810  19.027   9.457  1.00  0.00    -0.326 N 
HETATM   32  C22 UNL     1      17.600  17.846  10.171  1.00  0.00     0.226 C 
HETATM   33  O5  UNL     1      16.482  17.382  10.461  1.00  0.00    -0.273 OA
ATOM     34  H4  UNL     1      18.780  19.299   9.297  1.00  0.00     0.169 HD
BRANCH  32  35
HETATM   35  C23 UNL     1      18.769  17.013  10.663  1.00  0.00     0.078 C 
HETATM   36  C24 UNL     1      19.379  16.277   9.516  1.00  0.00     0.014 C 
HETATM   37  C25 UNL     1      20.101  15.019   9.941  1.00  0.00     0.001 C 
HETATM   38  C26 UNL     1      20.629  15.095  11.345  1.00  0.00     0.000 C 
HETATM   39  C27 UNL     1      19.597  15.486  12.358  1.00  0.00     0.001 C 
HETATM   40  C28 UNL     1      18.340  16.038  11.713  1.00  0.00     0.014 C 
ENDBRANCH  32  35
ENDBRANCH   7  31
TORSDOF 7
ENDMDL
MODEL 3
REMARK VINA RESULT: -9.667423645      4.114      6.311
REMARK  7 active torsions:
REMARK  status: ('A' for Active; 'I' for Inactive)
REMARK       I    between atoms: C1_2  and  N1_3 
REMARK    1  A    between atoms: C1_2  and  C7_11 
REMARK    2  A    between atoms: N1_3  and  C2_5 
REMARK    3  A    between atoms: C2_5  and  C3_6 
REMARK    4  A    between atoms: C9_13  and  N2_14 
REMARK       I    between atoms: N3_17  and  C12_18 
REMARK    5  A    between atoms: C12_18  and  C13_20 
REMARK    6  A    between atoms: C21_30  and  N4_31 
REMARK       I    between atoms: N4_31  and  C22_33 
REMARK    7  A    between atoms: C22_33  and  C23_35 
ROOT
HETATM    1  C7  UNL     1      16.686  20.087   7.608  1.00  0.00     0.060 A 
HETATM    2  C8  UNL     1      15.601  20.848   7.158  1.00  0.00     0.050 A 
HETATM    3  C9  UNL     1      14.669  21.420   7.997  1.00  0.00     0.053 A 
HETATM    4  C19 UNL     1      14.850  21.207   9.334  1.00  0.00     0.062 A 
HETATM    5 CL1  UNL     1      13.712  21.887  10.479  1.00  0.00    -0.082 Cl
HETATM    6  C20 UNL     1      15.909  20.460   9.825  1.00  0.00     0.056 A 
HETATM    7  C21 UNL     1      16.849  19.881   8.985  1.00  0.00     0.052 A 
ENDROOT
BRANCH   3   8
HETATM    8  N2  UNL     1      13.582  22.199   7.469  1.00  0.00    -0.376 N 
HETATM    9  C10 UNL     1      12.340  21.602   7.044  1.00  0.00     0.143 C 
HETATM   10  C11 UNL     1      11.740  22.353   5.844  1.00  0.00     0.145 C 
HETATM   11  N3  UNL     1      11.551  23.735   6.205  1.00  0.00    -0.347 N 
HETATM   12  C12 UNL     1      10.572  24.508   5.557  1.00  0.00     0.248 C 
HETATM   13  C17 UNL     1      12.373  24.312   7.234  1.00  0.00     0.145 C 
HETATM   14  O3  UNL     1      10.422  25.715   5.885  1.00  0.00    -0.270 OA
HETATM   15  C18 UNL     1      13.717  23.652   7.349  1.00  0.00     0.143 C 
BRANCH  12  16
HETATM   16  C13 UNL     1       9.683  23.981   4.490  1.00  0.00     0.213 C 
HETATM   17  C14 UNL     1      10.238  24.219   3.096  1.00  0.00     0.043 C 
HETATM   18  C15 UNL     1       8.965  24.014   2.261  1.00  0.00     0.029 C 
HETATM   19  C16 UNL     1       7.906  24.444   3.225  1.00  0.00     0.168 C 
HETATM   20  O4  UNL     1       8.497  24.668   4.442  1.00  0.00    -0.376 OA
ENDBRANCH  12  16
ENDBRANCH   3   8
BRANCH   1  21
HETATM   21  C1  UNL     1      17.675  19.597   6.667  1.00  0.00     0.254 C 
HETATM   22  O1  UNL     1      18.852  20.019   6.686  1.00  0.00    -0.268 OA
HETATM   23  N1  UNL     1      17.345  18.606   5.677  1.00  0.00    -0.354 N 
ATOM     24  H1  UNL     1      16.394  18.238   5.644  1.00  0.00     0.162 HD
BRANCH  23  25
HETATM   25  C2  UNL     1      18.317  18.115   4.729  1.00  0.00     0.155 C 
BRANCH  25  26
HETATM   26  C3  UNL     1      17.706  17.294   3.625  1.00  0.00     0.139 C 
HETATM   27  C4  UNL     1      16.190  17.295   3.733  1.00  0.00     0.035 C 
HETATM   28  C5  UNL     1      15.767  17.987   2.465  1.00  0.00     0.029 C 
HETATM   29  C6  UNL     1      17.024  18.785   2.137  1.00  0.00     0.168 C 
HETATM   30  O2  UNL     1      18.001  17.842   2.375  1.00  0.00    -0.384 OA
ENDBRANCH  25  26
ENDBRANCH  23  25
ENDBRANCH   1  21
BRANCH   7  31
HETATM   31  N4  UNL     1      17.831  19.039   9.534  1.00  0.00    -0.326 N 
HETATM   32  C22 UNL     1      17.610  17.848  10.227  1.00  0.00     0.226 C 
HETATM   33  O5  UNL     1      16.488  17.366  10.469  1.00  0.00    -0.273 OA
ATOM     34  H4  UNL     1      18.802  19.327   9.413  1.00  0.00     0.169 HD
BRANCH  32  35
HETATM   35  C23 UNL     1      18.771  17.026  10.755  1.00  0.00     0.078 C 
HETATM   36  C24 UNL     1      19.420  16.293   9.629  1.00  0.00     0.014 C 
HETATM   37  C25 UNL     1      20.140  15.042  10.078  1.00  0.00     0.001 C 
HETATM   38  C26 UNL     1      20.626  15.125  11.497  1.00  0.00     0.000 C 
HETATM   39  C27 UNL     1      19.562  15.511  12.479  1.00  0.00     0.001 C 
HETATM   40  C28 UNL     1      18.320  16.051  11.796  1.00  0.00     0.014 C 
ENDBRANCH  32  35
ENDBRANCH   7  31
TORSDOF 7
ENDMDL
MODEL 4
REMARK VINA RESULT: -9.422038963      3.660     11.092
REMARK  7 active torsions:
REMARK  status: ('A' for Active; 'I' for Inactive)
REMARK       I    between atoms: C1_2  and  N1_3 
REMARK    1  A    between atoms: C1_2  and  C7_11 
REMARK    2  A    between atoms: N1_3  and  C2_5 
REMARK    3  A    between atoms: C2_5  and  C3_6 
REMARK    4  A    between atoms: C9_13  and  N2_14 
REMARK       I    between atoms: N3_17  and  C12_18 
REMARK    5  A    between atoms: C12_18  and  C13_20 
REMARK    6  A    between atoms: C21_30  and  N4_31 
REMARK       I    between atoms: N4_31  and  C22_33 
REMARK    7  A    between atoms: C22_33  and  C23_35 
ROOT
HETATM    1  C7  UNL     1       8.343  24.733   4.024  1.00  0.00     0.060 A 
HETATM    2  C8  UNL     1       9.534  24.167   4.491  1.00  0.00     0.050 A 
HETATM    3  C9  UNL     1      10.032  22.961   4.048  1.00  0.00     0.053 A 
HETATM    4  C19 UNL     1       9.290  22.314   3.100  1.00  0.00     0.062 A 
HETATM    5 CL1  UNL     1       9.836  20.769   2.481  1.00  0.00    -0.082 Cl
HETATM    6  C20 UNL     1       8.104  22.836   2.610  1.00  0.00     0.056 A 
HETATM    7  C21 UNL     1       7.598  24.049   3.053  1.00  0.00     0.052 A 
ENDROOT
BRANCH   3   8
HETATM    8  N2  UNL     1      11.269  22.438   4.563  1.00  0.00    -0.376 N 
HETATM    9  C10 UNL     1      11.374  21.861   5.879  1.00  0.00     0.143 C 
HETATM   10  C11 UNL     1      12.746  22.150   6.510  1.00  0.00     0.145 C 
HETATM   11  N3  UNL     1      13.777  21.642   5.641  1.00  0.00    -0.347 N 
HETATM   12  C12 UNL     1      15.030  21.281   6.164  1.00  0.00     0.248 C 
HETATM   13  C17 UNL     1      13.507  21.509   4.235  1.00  0.00     0.145 C 
HETATM   14  O3  UNL     1      15.919  20.841   5.388  1.00  0.00    -0.270 OA
HETATM   15  C18 UNL     1      12.479  22.485   3.739  1.00  0.00     0.143 C 
BRANCH  12  16
HETATM   16  C13 UNL     1      15.379  21.387   7.604  1.00  0.00     0.213 C 
HETATM   17  C14 UNL     1      16.025  22.716   7.953  1.00  0.00     0.043 C 
HETATM   18  C15 UNL     1      16.663  22.359   9.304  1.00  0.00     0.029 C 
HETATM   19  C16 UNL     1      16.933  20.900   9.128  1.00  0.00     0.168 C 
HETATM   20  O4  UNL     1      16.365  20.496   7.947  1.00  0.00    -0.376 OA
ENDBRANCH  12  16
ENDBRANCH   3   8
BRANCH   1  21
HETATM   21  C1  UNL     1       7.935  26.050   4.474  1.00  0.00     0.254 C 
HETATM   22  O1  UNL     1       7.958  27.034   3.702  1.00  0.00    -0.268 OA
HETATM   23  N1  UNL     1       7.486  26.279   5.822  1.00  0.00    -0.354 N 
ATOM     24  H1  UNL     1       7.449  25.493   6.470  1.00  0.00     0.162 HD
BRANCH  23  25
HETATM   25  C2  UNL     1       7.085  27.587   6.285  1.00  0.00     0.155 C 
BRANCH  25  26
HETATM   26  C3  UNL     1       7.228  27.758   7.774  1.00  0.00     0.139 C 
HETATM   27  C4  UNL     1       7.579  26.433   8.433  1.00  0.00     0.035 C 
HETATM   28  C5  UNL     1       8.946  26.699   9.003  1.00  0.00     0.029 C 
HETATM   29  C6  UNL     1       9.414  27.845   8.113  1.00  0.00     0.168 C 
HETATM   30  O2  UNL     1       8.278  28.626   8.077  1.00  0.00    -0.384 OA
ENDBRANCH  25  26
ENDBRANCH  23  25
ENDBRANCH   1  21
BRANCH   7  31
HETATM   31  N4  UNL     1       6.335  24.469   2.605  1.00  0.00    -0.326 N 
HETATM   32  C22 UNL     1       5.113  23.847   2.864  1.00  0.00     0.226 C 
HETATM   33  O5  UNL     1       4.975  22.805   3.532  1.00  0.00    -0.273 OA
ATOM     34  H4  UNL     1       6.308  25.313   2.033  1.00  0.00     0.169 HD
BRANCH  32  35
HETATM   35  C23 UNL     1       3.815  24.421   2.326  1.00  0.00     0.078 C 
HETATM   36  C24 UNL     1       3.971  24.743   0.878  1.00  0.00     0.014 C 
HETATM   37  C25 UNL     1       3.025  25.825   0.410  1.00  0.00     0.001 C 
HETATM   38  C26 UNL     1       1.755  25.877   1.212  1.00  0.00     0.000 C 
HETATM   39  C27 UNL     1       1.979  25.967   2.690  1.00  0.00     0.001 C 
HETATM   40  C28 UNL     1       3.413  25.653   3.074  1.00  0.00     0.014 C 
ENDBRANCH  32  35
ENDBRANCH   7  31
TORSDOF 7
ENDMDL
MODEL 5
REMARK VINA RESULT: -9.361358827      1.311      1.490
REMARK  7 active torsions:
REMARK  status: ('A' for Active; 'I' for Inactive)
REMARK       I    between atoms: C1_2  and  N1_3 
REMARK    1  A    between atoms: C1_2  and  C7_11 
REMARK    2  A    between atoms: N1_3  and  C2_5 
REMARK    3  A    between atoms: C2_5  and  C3_6 
REMARK    4  A    between atoms: C9_13  and  N2_14 
REMARK       I    between atoms: N3_17  and  C12_18 
REMARK    5  A    between atoms: C12_18  and  C13_20 
REMARK    6  A    between atoms: C21_30  and  N4_31 
REMARK       I    between atoms: N4_31  and  C22_33 
REMARK    7  A    between atoms: C22_33  and  C23_35 
ROOT
HETATM    1  C7  UNL     1      11.581  22.816   6.674  1.00  0.00     0.060 A 
HETATM    2  C8  UNL     1      10.432  23.583   6.450  1.00  0.00     0.050 A 
HETATM    3  C9  UNL     1      10.157  24.760   7.113  1.00  0.00     0.053 A 
HETATM    4  C19 UNL     1      11.084  25.164   8.032  1.00  0.00     0.062 A 
HETATM    5 CL1  UNL     1      10.820  26.644   8.932  1.00  0.00    -0.082 Cl
HETATM    6  C20 UNL     1      12.236  24.437   8.287  1.00  0.00     0.056 A 
HETATM    7  C21 UNL     1      12.516  23.251   7.624  1.00  0.00     0.052 A 
ENDROOT
BRANCH   3   8
HETATM    8  N2  UNL     1       8.961  25.505   6.829  1.00  0.00    -0.376 N 
HETATM    9  C10 UNL     1       8.397  26.445   7.765  1.00  0.00     0.143 C 
HETATM   10  C11 UNL     1       6.861  26.460   7.687  1.00  0.00     0.145 C 
HETATM   11  N3  UNL     1       6.465  26.775   6.338  1.00  0.00    -0.347 N 
HETATM   12  C12 UNL     1       5.217  27.371   6.088  1.00  0.00     0.248 C 
HETATM   13  C17 UNL     1       7.361  26.474   5.254  1.00  0.00     0.145 C 
HETATM   14  O3  UNL     1       4.887  27.636   4.901  1.00  0.00    -0.270 OA
HETATM   15  C18 UNL     1       8.273  25.318   5.549  1.00  0.00     0.143 C 
BRANCH  12  16
HETATM   16  C13 UNL     1       4.242  27.713   7.155  1.00  0.00     0.213 C 
HETATM   17  C14 UNL     1       3.057  26.765   7.191  1.00  0.00     0.043 C 
HETATM   18  C15 UNL     1       2.067  27.604   8.013  1.00  0.00     0.029 C 
HETATM   19  C16 UNL     1       2.486  28.993   7.656  1.00  0.00     0.168 C 
HETATM   20  O4  UNL     1       3.633  28.917   6.907  1.00  0.00    -0.376 OA
ENDBRANCH  12  16
ENDBRANCH   3   8
BRANCH   1  21
HETATM   21  C1  UNL     1      11.841  21.637   5.870  1.00  0.00     0.254 C 
HETATM   22  O1  UNL     1      11.416  20.512   6.214  1.00  0.00    -0.268 OA
HETATM   23  N1  UNL     1      12.593  21.713   4.645  1.00  0.00    -0.354 N 
ATOM     24  H1  UNL     1      12.944  22.619   4.336  1.00  0.00     0.162 HD
BRANCH  23  25
HETATM   25  C2  UNL     1      12.866  20.546   3.840  1.00  0.00     0.155 C 
BRANCH  25  26
HETATM   26  C3  UNL     1      14.286  20.059   3.964  1.00  0.00     0.139 C 
HETATM   27  C4  UNL     1      14.322  18.546   4.110  1.00  0.00     0.035 C 
HETATM   28  C5  UNL     1      15.048  18.111   2.866  1.00  0.00     0.029 C 
HETATM   29  C6  UNL     1      14.788  19.297   1.946  1.00  0.00     0.168 C 
HETATM   30  O2  UNL     1      15.014  20.350   2.808  1.00  0.00    -0.384 OA
ENDBRANCH  25  26
ENDBRANCH  23  25
ENDBRANCH   1  21
BRANCH   7  31
HETATM   31  N4  UNL     1      13.639  22.500   8.009  1.00  0.00    -0.326 N 
HETATM   32  C22 UNL     1      14.845  22.395   7.314  1.00  0.00     0.226 C 
HETATM   33  O5  UNL     1      15.090  22.954   6.229  1.00  0.00    -0.273 OA
ATOM     34  H4  UNL     1      13.566  21.980   8.884  1.00  0.00     0.169 HD
BRANCH  32  35
HETATM   35  C23 UNL     1      15.987  21.555   7.857  1.00  0.00     0.078 C 
HETATM   36  C24 UNL     1      15.439  20.395   8.619  1.00  0.00     0.014 C 
HETATM   37  C25 UNL     1      16.397  19.871   9.664  1.00  0.00     0.001 C 
HETATM   38  C26 UNL     1      17.837  20.117   9.311  1.00  0.00     0.000 C 
HETATM   39  C27 UNL     1      18.141  21.545   8.976  1.00  0.00     0.001 C 
HETATM   40  C28 UNL     1      16.883  22.361   8.743  1.00  0.00     0.014 C 
ENDBRANCH  32  35
ENDBRANCH   7  31
TORSDOF 7
ENDMDL
