MODEL 1
REMARK VINA RESULT: -9.982470154      0.000      0.000
REMARK  7 active torsions:
REMARK  status: ('A' for Active; 'I' for Inactive)
REMARK    1  A    between atoms: C2_2  and  C3_4 
REMARK    2  A    between atoms: N1_7  and  C6_8 
REMARK    3  A    between atoms: C6_8  and  C7_9 
REMARK    4  A    between atoms: C9_11  and  C10_12 
REMARK    5  A    between atoms: C10_12  and  C11_13 
REMARK    6  A    between atoms: C11_13  and  S1_14 
REMARK    7  A    between atoms: S1_14  and  C12_17 
ROOT
HETATM    1  C10 UNL     1       9.602  22.776   3.120  1.00  0.00     0.054 C 
ENDROOT
BRANCH   1   2
HETATM    2  C9  UNL     1      10.320  22.802   4.368  1.00  0.00    -0.056 A 
HETATM    3  C8  UNL     1      11.488  22.013   4.504  1.00  0.00     0.020 A 
HETATM    4  C7  UNL     1      12.245  21.948   5.625  1.00  0.00    -0.019 A 
HETATM    5  C22 UNL     1      11.836  22.713   6.706  1.00  0.00    -0.045 A 
HETATM    6  C20 UNL     1      10.767  23.461   6.638  1.00  0.00    -0.055 A 
HETATM    7  C23 UNL     1      12.719  22.644   7.953  1.00  0.00     0.049 C 
HETATM    8  C19 UNL     1       9.980  23.541   5.478  1.00  0.00     0.014 A 
HETATM    9  C21 UNL     1      10.411  24.367   7.785  1.00  0.00     0.049 C 
BRANCH   4  10
HETATM   10  C6  UNL     1      13.378  21.086   5.851  1.00  0.00     0.071 C 
BRANCH  10  11
HETATM   11  N1  UNL     1      14.173  20.608   4.787  1.00  0.00    -0.292 NA
HETATM   12  C5  UNL     1      13.794  19.277   4.414  1.00  0.00     0.095 C 
HETATM   13  C4  UNL     1      14.795  18.717   3.452  1.00  0.00     0.024 C 
HETATM   14  C3  UNL     1      16.121  18.508   4.238  1.00  0.00     0.027 C 
HETATM   15  C25 UNL     1      16.555  19.800   4.802  1.00  0.00     0.024 C 
HETATM   16  C24 UNL     1      15.537  20.895   4.899  1.00  0.00     0.095 C 
BRANCH  14  17
HETATM   17  C2  UNL     1      17.004  17.876   3.239  1.00  0.00    -0.017 C 
HETATM   18  C1  UNL     1      16.743  17.847   1.957  1.00  0.00     0.027 C 
HETATM   19 BR1  UNL     1      18.649  17.125   4.002  1.00  0.00    -0.056 Br
ENDBRANCH  14  17
ENDBRANCH  10  11
ENDBRANCH   4  10
ENDBRANCH   1   2
BRANCH   1  20
HETATM   20  C11 UNL     1       9.248  24.026   2.436  1.00  0.00     0.152 C 
BRANCH  20  21
HETATM   21  S1  UNL     1       7.478  24.521   2.609  1.00  0.00     0.194 S 
HETATM   22  O1  UNL     1       6.808  23.259   3.013  1.00  0.00    -0.221 OA
HETATM   23  O2  UNL     1       6.976  25.143   1.358  1.00  0.00    -0.221 OA
BRANCH  21  24
HETATM   24  C12 UNL     1       7.569  25.772   3.880  1.00  0.00     0.170 A 
HETATM   25  N2  UNL     1       8.700  26.417   4.066  1.00  0.00    -0.285 N 
HETATM   26  N3  UNL     1       8.881  27.244   5.065  1.00  0.00    -0.265 N 
ATOM     27  H2  UNL     1       9.465  26.267   3.407  1.00  0.00     0.188 HD
HETATM   28  C13 UNL     1       7.916  27.489   5.966  1.00  0.00     0.268 A 
ATOM     29  H3  UNL     1       9.781  27.716   5.161  1.00  0.00     0.190 HD
HETATM   30  O3  UNL     1       8.039  28.266   6.927  1.00  0.00    -0.266 OA
HETATM   31  C14 UNL     1       6.673  26.859   5.854  1.00  0.00     0.041 A 
HETATM   32  C15 UNL     1       6.538  25.984   4.759  1.00  0.00     0.080 A 
HETATM   33  C18 UNL     1       5.640  27.036   6.862  1.00  0.00     0.048 C 
HETATM   34  N4  UNL     1       5.237  25.505   4.493  1.00  0.00    -0.387 N 
HETATM   35  C16 UNL     1       4.085  25.751   5.352  1.00  0.00     0.120 C 
ATOM     36  H4  UNL     1       5.094  24.953   3.647  1.00  0.00     0.159 HD
HETATM   37  C17 UNL     1       4.253  26.848   6.290  1.00  0.00     0.024 C 
ENDBRANCH  21  24
ENDBRANCH  20  21
ENDBRANCH   1  20
TORSDOF 7
ENDMDL
MODEL 2
REMARK VINA RESULT: -9.838843546      1.156      1.568
REMARK  7 active torsions:
REMARK  status: ('A' for Active; 'I' for Inactive)
REMARK    1  A    between atoms: C2_2  and  C3_4 
REMARK    2  A    between atoms: N1_7  and  C6_8 
REMARK    3  A    between atoms: C6_8  and  C7_9 
REMARK    4  A    between atoms: C9_11  and  C10_12 
REMARK    5  A    between atoms: C10_12  and  C11_13 
REMARK    6  A    between atoms: C11_13  and  S1_14 
REMARK    7  A    between atoms: S1_14  and  C12_17 
ROOT
HETATM    1  C10 UNL     1       9.460  22.869   3.267  1.00  0.00     0.054 C 
ENDROOT
BRANCH   1   2
HETATM    2  C9  UNL     1      10.083  23.234   4.514  1.00  0.00    -0.056 A 
HETATM    3  C8  UNL     1      11.495  23.192   4.613  1.00  0.00     0.020 A 
HETATM    4  C7  UNL     1      12.195  23.505   5.728  1.00  0.00    -0.019 A 
HETATM    5  C22 UNL     1      11.466  23.893   6.842  1.00  0.00    -0.045 A 
HETATM    6  C20 UNL     1      10.162  23.950   6.808  1.00  0.00    -0.055 A 
HETATM    7  C23 UNL     1      12.279  24.266   8.083  1.00  0.00     0.049 C 
HETATM    8  C19 UNL     1       9.426  23.635   5.655  1.00  0.00     0.014 A 
HETATM    9  C21 UNL     1       9.404  24.483   7.994  1.00  0.00     0.049 C 
BRANCH   4  10
HETATM   10  C6  UNL     1      13.619  23.380   5.915  1.00  0.00     0.071 C 
BRANCH  10  11
HETATM   11  N1  UNL     1      14.292  22.157   5.711  1.00  0.00    -0.292 NA
HETATM   12  C5  UNL     1      15.009  22.161   4.470  1.00  0.00     0.095 C 
HETATM   13  C4  UNL     1      15.516  20.784   4.173  1.00  0.00     0.024 C 
HETATM   14  C3  UNL     1      14.278  19.893   3.872  1.00  0.00     0.027 C 
HETATM   15  C25 UNL     1      13.375  19.913   5.038  1.00  0.00     0.024 C 
HETATM   16  C24 UNL     1      13.551  21.017   6.036  1.00  0.00     0.095 C 
BRANCH  14  17
HETATM   17  C2  UNL     1      14.882  18.597   3.508  1.00  0.00    -0.017 C 
HETATM   18  C1  UNL     1      14.642  17.481   4.147  1.00  0.00     0.027 C 
HETATM   19 BR1  UNL     1      16.044  18.683   1.928  1.00  0.00    -0.056 Br
ENDBRANCH  14  17
ENDBRANCH  10  11
ENDBRANCH   4  10
ENDBRANCH   1   2
BRANCH   1  20
HETATM   20  C11 UNL     1       9.061  23.900   2.302  1.00  0.00     0.152 C 
BRANCH  20  21
HETATM   21  S1  UNL     1       7.322  24.494   2.487  1.00  0.00     0.194 S 
HETATM   22  O1  UNL     1       6.587  23.271   2.901  1.00  0.00    -0.221 OA
HETATM   23  O2  UNL     1       6.845  25.138   1.238  1.00  0.00    -0.221 OA
BRANCH  21  24
HETATM   24  C12 UNL     1       7.493  25.741   3.754  1.00  0.00     0.170 A 
HETATM   25  N2  UNL     1       8.630  26.393   3.862  1.00  0.00    -0.285 N 
HETATM   26  N3  UNL     1       8.875  27.219   4.849  1.00  0.00    -0.265 N 
ATOM     27  H2  UNL     1       9.348  26.250   3.152  1.00  0.00     0.188 HD
HETATM   28  C13 UNL     1       7.972  27.454   5.816  1.00  0.00     0.268 A 
ATOM     29  H3  UNL     1       9.775  27.696   4.885  1.00  0.00     0.190 HD
HETATM   30  O3  UNL     1       8.156  28.229   6.769  1.00  0.00    -0.266 OA
HETATM   31  C14 UNL     1       6.728  26.817   5.788  1.00  0.00     0.041 A 
HETATM   32  C15 UNL     1       6.523  25.944   4.702  1.00  0.00     0.080 A 
HETATM   33  C18 UNL     1       5.767  26.984   6.866  1.00  0.00     0.048 C 
HETATM   34  N4  UNL     1       5.211  25.456   4.525  1.00  0.00    -0.387 N 
HETATM   35  C16 UNL     1       4.120  25.692   5.462  1.00  0.00     0.120 C 
ATOM     36  H4  UNL     1       5.013  24.906   3.689  1.00  0.00     0.159 HD
HETATM   37  C17 UNL     1       4.345  26.788   6.390  1.00  0.00     0.024 C 
ENDBRANCH  21  24
ENDBRANCH  20  21
ENDBRANCH   1  20
TORSDOF 7
ENDMDL
MODEL 3
REMARK VINA RESULT: -9.739327798      5.778     11.328
REMARK  7 active torsions:
REMARK  status: ('A' for Active; 'I' for Inactive)
REMARK    1  A    between atoms: C2_2  and  C3_4 
REMARK    2  A    between atoms: N1_7  and  C6_8 
REMARK    3  A    between atoms: C6_8  and  C7_9 
REMARK    4  A    between atoms: C9_11  and  C10_12 
REMARK    5  A    between atoms: C10_12  and  C11_13 
REMARK    6  A    between atoms: C11_13  and  S1_14 
REMARK    7  A    between atoms: S1_14  and  C12_17 
ROOT
HETATM    1  C10 UNL     1      14.836  21.136   8.332  1.00  0.00     0.054 C 
ENDROOT
BRANCH   1   2
HETATM    2  C9  UNL     1      14.045  21.123   7.129  1.00  0.00    -0.056 A 
HETATM    3  C8  UNL     1      12.897  21.950   7.054  1.00  0.00     0.020 A 
HETATM    4  C7  UNL     1      12.073  22.022   5.983  1.00  0.00    -0.019 A 
HETATM    5  C22 UNL     1      12.386  21.227   4.891  1.00  0.00    -0.045 A 
HETATM    6  C20 UNL     1      13.433  20.446   4.904  1.00  0.00    -0.055 A 
HETATM    7  C23 UNL     1      11.455  21.343   3.683  1.00  0.00     0.049 C 
HETATM    8  C19 UNL     1      14.299  20.368   6.007  1.00  0.00     0.014 A 
HETATM    9  C21 UNL     1      13.813  19.680   3.665  1.00  0.00     0.049 C 
BRANCH   4  10
HETATM   10  C6  UNL     1      10.840  22.763   5.893  1.00  0.00     0.071 C 
BRANCH  10  11
HETATM   11  N1  UNL     1      10.661  23.994   6.560  1.00  0.00    -0.292 NA
HETATM   12  C5  UNL     1       9.674  23.885   7.593  1.00  0.00     0.095 C 
HETATM   13  C4  UNL     1       9.342  25.246   8.121  1.00  0.00     0.024 C 
HETATM   14  C3  UNL     1       8.599  26.011   6.990  1.00  0.00     0.027 C 
HETATM   15  C25 UNL     1       9.468  26.074   5.800  1.00  0.00     0.024 C 
HETATM   16  C24 UNL     1      10.616  25.114   5.724  1.00  0.00     0.095 C 
BRANCH  14  17
HETATM   17  C2  UNL     1       8.240  27.289   7.632  1.00  0.00    -0.017 C 
HETATM   18  C1  UNL     1       9.035  27.943   8.440  1.00  0.00     0.027 C 
HETATM   19 BR1  UNL     1       6.468  27.961   7.119  1.00  0.00    -0.056 Br
ENDBRANCH  14  17
ENDBRANCH  10  11
ENDBRANCH   4  10
ENDBRANCH   1   2
BRANCH   1  20
HETATM   20  C11 UNL     1      16.273  21.430   8.278  1.00  0.00     0.152 C 
BRANCH  20  21
HETATM   21  S1  UNL     1      17.367  19.984   8.627  1.00  0.00     0.194 S 
HETATM   22  O1  UNL     1      16.481  19.061   9.381  1.00  0.00    -0.221 OA
HETATM   23  O2  UNL     1      18.601  20.410   9.333  1.00  0.00    -0.221 OA
BRANCH  21  24
HETATM   24  C12 UNL     1      17.799  19.444   6.980  1.00  0.00     0.170 A 
HETATM   25  N2  UNL     1      17.738  20.305   5.987  1.00  0.00    -0.285 N 
HETATM   26  N3  UNL     1      17.905  19.948   4.738  1.00  0.00    -0.265 N 
ATOM     27  H2  UNL     1      17.554  21.286   6.198  1.00  0.00     0.188 HD
HETATM   28  C13 UNL     1      18.153  18.674   4.392  1.00  0.00     0.268 A 
ATOM     29  H3  UNL     1      17.846  20.658   4.008  1.00  0.00     0.190 HD
HETATM   30  O3  UNL     1      18.321  18.288   3.224  1.00  0.00    -0.266 OA
HETATM   31  C14 UNL     1      18.245  17.683   5.374  1.00  0.00     0.041 A 
HETATM   32  C15 UNL     1      18.059  18.128   6.697  1.00  0.00     0.080 A 
HETATM   33  C18 UNL     1      18.423  16.284   5.024  1.00  0.00     0.048 C 
HETATM   34  N4  UNL     1      18.359  17.204   7.721  1.00  0.00    -0.387 N 
HETATM   35  C16 UNL     1      18.707  15.808   7.482  1.00  0.00     0.120 C 
ATOM     36  H4  UNL     1      18.331  17.532   8.686  1.00  0.00     0.159 HD
HETATM   37  C17 UNL     1      19.121  15.511   6.121  1.00  0.00     0.024 C 
ENDBRANCH  21  24
ENDBRANCH  20  21
ENDBRANCH   1  20
TORSDOF 7
ENDMDL
MODEL 4
REMARK VINA RESULT: -9.641371867      5.182      9.718
REMARK  7 active torsions:
REMARK  status: ('A' for Active; 'I' for Inactive)
REMARK    1  A    between atoms: C2_2  and  C3_4 
REMARK    2  A    between atoms: N1_7  and  C6_8 
REMARK    3  A    between atoms: C6_8  and  C7_9 
REMARK    4  A    between atoms: C9_11  and  C10_12 
REMARK    5  A    between atoms: C10_12  and  C11_13 
REMARK    6  A    between atoms: C11_13  and  S1_14 
REMARK    7  A    between atoms: S1_14  and  C12_17 
ROOT
HETATM    1  C10 UNL     1      12.997  19.975   4.077  1.00  0.00     0.054 C 
ENDROOT
BRANCH   1   2
HETATM    2  C9  UNL     1      12.382  21.201   4.514  1.00  0.00    -0.056 A 
HETATM    3  C8  UNL     1      11.762  22.038   3.554  1.00  0.00     0.020 A 
HETATM    4  C7  UNL     1      11.157  23.215   3.839  1.00  0.00    -0.019 A 
HETATM    5  C22 UNL     1      11.150  23.615   5.166  1.00  0.00    -0.045 A 
HETATM    6  C20 UNL     1      11.706  22.884   6.094  1.00  0.00    -0.055 A 
HETATM    7  C23 UNL     1      10.439  24.935   5.468  1.00  0.00     0.049 C 
HETATM    8  C19 UNL     1      12.331  21.658   5.811  1.00  0.00     0.014 A 
HETATM    9  C21 UNL     1      11.586  23.286   7.539  1.00  0.00     0.049 C 
BRANCH   4  10
HETATM   10  C6  UNL     1      10.605  24.151   2.892  1.00  0.00     0.071 C 
BRANCH  10  11
HETATM   11  N1  UNL     1       9.355  23.935   2.274  1.00  0.00    -0.292 NA
HETATM   12  C5  UNL     1       8.625  25.161   2.137  1.00  0.00     0.095 C 
HETATM   13  C4  UNL     1       7.224  24.870   1.696  1.00  0.00     0.024 C 
HETATM   14  C3  UNL     1       6.509  24.153   2.876  1.00  0.00     0.027 C 
HETATM   15  C25 UNL     1       7.252  22.925   3.214  1.00  0.00     0.024 C 
HETATM   16  C24 UNL     1       8.663  22.806   2.725  1.00  0.00     0.095 C 
BRANCH  14  17
HETATM   17  C2  UNL     1       5.129  23.993   2.382  1.00  0.00    -0.017 C 
HETATM   18  C1  UNL     1       4.710  24.467   1.236  1.00  0.00     0.027 C 
HETATM   19 BR1  UNL     1       3.976  22.949   3.579  1.00  0.00    -0.056 Br
ENDBRANCH  14  17
ENDBRANCH  10  11
ENDBRANCH   4  10
ENDBRANCH   1   2
BRANCH   1  20
HETATM   20  C11 UNL     1      14.118  19.393   4.826  1.00  0.00     0.152 C 
BRANCH  20  21
HETATM   21  S1  UNL     1      15.761  20.150   4.463  1.00  0.00     0.194 S 
HETATM   22  O1  UNL     1      15.419  21.549   4.098  1.00  0.00    -0.221 OA
HETATM   23  O2  UNL     1      16.486  19.375   3.426  1.00  0.00    -0.221 OA
BRANCH  21  24
HETATM   24  C12 UNL     1      16.607  19.959   6.024  1.00  0.00     0.170 A 
HETATM   25  N2  UNL     1      17.342  18.888   6.228  1.00  0.00    -0.285 N 
HETATM   26  N3  UNL     1      17.876  18.614   7.392  1.00  0.00    -0.265 N 
ATOM     27  H2  UNL     1      17.502  18.247   5.451  1.00  0.00     0.188 HD
HETATM   28  C13 UNL     1      17.707  19.417   8.456  1.00  0.00     0.268 A 
ATOM     29  H3  UNL     1      18.437  17.768   7.494  1.00  0.00     0.190 HD
HETATM   30  O3  UNL     1      18.194  19.201   9.577  1.00  0.00    -0.266 OA
HETATM   31  C14 UNL     1      16.948  20.585   8.342  1.00  0.00     0.041 A 
HETATM   32  C15 UNL     1      16.402  20.827   7.067  1.00  0.00     0.080 A 
HETATM   33  C18 UNL     1      16.674  21.426   9.496  1.00  0.00     0.048 C 
HETATM   34  N4  UNL     1      15.819  22.096   6.861  1.00  0.00    -0.387 N 
HETATM   35  C16 UNL     1      15.634  23.088   7.912  1.00  0.00     0.120 C 
ATOM     36  H4  UNL     1      15.509  22.333   5.918  1.00  0.00     0.159 HD
HETATM   37  C17 UNL     1      16.439  22.867   9.102  1.00  0.00     0.024 C 
ENDBRANCH  21  24
ENDBRANCH  20  21
ENDBRANCH   1  20
TORSDOF 7
ENDMDL
MODEL 5
REMARK VINA RESULT: -9.456829429      5.558      9.645
REMARK  7 active torsions:
REMARK  status: ('A' for Active; 'I' for Inactive)
REMARK    1  A    between atoms: C2_2  and  C3_4 
REMARK    2  A    between atoms: N1_7  and  C6_8 
REMARK    3  A    between atoms: C6_8  and  C7_9 
REMARK    4  A    between atoms: C9_11  and  C10_12 
REMARK    5  A    between atoms: C10_12  and  C11_13 
REMARK    6  A    between atoms: C11_13  and  S1_14 
REMARK    7  A    between atoms: S1_14  and  C12_17 
ROOT
HETATM    1  C10 UNL     1      13.983  19.613   3.383  1.00  0.00     0.054 C 
ENDROOT
BRANCH   1   2
HETATM    2  C9  UNL     1      13.118  20.722   3.693  1.00  0.00    -0.056 A 
HETATM    3  C8  UNL     1      13.631  21.799   4.456  1.00  0.00     0.020 A 
HETATM    4  C7  UNL     1      12.918  22.892   4.816  1.00  0.00    -0.019 A 
HETATM    5  C22 UNL     1      11.596  22.947   4.401  1.00  0.00    -0.045 A 
HETATM    6  C20 UNL     1      11.070  21.983   3.695  1.00  0.00    -0.055 A 
HETATM    7  C23 UNL     1      10.817  24.202   4.798  1.00  0.00     0.049 C 
HETATM    8  C19 UNL     1      11.802  20.848   3.310  1.00  0.00     0.014 A 
HETATM    9  C21 UNL     1       9.670  22.121   3.163  1.00  0.00     0.049 C 
BRANCH   4  10
HETATM   10  C6  UNL     1      13.358  23.963   5.675  1.00  0.00     0.071 C 
BRANCH  10  11
HETATM   11  N1  UNL     1      13.835  23.721   6.981  1.00  0.00    -0.292 NA
HETATM   12  C5  UNL     1      15.178  23.220   6.958  1.00  0.00     0.095 C 
HETATM   13  C4  UNL     1      15.570  22.759   8.327  1.00  0.00     0.024 C 
HETATM   14  C3  UNL     1      14.719  21.498   8.649  1.00  0.00     0.027 C 
HETATM   15  C25 UNL     1      13.289  21.849   8.569  1.00  0.00     0.024 C 
HETATM   16  C24 UNL     1      12.918  23.102   7.836  1.00  0.00     0.095 C 
BRANCH  14  17
HETATM   17  C2  UNL     1      15.238  21.072   9.962  1.00  0.00    -0.017 C 
HETATM   18  C1  UNL     1      15.257  21.845  11.018  1.00  0.00     0.027 C 
HETATM   19 BR1  UNL     1      15.851  19.208  10.003  1.00  0.00    -0.056 Br
ENDBRANCH  14  17
ENDBRANCH  10  11
ENDBRANCH   4  10
ENDBRANCH   1   2
BRANCH   1  20
HETATM   20  C11 UNL     1      15.155  19.799   2.519  1.00  0.00     0.152 C 
BRANCH  20  21
HETATM   21  S1  UNL     1      16.522  18.593   2.808  1.00  0.00     0.194 S 
HETATM   22  O1  UNL     1      17.519  18.952   1.767  1.00  0.00    -0.221 OA
HETATM   23  O2  UNL     1      16.018  17.197   2.762  1.00  0.00    -0.221 OA
BRANCH  21  24
HETATM   24  C12 UNL     1      17.004  18.978   4.484  1.00  0.00     0.170 A 
HETATM   25  N2  UNL     1      16.830  20.201   4.936  1.00  0.00    -0.285 N 
HETATM   26  N3  UNL     1      17.284  20.590   6.101  1.00  0.00    -0.265 N 
ATOM     27  H2  UNL     1      16.323  20.871   4.358  1.00  0.00     0.188 HD
HETATM   28  C13 UNL     1      17.958  19.758   6.913  1.00  0.00     0.268 A 
ATOM     29  H3  UNL     1      17.121  21.551   6.401  1.00  0.00     0.190 HD
HETATM   30  O3  UNL     1      18.405  20.079   8.026  1.00  0.00    -0.266 OA
HETATM   31  C14 UNL     1      18.190  18.434   6.528  1.00  0.00     0.041 A 
HETATM   32  C15 UNL     1      17.676  18.075   5.268  1.00  0.00     0.080 A 
HETATM   33  C18 UNL     1      18.991  17.537   7.345  1.00  0.00     0.048 C 
HETATM   34  N4  UNL     1      17.700  16.701   4.946  1.00  0.00    -0.387 N 
HETATM   35  C16 UNL     1      18.339  15.681   5.770  1.00  0.00     0.120 C 
ATOM     36  H4  UNL     1      17.242  16.402   4.085  1.00  0.00     0.159 HD
HETATM   37  C17 UNL     1      18.606  16.089   7.139  1.00  0.00     0.024 C 
ENDBRANCH  21  24
ENDBRANCH  20  21
ENDBRANCH   1  20
TORSDOF 7
ENDMDL
