MODEL 1
REMARK VINA RESULT: -9.516945867      0.000      0.000
REMARK  9 active torsions:
REMARK  status: ('A' for Active; 'I' for Inactive)
REMARK    1  A    between atoms: C3_3  and  O1_4 
REMARK    2  A    between atoms: O1_4  and  C4_5 
REMARK    3  A    between atoms: C4_5  and  C5_6 
REMARK    4  A    between atoms: C5_6  and  N1_7 
REMARK    5  A    between atoms: C16_21  and  C17_22 
REMARK    6  A    between atoms: C17_22  and  C18_23 
REMARK    7  A    between atoms: C18_23  and  C19_24 
REMARK    8  A    between atoms: C21_26  and  O4_27 
REMARK    9  A    between atoms: C22_29  and  O5_30 
ROOT
HETATM    1  C1  UNL     1      14.874  21.357   8.269  1.00  0.00     0.015 C 
HETATM    2  C2  UNL     1      14.132  20.820   7.050  1.00  0.00     0.043 C 
HETATM    3  C3  UNL     1      15.144  20.658   5.907  1.00  0.00     0.264 C 
HETATM    4  O2  UNL     1      15.022  21.867   5.170  1.00  0.00    -0.355 OA
HETATM    5  C10 UNL     1      13.647  21.866   5.020  1.00  0.00     0.135 C 
HETATM    6  C11 UNL     1      13.043  23.014   4.321  1.00  0.00     0.040 C 
HETATM    7  C12 UNL     1      13.527  24.351   4.715  1.00  0.00     0.182 C 
HETATM    8  O3  UNL     1      12.941  24.957   5.807  1.00  0.00    -0.350 OA
HETATM    9  C13 UNL     1      11.766  24.844   6.508  1.00  0.00     0.076 A 
HETATM   10  C14 UNL     1      11.494  25.940   7.291  1.00  0.00     0.057 A 
HETATM   11  C15 UNL     1      10.353  26.000   8.065  1.00  0.00     0.019 A 
HETATM   12 BR1  UNL     1       9.922  27.478   9.177  1.00  0.00    -0.050 Br
HETATM   13  C16 UNL     1       9.499  24.925   8.025  1.00  0.00    -0.040 A 
HETATM   14  C23 UNL     1       9.762  23.812   7.240  1.00  0.00     0.019 A 
HETATM   15  C24 UNL     1      10.910  23.796   6.485  1.00  0.00    -0.020 A 
HETATM   16  C25 UNL     1      11.002  22.525   5.718  1.00  0.00     0.022 C 
HETATM   17  C26 UNL     1      11.538  22.851   4.374  1.00  0.00     0.018 C 
HETATM   18  C27 UNL     1      11.783  21.540   6.509  1.00  0.00     0.017 C 
HETATM   19  C28 UNL     1      13.226  21.897   6.494  1.00  0.00     0.024 C 
ENDROOT
BRANCH  13  20
HETATM   20  C17 UNL     1       8.235  24.880   8.803  1.00  0.00     0.040 C 
BRANCH  20  21
HETATM   21  C18 UNL     1       7.597  26.255   8.702  1.00  0.00     0.012 C 
BRANCH  21  22
HETATM   22  C19 UNL     1       6.966  26.362   7.329  1.00  0.00     0.020 C 
HETATM   23  C20 UNL     1       5.476  26.602   7.325  1.00  0.00     0.041 C 
HETATM   24  C21 UNL     1       5.693  27.697   6.304  1.00  0.00     0.147 C 
HETATM   25  C22 UNL     1       7.150  27.721   6.693  1.00  0.00     0.151 C 
BRANCH  24  26
HETATM   26  O4  UNL     1       5.447  27.214   5.005  1.00  0.00    -0.393 OA
ATOM     27  H4  UNL     1       4.578  27.466   4.715  1.00  0.00     0.210 HD
ENDBRANCH  24  26
BRANCH  25  28
HETATM   28  O5  UNL     1       8.047  27.736   5.624  1.00  0.00    -0.393 OA
ATOM     29  H5  UNL     1       8.715  28.410   5.685  1.00  0.00     0.210 HD
ENDBRANCH  25  28
ENDBRANCH  21  22
ENDBRANCH  20  21
ENDBRANCH  13  20
BRANCH   3  30
HETATM   30  O1  UNL     1      16.405  20.434   6.345  1.00  0.00    -0.359 OA
BRANCH  30  31
HETATM   31  C4  UNL     1      16.956  19.331   5.753  1.00  0.00     0.201 C 
BRANCH  31  32
HETATM   32  C5  UNL     1      17.040  19.340   4.266  1.00  0.00     0.298 C 
BRANCH  32  33
HETATM   33  N1  UNL     1      16.962  18.057   3.628  1.00  0.00     0.090 N 
HETATM   34  C6  UNL     1      17.075  18.220   2.190  1.00  0.00     0.272 C 
HETATM   35  C7  UNL     1      15.814  18.952   1.769  1.00  0.00     0.032 C 
HETATM   36  C8  UNL     1      14.828  18.516   2.833  1.00  0.00     0.032 C 
HETATM   37  C9  UNL     1      15.561  17.623   3.791  1.00  0.00     0.272 C 
ENDBRANCH  32  33
ENDBRANCH  31  32
ENDBRANCH  30  31
ENDBRANCH   3  30
TORSDOF 9
ENDMDL
MODEL 2
REMARK VINA RESULT: -9.385866421      4.156      9.096
REMARK  9 active torsions:
REMARK  status: ('A' for Active; 'I' for Inactive)
REMARK    1  A    between atoms: C3_3  and  O1_4 
REMARK    2  A    between atoms: O1_4  and  C4_5 
REMARK    3  A    between atoms: C4_5  and  C5_6 
REMARK    4  A    between atoms: C5_6  and  N1_7 
REMARK    5  A    between atoms: C16_21  and  C17_22 
REMARK    6  A    between atoms: C17_22  and  C18_23 
REMARK    7  A    between atoms: C18_23  and  C19_24 
REMARK    8  A    between atoms: C21_26  and  O4_27 
REMARK    9  A    between atoms: C22_29  and  O5_30 
ROOT
HETATM    1  C1  UNL     1      11.888  20.817   3.648  1.00  0.00     0.015 C 
HETATM    2  C2  UNL     1      10.894  21.507   4.575  1.00  0.00     0.043 C 
HETATM    3  C3  UNL     1      10.207  22.630   3.787  1.00  0.00     0.264 C 
HETATM    4  O2  UNL     1      10.968  23.787   4.108  1.00  0.00    -0.355 OA
HETATM    5  C10 UNL     1      10.949  23.655   5.485  1.00  0.00     0.135 C 
HETATM    6  C11 UNL     1      11.689  24.661   6.269  1.00  0.00     0.040 C 
HETATM    7  C12 UNL     1      13.044  24.997   5.792  1.00  0.00     0.182 C 
HETATM    8  O3  UNL     1      14.092  24.195   6.195  1.00  0.00    -0.350 OA
HETATM    9  C13 UNL     1      14.342  23.306   7.211  1.00  0.00     0.076 A 
HETATM   10  C14 UNL     1      15.681  23.052   7.391  1.00  0.00     0.057 A 
HETATM   11  C15 UNL     1      16.119  22.182   8.368  1.00  0.00     0.019 A 
HETATM   12 BR1  UNL     1      17.951  21.777   8.662  1.00  0.00    -0.050 Br
HETATM   13  C16 UNL     1      15.169  21.579   9.157  1.00  0.00    -0.040 A 
HETATM   14  C23 UNL     1      13.815  21.827   8.986  1.00  0.00     0.019 A 
HETATM   15  C24 UNL     1      13.425  22.701   8.000  1.00  0.00    -0.020 A 
HETATM   16  C25 UNL     1      11.942  22.830   7.985  1.00  0.00     0.022 C 
HETATM   17  C26 UNL     1      11.621  24.255   7.728  1.00  0.00     0.018 C 
HETATM   18  C27 UNL     1      11.383  21.851   7.018  1.00  0.00     0.017 C 
HETATM   19  C28 UNL     1      11.644  22.297   5.624  1.00  0.00     0.024 C 
ENDROOT
BRANCH  13  20
HETATM   20  C17 UNL     1      15.518  20.636  10.249  1.00  0.00     0.040 C 
BRANCH  20  21
HETATM   21  C18 UNL     1      15.681  19.263   9.619  1.00  0.00     0.012 C 
BRANCH  21  22
HETATM   22  C19 UNL     1      16.634  18.474  10.493  1.00  0.00     0.020 C 
HETATM   23  C20 UNL     1      16.253  17.032  10.718  1.00  0.00     0.041 C 
HETATM   24  C21 UNL     1      17.679  16.644  10.394  1.00  0.00     0.147 C 
HETATM   25  C22 UNL     1      17.864  17.997   9.754  1.00  0.00     0.151 C 
BRANCH  24  26
HETATM   26  O4  UNL     1      18.419  16.456  11.578  1.00  0.00    -0.393 OA
ATOM     27  H4  UNL     1      18.988  17.200  11.735  1.00  0.00     0.210 HD
ENDBRANCH  24  26
BRANCH  25  28
HETATM   28  O5  UNL     1      19.039  18.662  10.107  1.00  0.00    -0.393 OA
ATOM     29  H5  UNL     1      19.105  19.546   9.764  1.00  0.00     0.210 HD
ENDBRANCH  25  28
ENDBRANCH  21  22
ENDBRANCH  20  21
ENDBRANCH  13  20
BRANCH   3  30
HETATM   30  O1  UNL     1      10.155  22.388   2.456  1.00  0.00    -0.359 OA
BRANCH  30  31
HETATM   31  C4  UNL     1       8.867  22.243   2.020  1.00  0.00     0.201 C 
BRANCH  31  32
HETATM   32  C5  UNL     1       7.822  23.013   2.749  1.00  0.00     0.298 C 
BRANCH  32  33
HETATM   33  N1  UNL     1       7.158  24.036   1.991  1.00  0.00     0.090 N 
HETATM   34  C6  UNL     1       8.055  25.161   1.800  1.00  0.00     0.272 C 
HETATM   35  C7  UNL     1       8.257  25.754   3.182  1.00  0.00     0.032 C 
HETATM   36  C8  UNL     1       6.962  25.384   3.874  1.00  0.00     0.032 C 
HETATM   37  C9  UNL     1       6.136  24.594   2.900  1.00  0.00     0.272 C 
ENDBRANCH  32  33
ENDBRANCH  31  32
ENDBRANCH  30  31
ENDBRANCH   3  30
TORSDOF 9
ENDMDL
MODEL 3
REMARK VINA RESULT: -9.133964368      3.421      9.922
REMARK  9 active torsions:
REMARK  status: ('A' for Active; 'I' for Inactive)
REMARK    1  A    between atoms: C3_3  and  O1_4 
REMARK    2  A    between atoms: O1_4  and  C4_5 
REMARK    3  A    between atoms: C4_5  and  C5_6 
REMARK    4  A    between atoms: C5_6  and  N1_7 
REMARK    5  A    between atoms: C16_21  and  C17_22 
REMARK    6  A    between atoms: C17_22  and  C18_23 
REMARK    7  A    between atoms: C18_23  and  C19_24 
REMARK    8  A    between atoms: C21_26  and  O4_27 
REMARK    9  A    between atoms: C22_29  and  O5_30 
ROOT
HETATM    1  C1  UNL     1      13.007  25.290   4.835  1.00  0.00     0.015 C 
HETATM    2  C2  UNL     1      12.450  24.153   3.985  1.00  0.00     0.043 C 
HETATM    3  C3  UNL     1      10.920  24.175   4.102  1.00  0.00     0.264 C 
HETATM    4  O2  UNL     1      10.644  23.238   5.135  1.00  0.00    -0.355 OA
HETATM    5  C10 UNL     1      11.389  22.181   4.643  1.00  0.00     0.135 C 
HETATM    6  C11 UNL     1      11.432  20.951   5.453  1.00  0.00     0.040 C 
HETATM    7  C12 UNL     1      11.662  21.126   6.900  1.00  0.00     0.182 C 
HETATM    8  O3  UNL     1      12.964  21.231   7.342  1.00  0.00    -0.350 OA
HETATM    9  C13 UNL     1      14.212  20.897   6.877  1.00  0.00     0.076 A 
HETATM   10  C14 UNL     1      15.169  20.869   7.865  1.00  0.00     0.057 A 
HETATM   11  C15 UNL     1      16.481  20.552   7.579  1.00  0.00     0.019 A 
HETATM   12 BR1  UNL     1      17.853  20.506   8.891  1.00  0.00    -0.050 Br
HETATM   13  C16 UNL     1      16.798  20.264   6.274  1.00  0.00    -0.040 A 
HETATM   14  C23 UNL     1      15.842  20.290   5.269  1.00  0.00     0.019 A 
HETATM   15  C24 UNL     1      14.548  20.611   5.598  1.00  0.00    -0.020 A 
HETATM   16  C25 UNL     1      13.686  20.577   4.386  1.00  0.00     0.022 C 
HETATM   17  C26 UNL     1      12.384  19.984   4.779  1.00  0.00     0.018 C 
HETATM   18  C27 UNL     1      13.630  21.940   3.797  1.00  0.00     0.017 C 
HETATM   19  C28 UNL     1      12.779  22.827   4.633  1.00  0.00     0.024 C 
ENDROOT
BRANCH  13  20
HETATM   20  C17 UNL     1      18.172  19.897   5.847  1.00  0.00     0.040 C 
BRANCH  20  21
HETATM   21  C18 UNL     1      18.035  18.916   4.695  1.00  0.00     0.012 C 
BRANCH  21  22
HETATM   22  C19 UNL     1      17.880  17.533   5.293  1.00  0.00     0.020 C 
HETATM   23  C20 UNL     1      18.477  16.411   4.478  1.00  0.00     0.041 C 
HETATM   24  C21 UNL     1      19.120  15.886   5.742  1.00  0.00     0.147 C 
HETATM   25  C22 UNL     1      18.890  17.235   6.378  1.00  0.00     0.151 C 
BRANCH  24  26
HETATM   26  O4  UNL     1      18.347  14.847   6.293  1.00  0.00    -0.393 OA
ATOM     27  H4  UNL     1      18.886  14.081   6.453  1.00  0.00     0.210 HD
ENDBRANCH  24  26
BRANCH  25  28
HETATM   28  O5  UNL     1      18.354  17.199   7.665  1.00  0.00    -0.393 OA
ATOM     29  H5  UNL     1      19.003  17.236   8.358  1.00  0.00     0.210 HD
ENDBRANCH  25  28
ENDBRANCH  21  22
ENDBRANCH  20  21
ENDBRANCH  13  20
BRANCH   3  30
HETATM   30  O1  UNL     1      10.426  25.408   4.366  1.00  0.00    -0.359 OA
BRANCH  30  31
HETATM   31  C4  UNL     1       9.326  25.347   5.176  1.00  0.00     0.201 C 
BRANCH  31  32
HETATM   32  C5  UNL     1       9.338  26.210   6.389  1.00  0.00     0.298 C 
BRANCH  32  33
HETATM   33  N1  UNL     1      10.118  25.726   7.493  1.00  0.00     0.090 N 
HETATM   34  C6  UNL     1       9.427  24.620   8.131  1.00  0.00     0.272 C 
HETATM   35  C7  UNL     1       8.186  25.230   8.756  1.00  0.00     0.032 C 
HETATM   36  C8  UNL     1       8.635  26.651   9.023  1.00  0.00     0.032 C 
HETATM   37  C9  UNL     1      10.043  26.784   8.519  1.00  0.00     0.272 C 
ENDBRANCH  32  33
ENDBRANCH  31  32
ENDBRANCH  30  31
ENDBRANCH   3  30
TORSDOF 9
ENDMDL
MODEL 4
REMARK VINA RESULT: -9.120358991      1.876      3.033
REMARK  9 active torsions:
REMARK  status: ('A' for Active; 'I' for Inactive)
REMARK    1  A    between atoms: C3_3  and  O1_4 
REMARK    2  A    between atoms: O1_4  and  C4_5 
REMARK    3  A    between atoms: C4_5  and  C5_6 
REMARK    4  A    between atoms: C5_6  and  N1_7 
REMARK    5  A    between atoms: C16_21  and  C17_22 
REMARK    6  A    between atoms: C17_22  and  C18_23 
REMARK    7  A    between atoms: C18_23  and  C19_24 
REMARK    8  A    between atoms: C21_26  and  O4_27 
REMARK    9  A    between atoms: C22_29  and  O5_30 
ROOT
HETATM    1  C1  UNL     1      12.653  20.493   3.217  1.00  0.00     0.015 C 
HETATM    2  C2  UNL     1      13.940  21.258   3.505  1.00  0.00     0.043 C 
HETATM    3  C3  UNL     1      15.042  20.235   3.818  1.00  0.00     0.264 C 
HETATM    4  O2  UNL     1      15.038  20.153   5.237  1.00  0.00    -0.355 OA
HETATM    5  C10 UNL     1      15.109  21.508   5.510  1.00  0.00     0.135 C 
HETATM    6  C11 UNL     1      15.084  21.912   6.927  1.00  0.00     0.040 C 
HETATM    7  C12 UNL     1      14.073  21.257   7.779  1.00  0.00     0.182 C 
HETATM    8  O3  UNL     1      12.802  21.791   7.806  1.00  0.00    -0.350 OA
HETATM    9  C13 UNL     1      12.214  22.997   7.514  1.00  0.00     0.076 A 
HETATM   10  C14 UNL     1      10.964  23.139   8.069  1.00  0.00     0.057 A 
HETATM   11  C15 UNL     1      10.225  24.289   7.880  1.00  0.00     0.019 A 
HETATM   12 BR1  UNL     1       8.490  24.546   8.608  1.00  0.00    -0.050 Br
HETATM   13  C16 UNL     1      10.781  25.287   7.118  1.00  0.00    -0.040 A 
HETATM   14  C23 UNL     1      12.041  25.156   6.551  1.00  0.00     0.019 A 
HETATM   15  C24 UNL     1      12.741  23.994   6.766  1.00  0.00    -0.020 A 
HETATM   16  C25 UNL     1      14.061  24.056   6.081  1.00  0.00     0.022 C 
HETATM   17  C26 UNL     1      15.061  23.426   6.978  1.00  0.00     0.018 C 
HETATM   18  C27 UNL     1      13.930  23.455   4.728  1.00  0.00     0.017 C 
HETATM   19  C28 UNL     1      13.818  21.976   4.830  1.00  0.00     0.024 C 
ENDROOT
BRANCH  13  20
HETATM   20  C17 UNL     1      10.088  26.573   6.856  1.00  0.00     0.040 C 
BRANCH  20  21
HETATM   21  C18 UNL     1       9.147  26.344   5.685  1.00  0.00     0.012 C 
BRANCH  21  22
HETATM   22  C19 UNL     1       8.011  27.338   5.816  1.00  0.00     0.020 C 
HETATM   23  C20 UNL     1       6.627  26.751   5.686  1.00  0.00     0.041 C 
HETATM   24  C21 UNL     1       6.226  27.520   6.925  1.00  0.00     0.147 C 
HETATM   25  C22 UNL     1       7.689  27.690   7.250  1.00  0.00     0.151 C 
BRANCH  24  26
HETATM   26  O4  UNL     1       5.568  28.713   6.572  1.00  0.00    -0.393 OA
ATOM     27  H4  UNL     1       4.872  28.905   7.190  1.00  0.00     0.210 HD
ENDBRANCH  24  26
BRANCH  25  28
HETATM   28  O5  UNL     1       8.066  28.981   7.622  1.00  0.00    -0.393 OA
ATOM     29  H5  UNL     1       8.815  29.320   7.146  1.00  0.00     0.210 HD
ENDBRANCH  25  28
ENDBRANCH  21  22
ENDBRANCH  20  21
ENDBRANCH  13  20
BRANCH   3  30
HETATM   30  O1  UNL     1      14.838  19.037   3.222  1.00  0.00    -0.359 OA
BRANCH  30  31
HETATM   31  C4  UNL     1      15.976  18.573   2.621  1.00  0.00     0.201 C 
BRANCH  31  32
HETATM   32  C5  UNL     1      16.769  17.564   3.378  1.00  0.00     0.298 C 
BRANCH  32  33
HETATM   33  N1  UNL     1      18.174  17.833   3.493  1.00  0.00     0.090 N 
HETATM   34  C6  UNL     1      18.831  16.719   4.153  1.00  0.00     0.272 C 
HETATM   35  C7  UNL     1      18.305  16.728   5.576  1.00  0.00     0.032 C 
HETATM   36  C8  UNL     1      17.978  18.193   5.780  1.00  0.00     0.032 C 
HETATM   37  C9  UNL     1      18.286  18.909   4.497  1.00  0.00     0.272 C 
ENDBRANCH  32  33
ENDBRANCH  31  32
ENDBRANCH  30  31
ENDBRANCH   3  30
TORSDOF 9
ENDMDL
MODEL 5
REMARK VINA RESULT: -9.011943954      3.555      9.830
REMARK  9 active torsions:
REMARK  status: ('A' for Active; 'I' for Inactive)
REMARK    1  A    between atoms: C3_3  and  O1_4 
REMARK    2  A    between atoms: O1_4  and  C4_5 
REMARK    3  A    between atoms: C4_5  and  C5_6 
REMARK    4  A    between atoms: C5_6  and  N1_7 
REMARK    5  A    between atoms: C16_21  and  C17_22 
REMARK    6  A    between atoms: C17_22  and  C18_23 
REMARK    7  A    between atoms: C18_23  and  C19_24 
REMARK    8  A    between atoms: C21_26  and  O4_27 
REMARK    9  A    between atoms: C22_29  and  O5_30 
ROOT
HETATM    1  C1  UNL     1       8.936  23.325   3.665  1.00  0.00     0.015 C 
HETATM    2  C2  UNL     1       9.382  23.398   5.121  1.00  0.00     0.043 C 
HETATM    3  C3  UNL     1       9.360  24.871   5.554  1.00  0.00     0.264 C 
HETATM    4  O2  UNL     1      10.699  25.304   5.356  1.00  0.00    -0.355 OA
HETATM    5  C10 UNL     1      11.337  24.284   6.039  1.00  0.00     0.135 C 
HETATM    6  C11 UNL     1      12.810  24.303   6.058  1.00  0.00     0.040 C 
HETATM    7  C12 UNL     1      13.479  24.570   4.771  1.00  0.00     0.182 C 
HETATM    8  O3  UNL     1      13.697  23.507   3.919  1.00  0.00    -0.350 OA
HETATM    9  C13 UNL     1      13.773  22.140   4.019  1.00  0.00     0.076 A 
HETATM   10  C14 UNL     1      14.388  21.550   2.941  1.00  0.00     0.057 A 
HETATM   11  C15 UNL     1      14.551  20.182   2.871  1.00  0.00     0.019 A 
HETATM   12 BR1  UNL     1      15.381  19.302   1.406  1.00  0.00    -0.050 Br
HETATM   13  C16 UNL     1      14.079  19.429   3.918  1.00  0.00    -0.040 A 
HETATM   14  C23 UNL     1      13.456  20.011   5.012  1.00  0.00     0.019 A 
HETATM   15  C24 UNL     1      13.314  21.377   5.039  1.00  0.00    -0.020 A 
HETATM   16  C25 UNL     1      12.629  21.798   6.292  1.00  0.00     0.022 C 
HETATM   17  C26 UNL     1      13.281  23.045   6.761  1.00  0.00     0.018 C 
HETATM   18  C27 UNL     1      11.168  21.883   6.036  1.00  0.00     0.017 C 
HETATM   19  C28 UNL     1      10.858  23.083   5.216  1.00  0.00     0.024 C 
ENDROOT
BRANCH  13  20
HETATM   20  C17 UNL     1      14.209  17.951   3.963  1.00  0.00     0.040 C 
BRANCH  20  21
HETATM   21  C18 UNL     1      15.628  17.613   3.534  1.00  0.00     0.012 C 
BRANCH  21  22
HETATM   22  C19 UNL     1      16.529  17.839   4.730  1.00  0.00     0.020 C 
HETATM   23  C20 UNL     1      17.629  16.821   4.906  1.00  0.00     0.041 C 
HETATM   24  C21 UNL     1      18.600  17.962   5.114  1.00  0.00     0.147 C 
HETATM   25  C22 UNL     1      17.588  18.890   4.488  1.00  0.00     0.151 C 
BRANCH  24  26
HETATM   26  O4  UNL     1      18.815  18.181   6.488  1.00  0.00    -0.393 OA
ATOM     27  H4  UNL     1      19.486  17.594   6.817  1.00  0.00     0.210 HD
ENDBRANCH  24  26
BRANCH  25  28
HETATM   28  O5  UNL     1      17.377  20.085   5.177  1.00  0.00    -0.393 OA
ATOM     29  H5  UNL     1      17.850  20.829   4.821  1.00  0.00     0.210 HD
ENDBRANCH  25  28
ENDBRANCH  21  22
ENDBRANCH  20  21
ENDBRANCH  13  20
BRANCH   3  30
HETATM   30  O1  UNL     1       8.461  25.612   4.864  1.00  0.00    -0.359 OA
BRANCH  30  31
HETATM   31  C4  UNL     1       7.768  26.458   5.687  1.00  0.00     0.201 C 
BRANCH  31  32
HETATM   32  C5  UNL     1       8.564  27.214   6.693  1.00  0.00     0.298 C 
BRANCH  32  33
HETATM   33  N1  UNL     1       7.937  27.406   7.970  1.00  0.00     0.090 N 
HETATM   34  C6  UNL     1       8.863  28.064   8.874  1.00  0.00     0.272 C 
HETATM   35  C7  UNL     1       9.970  27.056   9.119  1.00  0.00     0.032 C 
HETATM   36  C8  UNL     1       9.245  25.741   8.926  1.00  0.00     0.032 C 
HETATM   37  C9  UNL     1       7.824  26.056   8.556  1.00  0.00     0.272 C 
ENDBRANCH  32  33
ENDBRANCH  31  32
ENDBRANCH  30  31
ENDBRANCH   3  30
TORSDOF 9
ENDMDL
