MODEL 1
REMARK VINA RESULT: -9.480263763      0.000      0.000
REMARK  7 active torsions:
REMARK  status: ('A' for Active; 'I' for Inactive)
REMARK    1  A    between atoms: C1_2  and  C2_4 
REMARK    2  A    between atoms: C2_4  and  C3_5 
REMARK    3  A    between atoms: C3_5  and  N2_6 
REMARK    4  A    between atoms: N3_9  and  C6_10 
REMARK    5  A    between atoms: C13_19  and  C14_20 
REMARK       I    between atoms: C14_20  and  N4_22 
REMARK    6  A    between atoms: N4_22  and  C15_24 
REMARK    7  A    between atoms: N5_31  and  C22_32 
ROOT
HETATM    1  C6  UNL     1      12.756  22.429   5.953  1.00  0.00     0.050 A 
HETATM    2  C7  UNL     1      13.897  22.401   6.739  1.00  0.00     0.061 A 
HETATM    3  C8  UNL     1      14.921  21.482   6.474  1.00  0.00     0.051 A 
HETATM    4  C9  UNL     1      14.777  20.609   5.421  1.00  0.00     0.043 A 
HETATM    5  C10 UNL     1      13.647  20.627   4.625  1.00  0.00     0.039 A 
HETATM    6  C11 UNL     1      12.659  21.551   4.922  1.00  0.00     0.038 A 
HETATM    7 BR1  UNL     1      11.142  21.534   3.769  1.00  0.00    -0.049 Br
HETATM    8  C12 UNL     1      15.778  19.704   5.208  1.00  0.00     0.201 A 
HETATM    9  O2  UNL     1      15.695  18.888   4.262  1.00  0.00    -0.286 OA
HETATM   10  C13 UNL     1      16.892  19.687   6.045  1.00  0.00     0.098 A 
HETATM   11  C21 UNL     1      16.966  20.588   7.070  1.00  0.00     0.113 A 
HETATM   12  N5  UNL     1      15.982  21.498   7.298  1.00  0.00    -0.350 N 
ENDROOT
BRANCH   1  13
HETATM   13  N3  UNL     1      11.726  23.337   6.260  1.00  0.00    -0.376 N 
HETATM   14  C5  UNL     1      10.713  23.075   7.279  1.00  0.00     0.153 C 
HETATM   15  C4  UNL     1       9.504  23.954   7.059  1.00  0.00     0.292 C 
HETATM   16  N2  UNL     1       9.810  25.336   7.038  1.00  0.00     0.092 N 
HETATM   17  C26 UNL     1      11.015  25.701   6.388  1.00  0.00     0.292 C 
HETATM   18  C25 UNL     1      11.619  24.597   5.556  1.00  0.00     0.153 C 
BRANCH  16  19
HETATM   19  C3  UNL     1       8.719  26.080   6.455  1.00  0.00     0.281 C 
BRANCH  19  20
HETATM   20  C2  UNL     1       7.686  26.462   7.460  1.00  0.00     0.129 C 
BRANCH  20  21
HETATM   21  C1  UNL     1       8.078  27.714   8.131  1.00  0.00     0.232 C 
HETATM   22  N1  UNL     1       8.039  27.884   9.549  1.00  0.00    -0.062 NA
HETATM   23  O1  UNL     1       8.469  28.687   7.437  1.00  0.00    -0.277 OA
ENDBRANCH  20  21
ENDBRANCH  19  20
ENDBRANCH  16  19
ENDBRANCH   1  13
BRANCH  12  24
HETATM   24  C22 UNL     1      16.147  22.460   8.386  1.00  0.00     0.090 A 
HETATM   25  C23 UNL     1      15.940  21.961   9.781  1.00  0.00     0.028 A 
HETATM   26  C24 UNL     1      17.358  22.217   9.254  1.00  0.00     0.028 A 
ENDBRANCH  12  24
BRANCH  10  27
HETATM   27  C14 UNL     1      17.880  18.667   5.731  1.00  0.00     0.257 C 
HETATM   28  O3  UNL     1      18.592  18.906   4.687  1.00  0.00    -0.267 OA
HETATM   29  N4  UNL     1      18.115  17.484   6.445  1.00  0.00    -0.352 N 
ATOM     30  H4  UNL     1      17.521  17.278   7.249  1.00  0.00     0.163 HD
BRANCH  29  31
HETATM   31  C15 UNL     1      19.162  16.537   6.101  1.00  0.00     0.084 C 
HETATM   32  C16 UNL     1      19.769  15.916   7.320  1.00  0.00     0.025 C 
HETATM   33  C17 UNL     1      19.562  14.415   7.357  1.00  0.00     0.002 C 
HETATM   34  C18 UNL     1      20.070  13.756   6.113  1.00  0.00     0.000 C 
HETATM   35  C19 UNL     1      19.603  14.434   4.842  1.00  0.00     0.002 C 
HETATM   36  C20 UNL     1      18.569  15.511   5.157  1.00  0.00     0.025 C 
ENDBRANCH  29  31
ENDBRANCH  10  27
TORSDOF 7
ENDMDL
MODEL 2
REMARK VINA RESULT: -9.397952996      0.727      1.106
REMARK  7 active torsions:
REMARK  status: ('A' for Active; 'I' for Inactive)
REMARK    1  A    between atoms: C1_2  and  C2_4 
REMARK    2  A    between atoms: C2_4  and  C3_5 
REMARK    3  A    between atoms: C3_5  and  N2_6 
REMARK    4  A    between atoms: N3_9  and  C6_10 
REMARK    5  A    between atoms: C13_19  and  C14_20 
REMARK       I    between atoms: C14_20  and  N4_22 
REMARK    6  A    between atoms: N4_22  and  C15_24 
REMARK    7  A    between atoms: N5_31  and  C22_32 
ROOT
HETATM    1  C6  UNL     1      12.951  22.388   5.978  1.00  0.00     0.050 A 
HETATM    2  C7  UNL     1      14.094  22.322   6.760  1.00  0.00     0.061 A 
HETATM    3  C8  UNL     1      15.099  21.389   6.476  1.00  0.00     0.051 A 
HETATM    4  C9  UNL     1      14.936  20.539   5.407  1.00  0.00     0.043 A 
HETATM    5  C10 UNL     1      13.804  20.594   4.614  1.00  0.00     0.039 A 
HETATM    6  C11 UNL     1      12.835  21.531   4.931  1.00  0.00     0.038 A 
HETATM    7 BR1  UNL     1      11.315  21.565   3.782  1.00  0.00    -0.049 Br
HETATM    8  C12 UNL     1      15.918  19.619   5.174  1.00  0.00     0.201 A 
HETATM    9  O2  UNL     1      15.817  18.823   4.213  1.00  0.00    -0.286 OA
HETATM   10  C13 UNL     1      17.034  19.565   6.008  1.00  0.00     0.098 A 
HETATM   11  C21 UNL     1      17.127  20.445   7.049  1.00  0.00     0.113 A 
HETATM   12  N5  UNL     1      16.162  21.370   7.296  1.00  0.00    -0.350 N 
ENDROOT
BRANCH   1  13
HETATM   13  N3  UNL     1      11.940  23.309   6.304  1.00  0.00    -0.376 N 
HETATM   14  C5  UNL     1      11.998  24.719   5.928  1.00  0.00     0.153 C 
HETATM   15  C4  UNL     1      11.067  25.535   6.793  1.00  0.00     0.292 C 
HETATM   16  N2  UNL     1       9.725  25.088   6.753  1.00  0.00     0.092 N 
HETATM   17  C26 UNL     1       9.532  23.684   6.722  1.00  0.00     0.292 C 
HETATM   18  C25 UNL     1      10.772  22.891   7.051  1.00  0.00     0.153 C 
BRANCH  16  19
HETATM   19  C3  UNL     1       8.982  25.639   7.861  1.00  0.00     0.281 C 
BRANCH  19  20
HETATM   20  C2  UNL     1       9.624  26.857   8.431  1.00  0.00     0.129 C 
BRANCH  20  21
HETATM   21  C1  UNL     1       8.626  27.931   8.573  1.00  0.00     0.232 C 
HETATM   22  N1  UNL     1       8.141  28.698   7.469  1.00  0.00    -0.062 NA
HETATM   23  O1  UNL     1       8.168  28.198   9.714  1.00  0.00    -0.277 OA
ENDBRANCH  20  21
ENDBRANCH  19  20
ENDBRANCH  16  19
ENDBRANCH   1  13
BRANCH  12  24
HETATM   24  C22 UNL     1      16.348  22.308   8.401  1.00  0.00     0.090 A 
HETATM   25  C23 UNL     1      16.167  21.778   9.789  1.00  0.00     0.028 A 
HETATM   26  C24 UNL     1      17.576  22.045   9.241  1.00  0.00     0.028 A 
ENDBRANCH  12  24
BRANCH  10  27
HETATM   27  C14 UNL     1      18.001  18.532   5.672  1.00  0.00     0.257 C 
HETATM   28  O3  UNL     1      18.668  18.744   4.592  1.00  0.00    -0.267 OA
HETATM   29  N4  UNL     1      18.261  17.363   6.400  1.00  0.00    -0.352 N 
ATOM     30  H4  UNL     1      17.701  17.177   7.233  1.00  0.00     0.163 HD
BRANCH  29  31
HETATM   31  C15 UNL     1      19.286  16.402   6.030  1.00  0.00     0.084 C 
HETATM   32  C16 UNL     1      19.966  15.827   7.232  1.00  0.00     0.025 C 
HETATM   33  C17 UNL     1      19.763  14.329   7.340  1.00  0.00     0.002 C 
HETATM   34  C18 UNL     1      20.195  13.622   6.094  1.00  0.00     0.000 C 
HETATM   35  C19 UNL     1      19.653  14.251   4.828  1.00  0.00     0.002 C 
HETATM   36  C20 UNL     1      18.638  15.341   5.163  1.00  0.00     0.025 C 
ENDBRANCH  29  31
ENDBRANCH  10  27
TORSDOF 7
ENDMDL
MODEL 3
REMARK VINA RESULT: -9.389375329      3.292     12.285
REMARK  7 active torsions:
REMARK  status: ('A' for Active; 'I' for Inactive)
REMARK    1  A    between atoms: C1_2  and  C2_4 
REMARK    2  A    between atoms: C2_4  and  C3_5 
REMARK    3  A    between atoms: C3_5  and  N2_6 
REMARK    4  A    between atoms: N3_9  and  C6_10 
REMARK    5  A    between atoms: C13_19  and  C14_20 
REMARK       I    between atoms: C14_20  and  N4_22 
REMARK    6  A    between atoms: N4_22  and  C15_24 
REMARK    7  A    between atoms: N5_31  and  C22_32 
ROOT
HETATM    1  C6  UNL     1      11.934  22.951   5.452  1.00  0.00     0.050 A 
HETATM    2  C7  UNL     1      11.058  23.566   4.573  1.00  0.00     0.061 A 
HETATM    3  C8  UNL     1      10.087  24.459   5.043  1.00  0.00     0.051 A 
HETATM    4  C9  UNL     1      10.017  24.718   6.393  1.00  0.00     0.043 A 
HETATM    5  C10 UNL     1      10.887  24.116   7.283  1.00  0.00     0.039 A 
HETATM    6  C11 UNL     1      11.832  23.239   6.775  1.00  0.00     0.038 A 
HETATM    7 BR1  UNL     1      13.011  22.465   8.057  1.00  0.00    -0.049 Br
HETATM    8  C12 UNL     1       9.039  25.568   6.825  1.00  0.00     0.201 A 
HETATM    9  O2  UNL     1       8.935  25.837   8.044  1.00  0.00    -0.286 OA
HETATM   10  C13 UNL     1       8.156  26.137   5.909  1.00  0.00     0.098 A 
HETATM   11  C21 UNL     1       8.289  25.835   4.583  1.00  0.00     0.113 A 
HETATM   12  N5  UNL     1       9.257  24.992   4.132  1.00  0.00    -0.350 N 
ENDROOT
BRANCH   1  13
HETATM   13  N3  UNL     1      12.878  22.031   4.960  1.00  0.00    -0.376 N 
HETATM   14  C5  UNL     1      14.245  22.407   4.608  1.00  0.00     0.153 C 
HETATM   15  C4  UNL     1      14.854  21.377   3.686  1.00  0.00     0.292 C 
HETATM   16  N2  UNL     1      14.845  20.067   4.222  1.00  0.00     0.092 N 
HETATM   17  C26 UNL     1      13.687  19.695   4.949  1.00  0.00     0.292 C 
HETATM   18  C25 UNL     1      12.525  20.640   4.771  1.00  0.00     0.153 C 
BRANCH  16  19
HETATM   19  C3  UNL     1      15.073  19.098   3.176  1.00  0.00     0.281 C 
BRANCH  19  20
HETATM   20  C2  UNL     1      16.039  18.037   3.581  1.00  0.00     0.129 C 
BRANCH  20  21
HETATM   21  C1  UNL     1      17.419  18.512   3.380  1.00  0.00     0.232 C 
HETATM   22  N1  UNL     1      18.261  18.939   4.452  1.00  0.00    -0.062 NA
HETATM   23  O1  UNL     1      17.893  18.548   2.216  1.00  0.00    -0.277 OA
ENDBRANCH  20  21
ENDBRANCH  19  20
ENDBRANCH  16  19
ENDBRANCH   1  13
BRANCH  12  24
HETATM   24  C22 UNL     1       9.368  24.748   2.696  1.00  0.00     0.090 A 
HETATM   25  C23 UNL     1       8.174  24.168   2.004  1.00  0.00     0.028 A 
HETATM   26  C24 UNL     1       8.514  25.656   1.842  1.00  0.00     0.028 A 
ENDBRANCH  12  24
BRANCH  10  27
HETATM   27  C14 UNL     1       7.147  27.009   6.490  1.00  0.00     0.257 C 
HETATM   28  O3  UNL     1       7.534  28.217   6.706  1.00  0.00    -0.267 OA
HETATM   29  N4  UNL     1       5.833  26.658   6.825  1.00  0.00    -0.352 N 
ATOM     30  H4  UNL     1       5.542  25.689   6.691  1.00  0.00     0.163 HD
BRANCH  29  31
HETATM   31  C15 UNL     1       4.862  27.602   7.352  1.00  0.00     0.084 C 
HETATM   32  C16 UNL     1       4.675  28.771   6.437  1.00  0.00     0.025 C 
HETATM   33  C17 UNL     1       3.254  28.864   5.917  1.00  0.00     0.002 C 
HETATM   34  C18 UNL     1       2.257  28.894   7.032  1.00  0.00     0.000 C 
HETATM   35  C19 UNL     1       2.488  27.817   8.072  1.00  0.00     0.002 C 
HETATM   36  C20 UNL     1       3.572  26.849   7.610  1.00  0.00     0.025 C 
ENDBRANCH  29  31
ENDBRANCH  10  27
TORSDOF 7
ENDMDL
MODEL 4
REMARK VINA RESULT: -9.317532883      2.185     10.533
REMARK  7 active torsions:
REMARK  status: ('A' for Active; 'I' for Inactive)
REMARK    1  A    between atoms: C1_2  and  C2_4 
REMARK    2  A    between atoms: C2_4  and  C3_5 
REMARK    3  A    between atoms: C3_5  and  N2_6 
REMARK    4  A    between atoms: N3_9  and  C6_10 
REMARK    5  A    between atoms: C13_19  and  C14_20 
REMARK       I    between atoms: C14_20  and  N4_22 
REMARK    6  A    between atoms: N4_22  and  C15_24 
REMARK    7  A    between atoms: N5_31  and  C22_32 
ROOT
HETATM    1  C6  UNL     1      15.081  20.152   4.981  1.00  0.00     0.050 A 
HETATM    2  C7  UNL     1      14.866  20.529   6.297  1.00  0.00     0.061 A 
HETATM    3  C8  UNL     1      13.997  21.584   6.603  1.00  0.00     0.051 A 
HETATM    4  C9  UNL     1      13.357  22.240   5.576  1.00  0.00     0.043 A 
HETATM    5  C10 UNL     1      13.557  21.873   4.258  1.00  0.00     0.039 A 
HETATM    6  C11 UNL     1      14.425  20.824   4.001  1.00  0.00     0.038 A 
HETATM    7 BR1  UNL     1      14.633  20.360   2.164  1.00  0.00    -0.049 Br
HETATM    8  C12 UNL     1      12.541  23.285   5.904  1.00  0.00     0.201 A 
HETATM    9  O2  UNL     1      11.936  23.913   5.005  1.00  0.00    -0.286 OA
HETATM   10  C13 UNL     1      12.382  23.653   7.239  1.00  0.00     0.098 A 
HETATM   11  C21 UNL     1      13.048  22.952   8.204  1.00  0.00     0.113 A 
HETATM   12  N5  UNL     1      13.863  21.907   7.900  1.00  0.00    -0.350 N 
ENDROOT
BRANCH   1  13
HETATM   13  N3  UNL     1      15.985  19.112   4.697  1.00  0.00    -0.376 N 
HETATM   14  C5  UNL     1      15.563  17.808   4.194  1.00  0.00     0.153 C 
HETATM   15  C4  UNL     1      16.638  16.775   4.438  1.00  0.00     0.292 C 
HETATM   16  N2  UNL     1      17.888  17.120   3.872  1.00  0.00     0.092 N 
HETATM   17  C26 UNL     1      18.258  18.486   3.953  1.00  0.00     0.292 C 
HETATM   18  C25 UNL     1      17.406  19.293   4.901  1.00  0.00     0.153 C 
BRANCH  16  19
HETATM   19  C3  UNL     1      18.937  16.315   4.450  1.00  0.00     0.281 C 
BRANCH  19  20
HETATM   20  C2  UNL     1      18.530  15.685   5.738  1.00  0.00     0.129 C 
BRANCH  20  21
HETATM   21  C1  UNL     1      19.243  16.324   6.858  1.00  0.00     0.232 C 
HETATM   22  N1  UNL     1      20.510  15.869   7.336  1.00  0.00    -0.062 NA
HETATM   23  O1  UNL     1      18.725  17.317   7.429  1.00  0.00    -0.277 OA
ENDBRANCH  20  21
ENDBRANCH  19  20
ENDBRANCH  16  19
ENDBRANCH   1  13
BRANCH  12  24
HETATM   24  C22 UNL     1      14.510  21.175   8.987  1.00  0.00     0.090 A 
HETATM   25  C23 UNL     1      15.500  21.923   9.823  1.00  0.00     0.028 A 
HETATM   26  C24 UNL     1      14.098  21.622  10.370  1.00  0.00     0.028 A 
ENDBRANCH  12  24
BRANCH  10  27
HETATM   27  C14 UNL     1      11.504  24.792   7.460  1.00  0.00     0.257 C 
HETATM   28  O3  UNL     1      11.999  25.721   8.200  1.00  0.00    -0.267 OA
HETATM   29  N4  UNL     1      10.208  24.958   6.954  1.00  0.00    -0.352 N 
ATOM     30  H4  UNL     1       9.804  24.201   6.402  1.00  0.00     0.163 HD
BRANCH  29  31
HETATM   31  C15 UNL     1       9.412  26.153   7.174  1.00  0.00     0.084 C 
HETATM   32  C16 UNL     1       8.888  26.713   5.889  1.00  0.00     0.025 C 
HETATM   33  C17 UNL     1       7.373  26.710   5.841  1.00  0.00     0.002 C 
HETATM   34  C18 UNL     1       6.782  27.424   7.015  1.00  0.00     0.000 C 
HETATM   35  C19 UNL     1       7.380  27.000   8.340  1.00  0.00     0.002 C 
HETATM   36  C20 UNL     1       8.307  25.803   8.151  1.00  0.00     0.025 C 
ENDBRANCH  29  31
ENDBRANCH  10  27
TORSDOF 7
ENDMDL
MODEL 5
REMARK VINA RESULT: -9.062203051      3.068      5.214
REMARK  7 active torsions:
REMARK  status: ('A' for Active; 'I' for Inactive)
REMARK    1  A    between atoms: C1_2  and  C2_4 
REMARK    2  A    between atoms: C2_4  and  C3_5 
REMARK    3  A    between atoms: C3_5  and  N2_6 
REMARK    4  A    between atoms: N3_9  and  C6_10 
REMARK    5  A    between atoms: C13_19  and  C14_20 
REMARK       I    between atoms: C14_20  and  N4_22 
REMARK    6  A    between atoms: N4_22  and  C15_24 
REMARK    7  A    between atoms: N5_31  and  C22_32 
ROOT
HETATM    1  C6  UNL     1      10.060  24.848   6.595  1.00  0.00     0.050 A 
HETATM    2  C7  UNL     1       9.898  23.957   5.547  1.00  0.00     0.061 A 
HETATM    3  C8  UNL     1      10.974  23.180   5.099  1.00  0.00     0.051 A 
HETATM    4  C9  UNL     1      12.195  23.313   5.718  1.00  0.00     0.043 A 
HETATM    5  C10 UNL     1      12.373  24.195   6.769  1.00  0.00     0.039 A 
HETATM    6  C11 UNL     1      11.283  24.944   7.179  1.00  0.00     0.038 A 
HETATM    7 BR1  UNL     1      11.596  26.119   8.646  1.00  0.00    -0.049 Br
HETATM    8  C12 UNL     1      13.233  22.565   5.239  1.00  0.00     0.201 A 
HETATM    9  O2  UNL     1      14.364  22.650   5.769  1.00  0.00    -0.286 OA
HETATM   10  C13 UNL     1      13.033  21.708   4.158  1.00  0.00     0.098 A 
HETATM   11  C21 UNL     1      11.789  21.627   3.597  1.00  0.00     0.113 A 
HETATM   12  N5  UNL     1      10.743  22.361   4.060  1.00  0.00    -0.350 N 
ENDROOT
BRANCH   1  13
HETATM   13  N3  UNL     1       8.974  25.643   7.004  1.00  0.00    -0.376 N 
HETATM   14  C5  UNL     1       8.264  25.431   8.262  1.00  0.00     0.153 C 
HETATM   15  C4  UNL     1       6.900  26.079   8.212  1.00  0.00     0.292 C 
HETATM   16  N2  UNL     1       6.944  27.463   7.920  1.00  0.00     0.092 N 
HETATM   17  C26 UNL     1       7.900  27.870   6.956  1.00  0.00     0.292 C 
HETATM   18  C25 UNL     1       8.499  26.728   6.172  1.00  0.00     0.153 C 
BRANCH  16  19
HETATM   19  C3  UNL     1       5.640  27.929   7.513  1.00  0.00     0.281 C 
BRANCH  19  20
HETATM   20  C2  UNL     1       4.769  26.827   7.016  1.00  0.00     0.129 C 
BRANCH  20  21
HETATM   21  C1  UNL     1       4.509  27.003   5.576  1.00  0.00     0.232 C 
HETATM   22  N1  UNL     1       5.284  26.365   4.559  1.00  0.00    -0.062 NA
HETATM   23  O1  UNL     1       3.565  27.748   5.208  1.00  0.00    -0.277 OA
ENDBRANCH  20  21
ENDBRANCH  19  20
ENDBRANCH  16  19
ENDBRANCH   1  13
BRANCH  12  24
HETATM   24  C22 UNL     1       9.431  22.191   3.439  1.00  0.00     0.090 A 
HETATM   25  C23 UNL     1       9.272  22.670   2.030  1.00  0.00     0.028 A 
HETATM   26  C24 UNL     1       9.396  21.170   2.327  1.00  0.00     0.028 A 
ENDBRANCH  12  24
BRANCH  10  27
HETATM   27  C14 UNL     1      14.216  20.980   3.726  1.00  0.00     0.257 C 
HETATM   28  O3  UNL     1      14.459  21.043   2.464  1.00  0.00    -0.267 OA
HETATM   29  N4  UNL     1      15.084  20.240   4.539  1.00  0.00    -0.352 N 
ATOM     30  H4  UNL     1      14.865  20.158   5.532  1.00  0.00     0.163 HD
BRANCH  29  31
HETATM   31  C15 UNL     1      16.281  19.584   4.041  1.00  0.00     0.084 C 
HETATM   32  C16 UNL     1      17.417  19.697   5.008  1.00  0.00     0.025 C 
HETATM   33  C17 UNL     1      17.878  18.341   5.506  1.00  0.00     0.002 C 
HETATM   34  C18 UNL     1      18.229  17.427   4.375  1.00  0.00     0.000 C 
HETATM   35  C19 UNL     1      17.175  17.384   3.289  1.00  0.00     0.002 C 
HETATM   36  C20 UNL     1      15.926  18.145   3.723  1.00  0.00     0.025 C 
ENDBRANCH  29  31
ENDBRANCH  10  27
TORSDOF 7
ENDMDL
