MODEL 1
REMARK VINA RESULT: -8.837882488      0.000      0.000
REMARK  10 active torsions:
REMARK  status: ('A' for Active; 'I' for Inactive)
REMARK    1  A    between atoms: O1_2  and  C2_3 
REMARK    2  A    between atoms: C5_6  and  C6_7 
REMARK    3  A    between atoms: C7_8  and  C8_9 
REMARK    4  A    between atoms: C9_10  and  O2_11 
REMARK    5  A    between atoms: O2_11  and  C10_12 
REMARK    6  A    between atoms: C10_12  and  C11_13 
REMARK    7  A    between atoms: C15_18  and  N1_19 
REMARK    8  A    between atoms: C18_22  and  N2_23 
REMARK    9  A    between atoms: N2_23  and  N3_25 
REMARK   10  A    between atoms: C21_29  and  S1_30 
ROOT
HETATM    1  C11 UNL     1      11.813  23.254   6.794  1.00  0.00    -0.023 A 
HETATM    2  C12 UNL     1      12.784  23.812   5.991  1.00  0.00     0.052 A 
HETATM    3  C13 UNL     1      12.608  24.927   5.259  1.00  0.00     0.119 A 
HETATM    4  F1  UNL     1      13.600  25.433   4.480  1.00  0.00    -0.206 F 
HETATM    5  C14 UNL     1      11.429  25.571   5.282  1.00  0.00     0.072 A 
HETATM    6  C15 UNL     1      10.374  25.026   6.108  1.00  0.00     0.049 A 
HETATM    7  C23 UNL     1      10.606  23.907   6.822  1.00  0.00    -0.026 A 
HETATM    8  C24 UNL     1       9.589  23.346   7.757  1.00  0.00     0.051 C 
ENDROOT
BRANCH   1   9
HETATM    9  C10 UNL     1      12.144  21.921   7.392  1.00  0.00     0.215 C 
BRANCH   9  10
HETATM   10  O2  UNL     1      12.906  21.157   6.615  1.00  0.00    -0.345 OA
BRANCH  10  11
HETATM   11  C9  UNL     1      13.829  20.728   5.825  1.00  0.00     0.095 A 
HETATM   12  C8  UNL     1      13.484  20.386   4.507  1.00  0.00     0.119 A 
HETATM   13  C28 UNL     1      14.490  19.848   3.676  1.00  0.00     0.267 A 
HETATM   14  N4  UNL     1      15.740  19.683   4.098  1.00  0.00    -0.326 N 
HETATM   15  O3  UNL     1      14.171  19.516   2.476  1.00  0.00    -0.266 OA
HETATM   16  C26 UNL     1      16.079  20.028   5.347  1.00  0.00     0.011 A 
ATOM     17  H4  UNL     1      16.442  19.294   3.468  1.00  0.00     0.169 HD
HETATM   18  C25 UNL     1      15.154  20.537   6.201  1.00  0.00     0.063 A 
HETATM   19  C27 UNL     1      17.527  19.931   5.780  1.00  0.00     0.068 C 
BRANCH  12  20
HETATM   20  C7  UNL     1      12.323  20.913   3.834  1.00  0.00    -0.053 C 
HETATM   21  C6  UNL     1      11.418  21.570   3.412  1.00  0.00    -0.061 C 
BRANCH  21  22
HETATM   22  C5  UNL     1      10.449  22.554   3.003  1.00  0.00     0.018 A 
HETATM   23  C4  UNL     1       9.106  22.130   3.092  1.00  0.00     0.023 A 
HETATM   24  C3  UNL     1       8.055  22.853   2.632  1.00  0.00     0.038 A 
HETATM   25  C2  UNL     1       8.308  24.083   2.034  1.00  0.00     0.068 A 
HETATM   26  C30 UNL     1       9.626  24.502   1.946  1.00  0.00     0.038 A 
HETATM   27  C29 UNL     1      10.702  23.736   2.430  1.00  0.00     0.023 A 
BRANCH  25  28
HETATM   28  O1  UNL     1       7.210  24.762   1.587  1.00  0.00    -0.356 OA
HETATM   29  C1  UNL     1       5.862  24.405   1.678  1.00  0.00     0.210 C 
ENDBRANCH  25  28
ENDBRANCH  21  22
ENDBRANCH  12  20
ENDBRANCH  10  11
ENDBRANCH   9  10
ENDBRANCH   1   9
BRANCH   6  30
HETATM   30  N1  UNL     1       9.249  25.886   6.065  1.00  0.00    -0.316 N 
HETATM   31  C16 UNL     1       8.395  25.696   5.004  1.00  0.00     0.100 A 
HETATM   32  C17 UNL     1       7.144  26.259   4.938  1.00  0.00     0.049 A 
HETATM   33  C18 UNL     1       6.724  27.083   6.006  1.00  0.00     0.053 A 
HETATM   34  C20 UNL     1       7.585  27.263   7.031  1.00  0.00     0.068 A 
HETATM   35  C21 UNL     1       8.843  26.649   7.032  1.00  0.00     0.078 A 
BRANCH  33  36
HETATM   36  N2  UNL     1       5.386  27.571   6.019  1.00  0.00    -0.303 N 
HETATM   37  C19 UNL     1       4.259  26.912   5.411  1.00  0.00     0.177 C 
BRANCH  36  38
HETATM   38  N3  UNL     1       5.129  28.823   6.617  1.00  0.00    -0.343 N 
ATOM     39  H32 UNL     1       5.709  29.602   6.304  1.00  0.00     0.177 HD
ATOM     40  H31 UNL     1       4.419  28.879   7.348  1.00  0.00     0.177 HD
ENDBRANCH  36  38
ENDBRANCH  33  36
BRANCH  35  41
HETATM   41  S1  UNL     1       9.836  26.968   8.474  1.00  0.00    -0.116 SA
HETATM   42  C22 UNL     1       8.799  27.980   9.597  1.00  0.00     0.097 C 
ENDBRANCH  35  41
ENDBRANCH   6  30
TORSDOF 10
ENDMDL
MODEL 2
REMARK VINA RESULT: -8.517028656      3.322     10.197
REMARK  10 active torsions:
REMARK  status: ('A' for Active; 'I' for Inactive)
REMARK    1  A    between atoms: O1_2  and  C2_3 
REMARK    2  A    between atoms: C5_6  and  C6_7 
REMARK    3  A    between atoms: C7_8  and  C8_9 
REMARK    4  A    between atoms: C9_10  and  O2_11 
REMARK    5  A    between atoms: O2_11  and  C10_12 
REMARK    6  A    between atoms: C10_12  and  C11_13 
REMARK    7  A    between atoms: C15_18  and  N1_19 
REMARK    8  A    between atoms: C18_22  and  N2_23 
REMARK    9  A    between atoms: N2_23  and  N3_25 
REMARK   10  A    between atoms: C21_29  and  S1_30 
ROOT
HETATM    1  C11 UNL     1      13.019  21.328   4.761  1.00  0.00    -0.023 A 
HETATM    2  C12 UNL     1      13.502  22.614   4.660  1.00  0.00     0.052 A 
HETATM    3  C13 UNL     1      14.810  22.930   4.656  1.00  0.00     0.119 A 
HETATM    4  F1  UNL     1      15.232  24.218   4.557  1.00  0.00    -0.206 F 
HETATM    5  C14 UNL     1      15.739  21.964   4.753  1.00  0.00     0.072 A 
HETATM    6  C15 UNL     1      15.285  20.595   4.863  1.00  0.00     0.049 A 
HETATM    7  C23 UNL     1      13.962  20.336   4.861  1.00  0.00    -0.026 A 
HETATM    8  C24 UNL     1      13.435  18.941   4.885  1.00  0.00     0.051 C 
ENDROOT
BRANCH   1   9
HETATM    9  C10 UNL     1      11.535  21.196   4.921  1.00  0.00     0.215 C 
BRANCH   9  10
HETATM   10  O2  UNL     1      10.971  22.215   5.562  1.00  0.00    -0.345 OA
BRANCH  10  11
HETATM   11  C9  UNL     1      10.543  23.385   5.891  1.00  0.00     0.095 A 
HETATM   12  C8  UNL     1      10.932  23.921   7.130  1.00  0.00     0.119 A 
HETATM   13  C28 UNL     1      10.397  25.171   7.509  1.00  0.00     0.267 A 
HETATM   14  N4  UNL     1       9.566  25.851   6.724  1.00  0.00    -0.326 N 
HETATM   15  O3  UNL     1      10.736  25.654   8.651  1.00  0.00    -0.266 OA
HETATM   16  C26 UNL     1       9.209  25.352   5.533  1.00  0.00     0.011 A 
ATOM     17  H4  UNL     1       9.200  26.753   7.030  1.00  0.00     0.169 HD
HETATM   18  C25 UNL     1       9.677  24.148   5.116  1.00  0.00     0.063 A 
HETATM   19  C27 UNL     1       8.345  26.183   4.607  1.00  0.00     0.068 C 
BRANCH  12  20
HETATM   20  C7  UNL     1      12.120  23.504   7.832  1.00  0.00    -0.053 C 
HETATM   21  C6  UNL     1      13.157  23.030   8.189  1.00  0.00    -0.061 C 
BRANCH  21  22
HETATM   22  C5  UNL     1      14.441  22.406   8.378  1.00  0.00     0.018 A 
HETATM   23  C4  UNL     1      14.389  21.099   8.909  1.00  0.00     0.023 A 
HETATM   24  C3  UNL     1      15.483  20.393   9.286  1.00  0.00     0.038 A 
HETATM   25  C2  UNL     1      16.735  20.985   9.146  1.00  0.00     0.068 A 
HETATM   26  C30 UNL     1      16.789  22.268   8.624  1.00  0.00     0.038 A 
HETATM   27  C29 UNL     1      15.640  22.983   8.240  1.00  0.00     0.023 A 
BRANCH  25  28
HETATM   28  O1  UNL     1      17.798  20.227   9.546  1.00  0.00    -0.356 OA
HETATM   29  C1  UNL     1      17.828  18.873   9.892  1.00  0.00     0.210 C 
ENDBRANCH  25  28
ENDBRANCH  21  22
ENDBRANCH  12  20
ENDBRANCH  10  11
ENDBRANCH   9  10
ENDBRANCH   1   9
BRANCH   6  30
HETATM   30  N1  UNL     1      16.404  19.726   4.870  1.00  0.00    -0.316 N 
HETATM   31  C16 UNL     1      17.062  19.611   6.072  1.00  0.00     0.100 A 
HETATM   32  C17 UNL     1      17.999  18.640   6.324  1.00  0.00     0.049 A 
HETATM   33  C18 UNL     1      18.308  17.725   5.293  1.00  0.00     0.053 A 
HETATM   34  C20 UNL     1      17.656  17.865   4.118  1.00  0.00     0.068 A 
HETATM   35  C21 UNL     1      16.707  18.877   3.938  1.00  0.00     0.078 A 
BRANCH  33  36
HETATM   36  N2  UNL     1      19.179  16.634   5.575  1.00  0.00    -0.303 N 
HETATM   37  C19 UNL     1      19.366  16.038   6.873  1.00  0.00     0.177 C 
BRANCH  36  38
HETATM   38  N3  UNL     1      19.973  16.115   4.529  1.00  0.00    -0.343 N 
ATOM     39  H32 UNL     1      20.648  16.757   4.114  1.00  0.00     0.177 HD
ATOM     40  H31 UNL     1      19.808  15.157   4.219  1.00  0.00     0.177 HD
ENDBRANCH  36  38
ENDBRANCH  33  36
BRANCH  35  41
HETATM   41  S1  UNL     1      15.922  18.896   2.341  1.00  0.00    -0.116 SA
HETATM   42  C22 UNL     1      16.659  17.514   1.389  1.00  0.00     0.097 C 
ENDBRANCH  35  41
ENDBRANCH   6  30
TORSDOF 10
ENDMDL
MODEL 3
REMARK VINA RESULT: -8.304002639      1.486      1.903
REMARK  10 active torsions:
REMARK  status: ('A' for Active; 'I' for Inactive)
REMARK    1  A    between atoms: O1_2  and  C2_3 
REMARK    2  A    between atoms: C5_6  and  C6_7 
REMARK    3  A    between atoms: C7_8  and  C8_9 
REMARK    4  A    between atoms: C9_10  and  O2_11 
REMARK    5  A    between atoms: O2_11  and  C10_12 
REMARK    6  A    between atoms: C10_12  and  C11_13 
REMARK    7  A    between atoms: C15_18  and  N1_19 
REMARK    8  A    between atoms: C18_22  and  N2_23 
REMARK    9  A    between atoms: N2_23  and  N3_25 
REMARK   10  A    between atoms: C21_29  and  S1_30 
ROOT
HETATM    1  C11 UNL     1      12.763  23.265   6.472  1.00  0.00    -0.023 A 
HETATM    2  C12 UNL     1      12.156  22.058   6.739  1.00  0.00     0.052 A 
HETATM    3  C13 UNL     1      10.836  21.910   6.957  1.00  0.00     0.119 A 
HETATM    4  F1  UNL     1      10.289  20.695   7.221  1.00  0.00    -0.206 F 
HETATM    5  C14 UNL     1      10.021  22.977   6.920  1.00  0.00     0.072 A 
HETATM    6  C15 UNL     1      10.609  24.271   6.644  1.00  0.00     0.049 A 
HETATM    7  C23 UNL     1      11.937  24.360   6.432  1.00  0.00    -0.026 A 
HETATM    8  C24 UNL     1      12.587  25.649   6.059  1.00  0.00     0.051 C 
ENDROOT
BRANCH   1   9
HETATM    9  C10 UNL     1      14.261  23.250   6.430  1.00  0.00     0.215 C 
BRANCH   9  10
HETATM   10  O2  UNL     1      14.775  22.110   5.978  1.00  0.00    -0.345 OA
BRANCH  10  11
HETATM   11  C9  UNL     1      15.271  21.190   5.225  1.00  0.00     0.095 A 
HETATM   12  C8  UNL     1      14.548  20.780   4.093  1.00  0.00     0.119 A 
HETATM   13  C28 UNL     1      15.068  19.721   3.320  1.00  0.00     0.267 A 
HETATM   14  N4  UNL     1      16.220  19.127   3.620  1.00  0.00    -0.326 N 
HETATM   15  O3  UNL     1      14.397  19.332   2.295  1.00  0.00    -0.266 OA
HETATM   16  C26 UNL     1      16.924  19.529   4.687  1.00  0.00     0.011 A 
ATOM     17  H4  UNL     1      16.568  18.366   3.037  1.00  0.00     0.169 HD
HETATM   18  C25 UNL     1      16.470  20.533   5.480  1.00  0.00     0.063 A 
HETATM   19  C27 UNL     1      18.281  18.914   4.957  1.00  0.00     0.068 C 
BRANCH  12  20
HETATM   20  C7  UNL     1      13.561  21.609   3.446  1.00  0.00    -0.053 C 
HETATM   21  C6  UNL     1      12.583  22.200   3.096  1.00  0.00    -0.061 C 
BRANCH  21  22
HETATM   22  C5  UNL     1      11.309  22.841   2.893  1.00  0.00     0.018 A 
HETATM   23  C4  UNL     1      10.190  22.049   3.229  1.00  0.00     0.023 A 
HETATM   24  C3  UNL     1       8.908  22.414   2.987  1.00  0.00     0.038 A 
HETATM   25  C2  UNL     1       8.672  23.638   2.369  1.00  0.00     0.068 A 
HETATM   26  C30 UNL     1       9.769  24.418   2.039  1.00  0.00     0.038 A 
HETATM   27  C29 UNL     1      11.093  24.020   2.298  1.00  0.00     0.023 A 
BRANCH  25  28
HETATM   28  O1  UNL     1       7.360  23.949   2.149  1.00  0.00    -0.356 OA
HETATM   29  C1  UNL     1       6.236  23.582   2.893  1.00  0.00     0.210 C 
ENDBRANCH  25  28
ENDBRANCH  21  22
ENDBRANCH  12  20
ENDBRANCH  10  11
ENDBRANCH   9  10
ENDBRANCH   1   9
BRANCH   6  30
HETATM   30  N1  UNL     1       9.585  25.246   6.563  1.00  0.00    -0.316 N 
HETATM   31  C16 UNL     1       9.000  25.395   5.327  1.00  0.00     0.100 A 
HETATM   32  C17 UNL     1       7.841  26.104   5.128  1.00  0.00     0.049 A 
HETATM   33  C18 UNL     1       7.231  26.719   6.243  1.00  0.00     0.053 A 
HETATM   34  C20 UNL     1       7.831  26.567   7.444  1.00  0.00     0.068 A 
HETATM   35  C21 UNL     1       9.009  25.823   7.572  1.00  0.00     0.078 A 
BRANCH  33  36
HETATM   36  N2  UNL     1       5.963  27.347   6.081  1.00  0.00    -0.303 N 
HETATM   37  C19 UNL     1       4.890  26.846   5.261  1.00  0.00     0.177 C 
BRANCH  36  38
HETATM   38  N3  UNL     1       5.737  28.587   6.717  1.00  0.00    -0.343 N 
ATOM     39  H32 UNL     1       6.194  29.398   6.300  1.00  0.00     0.177 HD
ATOM     40  H31 UNL     1       5.173  28.604   7.567  1.00  0.00     0.177 HD
ENDBRANCH  36  38
ENDBRANCH  33  36
BRANCH  35  41
HETATM   41  S1  UNL     1       9.646  25.699   9.229  1.00  0.00    -0.116 SA
HETATM   42  C22 UNL     1      11.075  26.843   9.316  1.00  0.00     0.097 C 
ENDBRANCH  35  41
ENDBRANCH   6  30
TORSDOF 10
ENDMDL
MODEL 4
REMARK VINA RESULT: -8.171877055      3.121      9.474
REMARK  10 active torsions:
REMARK  status: ('A' for Active; 'I' for Inactive)
REMARK    1  A    between atoms: O1_2  and  C2_3 
REMARK    2  A    between atoms: C5_6  and  C6_7 
REMARK    3  A    between atoms: C7_8  and  C8_9 
REMARK    4  A    between atoms: C9_10  and  O2_11 
REMARK    5  A    between atoms: O2_11  and  C10_12 
REMARK    6  A    between atoms: C10_12  and  C11_13 
REMARK    7  A    between atoms: C15_18  and  N1_19 
REMARK    8  A    between atoms: C18_22  and  N2_23 
REMARK    9  A    between atoms: N2_23  and  N3_25 
REMARK   10  A    between atoms: C21_29  and  S1_30 
ROOT
HETATM    1  C11 UNL     1      12.155  23.471   4.323  1.00  0.00    -0.023 A 
HETATM    2  C12 UNL     1      10.900  23.009   3.989  1.00  0.00     0.052 A 
HETATM    3  C13 UNL     1      10.655  21.782   3.494  1.00  0.00     0.119 A 
HETATM    4  F1  UNL     1       9.397  21.379   3.178  1.00  0.00    -0.206 F 
HETATM    5  C14 UNL     1      11.666  20.918   3.298  1.00  0.00     0.072 A 
HETATM    6  C15 UNL     1      13.005  21.354   3.631  1.00  0.00     0.049 A 
HETATM    7  C23 UNL     1      13.192  22.594   4.125  1.00  0.00    -0.026 A 
HETATM    8  C24 UNL     1      14.534  23.069   4.566  1.00  0.00     0.051 C 
ENDROOT
BRANCH   1   9
HETATM    9  C10 UNL     1      12.243  24.919   4.694  1.00  0.00     0.215 C 
BRANCH   9  10
HETATM   10  O2  UNL     1      11.137  25.399   5.256  1.00  0.00    -0.345 OA
BRANCH  10  11
HETATM   11  C9  UNL     1      10.149  25.614   6.054  1.00  0.00     0.095 A 
HETATM   12  C8  UNL     1       9.969  24.757   7.152  1.00  0.00     0.119 A 
HETATM   13  C28 UNL     1       8.841  24.960   7.975  1.00  0.00     0.267 A 
HETATM   14  N4  UNL     1       7.972  25.942   7.752  1.00  0.00    -0.326 N 
HETATM   15  O3  UNL     1       8.664  24.164   8.969  1.00  0.00    -0.266 OA
HETATM   16  C26 UNL     1       8.150  26.775   6.718  1.00  0.00     0.011 A 
ATOM     17  H4  UNL     1       7.168  26.061   8.369  1.00  0.00     0.169 HD
HETATM   18  C25 UNL     1       9.208  26.624   5.880  1.00  0.00     0.063 A 
HETATM   19  C27 UNL     1       7.211  27.949   6.537  1.00  0.00     0.068 C 
BRANCH  12  20
HETATM   20  C7  UNL     1      11.037  23.977   7.726  1.00  0.00    -0.053 C 
HETATM   21  C6  UNL     1      12.071  23.458   8.026  1.00  0.00    -0.061 C 
BRANCH  21  22
HETATM   22  C5  UNL     1      13.422  23.013   8.250  1.00  0.00     0.018 A 
HETATM   23  C4  UNL     1      13.560  22.024   9.248  1.00  0.00     0.023 A 
HETATM   24  C3  UNL     1      14.754  21.571   9.702  1.00  0.00     0.038 A 
HETATM   25  C2  UNL     1      15.917  22.109   9.159  1.00  0.00     0.068 A 
HETATM   26  C30 UNL     1      15.785  23.079   8.178  1.00  0.00     0.038 A 
HETATM   27  C29 UNL     1      14.535  23.535   7.722  1.00  0.00     0.023 A 
BRANCH  25  28
HETATM   28  O1  UNL     1      17.088  21.615   9.659  1.00  0.00    -0.356 OA
HETATM   29  C1  UNL     1      18.332  21.505   9.031  1.00  0.00     0.210 C 
ENDBRANCH  25  28
ENDBRANCH  21  22
ENDBRANCH  12  20
ENDBRANCH  10  11
ENDBRANCH   9  10
ENDBRANCH   1   9
BRANCH   6  30
HETATM   30  N1  UNL     1      13.911  20.283   3.435  1.00  0.00    -0.316 N 
HETATM   31  C16 UNL     1      14.242  20.015   2.127  1.00  0.00     0.100 A 
HETATM   32  C17 UNL     1      15.281  19.191   1.771  1.00  0.00     0.049 A 
HETATM   33  C18 UNL     1      16.035  18.581   2.799  1.00  0.00     0.053 A 
HETATM   34  C20 UNL     1      15.683  18.852   4.075  1.00  0.00     0.068 A 
HETATM   35  C21 UNL     1      14.615  19.709   4.361  1.00  0.00     0.078 A 
BRANCH  33  36
HETATM   36  N2  UNL     1      17.194  17.828   2.454  1.00  0.00    -0.303 N 
HETATM   37  C19 UNL     1      18.379  17.716   3.265  1.00  0.00     0.177 C 
BRANCH  36  38
HETATM   38  N3  UNL     1      17.230  17.178   1.201  1.00  0.00    -0.343 N 
ATOM     39  H32 UNL     1      16.380  16.688   0.922  1.00  0.00     0.177 HD
ATOM     40  H31 UNL     1      18.099  17.195   0.667  1.00  0.00     0.177 HD
ENDBRANCH  36  38
ENDBRANCH  33  36
BRANCH  35  41
HETATM   41  S1  UNL     1      14.310  19.980   6.093  1.00  0.00    -0.116 SA
HETATM   42  C22 UNL     1      15.912  19.714   6.944  1.00  0.00     0.097 C 
ENDBRANCH  35  41
ENDBRANCH   6  30
TORSDOF 10
ENDMDL
MODEL 5
REMARK VINA RESULT: -8.074085041      3.466      9.974
REMARK  10 active torsions:
REMARK  status: ('A' for Active; 'I' for Inactive)
REMARK    1  A    between atoms: O1_2  and  C2_3 
REMARK    2  A    between atoms: C5_6  and  C6_7 
REMARK    3  A    between atoms: C7_8  and  C8_9 
REMARK    4  A    between atoms: C9_10  and  O2_11 
REMARK    5  A    between atoms: O2_11  and  C10_12 
REMARK    6  A    between atoms: C10_12  and  C11_13 
REMARK    7  A    between atoms: C15_18  and  N1_19 
REMARK    8  A    between atoms: C18_22  and  N2_23 
REMARK    9  A    between atoms: N2_23  and  N3_25 
REMARK   10  A    between atoms: C21_29  and  S1_30 
ROOT
HETATM    1  C11 UNL     1      12.715  22.491   4.640  1.00  0.00    -0.023 A 
HETATM    2  C12 UNL     1      11.807  21.765   5.379  1.00  0.00     0.052 A 
HETATM    3  C13 UNL     1      12.038  20.525   5.849  1.00  0.00     0.119 A 
HETATM    4  F1  UNL     1      11.105  19.851   6.571  1.00  0.00    -0.206 F 
HETATM    5  C14 UNL     1      13.212  19.918   5.608  1.00  0.00     0.072 A 
HETATM    6  C15 UNL     1      14.201  20.638   4.834  1.00  0.00     0.049 A 
HETATM    7  C23 UNL     1      13.916  21.878   4.389  1.00  0.00    -0.026 A 
HETATM    8  C24 UNL     1      14.924  22.701   3.662  1.00  0.00     0.051 C 
ENDROOT
BRANCH   1   9
HETATM    9  C10 UNL     1      12.209  23.778   4.064  1.00  0.00     0.215 C 
BRANCH   9  10
HETATM   10  O2  UNL     1      11.296  24.383   4.818  1.00  0.00    -0.345 OA
BRANCH  10  11
HETATM   11  C9  UNL     1      10.707  25.132   5.685  1.00  0.00     0.095 A 
HETATM   12  C8  UNL     1      11.130  25.075   7.024  1.00  0.00     0.119 A 
HETATM   13  C28 UNL     1      10.427  25.844   7.975  1.00  0.00     0.267 A 
HETATM   14  N4  UNL     1       9.406  26.626   7.636  1.00  0.00    -0.326 N 
HETATM   15  O3  UNL     1      10.801  25.778   9.204  1.00  0.00    -0.266 OA
HETATM   16  C26 UNL     1       9.012  26.699   6.358  1.00  0.00     0.011 A 
ATOM     17  H4  UNL     1       8.923  27.170   8.351  1.00  0.00     0.169 HD
HETATM   18  C25 UNL     1       9.637  25.972   5.396  1.00  0.00     0.063 A 
HETATM   19  C27 UNL     1       7.916  27.670   5.971  1.00  0.00     0.068 C 
BRANCH  12  20
HETATM   20  C7  UNL     1      12.444  24.631   7.416  1.00  0.00    -0.053 C 
HETATM   21  C6  UNL     1      13.421  24.024   7.743  1.00  0.00    -0.061 C 
BRANCH  21  22
HETATM   22  C5  UNL     1      14.468  23.091   8.070  1.00  0.00     0.018 A 
HETATM   23  C4  UNL     1      14.024  21.895   8.674  1.00  0.00     0.023 A 
HETATM   24  C3  UNL     1      14.856  20.950   9.177  1.00  0.00     0.038 A 
HETATM   25  C2  UNL     1      16.229  21.167   9.101  1.00  0.00     0.068 A 
HETATM   26  C30 UNL     1      16.667  22.340   8.509  1.00  0.00     0.038 A 
HETATM   27  C29 UNL     1      15.786  23.308   7.992  1.00  0.00     0.023 A 
BRANCH  25  28
HETATM   28  O1  UNL     1      17.014  20.182   9.629  1.00  0.00    -0.356 OA
HETATM   29  C1  UNL     1      16.638  18.927  10.115  1.00  0.00     0.210 C 
ENDBRANCH  25  28
ENDBRANCH  21  22
ENDBRANCH  12  20
ENDBRANCH  10  11
ENDBRANCH   9  10
ENDBRANCH   1   9
BRANCH   6  30
HETATM   30  N1  UNL     1      15.391  19.872   4.760  1.00  0.00    -0.316 N 
HETATM   31  C16 UNL     1      16.285  20.062   5.788  1.00  0.00     0.100 A 
HETATM   32  C17 UNL     1      17.359  19.235   6.009  1.00  0.00     0.049 A 
HETATM   33  C18 UNL     1      17.559  18.147   5.130  1.00  0.00     0.053 A 
HETATM   34  C20 UNL     1      16.673  17.989   4.123  1.00  0.00     0.068 A 
HETATM   35  C21 UNL     1      15.597  18.869   3.965  1.00  0.00     0.078 A 
BRANCH  33  36
HETATM   36  N2  UNL     1      18.588  17.206   5.417  1.00  0.00    -0.303 N 
HETATM   37  C19 UNL     1      18.910  16.707   6.729  1.00  0.00     0.177 C 
BRANCH  36  38
HETATM   38  N3  UNL     1      19.405  16.754   4.359  1.00  0.00    -0.343 N 
ATOM     39  H32 UNL     1      20.113  16.060   4.600  1.00  0.00     0.177 HD
ATOM     40  H31 UNL     1      19.278  17.164   3.434  1.00  0.00     0.177 HD
ENDBRANCH  36  38
ENDBRANCH  33  36
BRANCH  35  41
HETATM   41  S1  UNL     1      14.510  18.495   2.606  1.00  0.00    -0.116 SA
HETATM   42  C22 UNL     1      14.991  19.620   1.240  1.00  0.00     0.097 C 
ENDBRANCH  35  41
ENDBRANCH   6  30
TORSDOF 10
ENDMDL
