MODEL 1
REMARK VINA RESULT: -9.646834971      0.000      0.000
REMARK  8 active torsions:
REMARK  status: ('A' for Active; 'I' for Inactive)
REMARK    1  A    between atoms: C6_7  and  C7_8 
REMARK       I    between atoms: C7_8  and  N1_10 
REMARK    2  A    between atoms: N1_10  and  C8_12 
REMARK    3  A    between atoms: C11_15  and  C12_16 
REMARK       I    between atoms: C12_16  and  N2_18 
REMARK    4  A    between atoms: N2_18  and  C13_20 
REMARK    5  A    between atoms: C13_20  and  C14_21 
REMARK    6  A    between atoms: C13_20  and  C21_28 
REMARK    7  A    between atoms: C14_21  and  C15_22 
REMARK    8  A    between atoms: C26_35  and  C27_36 
ROOT
HETATM    1  C8  UNL     1      13.764  20.537   3.569  1.00  0.00     0.084 C 
HETATM    2  C9  UNL     1      13.978  19.124   4.006  1.00  0.00     0.026 C 
HETATM    3  C10 UNL     1      14.551  18.980   5.364  1.00  0.00     0.016 C 
HETATM    4  C11 UNL     1      15.658  19.934   5.709  1.00  0.00     0.078 C 
HETATM    5  C22 UNL     1      15.584  21.244   5.020  1.00  0.00     0.016 C 
HETATM    6  C23 UNL     1      15.109  21.229   3.609  1.00  0.00     0.026 C 
ENDROOT
BRANCH   1   7
HETATM    7  N1  UNL     1      12.873  21.272   4.443  1.00  0.00    -0.356 N 
HETATM    8  C7  UNL     1      11.521  21.496   4.134  1.00  0.00     0.230 C 
HETATM    9  O2  UNL     1      11.045  21.057   3.070  1.00  0.00    -0.273 OA
ATOM     10  H1  UNL     1      13.243  21.642   5.319  1.00  0.00     0.162 HD
BRANCH   8  11
HETATM   11  C6  UNL     1      10.668  22.251   5.066  1.00  0.00     0.155 C 
HETATM   12  C5  UNL     1       9.697  23.123   4.401  1.00  0.00     0.141 C 
HETATM   13  C4  UNL     1       9.679  24.600   4.410  1.00  0.00     0.088 C 
HETATM   14  O1  UNL     1       8.794  22.563   3.764  1.00  0.00    -0.297 OA
HETATM   15  C3  UNL     1      10.466  25.044   5.654  1.00  0.00     0.026 C 
HETATM   16  C2  UNL     1      11.774  24.327   5.514  1.00  0.00    -0.079 C 
HETATM   17  C28 UNL     1       9.765  24.424   6.822  1.00  0.00     0.005 A 
HETATM   18  C1  UNL     1      12.860  24.804   4.968  1.00  0.00     0.015 C 
HETATM   19  C24 UNL     1      11.493  23.005   6.125  1.00  0.00     0.039 C 
HETATM   20  C25 UNL     1      10.564  23.221   7.261  1.00  0.00     0.006 A 
HETATM   21  C26 UNL     1      10.464  24.370   8.133  1.00  0.00     0.010 A 
BRANCH  21  22
HETATM   22  C27 UNL     1      11.569  25.305   8.503  1.00  0.00     0.120 C 
HETATM   23 CL1  UNL     1      11.692  25.514  10.282  1.00  0.00    -0.130 Cl
ENDBRANCH  21  22
ENDBRANCH   8  11
ENDBRANCH   1   7
BRANCH   4  24
HETATM   24  C12 UNL     1      17.006  19.322   5.443  1.00  0.00     0.222 C 
HETATM   25  O3  UNL     1      18.010  20.020   5.235  1.00  0.00    -0.273 OA
HETATM   26  N2  UNL     1      17.083  17.906   5.438  1.00  0.00    -0.346 N 
ATOM     27  H2  UNL     1      16.217  17.396   5.613  1.00  0.00     0.163 HD
BRANCH  26  28
HETATM   28  C13 UNL     1      18.259  17.128   5.213  1.00  0.00     0.185 C 
BRANCH  28  29
HETATM   29  C14 UNL     1      18.213  15.863   6.019  1.00  0.00     0.041 C 
BRANCH  29  30
HETATM   30  C15 UNL     1      19.517  15.620   6.753  1.00  0.00    -0.012 C 
HETATM   31  C16 UNL     1      20.118  14.281   6.471  1.00  0.00     0.005 C 
HETATM   32  C17 UNL     1      19.085  13.211   6.701  1.00  0.00     0.000 C 
HETATM   33  C18 UNL     1      18.776  13.183   8.197  1.00  0.00     0.000 C 
HETATM   34  C19 UNL     1      18.305  14.526   8.653  1.00  0.00     0.000 C 
HETATM   35  C20 UNL     1      19.202  15.662   8.242  1.00  0.00     0.005 C 
ENDBRANCH  29  30
ENDBRANCH  28  29
BRANCH  28  36
HETATM   36  C21 UNL     1      18.430  16.819   3.778  1.00  0.00     0.196 C 
HETATM   37  O4  UNL     1      18.452  15.635   3.382  1.00  0.00    -0.646 OA
HETATM   38  O5  UNL     1      18.572  17.866   2.845  1.00  0.00    -0.646 OA
ENDBRANCH  28  36
ENDBRANCH  26  28
ENDBRANCH   4  24
TORSDOF 8
ENDMDL
MODEL 2
REMARK VINA RESULT: -9.340865054      1.127      1.463
REMARK  8 active torsions:
REMARK  status: ('A' for Active; 'I' for Inactive)
REMARK    1  A    between atoms: C6_7  and  C7_8 
REMARK       I    between atoms: C7_8  and  N1_10 
REMARK    2  A    between atoms: N1_10  and  C8_12 
REMARK    3  A    between atoms: C11_15  and  C12_16 
REMARK       I    between atoms: C12_16  and  N2_18 
REMARK    4  A    between atoms: N2_18  and  C13_20 
REMARK    5  A    between atoms: C13_20  and  C14_21 
REMARK    6  A    between atoms: C13_20  and  C21_28 
REMARK    7  A    between atoms: C14_21  and  C15_22 
REMARK    8  A    between atoms: C26_35  and  C27_36 
ROOT
HETATM    1  C8  UNL     1      13.701  19.481   4.398  1.00  0.00     0.084 C 
HETATM    2  C9  UNL     1      14.229  18.954   5.693  1.00  0.00     0.026 C 
HETATM    3  C10 UNL     1      15.230  19.824   6.351  1.00  0.00     0.016 C 
HETATM    4  C11 UNL     1      16.255  20.441   5.444  1.00  0.00     0.078 C 
HETATM    5  C22 UNL     1      15.789  20.682   4.057  1.00  0.00     0.016 C 
HETATM    6  C23 UNL     1      14.883  19.656   3.470  1.00  0.00     0.026 C 
ENDROOT
BRANCH   1   7
HETATM    7  N1  UNL     1      13.060  20.772   4.532  1.00  0.00    -0.356 N 
HETATM    8  C7  UNL     1      12.025  21.015   5.452  1.00  0.00     0.230 C 
HETATM    9  O2  UNL     1      11.625  20.098   6.193  1.00  0.00    -0.273 OA
ATOM     10  H1  UNL     1      13.372  21.538   3.933  1.00  0.00     0.162 HD
BRANCH   8  11
HETATM   11  C6  UNL     1      11.415  22.351   5.539  1.00  0.00     0.155 C 
HETATM   12  C5  UNL     1      11.931  23.299   4.549  1.00  0.00     0.141 C 
HETATM   13  C4  UNL     1      12.743  24.504   4.814  1.00  0.00     0.088 C 
HETATM   14  O1  UNL     1      11.656  23.067   3.364  1.00  0.00    -0.297 OA
HETATM   15  C3  UNL     1      12.478  24.905   6.274  1.00  0.00     0.026 C 
HETATM   16  C2  UNL     1      12.761  23.646   7.037  1.00  0.00    -0.079 C 
HETATM   17  C28 UNL     1      11.003  25.136   6.371  1.00  0.00     0.005 A 
HETATM   18  C1  UNL     1      13.896  23.324   7.597  1.00  0.00     0.015 C 
HETATM   19  C24 UNL     1      11.469  22.920   6.969  1.00  0.00     0.039 C 
HETATM   20  C25 UNL     1      10.382  23.927   7.029  1.00  0.00     0.006 A 
HETATM   21  C26 UNL     1      10.373  25.199   7.717  1.00  0.00     0.010 A 
BRANCH  21  22
HETATM   22  C27 UNL     1      11.133  25.547   8.954  1.00  0.00     0.120 C 
HETATM   23 CL1  UNL     1      10.238  25.078  10.437  1.00  0.00    -0.130 Cl
ENDBRANCH  21  22
ENDBRANCH   8  11
ENDBRANCH   1   7
BRANCH   4  24
HETATM   24  C12 UNL     1      17.508  19.609   5.395  1.00  0.00     0.222 C 
HETATM   25  O3  UNL     1      18.634  20.128   5.380  1.00  0.00    -0.273 OA
HETATM   26  N2  UNL     1      17.347  18.201   5.367  1.00  0.00    -0.346 N 
ATOM     27  H2  UNL     1      16.392  17.844   5.378  1.00  0.00     0.163 HD
BRANCH  26  28
HETATM   28  C13 UNL     1      18.398  17.234   5.326  1.00  0.00     0.185 C 
BRANCH  28  29
HETATM   29  C14 UNL     1      18.148  16.145   6.326  1.00  0.00     0.041 C 
BRANCH  29  30
HETATM   30  C15 UNL     1      19.409  15.785   7.087  1.00  0.00    -0.012 C 
HETATM   31  C16 UNL     1      19.925  14.418   6.770  1.00  0.00     0.005 C 
HETATM   32  C17 UNL     1      18.814  13.415   6.928  1.00  0.00     0.000 C 
HETATM   33  C18 UNL     1      18.458  13.353   8.413  1.00  0.00     0.000 C 
HETATM   34  C19 UNL     1      18.066  14.708   8.907  1.00  0.00     0.000 C 
HETATM   35  C20 UNL     1      19.051  15.794   8.567  1.00  0.00     0.005 C 
ENDBRANCH  29  30
ENDBRANCH  28  29
BRANCH  28  36
HETATM   36  C21 UNL     1      18.549  16.665   3.970  1.00  0.00     0.196 C 
HETATM   37  O4  UNL     1      18.515  15.430   3.793  1.00  0.00    -0.646 OA
HETATM   38  O5  UNL     1      18.734  17.520   2.865  1.00  0.00    -0.646 OA
ENDBRANCH  28  36
ENDBRANCH  26  28
ENDBRANCH   4  24
TORSDOF 8
ENDMDL
MODEL 3
REMARK VINA RESULT: -9.071164442      3.338      4.757
REMARK  8 active torsions:
REMARK  status: ('A' for Active; 'I' for Inactive)
REMARK    1  A    between atoms: C6_7  and  C7_8 
REMARK       I    between atoms: C7_8  and  N1_10 
REMARK    2  A    between atoms: N1_10  and  C8_12 
REMARK    3  A    between atoms: C11_15  and  C12_16 
REMARK       I    between atoms: C12_16  and  N2_18 
REMARK    4  A    between atoms: N2_18  and  C13_20 
REMARK    5  A    between atoms: C13_20  and  C14_21 
REMARK    6  A    between atoms: C13_20  and  C21_28 
REMARK    7  A    between atoms: C14_21  and  C15_22 
REMARK    8  A    between atoms: C26_35  and  C27_36 
ROOT
HETATM    1  C8  UNL     1      12.808  22.717   5.190  1.00  0.00     0.084 C 
HETATM    2  C9  UNL     1      14.190  22.817   4.629  1.00  0.00     0.026 C 
HETATM    3  C10 UNL     1      14.534  21.764   3.647  1.00  0.00     0.016 C 
HETATM    4  C11 UNL     1      14.080  20.375   3.995  1.00  0.00     0.078 C 
HETATM    5  C22 UNL     1      12.849  20.314   4.818  1.00  0.00     0.016 C 
HETATM    6  C23 UNL     1      12.691  21.366   5.860  1.00  0.00     0.026 C 
ENDROOT
BRANCH   1   7
HETATM    7  N1  UNL     1      11.778  22.787   4.174  1.00  0.00    -0.356 N 
HETATM    8  C7  UNL     1      10.438  23.091   4.470  1.00  0.00     0.230 C 
HETATM    9  O2  UNL     1      10.097  23.313   5.647  1.00  0.00    -0.273 OA
ATOM     10  H1  UNL     1      12.036  22.607   3.203  1.00  0.00     0.162 HD
BRANCH   8  11
HETATM   11  C6  UNL     1       9.440  23.147   3.391  1.00  0.00     0.155 C 
HETATM   12  C5  UNL     1       9.784  24.082   2.318  1.00  0.00     0.141 C 
HETATM   13  C4  UNL     1       9.084  25.337   1.976  1.00  0.00     0.088 C 
HETATM   14  O1  UNL     1      10.766  23.789   1.622  1.00  0.00    -0.297 OA
HETATM   15  C3  UNL     1       7.656  25.213   2.529  1.00  0.00     0.026 C 
HETATM   16  C2  UNL     1       7.869  24.860   3.970  1.00  0.00    -0.079 C 
HETATM   17  C28 UNL     1       7.072  23.999   1.878  1.00  0.00     0.005 A 
HETATM   18  C1  UNL     1       7.912  25.699   4.970  1.00  0.00     0.015 C 
HETATM   19  C24 UNL     1       8.017  23.385   3.931  1.00  0.00     0.039 C 
HETATM   20  C25 UNL     1       7.109  22.868   2.877  1.00  0.00     0.006 A 
HETATM   21  C26 UNL     1       5.836  23.402   2.448  1.00  0.00     0.010 A 
BRANCH  21  22
HETATM   22  C27 UNL     1       4.869  24.177   3.283  1.00  0.00     0.120 C 
HETATM   23 CL1  UNL     1       3.651  23.108   4.053  1.00  0.00    -0.130 Cl
ENDBRANCH  21  22
ENDBRANCH   8  11
ENDBRANCH   1   7
BRANCH   4  24
HETATM   24  C12 UNL     1      15.169  19.606   4.693  1.00  0.00     0.222 C 
HETATM   25  O3  UNL     1      14.947  18.519   5.247  1.00  0.00    -0.273 OA
HETATM   26  N2  UNL     1      16.466  20.178   4.691  1.00  0.00    -0.346 N 
ATOM     27  H2  UNL     1      16.575  21.076   4.219  1.00  0.00     0.163 HD
BRANCH  26  28
HETATM   28  C13 UNL     1      17.635  19.615   5.287  1.00  0.00     0.185 C 
BRANCH  28  29
HETATM   29  C14 UNL     1      17.409  19.365   6.749  1.00  0.00     0.041 C 
BRANCH  29  30
HETATM   30  C15 UNL     1      17.643  20.616   7.573  1.00  0.00    -0.012 C 
HETATM   31  C16 UNL     1      17.953  20.333   9.008  1.00  0.00     0.005 C 
HETATM   32  C17 UNL     1      16.900  19.421   9.577  1.00  0.00     0.000 C 
HETATM   33  C18 UNL     1      15.588  20.202   9.617  1.00  0.00     0.000 C 
HETATM   34  C19 UNL     1      15.231  20.685   8.248  1.00  0.00     0.000 C 
HETATM   35  C20 UNL     1      16.346  21.413   7.546  1.00  0.00     0.005 C 
ENDBRANCH  29  30
ENDBRANCH  28  29
BRANCH  28  36
HETATM   36  C21 UNL     1      18.036  18.366   4.605  1.00  0.00     0.196 C 
HETATM   37  O4  UNL     1      18.074  17.287   5.231  1.00  0.00    -0.646 OA
HETATM   38  O5  UNL     1      18.379  18.390   3.239  1.00  0.00    -0.646 OA
ENDBRANCH  28  36
ENDBRANCH  26  28
ENDBRANCH   4  24
TORSDOF 8
ENDMDL
MODEL 4
REMARK VINA RESULT: -8.767835497      4.690     11.198
REMARK  8 active torsions:
REMARK  status: ('A' for Active; 'I' for Inactive)
REMARK    1  A    between atoms: C6_7  and  C7_8 
REMARK       I    between atoms: C7_8  and  N1_10 
REMARK    2  A    between atoms: N1_10  and  C8_12 
REMARK    3  A    between atoms: C11_15  and  C12_16 
REMARK       I    between atoms: C12_16  and  N2_18 
REMARK    4  A    between atoms: N2_18  and  C13_20 
REMARK    5  A    between atoms: C13_20  and  C14_21 
REMARK    6  A    between atoms: C13_20  and  C21_28 
REMARK    7  A    between atoms: C14_21  and  C15_22 
REMARK    8  A    between atoms: C26_35  and  C27_36 
ROOT
HETATM    1  C8  UNL     1      10.432  22.043   2.626  1.00  0.00     0.084 C 
HETATM    2  C9  UNL     1      10.429  23.449   2.120  1.00  0.00     0.026 C 
HETATM    3  C10 UNL     1       9.654  24.401   2.948  1.00  0.00     0.016 C 
HETATM    4  C11 UNL     1       8.332  23.898   3.454  1.00  0.00     0.078 C 
HETATM    5  C22 UNL     1       8.268  22.433   3.667  1.00  0.00     0.016 C 
HETATM    6  C23 UNL     1       8.991  21.583   2.681  1.00  0.00     0.026 C 
ENDROOT
BRANCH   1   7
HETATM    7  N1  UNL     1      10.976  21.922   3.963  1.00  0.00    -0.356 N 
HETATM    8  C7  UNL     1      12.054  21.075   4.269  1.00  0.00     0.230 C 
HETATM    9  O2  UNL     1      12.580  20.388   3.374  1.00  0.00    -0.273 OA
ATOM     10  H1  UNL     1      10.559  22.475   4.712  1.00  0.00     0.162 HD
BRANCH   8  11
HETATM   11  C6  UNL     1      12.561  20.999   5.649  1.00  0.00     0.155 C 
HETATM   12  C5  UNL     1      11.960  21.982   6.552  1.00  0.00     0.141 C 
HETATM   13  C4  UNL     1      12.636  23.129   7.192  1.00  0.00     0.088 C 
HETATM   14  O1  UNL     1      10.757  21.836   6.809  1.00  0.00    -0.297 OA
HETATM   15  C3  UNL     1      14.137  22.799   7.219  1.00  0.00     0.026 C 
HETATM   16  C2  UNL     1      14.447  22.468   5.790  1.00  0.00    -0.079 C 
HETATM   17  C28 UNL     1      14.260  21.520   7.986  1.00  0.00     0.005 A 
HETATM   18  C1  UNL     1      14.903  23.295   4.889  1.00  0.00     0.015 C 
HETATM   19  C24 UNL     1      14.100  21.028   5.702  1.00  0.00     0.039 C 
HETATM   20  C25 UNL     1      14.457  20.398   6.996  1.00  0.00     0.006 A 
HETATM   21  C26 UNL     1      15.529  20.750   7.902  1.00  0.00     0.010 A 
BRANCH  21  22
HETATM   22  C27 UNL     1      16.835  21.375   7.534  1.00  0.00     0.120 C 
HETATM   23 CL1  UNL     1      18.109  21.009   8.744  1.00  0.00    -0.130 Cl
ENDBRANCH  21  22
ENDBRANCH   8  11
ENDBRANCH   1   7
BRANCH   4  24
HETATM   24  C12 UNL     1       7.210  24.304   2.538  1.00  0.00     0.222 C 
HETATM   25  O3  UNL     1       7.402  25.029   1.551  1.00  0.00    -0.273 OA
HETATM   26  N2  UNL     1       5.914  23.820   2.852  1.00  0.00    -0.346 N 
ATOM     27  H2  UNL     1       5.829  23.231   3.681  1.00  0.00     0.163 HD
BRANCH  26  28
HETATM   28  C13 UNL     1       4.718  24.079   2.116  1.00  0.00     0.185 C 
BRANCH  28  29
HETATM   29  C14 UNL     1       3.809  22.886   2.157  1.00  0.00     0.041 C 
BRANCH  29  30
HETATM   30  C15 UNL     1       2.789  22.999   3.274  1.00  0.00    -0.012 C 
HETATM   31  C16 UNL     1       3.202  22.298   4.529  1.00  0.00     0.005 C 
HETATM   32  C17 UNL     1       3.593  20.882   4.205  1.00  0.00     0.000 C 
HETATM   33  C18 UNL     1       2.330  20.148   3.757  1.00  0.00     0.000 C 
HETATM   34  C19 UNL     1       1.717  20.842   2.584  1.00  0.00     0.000 C 
HETATM   35  C20 UNL     1       1.517  22.321   2.783  1.00  0.00     0.005 C 
ENDBRANCH  29  30
ENDBRANCH  28  29
BRANCH  28  36
HETATM   36  C21 UNL     1       4.021  25.276   2.631  1.00  0.00     0.196 C 
HETATM   37  O4  UNL     1       3.213  25.898   1.911  1.00  0.00    -0.646 OA
HETATM   38  O5  UNL     1       4.269  25.724   3.944  1.00  0.00    -0.646 OA
ENDBRANCH  28  36
ENDBRANCH  26  28
ENDBRANCH   4  24
TORSDOF 8
ENDMDL
MODEL 5
REMARK VINA RESULT: -8.629998012      3.504     10.346
REMARK  8 active torsions:
REMARK  status: ('A' for Active; 'I' for Inactive)
REMARK    1  A    between atoms: C6_7  and  C7_8 
REMARK       I    between atoms: C7_8  and  N1_10 
REMARK    2  A    between atoms: N1_10  and  C8_12 
REMARK    3  A    between atoms: C11_15  and  C12_16 
REMARK       I    between atoms: C12_16  and  N2_18 
REMARK    4  A    between atoms: N2_18  and  C13_20 
REMARK    5  A    between atoms: C13_20  and  C14_21 
REMARK    6  A    between atoms: C13_20  and  C21_28 
REMARK    7  A    between atoms: C14_21  and  C15_22 
REMARK    8  A    between atoms: C26_35  and  C27_36 
ROOT
HETATM    1  C8  UNL     1      12.807  24.145   4.287  1.00  0.00     0.084 C 
HETATM    2  C9  UNL     1      12.122  24.138   5.615  1.00  0.00     0.026 C 
HETATM    3  C10 UNL     1      11.075  23.102   5.764  1.00  0.00     0.016 C 
HETATM    4  C11 UNL     1      10.176  22.910   4.577  1.00  0.00     0.078 C 
HETATM    5  C22 UNL     1      10.802  23.216   3.269  1.00  0.00     0.016 C 
HETATM    6  C23 UNL     1      11.743  24.370   3.235  1.00  0.00     0.026 C 
ENDROOT
BRANCH   1   7
HETATM    7  N1  UNL     1      13.460  22.889   3.980  1.00  0.00    -0.356 N 
HETATM    8  C7  UNL     1      14.710  22.534   4.516  1.00  0.00     0.230 C 
HETATM    9  O2  UNL     1      15.301  23.313   5.287  1.00  0.00    -0.273 OA
ATOM     10  H1  UNL     1      12.995  22.236   3.350  1.00  0.00     0.162 HD
BRANCH   8  11
HETATM   11  C6  UNL     1      15.321  21.242   4.165  1.00  0.00     0.155 C 
HETATM   12  C5  UNL     1      14.351  20.223   3.760  1.00  0.00     0.141 C 
HETATM   13  C4  UNL     1      14.010  18.983   4.487  1.00  0.00     0.088 C 
HETATM   14  O1  UNL     1      13.754  20.420   2.693  1.00  0.00    -0.297 OA
HETATM   15  C3  UNL     1      15.204  18.663   5.400  1.00  0.00     0.026 C 
HETATM   16  C2  UNL     1      15.406  19.934   6.169  1.00  0.00    -0.079 C 
HETATM   17  C28 UNL     1      16.386  18.525   4.492  1.00  0.00     0.005 A 
HETATM   18  C1  UNL     1      14.908  20.211   7.343  1.00  0.00     0.015 C 
HETATM   19  C24 UNL     1      16.270  20.732   5.266  1.00  0.00     0.039 C 
HETATM   20  C25 UNL     1      17.195  19.797   4.581  1.00  0.00     0.006 A 
HETATM   21  C26 UNL     1      17.751  18.558   5.079  1.00  0.00     0.010 A 
BRANCH  21  22
HETATM   22  C27 UNL     1      18.030  18.219   6.507  1.00  0.00     0.120 C 
HETATM   23 CL1  UNL     1      18.683  16.556   6.678  1.00  0.00    -0.130 Cl
ENDBRANCH  21  22
ENDBRANCH   8  11
ENDBRANCH   1   7
BRANCH   4  24
HETATM   24  C12 UNL     1       8.916  23.722   4.712  1.00  0.00     0.222 C 
HETATM   25  O3  UNL     1       7.903  23.471   4.042  1.00  0.00    -0.273 OA
HETATM   26  N2  UNL     1       8.934  24.791   5.643  1.00  0.00    -0.346 N 
ATOM     27  H2  UNL     1       9.802  24.941   6.158  1.00  0.00     0.163 HD
BRANCH  26  28
HETATM   28  C13 UNL     1       7.851  25.676   5.929  1.00  0.00     0.185 C 
BRANCH  28  29
HETATM   29  C14 UNL     1       8.295  26.764   6.862  1.00  0.00     0.041 C 
BRANCH  29  30
HETATM   30  C15 UNL     1       7.702  26.590   8.247  1.00  0.00    -0.012 C 
HETATM   31  C16 UNL     1       8.469  27.299   9.316  1.00  0.00     0.005 C 
HETATM   32  C17 UNL     1       9.922  26.917   9.226  1.00  0.00     0.000 C 
HETATM   33  C18 UNL     1      10.032  25.438   9.594  1.00  0.00     0.000 C 
HETATM   34  C19 UNL     1       9.178  24.614   8.687  1.00  0.00     0.000 C 
HETATM   35  C20 UNL     1       7.759  25.103   8.569  1.00  0.00     0.005 C 
ENDBRANCH  29  30
ENDBRANCH  28  29
BRANCH  28  36
HETATM   36  C21 UNL     1       7.291  26.256   4.690  1.00  0.00     0.196 C 
HETATM   37  O4  UNL     1       6.077  26.139   4.427  1.00  0.00    -0.646 OA
HETATM   38  O5  UNL     1       8.133  26.947   3.794  1.00  0.00    -0.646 OA
ENDBRANCH  28  36
ENDBRANCH  26  28
ENDBRANCH   4  24
TORSDOF 8
ENDMDL
