MODEL 1
REMARK VINA RESULT: -8.926731686      0.000      0.000
REMARK  9 active torsions:
REMARK  status: ('A' for Active; 'I' for Inactive)
REMARK       I    between atoms: C1_2  and  N1_3 
REMARK    1  A    between atoms: C1_2  and  C9_15 
REMARK    2  A    between atoms: N1_3  and  C2_5 
REMARK    3  A    between atoms: C2_5  and  C3_6 
REMARK    4  A    between atoms: C3_6  and  C4_7 
REMARK       I    between atoms: N3_19  and  C13_20 
REMARK    5  A    between atoms: C13_20  and  C14_22 
REMARK    6  A    between atoms: N4_26  and  C18_27 
REMARK    7  A    between atoms: C18_27  and  C19_29 
REMARK    8  A    between atoms: C20_30  and  C21_31 
REMARK    9  A    between atoms: C24_34  and  O3_35 
ROOT
HETATM    1  C9  UNL     1      10.108  26.198   8.015  1.00  0.00     0.179 C 
HETATM    2  C10 UNL     1       9.654  25.951   9.455  1.00  0.00     0.037 C 
HETATM    3  C11 UNL     1       8.578  24.905   9.253  1.00  0.00     0.022 C 
HETATM    4  C12 UNL     1       9.066  24.132   8.027  1.00  0.00     0.127 C 
HETATM    5  N3  UNL     1      10.208  24.844   7.519  1.00  0.00    -0.337 N 
HETATM    6  C13 UNL     1      11.247  24.348   6.695  1.00  0.00     0.243 C 
HETATM    7  O2  UNL     1      12.202  25.034   6.315  1.00  0.00    -0.271 OA
ENDROOT
BRANCH   6   8
HETATM    8  C14 UNL     1      11.130  22.927   6.298  1.00  0.00     0.177 C 
HETATM    9  C15 UNL     1      12.496  22.252   6.617  1.00  0.00     0.037 C 
HETATM   10  C16 UNL     1      12.204  20.904   6.001  1.00  0.00     0.022 C 
HETATM   11  C17 UNL     1      11.456  21.230   4.741  1.00  0.00     0.125 C 
HETATM   12  N4  UNL     1      10.943  22.603   4.943  1.00  0.00    -0.358 N 
BRANCH  12  13
HETATM   13  C18 UNL     1      10.340  23.264   3.848  1.00  0.00     0.099 C 
HETATM   14  S1  UNL     1      11.209  23.953   2.684  1.00  0.00    -0.061 SA
BRANCH  13  15
HETATM   15  C19 UNL     1       8.879  23.376   3.770  1.00  0.00     0.042 C 
HETATM   16  C20 UNL     1       8.223  23.186   2.647  1.00  0.00     0.014 C 
BRANCH  16  17
HETATM   17  C21 UNL     1       6.782  23.296   2.557  1.00  0.00    -0.034 A 
HETATM   18  C22 UNL     1       6.118  24.136   1.697  1.00  0.00     0.014 A 
HETATM   19  C23 UNL     1       4.725  24.222   1.642  1.00  0.00     0.039 A 
HETATM   20  C24 UNL     1       3.966  23.437   2.478  1.00  0.00     0.087 A 
HETATM   21  C25 UNL     1       4.644  22.589   3.345  1.00  0.00     0.068 A 
HETATM   22 CL1  UNL     1       3.652  21.586   4.412  1.00  0.00    -0.081 Cl
HETATM   23  C26 UNL     1       6.009  22.497   3.409  1.00  0.00     0.038 A 
BRANCH  20  24
HETATM   24  O3  UNL     1       2.586  23.482   2.465  1.00  0.00    -0.359 OA
ATOM     25  H3  UNL     1       2.084  23.718   3.236  1.00  0.00     0.217 HD
ENDBRANCH  20  24
ENDBRANCH  16  17
ENDBRANCH  13  15
ENDBRANCH  12  13
ENDBRANCH   6   8
BRANCH   1  26
HETATM   26  C1  UNL     1       9.073  26.902   7.246  1.00  0.00     0.240 C 
HETATM   27  O1  UNL     1       8.617  27.990   7.669  1.00  0.00    -0.271 OA
HETATM   28  N1  UNL     1       8.593  26.352   6.031  1.00  0.00    -0.359 N 
ATOM     29  H1  UNL     1       8.962  25.466   5.686  1.00  0.00     0.162 HD
BRANCH  28  30
HETATM   30  C2  UNL     1       7.561  27.071   5.273  1.00  0.00     0.125 C 
BRANCH  30  31
HETATM   31  C3  UNL     1       6.293  26.277   5.347  1.00  0.00     0.052 C 
BRANCH  31  32
HETATM   32  C4  UNL     1       5.533  26.694   6.589  1.00  0.00     0.187 C 
HETATM   33  C5  UNL     1       4.108  26.187   6.410  1.00  0.00     0.033 C 
HETATM   34  C6  UNL     1       3.285  26.740   7.556  1.00  0.00     0.004 C 
HETATM   35  C7  UNL     1       3.356  28.243   7.565  1.00  0.00     0.027 C 
HETATM   36  C8  UNL     1       4.293  28.754   6.505  1.00  0.00     0.232 C 
HETATM   37  N2  UNL     1       5.585  28.140   6.697  1.00  0.00    -0.071 N 
ATOM     38  H22 UNL     1       6.000  28.427   7.583  1.00  0.00     0.277 HD
ATOM     39  H21 UNL     1       6.277  28.532   6.059  1.00  0.00     0.277 HD
ENDBRANCH  31  32
ENDBRANCH  30  31
ENDBRANCH  28  30
ENDBRANCH   1  26
TORSDOF 9
ENDMDL
MODEL 2
REMARK VINA RESULT: -8.689347292      0.930      1.219
REMARK  9 active torsions:
REMARK  status: ('A' for Active; 'I' for Inactive)
REMARK       I    between atoms: C1_2  and  N1_3 
REMARK    1  A    between atoms: C1_2  and  C9_15 
REMARK    2  A    between atoms: N1_3  and  C2_5 
REMARK    3  A    between atoms: C2_5  and  C3_6 
REMARK    4  A    between atoms: C3_6  and  C4_7 
REMARK       I    between atoms: N3_19  and  C13_20 
REMARK    5  A    between atoms: C13_20  and  C14_22 
REMARK    6  A    between atoms: N4_26  and  C18_27 
REMARK    7  A    between atoms: C18_27  and  C19_29 
REMARK    8  A    between atoms: C20_30  and  C21_31 
REMARK    9  A    between atoms: C24_34  and  O3_35 
ROOT
HETATM    1  C9  UNL     1      10.115  26.173   7.920  1.00  0.00     0.179 C 
HETATM    2  C10 UNL     1       9.710  25.889   9.368  1.00  0.00     0.037 C 
HETATM    3  C11 UNL     1       8.636  24.839   9.177  1.00  0.00     0.022 C 
HETATM    4  C12 UNL     1       9.089  24.099   7.917  1.00  0.00     0.127 C 
HETATM    5  N3  UNL     1      10.209  24.832   7.389  1.00  0.00    -0.337 N 
HETATM    6  C13 UNL     1      11.224  24.364   6.521  1.00  0.00     0.243 C 
HETATM    7  O2  UNL     1      12.161  25.067   6.126  1.00  0.00    -0.271 OA
ENDROOT
BRANCH   6   8
HETATM    8  C14 UNL     1      11.104  22.952   6.095  1.00  0.00     0.177 C 
HETATM    9  C15 UNL     1      12.488  22.283   6.342  1.00  0.00     0.037 C 
HETATM   10  C16 UNL     1      12.185  20.948   5.706  1.00  0.00     0.022 C 
HETATM   11  C17 UNL     1      11.384  21.296   4.485  1.00  0.00     0.125 C 
HETATM   12  N4  UNL     1      10.866  22.659   4.740  1.00  0.00    -0.358 N 
BRANCH  12  13
HETATM   13  C18 UNL     1      10.213  23.340   3.687  1.00  0.00     0.099 C 
HETATM   14  S1  UNL     1      11.028  24.081   2.516  1.00  0.00    -0.061 SA
BRANCH  13  15
HETATM   15  C19 UNL     1       8.748  23.423   3.661  1.00  0.00     0.042 C 
HETATM   16  C20 UNL     1       8.048  23.081   2.603  1.00  0.00     0.014 C 
BRANCH  16  17
HETATM   17  C21 UNL     1       6.602  23.161   2.565  1.00  0.00    -0.034 A 
HETATM   18  C22 UNL     1       5.770  22.640   3.525  1.00  0.00     0.014 A 
HETATM   19  C23 UNL     1       4.377  22.728   3.452  1.00  0.00     0.039 A 
HETATM   20  C24 UNL     1       3.796  23.364   2.380  1.00  0.00     0.087 A 
HETATM   21  C25 UNL     1       4.645  23.890   1.414  1.00  0.00     0.068 A 
HETATM   22 CL1  UNL     1       3.879  24.705   0.043  1.00  0.00    -0.081 Cl
HETATM   23  C26 UNL     1       6.010  23.809   1.474  1.00  0.00     0.038 A 
BRANCH  20  24
HETATM   24  O3  UNL     1       2.425  23.481   2.259  1.00  0.00    -0.359 OA
ATOM     25  H3  UNL     1       1.925  22.929   1.669  1.00  0.00     0.217 HD
ENDBRANCH  20  24
ENDBRANCH  16  17
ENDBRANCH  13  15
ENDBRANCH  12  13
ENDBRANCH   6   8
BRANCH   1  26
HETATM   26  C1  UNL     1       9.050  26.887   7.203  1.00  0.00     0.240 C 
HETATM   27  O1  UNL     1       8.598  27.959   7.668  1.00  0.00    -0.271 OA
HETATM   28  N1  UNL     1       8.537  26.363   5.989  1.00  0.00    -0.359 N 
ATOM     29  H1  UNL     1       8.902  25.489   5.611  1.00  0.00     0.162 HD
BRANCH  28  30
HETATM   30  C2  UNL     1       7.475  27.091   5.283  1.00  0.00     0.125 C 
BRANCH  30  31
HETATM   31  C3  UNL     1       6.216  26.286   5.381  1.00  0.00     0.052 C 
BRANCH  31  32
HETATM   32  C4  UNL     1       5.466  26.709   6.626  1.00  0.00     0.187 C 
HETATM   33  C5  UNL     1       4.039  26.205   6.460  1.00  0.00     0.033 C 
HETATM   34  C6  UNL     1       3.226  26.764   7.611  1.00  0.00     0.004 C 
HETATM   35  C7  UNL     1       3.301  28.267   7.614  1.00  0.00     0.027 C 
HETATM   36  C8  UNL     1       4.231  28.772   6.544  1.00  0.00     0.232 C 
HETATM   37  N2  UNL     1       5.523  28.156   6.729  1.00  0.00    -0.071 N 
ATOM     38  H22 UNL     1       5.945  28.446   7.611  1.00  0.00     0.277 HD
ATOM     39  H21 UNL     1       6.211  28.544   6.084  1.00  0.00     0.277 HD
ENDBRANCH  31  32
ENDBRANCH  30  31
ENDBRANCH  28  30
ENDBRANCH   1  26
TORSDOF 9
ENDMDL
MODEL 3
REMARK VINA RESULT: -8.673380335      2.914      5.353
REMARK  9 active torsions:
REMARK  status: ('A' for Active; 'I' for Inactive)
REMARK       I    between atoms: C1_2  and  N1_3 
REMARK    1  A    between atoms: C1_2  and  C9_15 
REMARK    2  A    between atoms: N1_3  and  C2_5 
REMARK    3  A    between atoms: C2_5  and  C3_6 
REMARK    4  A    between atoms: C3_6  and  C4_7 
REMARK       I    between atoms: N3_19  and  C13_20 
REMARK    5  A    between atoms: C13_20  and  C14_22 
REMARK    6  A    between atoms: N4_26  and  C18_27 
REMARK    7  A    between atoms: C18_27  and  C19_29 
REMARK    8  A    between atoms: C20_30  and  C21_31 
REMARK    9  A    between atoms: C24_34  and  O3_35 
ROOT
HETATM    1  C9  UNL     1       9.498  23.054   4.115  1.00  0.00     0.179 C 
HETATM    2  C10 UNL     1       9.104  23.152   2.640  1.00  0.00     0.037 C 
HETATM    3  C11 UNL     1      10.196  24.051   2.099  1.00  0.00     0.022 C 
HETATM    4  C12 UNL     1      11.403  23.700   2.971  1.00  0.00     0.127 C 
HETATM    5  N3  UNL     1      10.921  22.827   4.008  1.00  0.00    -0.337 N 
HETATM    6  C13 UNL     1      11.666  21.911   4.789  1.00  0.00     0.243 C 
HETATM    7  O2  UNL     1      11.163  21.187   5.656  1.00  0.00    -0.271 OA
ENDROOT
BRANCH   6   8
HETATM    8  C14 UNL     1      13.119  21.862   4.511  1.00  0.00     0.177 C 
HETATM    9  C15 UNL     1      13.452  20.400   4.091  1.00  0.00     0.037 C 
HETATM   10  C16 UNL     1      14.954  20.547   4.020  1.00  0.00     0.022 C 
HETATM   11  C17 UNL     1      15.294  21.410   5.201  1.00  0.00     0.125 C 
HETATM   12  N4  UNL     1      14.029  22.089   5.559  1.00  0.00    -0.358 N 
BRANCH  12  13
HETATM   13  C18 UNL     1      13.984  22.843   6.754  1.00  0.00     0.099 C 
HETATM   14  S1  UNL     1      15.145  22.754   7.863  1.00  0.00    -0.061 SA
BRANCH  13  15
HETATM   15  C19 UNL     1      12.834  23.710   7.035  1.00  0.00     0.042 C 
HETATM   16  C20 UNL     1      12.561  24.137   8.246  1.00  0.00     0.014 C 
BRANCH  16  17
HETATM   17  C21 UNL     1      11.427  24.991   8.536  1.00  0.00    -0.034 A 
HETATM   18  C22 UNL     1      11.512  26.340   8.777  1.00  0.00     0.014 A 
HETATM   19  C23 UNL     1      10.397  27.133   9.061  1.00  0.00     0.039 A 
HETATM   20  C24 UNL     1       9.150  26.554   9.105  1.00  0.00     0.087 A 
HETATM   21  C25 UNL     1       9.072  25.189   8.859  1.00  0.00     0.068 A 
HETATM   22 CL1  UNL     1       7.460  24.463   8.918  1.00  0.00    -0.081 Cl
HETATM   23  C26 UNL     1      10.157  24.402   8.581  1.00  0.00     0.038 A 
BRANCH  20  24
HETATM   24  O3  UNL     1       8.015  27.291   9.380  1.00  0.00    -0.359 OA
ATOM     25  H3  UNL     1       7.274  27.310   8.787  1.00  0.00     0.217 HD
ENDBRANCH  20  24
ENDBRANCH  16  17
ENDBRANCH  13  15
ENDBRANCH  12  13
ENDBRANCH   6   8
BRANCH   1  26
HETATM   26  C1  UNL     1       9.279  24.331   4.808  1.00  0.00     0.240 C 
HETATM   27  O1  UNL     1      10.255  24.950   5.292  1.00  0.00    -0.271 OA
HETATM   28  N1  UNL     1       7.969  24.859   4.927  1.00  0.00    -0.359 N 
ATOM     29  H1  UNL     1       7.173  24.355   4.535  1.00  0.00     0.162 HD
BRANCH  28  30
HETATM   30  C2  UNL     1       7.768  26.138   5.620  1.00  0.00     0.125 C 
BRANCH  30  31
HETATM   31  C3  UNL     1       6.404  26.647   5.269  1.00  0.00     0.052 C 
BRANCH  31  32
HETATM   32  C4  UNL     1       5.637  26.901   6.550  1.00  0.00     0.187 C 
HETATM   33  C5  UNL     1       4.271  26.253   6.368  1.00  0.00     0.033 C 
HETATM   34  C6  UNL     1       3.425  26.641   7.564  1.00  0.00     0.004 C 
HETATM   35  C7  UNL     1       3.334  28.140   7.667  1.00  0.00     0.027 C 
HETATM   36  C8  UNL     1       4.181  28.814   6.622  1.00  0.00     0.232 C 
HETATM   37  N2  UNL     1       5.536  28.335   6.749  1.00  0.00    -0.071 N 
ATOM     38  H22 UNL     1       5.941  28.611   7.643  1.00  0.00     0.277 HD
ATOM     39  H21 UNL     1       6.164  28.838   6.123  1.00  0.00     0.277 HD
ENDBRANCH  31  32
ENDBRANCH  30  31
ENDBRANCH  28  30
ENDBRANCH   1  26
TORSDOF 9
ENDMDL
MODEL 4
REMARK VINA RESULT: -8.241441152      3.657      9.116
REMARK  9 active torsions:
REMARK  status: ('A' for Active; 'I' for Inactive)
REMARK       I    between atoms: C1_2  and  N1_3 
REMARK    1  A    between atoms: C1_2  and  C9_15 
REMARK    2  A    between atoms: N1_3  and  C2_5 
REMARK    3  A    between atoms: C2_5  and  C3_6 
REMARK    4  A    between atoms: C3_6  and  C4_7 
REMARK       I    between atoms: N3_19  and  C13_20 
REMARK    5  A    between atoms: C13_20  and  C14_22 
REMARK    6  A    between atoms: N4_26  and  C18_27 
REMARK    7  A    between atoms: C18_27  and  C19_29 
REMARK    8  A    between atoms: C20_30  and  C21_31 
REMARK    9  A    between atoms: C24_34  and  O3_35 
ROOT
HETATM    1  C9  UNL     1       9.963  24.508   3.054  1.00  0.00     0.179 C 
HETATM    2  C10 UNL     1       9.311  23.414   2.206  1.00  0.00     0.037 C 
HETATM    3  C11 UNL     1       8.900  22.417   3.270  1.00  0.00     0.022 C 
HETATM    4  C12 UNL     1       8.597  23.301   4.480  1.00  0.00     0.127 C 
HETATM    5  N3  UNL     1       9.005  24.635   4.128  1.00  0.00    -0.337 N 
HETATM    6  C13 UNL     1       8.571  25.856   4.698  1.00  0.00     0.243 C 
HETATM    7  O2  UNL     1       8.968  26.964   4.321  1.00  0.00    -0.271 OA
ENDROOT
BRANCH   6   8
HETATM    8  C14 UNL     1       7.591  25.739   5.801  1.00  0.00     0.177 C 
HETATM    9  C15 UNL     1       6.499  26.820   5.556  1.00  0.00     0.037 C 
HETATM   10  C16 UNL     1       5.730  26.627   6.842  1.00  0.00     0.022 C 
HETATM   11  C17 UNL     1       6.796  26.418   7.879  1.00  0.00     0.125 C 
HETATM   12  N4  UNL     1       7.999  26.016   7.118  1.00  0.00    -0.358 N 
BRANCH  12  13
HETATM   13  C18 UNL     1       9.230  25.918   7.807  1.00  0.00     0.099 C 
HETATM   14  S1  UNL     1       9.774  27.098   8.753  1.00  0.00    -0.061 SA
BRANCH  13  15
HETATM   15  C19 UNL     1      10.075  24.730   7.638  1.00  0.00     0.042 C 
HETATM   16  C20 UNL     1      11.387  24.795   7.683  1.00  0.00     0.014 C 
BRANCH  16  17
HETATM   17  C21 UNL     1      12.232  23.630   7.515  1.00  0.00    -0.034 A 
HETATM   18  C22 UNL     1      11.774  22.380   7.180  1.00  0.00     0.014 A 
HETATM   19  C23 UNL     1      12.617  21.275   7.034  1.00  0.00     0.039 A 
HETATM   20  C24 UNL     1      13.970  21.428   7.230  1.00  0.00     0.087 A 
HETATM   21  C25 UNL     1      14.425  22.697   7.568  1.00  0.00     0.068 A 
HETATM   22 CL1  UNL     1      16.169  22.874   7.813  1.00  0.00    -0.081 Cl
HETATM   23  C26 UNL     1      13.609  23.786   7.714  1.00  0.00     0.038 A 
BRANCH  20  24
HETATM   24  O3  UNL     1      14.849  20.371   7.097  1.00  0.00    -0.359 OA
ATOM     25  H3  UNL     1      15.790  20.494   7.133  1.00  0.00     0.217 HD
ENDBRANCH  20  24
ENDBRANCH  16  17
ENDBRANCH  13  15
ENDBRANCH  12  13
ENDBRANCH   6   8
BRANCH   1  26
HETATM   26  C1  UNL     1      11.240  24.049   3.618  1.00  0.00     0.240 C 
HETATM   27  O1  UNL     1      11.795  24.718   4.521  1.00  0.00    -0.271 OA
HETATM   28  N1  UNL     1      11.839  22.856   3.144  1.00  0.00    -0.359 N 
ATOM     29  H1  UNL     1      11.389  22.311   2.408  1.00  0.00     0.162 HD
BRANCH  28  30
HETATM   30  C2  UNL     1      13.113  22.410   3.722  1.00  0.00     0.125 C 
BRANCH  30  31
HETATM   31  C3  UNL     1      13.210  20.927   3.543  1.00  0.00     0.052 C 
BRANCH  31  32
HETATM   32  C4  UNL     1      14.580  20.594   2.990  1.00  0.00     0.187 C 
HETATM   33  C5  UNL     1      14.437  19.268   2.254  1.00  0.00     0.033 C 
HETATM   34  C6  UNL     1      15.827  18.828   1.841  1.00  0.00     0.004 C 
HETATM   35  C7  UNL     1      16.713  18.713   3.052  1.00  0.00     0.027 C 
HETATM   36  C8  UNL     1      15.998  19.157   4.299  1.00  0.00     0.232 C 
HETATM   37  N2  UNL     1      15.514  20.502   4.097  1.00  0.00    -0.071 N 
ATOM     38  H22 UNL     1      16.286  21.157   3.982  1.00  0.00     0.277 HD
ATOM     39  H21 UNL     1      15.107  20.879   4.954  1.00  0.00     0.277 HD
ENDBRANCH  31  32
ENDBRANCH  30  31
ENDBRANCH  28  30
ENDBRANCH   1  26
TORSDOF 9
ENDMDL
MODEL 5
REMARK VINA RESULT: -8.155787114      3.740      5.965
REMARK  9 active torsions:
REMARK  status: ('A' for Active; 'I' for Inactive)
REMARK       I    between atoms: C1_2  and  N1_3 
REMARK    1  A    between atoms: C1_2  and  C9_15 
REMARK    2  A    between atoms: N1_3  and  C2_5 
REMARK    3  A    between atoms: C2_5  and  C3_6 
REMARK    4  A    between atoms: C3_6  and  C4_7 
REMARK       I    between atoms: N3_19  and  C13_20 
REMARK    5  A    between atoms: C13_20  and  C14_22 
REMARK    6  A    between atoms: N4_26  and  C18_27 
REMARK    7  A    between atoms: C18_27  and  C19_29 
REMARK    8  A    between atoms: C20_30  and  C21_31 
REMARK    9  A    between atoms: C24_34  and  O3_35 
ROOT
HETATM    1  C9  UNL     1      15.210  23.044   7.240  1.00  0.00     0.179 C 
HETATM    2  C10 UNL     1      16.009  23.125   8.542  1.00  0.00     0.037 C 
HETATM    3  C11 UNL     1      15.616  21.827   9.216  1.00  0.00     0.022 C 
HETATM    4  C12 UNL     1      15.382  20.878   8.039  1.00  0.00     0.127 C 
HETATM    5  N3  UNL     1      15.462  21.676   6.844  1.00  0.00    -0.337 N 
HETATM    6  C13 UNL     1      15.735  21.242   5.525  1.00  0.00     0.243 C 
HETATM    7  O2  UNL     1      15.797  22.006   4.555  1.00  0.00    -0.271 OA
ENDROOT
BRANCH   6   8
HETATM    8  C14 UNL     1      15.946  19.787   5.358  1.00  0.00     0.177 C 
HETATM    9  C15 UNL     1      17.479  19.536   5.452  1.00  0.00     0.037 C 
HETATM   10  C16 UNL     1      17.466  18.067   5.102  1.00  0.00     0.022 C 
HETATM   11  C17 UNL     1      16.444  17.959   4.008  1.00  0.00     0.125 C 
HETATM   12  N4  UNL     1      15.616  19.179   4.133  1.00  0.00    -0.358 N 
BRANCH  12  13
HETATM   13  C18 UNL     1      14.668  19.456   3.122  1.00  0.00     0.099 C 
HETATM   14  S1  UNL     1      14.970  19.172   1.569  1.00  0.00    -0.061 SA
BRANCH  13  15
HETATM   15  C19 UNL     1      13.377  20.061   3.469  1.00  0.00     0.042 C 
HETATM   16  C20 UNL     1      13.044  21.270   3.076  1.00  0.00     0.014 C 
BRANCH  16  17
HETATM   17  C21 UNL     1      11.773  21.878   3.414  1.00  0.00    -0.034 A 
HETATM   18  C22 UNL     1      10.548  21.349   3.090  1.00  0.00     0.014 A 
HETATM   19  C23 UNL     1       9.341  21.967   3.425  1.00  0.00     0.039 A 
HETATM   20  C24 UNL     1       9.360  23.159   4.112  1.00  0.00     0.087 A 
HETATM   21  C25 UNL     1      10.603  23.686   4.438  1.00  0.00     0.068 A 
HETATM   22 CL1  UNL     1      10.608  25.218   5.324  1.00  0.00    -0.081 Cl
HETATM   23  C26 UNL     1      11.793  23.091   4.114  1.00  0.00     0.038 A 
BRANCH  20  24
HETATM   24  O3  UNL     1       8.197  23.811   4.470  1.00  0.00    -0.359 OA
ATOM     25  H3  UNL     1       7.545  23.403   5.028  1.00  0.00     0.217 HD
ENDBRANCH  20  24
ENDBRANCH  16  17
ENDBRANCH  13  15
ENDBRANCH  12  13
ENDBRANCH   6   8
BRANCH   1  26
HETATM   26  C1  UNL     1      13.771  23.200   7.491  1.00  0.00     0.240 C 
HETATM   27  O1  UNL     1      12.985  22.270   7.197  1.00  0.00    -0.271 OA
HETATM   28  N1  UNL     1      13.276  24.398   8.064  1.00  0.00    -0.359 N 
ATOM     29  H1  UNL     1      13.915  25.157   8.302  1.00  0.00     0.162 HD
BRANCH  28  30
HETATM   30  C2  UNL     1      11.836  24.537   8.312  1.00  0.00     0.125 C 
BRANCH  30  31
HETATM   31  C3  UNL     1      11.640  25.634   9.312  1.00  0.00     0.052 C 
BRANCH  31  32
HETATM   32  C4  UNL     1      10.154  25.860   9.499  1.00  0.00     0.187 C 
HETATM   33  C5  UNL     1       9.450  24.769   8.703  1.00  0.00     0.033 C 
HETATM   34  C6  UNL     1       7.966  25.075   8.732  1.00  0.00     0.004 C 
HETATM   35  C7  UNL     1       7.711  26.446   8.167  1.00  0.00     0.027 C 
HETATM   36  C8  UNL     1       8.997  27.149   7.830  1.00  0.00     0.232 C 
HETATM   37  N2  UNL     1       9.825  27.186   9.012  1.00  0.00    -0.071 N 
ATOM     38  H22 UNL     1       9.394  27.750   9.745  1.00  0.00     0.277 HD
ATOM     39  H21 UNL     1      10.667  27.740   8.855  1.00  0.00     0.277 HD
ENDBRANCH  31  32
ENDBRANCH  30  31
ENDBRANCH  28  30
ENDBRANCH   1  26
TORSDOF 9
ENDMDL
