MODEL 1
REMARK VINA RESULT: -8.797266199      0.000      0.000
REMARK  10 active torsions:
REMARK  status: ('A' for Active; 'I' for Inactive)
REMARK    1  A    between atoms: C3_3  and  C4_4 
REMARK    2  A    between atoms: C6_6  and  S1_7 
REMARK    3  A    between atoms: S1_7  and  N1_8 
REMARK    4  A    between atoms: C9_15  and  N2_16 
REMARK       I    between atoms: N2_16  and  C10_18 
REMARK    5  A    between atoms: C10_18  and  C11_20 
REMARK    6  A    between atoms: C11_20  and  C12_21 
REMARK    7  A    between atoms: C12_21  and  C13_22 
REMARK    8  A    between atoms: C13_22  and  C14_23 
REMARK    9  A    between atoms: C14_23  and  C15_24 
REMARK   10  A    between atoms: C15_24  and  N3_25 
ROOT
HETATM    1  C1  UNL     1      16.318  22.461   9.261  1.00  0.00     0.112 C 
HETATM    2  C2  UNL     1      15.813  21.944   7.994  1.00  0.00    -0.105 C 
HETATM    3  C3  UNL     1      15.403  21.496   6.936  1.00  0.00    -0.065 C 
ENDROOT
BRANCH   3   4
HETATM    4  C4  UNL     1      14.900  20.969   5.695  1.00  0.00     0.045 A 
HETATM    5  C5  UNL     1      15.662  20.146   4.929  1.00  0.00     0.048 A 
HETATM    6  C6  UNL     1      15.216  19.632   3.752  1.00  0.00     0.080 A 
HETATM    7  C7  UNL     1      13.958  19.954   3.322  1.00  0.00     0.027 A 
HETATM    8  C8  UNL     1      13.162  20.803   4.103  1.00  0.00     0.032 A 
HETATM    9  C9  UNL     1      13.604  21.323   5.287  1.00  0.00     0.053 A 
BRANCH   6  10
HETATM   10  S1  UNL     1      16.280  18.572   2.833  1.00  0.00     0.256 S 
HETATM   11  O1  UNL     1      15.970  17.147   3.187  1.00  0.00    -0.201 OA
HETATM   12  O2  UNL     1      17.695  18.878   3.173  1.00  0.00    -0.201 OA
BRANCH  10  13
HETATM   13  N1  UNL     1      16.025  18.816   1.127  1.00  0.00    -0.324 N 
ATOM     14  H12 UNL     1      15.299  19.414   0.734  1.00  0.00     0.169 HD
ATOM     15  H11 UNL     1      16.706  18.275   0.595  1.00  0.00     0.169 HD
ENDBRANCH  10  13
ENDBRANCH   6  10
BRANCH   9  16
HETATM   16  N2  UNL     1      12.882  22.181   6.137  1.00  0.00    -0.326 N 
HETATM   17  C10 UNL     1      11.709  21.858   6.835  1.00  0.00     0.222 C 
HETATM   18  O3  UNL     1      11.126  20.748   6.806  1.00  0.00    -0.273 OA
ATOM     19  H2  UNL     1      13.246  23.126   6.257  1.00  0.00     0.169 HD
BRANCH  17  20
HETATM   20  C11 UNL     1      11.100  22.944   7.695  1.00  0.00     0.103 C 
BRANCH  20  21
HETATM   21  C12 UNL     1      11.930  24.198   7.541  1.00  0.00     0.009 C 
BRANCH  21  22
HETATM   22  C13 UNL     1      11.200  25.437   8.009  1.00  0.00     0.002 C 
BRANCH  22  23
HETATM   23  C14 UNL     1       9.820  25.446   7.394  1.00  0.00     0.020 C 
BRANCH  23  24
HETATM   24  C15 UNL     1       9.743  26.060   6.044  1.00  0.00     0.135 C 
BRANCH  24  25
HETATM   25  N3  UNL     1       8.867  25.426   5.101  1.00  0.00    -0.279 N 
HETATM   26  C16 UNL     1       7.584  25.801   4.650  1.00  0.00     0.268 A 
HETATM   27  O4  UNL     1       6.943  26.783   4.998  1.00  0.00    -0.266 OA
HETATM   28  C17 UNL     1       7.164  24.776   3.672  1.00  0.00     0.090 A 
HETATM   29  S2  UNL     1       5.939  24.259   2.609  1.00  0.00    -0.094 SA
HETATM   30  C20 UNL     1       8.128  23.818   3.523  1.00  0.00     0.073 A 
HETATM   31  C18 UNL     1       6.662  22.849   1.997  1.00  0.00     0.070 A 
HETATM   32  C19 UNL     1       7.867  22.811   2.648  1.00  0.00     0.034 A 
HETATM   33 BR1  UNL     1       9.058  21.311   2.236  1.00  0.00    -0.049 Br
HETATM   34  C21 UNL     1       9.245  24.207   4.432  1.00  0.00     0.263 A 
HETATM   35  O5  UNL     1      10.329  23.590   4.597  1.00  0.00    -0.267 OA
ENDBRANCH  24  25
ENDBRANCH  23  24
ENDBRANCH  22  23
ENDBRANCH  21  22
ENDBRANCH  20  21
ENDBRANCH  17  20
ENDBRANCH   9  16
ENDBRANCH   3   4
TORSDOF 10
ENDMDL
MODEL 2
REMARK VINA RESULT: -8.699220435      2.527      3.830
REMARK  10 active torsions:
REMARK  status: ('A' for Active; 'I' for Inactive)
REMARK    1  A    between atoms: C3_3  and  C4_4 
REMARK    2  A    between atoms: C6_6  and  S1_7 
REMARK    3  A    between atoms: S1_7  and  N1_8 
REMARK    4  A    between atoms: C9_15  and  N2_16 
REMARK       I    between atoms: N2_16  and  C10_18 
REMARK    5  A    between atoms: C10_18  and  C11_20 
REMARK    6  A    between atoms: C11_20  and  C12_21 
REMARK    7  A    between atoms: C12_21  and  C13_22 
REMARK    8  A    between atoms: C13_22  and  C14_23 
REMARK    9  A    between atoms: C14_23  and  C15_24 
REMARK   10  A    between atoms: C15_24  and  N3_25 
ROOT
HETATM    1  C1  UNL     1       9.438  22.028   3.113  1.00  0.00     0.112 C 
HETATM    2  C2  UNL     1      10.806  21.691   3.493  1.00  0.00    -0.105 C 
HETATM    3  C3  UNL     1      11.951  21.428   3.820  1.00  0.00    -0.065 C 
ENDROOT
BRANCH   3   4
HETATM    4  C4  UNL     1      13.295  21.098   4.214  1.00  0.00     0.045 A 
HETATM    5  C5  UNL     1      14.010  20.165   3.535  1.00  0.00     0.048 A 
HETATM    6  C6  UNL     1      15.282  19.832   3.882  1.00  0.00     0.080 A 
HETATM    7  C7  UNL     1      15.862  20.455   4.952  1.00  0.00     0.027 A 
HETATM    8  C8  UNL     1      15.135  21.420   5.663  1.00  0.00     0.032 A 
HETATM    9  C9  UNL     1      13.856  21.760   5.318  1.00  0.00     0.053 A 
BRANCH   6  10
HETATM   10  S1  UNL     1      16.125  18.610   2.936  1.00  0.00     0.256 S 
HETATM   11  O1  UNL     1      15.668  17.250   3.380  1.00  0.00    -0.201 OA
HETATM   12  O2  UNL     1      17.591  18.742   3.152  1.00  0.00    -0.201 OA
BRANCH  10  13
HETATM   13  N1  UNL     1      15.765  18.820   1.244  1.00  0.00    -0.324 N 
ATOM     14  H12 UNL     1      14.893  19.209   0.887  1.00  0.00     0.169 HD
ATOM     15  H11 UNL     1      16.552  18.499   0.681  1.00  0.00     0.169 HD
ENDBRANCH  10  13
ENDBRANCH   6  10
BRANCH   9  16
HETATM   16  N2  UNL     1      13.048  22.712   5.968  1.00  0.00    -0.326 N 
HETATM   17  C10 UNL     1      12.472  22.578   7.239  1.00  0.00     0.222 C 
HETATM   18  O3  UNL     1      12.593  21.582   7.993  1.00  0.00    -0.273 OA
ATOM     19  H2  UNL     1      12.865  23.581   5.467  1.00  0.00     0.169 HD
BRANCH  17  20
HETATM   20  C11 UNL     1      11.635  23.735   7.740  1.00  0.00     0.103 C 
BRANCH  20  21
HETATM   21  C12 UNL     1      10.197  23.493   7.343  1.00  0.00     0.009 C 
BRANCH  21  22
HETATM   22  C13 UNL     1       9.814  24.225   6.076  1.00  0.00     0.002 C 
BRANCH  22  23
HETATM   23  C14 UNL     1       9.723  25.703   6.381  1.00  0.00     0.020 C 
BRANCH  23  24
HETATM   24  C15 UNL     1       8.961  26.497   5.385  1.00  0.00     0.135 C 
BRANCH  24  25
HETATM   25  N3  UNL     1       7.602  26.813   5.722  1.00  0.00    -0.279 N 
HETATM   26  C16 UNL     1       7.081  27.696   6.691  1.00  0.00     0.268 A 
HETATM   27  O4  UNL     1       7.721  28.390   7.469  1.00  0.00    -0.266 OA
HETATM   28  C17 UNL     1       5.610  27.621   6.583  1.00  0.00     0.090 A 
HETATM   29  S2  UNL     1       4.121  28.187   7.185  1.00  0.00    -0.094 SA
HETATM   30  C20 UNL     1       5.235  26.743   5.605  1.00  0.00     0.073 A 
HETATM   31  C18 UNL     1       3.055  27.308   6.195  1.00  0.00     0.070 A 
HETATM   32  C19 UNL     1       3.901  26.578   5.401  1.00  0.00     0.034 A 
HETATM   33 BR1  UNL     1       3.080  25.392   4.075  1.00  0.00    -0.049 Br
HETATM   34  C21 UNL     1       6.499  26.201   5.026  1.00  0.00     0.263 A 
HETATM   35  O5  UNL     1       6.599  25.360   4.095  1.00  0.00    -0.267 OA
ENDBRANCH  24  25
ENDBRANCH  23  24
ENDBRANCH  22  23
ENDBRANCH  21  22
ENDBRANCH  20  21
ENDBRANCH  17  20
ENDBRANCH   9  16
ENDBRANCH   3   4
TORSDOF 10
ENDMDL
MODEL 3
REMARK VINA RESULT: -8.672789771      4.228     10.222
REMARK  10 active torsions:
REMARK  status: ('A' for Active; 'I' for Inactive)
REMARK    1  A    between atoms: C3_3  and  C4_4 
REMARK    2  A    between atoms: C6_6  and  S1_7 
REMARK    3  A    between atoms: S1_7  and  N1_8 
REMARK    4  A    between atoms: C9_15  and  N2_16 
REMARK       I    between atoms: N2_16  and  C10_18 
REMARK    5  A    between atoms: C10_18  and  C11_20 
REMARK    6  A    between atoms: C11_20  and  C12_21 
REMARK    7  A    between atoms: C12_21  and  C13_22 
REMARK    8  A    between atoms: C13_22  and  C14_23 
REMARK    9  A    between atoms: C14_23  and  C15_24 
REMARK   10  A    between atoms: C15_24  and  N3_25 
ROOT
HETATM    1  C1  UNL     1      14.159  21.266   9.264  1.00  0.00     0.112 C 
HETATM    2  C2  UNL     1      13.271  22.186   8.562  1.00  0.00    -0.105 C 
HETATM    3  C3  UNL     1      12.527  22.942   7.959  1.00  0.00    -0.065 C 
ENDROOT
BRANCH   3   4
HETATM    4  C4  UNL     1      11.637  23.834   7.265  1.00  0.00     0.045 A 
HETATM    5  C5  UNL     1      10.914  24.763   7.943  1.00  0.00     0.048 A 
HETATM    6  C6  UNL     1      10.065  25.620   7.316  1.00  0.00     0.080 A 
HETATM    7  C7  UNL     1       9.932  25.546   5.957  1.00  0.00     0.027 A 
HETATM    8  C8  UNL     1      10.672  24.593   5.245  1.00  0.00     0.032 A 
HETATM    9  C9  UNL     1      11.528  23.728   5.869  1.00  0.00     0.053 A 
BRANCH   6  10
HETATM   10  S1  UNL     1       9.173  26.789   8.285  1.00  0.00     0.256 S 
HETATM   11  O1  UNL     1       7.946  26.124   8.839  1.00  0.00    -0.201 OA
HETATM   12  O2  UNL     1       8.779  27.941   7.431  1.00  0.00    -0.201 OA
BRANCH  10  13
HETATM   13  N1  UNL     1      10.172  27.352   9.597  1.00  0.00    -0.324 N 
ATOM     14  H12 UNL     1      11.177  27.507   9.528  1.00  0.00     0.169 HD
ATOM     15  H11 UNL     1       9.600  27.498  10.429  1.00  0.00     0.169 HD
ENDBRANCH  10  13
ENDBRANCH   6  10
BRANCH   9  16
HETATM   16  N2  UNL     1      12.310  22.740   5.243  1.00  0.00    -0.326 N 
HETATM   17  C10 UNL     1      11.829  21.651   4.502  1.00  0.00     0.222 C 
HETATM   18  O3  UNL     1      10.620  21.395   4.284  1.00  0.00    -0.273 OA
ATOM     19  H2  UNL     1      13.322  22.824   5.337  1.00  0.00     0.169 HD
BRANCH  17  20
HETATM   20  C11 UNL     1      12.858  20.709   3.916  1.00  0.00     0.103 C 
BRANCH  20  21
HETATM   21  C12 UNL     1      13.672  20.127   5.048  1.00  0.00     0.009 C 
BRANCH  21  22
HETATM   22  C13 UNL     1      15.106  20.609   5.040  1.00  0.00     0.002 C 
BRANCH  22  23
HETATM   23  C14 UNL     1      15.966  19.557   4.379  1.00  0.00     0.020 C 
BRANCH  23  24
HETATM   24  C15 UNL     1      17.380  19.534   4.832  1.00  0.00     0.135 C 
BRANCH  24  25
HETATM   25  N3  UNL     1      17.979  18.241   4.999  1.00  0.00    -0.279 N 
HETATM   26  C16 UNL     1      18.374  17.286   4.041  1.00  0.00     0.268 A 
HETATM   27  O4  UNL     1      18.272  17.381   2.825  1.00  0.00    -0.266 OA
HETATM   28  C17 UNL     1      18.939  16.144   4.790  1.00  0.00     0.090 A 
HETATM   29  S2  UNL     1      19.647  14.600   4.684  1.00  0.00    -0.094 SA
HETATM   30  C20 UNL     1      18.896  16.374   6.136  1.00  0.00     0.073 A 
HETATM   31  C18 UNL     1      19.877  14.273   6.335  1.00  0.00     0.070 A 
HETATM   32  C19 UNL     1      19.387  15.397   6.945  1.00  0.00     0.034 A 
HETATM   33 BR1  UNL     1      19.454  15.454   8.902  1.00  0.00    -0.049 Br
HETATM   34  C21 UNL     1      18.282  17.722   6.309  1.00  0.00     0.263 A 
HETATM   35  O5  UNL     1      18.061  18.314   7.398  1.00  0.00    -0.267 OA
ENDBRANCH  24  25
ENDBRANCH  23  24
ENDBRANCH  22  23
ENDBRANCH  21  22
ENDBRANCH  20  21
ENDBRANCH  17  20
ENDBRANCH   9  16
ENDBRANCH   3   4
TORSDOF 10
ENDMDL
MODEL 4
REMARK VINA RESULT: -8.604688247      3.034      9.180
REMARK  10 active torsions:
REMARK  status: ('A' for Active; 'I' for Inactive)
REMARK    1  A    between atoms: C3_3  and  C4_4 
REMARK    2  A    between atoms: C6_6  and  S1_7 
REMARK    3  A    between atoms: S1_7  and  N1_8 
REMARK    4  A    between atoms: C9_15  and  N2_16 
REMARK       I    between atoms: N2_16  and  C10_18 
REMARK    5  A    between atoms: C10_18  and  C11_20 
REMARK    6  A    between atoms: C11_20  and  C12_21 
REMARK    7  A    between atoms: C12_21  and  C13_22 
REMARK    8  A    between atoms: C13_22  and  C14_23 
REMARK    9  A    between atoms: C14_23  and  C15_24 
REMARK   10  A    between atoms: C15_24  and  N3_25 
ROOT
HETATM    1  C1  UNL     1      11.295  21.292   3.534  1.00  0.00     0.112 C 
HETATM    2  C2  UNL     1      10.940  22.243   4.583  1.00  0.00    -0.105 C 
HETATM    3  C3  UNL     1      10.659  23.030   5.471  1.00  0.00    -0.065 C 
ENDROOT
BRANCH   3   4
HETATM    4  C4  UNL     1      10.328  23.974   6.505  1.00  0.00     0.045 A 
HETATM    5  C5  UNL     1       9.475  25.003   6.261  1.00  0.00     0.048 A 
HETATM    6  C6  UNL     1       9.142  25.911   7.216  1.00  0.00     0.080 A 
HETATM    7  C7  UNL     1       9.684  25.788   8.466  1.00  0.00     0.027 A 
HETATM    8  C8  UNL     1      10.566  24.731   8.731  1.00  0.00     0.032 A 
HETATM    9  C9  UNL     1      10.904  23.815   7.775  1.00  0.00     0.053 A 
BRANCH   6  10
HETATM   10  S1  UNL     1       8.027  27.208   6.800  1.00  0.00     0.256 S 
HETATM   11  O1  UNL     1       8.186  27.537   5.343  1.00  0.00    -0.201 OA
HETATM   12  O2  UNL     1       8.335  28.408   7.622  1.00  0.00    -0.201 OA
BRANCH  10  13
HETATM   13  N1  UNL     1       6.389  26.699   7.105  1.00  0.00    -0.324 N 
ATOM     14  H12 UNL     1       6.131  25.781   7.466  1.00  0.00     0.169 HD
ATOM     15  H11 UNL     1       5.742  27.452   6.869  1.00  0.00     0.169 HD
ENDBRANCH  10  13
ENDBRANCH   6  10
BRANCH   9  16
HETATM   16  N2  UNL     1      11.777  22.724   7.945  1.00  0.00    -0.326 N 
HETATM   17  C10 UNL     1      13.142  22.700   7.624  1.00  0.00     0.222 C 
HETATM   18  O3  UNL     1      13.792  23.655   7.135  1.00  0.00    -0.273 OA
ATOM     19  H2  UNL     1      11.380  21.872   8.339  1.00  0.00     0.169 HD
BRANCH  17  20
HETATM   20  C11 UNL     1      13.889  21.412   7.893  1.00  0.00     0.103 C 
BRANCH  20  21
HETATM   21  C12 UNL     1      14.328  21.406   9.339  1.00  0.00     0.009 C 
BRANCH  21  22
HETATM   22  C13 UNL     1      15.799  21.093   9.497  1.00  0.00     0.002 C 
BRANCH  22  23
HETATM   23  C14 UNL     1      16.166  19.993   8.527  1.00  0.00     0.020 C 
BRANCH  23  24
HETATM   24  C15 UNL     1      17.208  20.360   7.535  1.00  0.00     0.135 C 
BRANCH  24  25
HETATM   25  N3  UNL     1      17.213  19.617   6.307  1.00  0.00    -0.279 N 
HETATM   26  C16 UNL     1      18.008  18.525   5.902  1.00  0.00     0.268 A 
HETATM   27  O4  UNL     1      18.889  17.980   6.552  1.00  0.00    -0.266 OA
HETATM   28  C17 UNL     1      17.567  18.164   4.539  1.00  0.00     0.090 A 
HETATM   29  S2  UNL     1      17.792  17.119   3.214  1.00  0.00    -0.094 SA
HETATM   30  C20 UNL     1      16.558  18.984   4.118  1.00  0.00     0.073 A 
HETATM   31  C18 UNL     1      16.613  17.732   2.157  1.00  0.00     0.070 A 
HETATM   32  C19 UNL     1      16.057  18.759   2.874  1.00  0.00     0.034 A 
HETATM   33 BR1  UNL     1      14.617  19.773   2.016  1.00  0.00    -0.049 Br
HETATM   34  C21 UNL     1      16.302  19.937   5.237  1.00  0.00     0.263 A 
HETATM   35  O5  UNL     1      15.447  20.860   5.258  1.00  0.00    -0.267 OA
ENDBRANCH  24  25
ENDBRANCH  23  24
ENDBRANCH  22  23
ENDBRANCH  21  22
ENDBRANCH  20  21
ENDBRANCH  17  20
ENDBRANCH   9  16
ENDBRANCH   3   4
TORSDOF 10
ENDMDL
MODEL 5
REMARK VINA RESULT: -8.591422202      3.214      4.999
REMARK  10 active torsions:
REMARK  status: ('A' for Active; 'I' for Inactive)
REMARK    1  A    between atoms: C3_3  and  C4_4 
REMARK    2  A    between atoms: C6_6  and  S1_7 
REMARK    3  A    between atoms: S1_7  and  N1_8 
REMARK    4  A    between atoms: C9_15  and  N2_16 
REMARK       I    between atoms: N2_16  and  C10_18 
REMARK    5  A    between atoms: C10_18  and  C11_20 
REMARK    6  A    between atoms: C11_20  and  C12_21 
REMARK    7  A    between atoms: C12_21  and  C13_22 
REMARK    8  A    between atoms: C13_22  and  C14_23 
REMARK    9  A    between atoms: C14_23  and  C15_24 
REMARK   10  A    between atoms: C15_24  and  N3_25 
ROOT
HETATM    1  C1  UNL     1      14.777  19.153   1.738  1.00  0.00     0.112 C 
HETATM    2  C2  UNL     1      14.681  19.948   2.957  1.00  0.00    -0.105 C 
HETATM    3  C3  UNL     1      14.620  20.621   3.973  1.00  0.00    -0.065 C 
ENDROOT
BRANCH   3   4
HETATM    4  C4  UNL     1      14.530  21.422   5.165  1.00  0.00     0.045 A 
HETATM    5  C5  UNL     1      15.397  21.239   6.194  1.00  0.00     0.048 A 
HETATM    6  C6  UNL     1      15.337  21.979   7.333  1.00  0.00     0.080 A 
HETATM    7  C7  UNL     1      14.372  22.941   7.448  1.00  0.00     0.027 A 
HETATM    8  C8  UNL     1      13.471  23.140   6.394  1.00  0.00     0.032 A 
HETATM    9  C9  UNL     1      13.525  22.399   5.246  1.00  0.00     0.053 A 
BRANCH   6  10
HETATM   10  S1  UNL     1      16.509  21.665   8.609  1.00  0.00     0.256 S 
HETATM   11  O1  UNL     1      16.063  20.465   9.393  1.00  0.00    -0.201 OA
HETATM   12  O2  UNL     1      16.591  22.849   9.506  1.00  0.00    -0.201 OA
BRANCH  10  13
HETATM   13  N1  UNL     1      18.074  21.355   7.910  1.00  0.00    -0.324 N 
ATOM     14  H12 UNL     1      18.240  20.714   7.135  1.00  0.00     0.169 HD
ATOM     15  H11 UNL     1      18.784  21.906   8.392  1.00  0.00     0.169 HD
ENDBRANCH  10  13
ENDBRANCH   6  10
BRANCH   9  16
HETATM   16  N2  UNL     1      12.667  22.524   4.138  1.00  0.00    -0.326 N 
HETATM   17  C10 UNL     1      11.384  21.971   4.018  1.00  0.00     0.222 C 
HETATM   18  O3  UNL     1      10.806  21.278   4.890  1.00  0.00    -0.273 OA
ATOM     19  H2  UNL     1      13.011  23.069   3.347  1.00  0.00     0.169 HD
BRANCH  17  20
HETATM   20  C11 UNL     1      10.639  22.236   2.729  1.00  0.00     0.103 C 
BRANCH  20  21
HETATM   21  C12 UNL     1       9.275  21.592   2.823  1.00  0.00     0.009 C 
BRANCH  21  22
HETATM   22  C13 UNL     1       8.171  22.495   2.319  1.00  0.00     0.002 C 
BRANCH  22  23
HETATM   23  C14 UNL     1       7.689  23.355   3.464  1.00  0.00     0.020 C 
BRANCH  23  24
HETATM   24  C15 UNL     1       8.162  24.762   3.427  1.00  0.00     0.135 C 
BRANCH  24  25
HETATM   25  N3  UNL     1       8.177  25.466   4.677  1.00  0.00    -0.279 N 
HETATM   26  C16 UNL     1       7.260  26.391   5.218  1.00  0.00     0.268 A 
HETATM   27  O4  UNL     1       6.229  26.791   4.695  1.00  0.00    -0.266 OA
HETATM   28  C17 UNL     1       7.786  26.783   6.542  1.00  0.00     0.090 A 
HETATM   29  S2  UNL     1       7.539  27.735   7.932  1.00  0.00    -0.094 SA
HETATM   30  C20 UNL     1       8.962  26.142   6.810  1.00  0.00     0.073 A 
HETATM   31  C18 UNL     1       8.920  27.308   8.824  1.00  0.00     0.070 A 
HETATM   32  C19 UNL     1       9.556  26.414   8.003  1.00  0.00     0.034 A 
HETATM   33 BR1  UNL     1      11.238  25.646   8.650  1.00  0.00    -0.049 Br
HETATM   34  C21 UNL     1       9.246  25.280   5.626  1.00  0.00     0.263 A 
HETATM   35  O5  UNL     1      10.238  24.522   5.468  1.00  0.00    -0.267 OA
ENDBRANCH  24  25
ENDBRANCH  23  24
ENDBRANCH  22  23
ENDBRANCH  21  22
ENDBRANCH  20  21
ENDBRANCH  17  20
ENDBRANCH   9  16
ENDBRANCH   3   4
TORSDOF 10
ENDMDL
