MODEL 1
REMARK VINA RESULT: -9.056660378      0.000      0.000
REMARK  10 active torsions:
REMARK  status: ('A' for Active; 'I' for Inactive)
REMARK    1  A    between atoms: O1_2  and  N1_3 
REMARK    2  A    between atoms: N1_3  and  C8_12 
REMARK    3  A    between atoms: C2_4  and  C3_5 
REMARK    4  A    between atoms: C3_5  and  O2_6 
REMARK    5  A    between atoms: C3_5  and  C4_8 
REMARK    6  A    between atoms: C8_12  and  C9_13 
REMARK    7  A    between atoms: C11_15  and  C12_16 
REMARK    8  A    between atoms: C14_18  and  C15_19 
REMARK    9  A    between atoms: C15_19  and  S1_20 
REMARK   10  A    between atoms: C19_29  and  N3_30 
ROOT
HETATM    1  C9  UNL     1      10.603  24.525   7.057  1.00  0.00    -0.020 A 
HETATM    2  C10 UNL     1      10.213  24.115   5.842  1.00  0.00     0.026 A 
HETATM    3  C11 UNL     1       9.263  24.795   5.021  1.00  0.00     0.024 A 
HETATM    4  C19 UNL     1       8.739  25.946   5.527  1.00  0.00     0.116 A 
HETATM    5  C20 UNL     1       9.158  26.376   6.812  1.00  0.00     0.056 A 
HETATM    6  C21 UNL     1      10.050  25.717   7.571  1.00  0.00     0.021 A 
HETATM    7 BR1  UNL     1      10.616  26.322   9.313  1.00  0.00    -0.050 Br
ENDROOT
BRANCH   3   8
HETATM    8  C12 UNL     1       8.652  24.066   3.885  1.00  0.00     0.048 A 
HETATM    9  C13 UNL     1       7.582  24.428   3.118  1.00  0.00     0.038 A 
HETATM   10  C14 UNL     1       7.089  23.560   2.149  1.00  0.00    -0.037 A 
HETATM   11  C17 UNL     1       7.711  22.343   1.974  1.00  0.00     0.082 A 
HETATM   12  C18 UNL     1       8.804  21.998   2.760  1.00  0.00     0.246 A 
HETATM   13  O5  UNL     1       9.337  20.839   2.538  1.00  0.00    -0.268 OA
HETATM   14  N2  UNL     1       9.254  22.819   3.673  1.00  0.00    -0.323 N 
ATOM     15  H2  UNL     1      10.057  22.547   4.240  1.00  0.00     0.169 HD
BRANCH  10  16
HETATM   16  C15 UNL     1       5.875  23.850   1.361  1.00  0.00     0.178 C 
BRANCH  16  17
HETATM   17  S1  UNL     1       4.439  23.855   2.363  1.00  0.00     0.144 S 
HETATM   18  C16 UNL     1       3.016  23.422   1.379  1.00  0.00     0.161 C 
HETATM   19  O3  UNL     1       4.514  22.902   3.497  1.00  0.00    -0.228 OA
HETATM   20  O4  UNL     1       4.174  25.275   2.848  1.00  0.00    -0.228 OA
ENDBRANCH  16  17
ENDBRANCH  10  16
ENDBRANCH   3   8
BRANCH   4  21
HETATM   21  N3  UNL     1       7.739  26.756   4.980  1.00  0.00    -0.115 N 
HETATM   22  O6  UNL     1       6.556  26.795   5.157  1.00  0.00    -0.532 OA
HETATM   23  O7  UNL     1       8.206  27.658   3.955  1.00  0.00    -0.532 OA
ENDBRANCH   4  21
BRANCH   1  24
HETATM   24  C8  UNL     1      11.383  23.722   7.999  1.00  0.00     0.194 C 
BRANCH  24  25
HETATM   25  N1  UNL     1      12.355  22.784   7.561  1.00  0.00    -0.267 N 
HETATM   26  C2  UNL     1      13.627  23.118   7.690  1.00  0.00     0.122 C 
BRANCH  25  27
HETATM   27  O1  UNL     1      11.984  21.568   7.170  1.00  0.00    -0.283 OA
HETATM   28  C1  UNL     1      11.794  20.862   6.033  1.00  0.00     0.237 C 
ENDBRANCH  25  27
BRANCH  26  29
HETATM   29  C3  UNL     1      14.785  22.258   7.448  1.00  0.00     0.166 C 
BRANCH  29  30
HETATM   30  O2  UNL     1      15.819  23.061   6.915  1.00  0.00    -0.390 OA
ATOM     31  H2  UNL     1      16.514  23.109   7.562  1.00  0.00     0.210 HD
ENDBRANCH  29  30
BRANCH  29  32
HETATM   32  C4  UNL     1      15.309  21.706   8.754  1.00  0.00    -0.021 C 
HETATM   33  C5  UNL     1      16.425  22.512   9.356  1.00  0.00     0.017 C 
HETATM   34  C6  UNL     1      14.266  21.387   9.773  1.00  0.00     0.017 C 
HETATM   35  C7  UNL     1      15.969  20.312   8.399  1.00  0.00     0.017 C 
ENDBRANCH  29  32
ENDBRANCH  26  29
ENDBRANCH  24  25
ENDBRANCH   1  24
TORSDOF 10
ENDMDL
MODEL 2
REMARK VINA RESULT: -8.889197317      3.399      4.591
REMARK  10 active torsions:
REMARK  status: ('A' for Active; 'I' for Inactive)
REMARK    1  A    between atoms: O1_2  and  N1_3 
REMARK    2  A    between atoms: N1_3  and  C8_12 
REMARK    3  A    between atoms: C2_4  and  C3_5 
REMARK    4  A    between atoms: C3_5  and  O2_6 
REMARK    5  A    between atoms: C3_5  and  C4_8 
REMARK    6  A    between atoms: C8_12  and  C9_13 
REMARK    7  A    between atoms: C11_15  and  C12_16 
REMARK    8  A    between atoms: C14_18  and  C15_19 
REMARK    9  A    between atoms: C15_19  and  S1_20 
REMARK   10  A    between atoms: C19_29  and  N3_30 
ROOT
HETATM    1  C9  UNL     1      13.396  21.525   6.874  1.00  0.00    -0.020 A 
HETATM    2  C10 UNL     1      12.743  22.027   5.817  1.00  0.00     0.026 A 
HETATM    3  C11 UNL     1      11.791  23.088   5.879  1.00  0.00     0.024 A 
HETATM    4  C19 UNL     1      11.555  23.619   7.110  1.00  0.00     0.116 A 
HETATM    5  C20 UNL     1      12.250  23.086   8.225  1.00  0.00     0.056 A 
HETATM    6  C21 UNL     1      13.139  22.082   8.146  1.00  0.00     0.021 A 
HETATM    7 BR1  UNL     1      14.084  21.374   9.672  1.00  0.00    -0.050 Br
ENDROOT
BRANCH   3   8
HETATM    8  C12 UNL     1      10.886  23.301   4.725  1.00  0.00     0.048 A 
HETATM    9  C13 UNL     1       9.543  23.066   4.641  1.00  0.00     0.038 A 
HETATM   10  C14 UNL     1       8.876  23.238   3.432  1.00  0.00    -0.037 A 
HETATM   11  C17 UNL     1       9.594  23.660   2.335  1.00  0.00     0.082 A 
HETATM   12  C18 UNL     1      10.959  23.902   2.444  1.00  0.00     0.246 A 
HETATM   13  O5  UNL     1      11.566  24.297   1.372  1.00  0.00    -0.268 OA
HETATM   14  N2  UNL     1      11.577  23.730   3.584  1.00  0.00    -0.323 N 
ATOM     15  H2  UNL     1      12.579  23.912   3.643  1.00  0.00     0.169 HD
BRANCH  10  16
HETATM   16  C15 UNL     1       7.450  22.902   3.254  1.00  0.00     0.178 C 
BRANCH  16  17
HETATM   17  S1  UNL     1       6.461  24.339   3.107  1.00  0.00     0.144 S 
HETATM   18  C16 UNL     1       4.800  23.986   3.654  1.00  0.00     0.161 C 
HETATM   19  O3  UNL     1       6.967  25.482   3.904  1.00  0.00    -0.228 OA
HETATM   20  O4  UNL     1       6.328  24.705   1.634  1.00  0.00    -0.228 OA
ENDBRANCH  16  17
ENDBRANCH  10  16
ENDBRANCH   3   8
BRANCH   4  21
HETATM   21  N3  UNL     1      10.621  24.597   7.467  1.00  0.00    -0.115 N 
HETATM   22  O6  UNL     1      10.667  25.793   7.444  1.00  0.00    -0.532 OA
HETATM   23  O7  UNL     1       9.407  24.071   8.042  1.00  0.00    -0.532 OA
ENDBRANCH   4  21
BRANCH   1  24
HETATM   24  C8  UNL     1      14.184  20.292   6.862  1.00  0.00     0.194 C 
BRANCH  24  25
HETATM   25  N1  UNL     1      15.366  20.164   6.086  1.00  0.00    -0.267 N 
HETATM   26  C2  UNL     1      15.249  19.652   4.874  1.00  0.00     0.122 C 
BRANCH  25  27
HETATM   27  O1  UNL     1      16.514  20.675   6.526  1.00  0.00    -0.283 OA
HETATM   28  C1  UNL     1      17.283  20.681   7.637  1.00  0.00     0.237 C 
ENDBRANCH  25  27
BRANCH  26  29
HETATM   29  C3  UNL     1      16.296  19.567   3.856  1.00  0.00     0.166 C 
BRANCH  29  30
HETATM   30  O2  UNL     1      17.489  19.158   4.494  1.00  0.00    -0.390 OA
ATOM     31  H2  UNL     1      18.023  18.705   3.851  1.00  0.00     0.210 HD
ENDBRANCH  29  30
BRANCH  29  32
HETATM   32  C4  UNL     1      15.962  18.488   2.851  1.00  0.00    -0.021 C 
HETATM   33  C5  UNL     1      15.187  18.978   1.661  1.00  0.00     0.017 C 
HETATM   34  C6  UNL     1      17.113  17.636   2.430  1.00  0.00     0.017 C 
HETATM   35  C7  UNL     1      14.975  17.498   3.593  1.00  0.00     0.017 C 
ENDBRANCH  29  32
ENDBRANCH  26  29
ENDBRANCH  24  25
ENDBRANCH   1  24
TORSDOF 10
ENDMDL
MODEL 3
REMARK VINA RESULT: -8.688440008      3.339      4.668
REMARK  10 active torsions:
REMARK  status: ('A' for Active; 'I' for Inactive)
REMARK    1  A    between atoms: O1_2  and  N1_3 
REMARK    2  A    between atoms: N1_3  and  C8_12 
REMARK    3  A    between atoms: C2_4  and  C3_5 
REMARK    4  A    between atoms: C3_5  and  O2_6 
REMARK    5  A    between atoms: C3_5  and  C4_8 
REMARK    6  A    between atoms: C8_12  and  C9_13 
REMARK    7  A    between atoms: C11_15  and  C12_16 
REMARK    8  A    between atoms: C14_18  and  C15_19 
REMARK    9  A    between atoms: C15_19  and  S1_20 
REMARK   10  A    between atoms: C19_29  and  N3_30 
ROOT
HETATM    1  C9  UNL     1      13.354  23.318   5.471  1.00  0.00    -0.020 A 
HETATM    2  C10 UNL     1      12.333  24.040   4.989  1.00  0.00     0.026 A 
HETATM    3  C11 UNL     1      11.295  24.611   5.785  1.00  0.00     0.024 A 
HETATM    4  C19 UNL     1      11.377  24.403   7.129  1.00  0.00     0.116 A 
HETATM    5  C20 UNL     1      12.461  23.640   7.633  1.00  0.00     0.056 A 
HETATM    6  C21 UNL     1      13.426  23.106   6.865  1.00  0.00     0.021 A 
HETATM    7 BR1  UNL     1      14.899  22.079   7.570  1.00  0.00    -0.050 Br
ENDROOT
BRANCH   3   8
HETATM    8  C12 UNL     1      10.052  25.064   5.117  1.00  0.00     0.048 A 
HETATM    9  C13 UNL     1       9.504  24.620   3.948  1.00  0.00     0.038 A 
HETATM   10  C14 UNL     1       8.373  25.239   3.425  1.00  0.00    -0.037 A 
HETATM   11  C17 UNL     1       7.818  26.294   4.116  1.00  0.00     0.082 A 
HETATM   12  C18 UNL     1       8.388  26.725   5.308  1.00  0.00     0.246 A 
HETATM   13  O5  UNL     1       7.810  27.720   5.901  1.00  0.00    -0.268 OA
HETATM   14  N2  UNL     1       9.455  26.140   5.787  1.00  0.00    -0.323 N 
ATOM     15  H2  UNL     1       9.859  26.472   6.662  1.00  0.00     0.169 HD
BRANCH  10  16
HETATM   16  C15 UNL     1       7.795  24.872   2.117  1.00  0.00     0.178 C 
BRANCH  16  17
HETATM   17  S1  UNL     1       6.249  24.071   2.296  1.00  0.00     0.144 S 
HETATM   18  C16 UNL     1       6.420  22.666   3.382  1.00  0.00     0.161 C 
HETATM   19  O3  UNL     1       5.195  24.951   2.854  1.00  0.00    -0.228 OA
HETATM   20  O4  UNL     1       5.831  23.489   0.951  1.00  0.00    -0.228 OA
ENDBRANCH  16  17
ENDBRANCH  10  16
ENDBRANCH   3   8
BRANCH   4  21
HETATM   21  N3  UNL     1      10.461  24.771   8.119  1.00  0.00    -0.115 N 
HETATM   22  O6  UNL     1       9.384  24.340   8.413  1.00  0.00    -0.532 OA
HETATM   23  O7  UNL     1      10.850  25.936   8.877  1.00  0.00    -0.532 OA
ENDBRANCH   4  21
BRANCH   1  24
HETATM   24  C8  UNL     1      14.281  22.532   4.656  1.00  0.00     0.194 C 
BRANCH  24  25
HETATM   25  N1  UNL     1      13.869  21.357   3.973  1.00  0.00    -0.267 N 
HETATM   26  C2  UNL     1      14.793  20.674   3.323  1.00  0.00     0.122 C 
BRANCH  25  27
HETATM   27  O1  UNL     1      12.626  20.903   4.112  1.00  0.00    -0.283 OA
HETATM   28  C1  UNL     1      11.408  21.039   3.544  1.00  0.00     0.237 C 
ENDBRANCH  25  27
BRANCH  26  29
HETATM   29  C3  UNL     1      14.627  19.369   2.683  1.00  0.00     0.166 C 
BRANCH  29  30
HETATM   30  O2  UNL     1      14.869  19.529   1.300  1.00  0.00    -0.390 OA
ATOM     31  H2  UNL     1      15.707  19.125   1.101  1.00  0.00     0.210 HD
ENDBRANCH  29  30
BRANCH  29  32
HETATM   32  C4  UNL     1      15.675  18.402   3.186  1.00  0.00    -0.021 C 
HETATM   33  C5  UNL     1      16.369  17.630   2.099  1.00  0.00     0.017 C 
HETATM   34  C6  UNL     1      16.658  18.977   4.150  1.00  0.00     0.017 C 
HETATM   35  C7  UNL     1      14.887  17.307   4.014  1.00  0.00     0.017 C 
ENDBRANCH  29  32
ENDBRANCH  26  29
ENDBRANCH  24  25
ENDBRANCH   1  24
TORSDOF 10
ENDMDL
MODEL 4
REMARK VINA RESULT: -8.667668757      3.418      5.478
REMARK  10 active torsions:
REMARK  status: ('A' for Active; 'I' for Inactive)
REMARK    1  A    between atoms: O1_2  and  N1_3 
REMARK    2  A    between atoms: N1_3  and  C8_12 
REMARK    3  A    between atoms: C2_4  and  C3_5 
REMARK    4  A    between atoms: C3_5  and  O2_6 
REMARK    5  A    between atoms: C3_5  and  C4_8 
REMARK    6  A    between atoms: C8_12  and  C9_13 
REMARK    7  A    between atoms: C11_15  and  C12_16 
REMARK    8  A    between atoms: C14_18  and  C15_19 
REMARK    9  A    between atoms: C15_19  and  S1_20 
REMARK   10  A    between atoms: C19_29  and  N3_30 
ROOT
HETATM    1  C9  UNL     1      13.278  22.279   4.867  1.00  0.00    -0.020 A 
HETATM    2  C10 UNL     1      12.326  23.037   5.428  1.00  0.00     0.026 A 
HETATM    3  C11 UNL     1      10.950  23.026   5.049  1.00  0.00     0.024 A 
HETATM    4  C19 UNL     1      10.604  22.167   4.050  1.00  0.00     0.116 A 
HETATM    5  C20 UNL     1      11.615  21.366   3.462  1.00  0.00     0.056 A 
HETATM    6  C21 UNL     1      12.907  21.395   3.831  1.00  0.00     0.021 A 
HETATM    7 BR1  UNL     1      14.269  20.290   3.026  1.00  0.00    -0.050 Br
ENDROOT
BRANCH   3   8
HETATM    8  C12 UNL     1      10.083  24.148   5.480  1.00  0.00     0.048 A 
HETATM    9  C13 UNL     1       9.683  24.478   6.743  1.00  0.00     0.038 A 
HETATM   10  C14 UNL     1       8.781  25.518   6.942  1.00  0.00    -0.037 A 
HETATM   11  C17 UNL     1       8.316  26.210   5.845  1.00  0.00     0.082 A 
HETATM   12  C18 UNL     1       8.742  25.862   4.568  1.00  0.00     0.246 A 
HETATM   13  O5  UNL     1       8.263  26.557   3.587  1.00  0.00    -0.268 OA
HETATM   14  N2  UNL     1       9.585  24.878   4.393  1.00  0.00    -0.323 N 
ATOM     15  H2  UNL     1       9.885  24.637   3.448  1.00  0.00     0.169 HD
BRANCH  10  16
HETATM   16  C15 UNL     1       8.233  25.855   8.271  1.00  0.00     0.178 C 
BRANCH  16  17
HETATM   17  S1  UNL     1       9.004  27.274   8.947  1.00  0.00     0.144 S 
HETATM   18  C16 UNL     1      10.652  26.862   9.494  1.00  0.00     0.161 C 
HETATM   19  O3  UNL     1       9.113  28.396   7.984  1.00  0.00    -0.228 OA
HETATM   20  O4  UNL     1       8.257  27.695  10.207  1.00  0.00    -0.228 OA
ENDBRANCH  16  17
ENDBRANCH  10  16
ENDBRANCH   3   8
BRANCH   4  21
HETATM   21  N3  UNL     1       9.359  22.016   3.431  1.00  0.00    -0.115 N 
HETATM   22  O6  UNL     1       8.326  22.607   3.557  1.00  0.00    -0.532 OA
HETATM   23  O7  UNL     1       9.281  20.890   2.532  1.00  0.00    -0.532 OA
ENDBRANCH   4  21
BRANCH   1  24
HETATM   24  C8  UNL     1      14.716  22.452   5.077  1.00  0.00     0.194 C 
BRANCH  24  25
HETATM   25  N1  UNL     1      15.401  21.813   6.145  1.00  0.00    -0.267 N 
HETATM   26  C2  UNL     1      15.540  22.488   7.271  1.00  0.00     0.122 C 
BRANCH  25  27
HETATM   27  O1  UNL     1      15.758  20.535   6.041  1.00  0.00    -0.283 OA
HETATM   28  C1  UNL     1      16.824  19.786   5.685  1.00  0.00     0.237 C 
ENDBRANCH  25  27
BRANCH  26  29
HETATM   29  C3  UNL     1      16.072  21.978   8.535  1.00  0.00     0.166 C 
BRANCH  29  30
HETATM   30  O2  UNL     1      16.455  23.087   9.324  1.00  0.00    -0.390 OA
ATOM     31  H2  UNL     1      17.401  23.165   9.278  1.00  0.00     0.210 HD
ENDBRANCH  29  30
BRANCH  29  32
HETATM   32  C4  UNL     1      14.988  21.263   9.309  1.00  0.00    -0.021 C 
HETATM   33  C5  UNL     1      13.593  21.598   8.861  1.00  0.00     0.017 C 
HETATM   34  C6  UNL     1      15.171  19.788   9.441  1.00  0.00     0.017 C 
HETATM   35  C7  UNL     1      15.078  21.818  10.788  1.00  0.00     0.017 C 
ENDBRANCH  29  32
ENDBRANCH  26  29
ENDBRANCH  24  25
ENDBRANCH   1  24
TORSDOF 10
ENDMDL
MODEL 5
REMARK VINA RESULT: -8.664132357      3.137      4.508
REMARK  10 active torsions:
REMARK  status: ('A' for Active; 'I' for Inactive)
REMARK    1  A    between atoms: O1_2  and  N1_3 
REMARK    2  A    between atoms: N1_3  and  C8_12 
REMARK    3  A    between atoms: C2_4  and  C3_5 
REMARK    4  A    between atoms: C3_5  and  O2_6 
REMARK    5  A    between atoms: C3_5  and  C4_8 
REMARK    6  A    between atoms: C8_12  and  C9_13 
REMARK    7  A    between atoms: C11_15  and  C12_16 
REMARK    8  A    between atoms: C14_18  and  C15_19 
REMARK    9  A    between atoms: C15_19  and  S1_20 
REMARK   10  A    between atoms: C19_29  and  N3_30 
ROOT
HETATM    1  C9  UNL     1      12.360  22.386   6.572  1.00  0.00    -0.020 A 
HETATM    2  C10 UNL     1      11.564  23.179   5.841  1.00  0.00     0.026 A 
HETATM    3  C11 UNL     1      10.829  24.289   6.355  1.00  0.00     0.024 A 
HETATM    4  C19 UNL     1      10.973  24.548   7.684  1.00  0.00     0.116 A 
HETATM    5  C20 UNL     1      11.819  23.708   8.452  1.00  0.00     0.056 A 
HETATM    6  C21 UNL     1      12.498  22.663   7.949  1.00  0.00     0.021 A 
HETATM    7 BR1  UNL     1      13.653  21.536   9.007  1.00  0.00    -0.050 Br
ENDROOT
BRANCH   3   8
HETATM    8  C12 UNL     1       9.723  24.849   5.543  1.00  0.00     0.048 A 
HETATM    9  C13 UNL     1       9.252  24.421   4.335  1.00  0.00     0.038 A 
HETATM   10  C14 UNL     1       8.261  25.140   3.675  1.00  0.00    -0.037 A 
HETATM   11  C17 UNL     1       7.761  26.277   4.271  1.00  0.00     0.082 A 
HETATM   12  C18 UNL     1       8.249  26.691   5.505  1.00  0.00     0.246 A 
HETATM   13  O5  UNL     1       7.731  27.768   6.003  1.00  0.00    -0.268 OA
HETATM   14  N2  UNL     1       9.186  26.011   6.113  1.00  0.00    -0.323 N 
ATOM     15  H2  UNL     1       9.532  26.332   7.017  1.00  0.00     0.169 HD
BRANCH  10  16
HETATM   16  C15 UNL     1       7.784  24.786   2.324  1.00  0.00     0.178 C 
BRANCH  16  17
HETATM   17  S1  UNL     1       6.185  24.074   2.367  1.00  0.00     0.144 S 
HETATM   18  C16 UNL     1       6.191  22.644   3.434  1.00  0.00     0.161 C 
HETATM   19  O3  UNL     1       5.144  25.006   2.863  1.00  0.00    -0.228 OA
HETATM   20  O4  UNL     1       5.839  23.540   0.983  1.00  0.00    -0.228 OA
ENDBRANCH  16  17
ENDBRANCH  10  16
ENDBRANCH   3   8
BRANCH   4  21
HETATM   21  N3  UNL     1      10.312  25.509   8.456  1.00  0.00    -0.115 N 
HETATM   22  O6  UNL     1      10.676  26.552   8.917  1.00  0.00    -0.532 OA
HETATM   23  O7  UNL     1       8.970  25.140   8.833  1.00  0.00    -0.532 OA
ENDBRANCH   4  21
BRANCH   1  24
HETATM   24  C8  UNL     1      12.922  21.116   6.115  1.00  0.00     0.194 C 
BRANCH  24  25
HETATM   25  N1  UNL     1      14.232  21.025   5.573  1.00  0.00    -0.267 N 
HETATM   26  C2  UNL     1      14.642  19.838   5.164  1.00  0.00     0.122 C 
BRANCH  25  27
HETATM   27  O1  UNL     1      14.948  22.127   5.367  1.00  0.00    -0.283 OA
HETATM   28  C1  UNL     1      14.896  23.274   4.654  1.00  0.00     0.237 C 
ENDBRANCH  25  27
BRANCH  26  29
HETATM   29  C3  UNL     1      15.881  19.543   4.445  1.00  0.00     0.166 C 
BRANCH  29  30
HETATM   30  O2  UNL     1      16.686  18.734   5.279  1.00  0.00    -0.390 OA
ATOM     31  H2  UNL     1      16.168  18.493   6.039  1.00  0.00     0.210 HD
ENDBRANCH  29  30
BRANCH  29  32
HETATM   32  C4  UNL     1      15.587  18.717   3.213  1.00  0.00    -0.021 C 
HETATM   33  C5  UNL     1      14.716  19.411   2.203  1.00  0.00     0.017 C 
HETATM   34  C6  UNL     1      16.780  18.103   2.561  1.00  0.00     0.017 C 
HETATM   35  C7  UNL     1      14.720  17.491   3.713  1.00  0.00     0.017 C 
ENDBRANCH  29  32
ENDBRANCH  26  29
ENDBRANCH  24  25
ENDBRANCH   1  24
TORSDOF 10
ENDMDL
