MODEL 1
REMARK VINA RESULT: -6.026048456      0.000      0.000
REMARK  7 active torsions:
REMARK  status: ('A' for Active; 'I' for Inactive)
REMARK    1  A    between atoms: O1_2  and  C2_3 
REMARK    2  A    between atoms: C5_7  and  O3_8 
REMARK    3  A    between atoms: C6_10  and  C8_12 
REMARK    4  A    between atoms: C8_12  and  O4_13 
REMARK    5  A    between atoms: C12_18  and  C14_20 
REMARK    6  A    between atoms: C14_20  and  C15_21 
REMARK    7  A    between atoms: C15_21  and  C16_22 
ROOT
HETATM    1  C2  UNL     1      -1.514  35.186   3.080  1.00  0.00     0.158 C 
HETATM    2  C3  UNL     1      -1.616  33.736   3.453  1.00  0.00     0.156 C 
HETATM    3  O2  UNL     1      -2.930  33.443   3.867  1.00  0.00    -0.380 OA
HETATM    4  C4  UNL     1      -3.117  32.073   3.739  1.00  0.00     0.200 C 
HETATM    5  C5  UNL     1      -2.171  31.233   4.528  1.00  0.00     0.152 C 
HETATM    6  C6  UNL     1      -1.264  32.116   5.339  1.00  0.00     0.011 C 
HETATM    7  C7  UNL     1      -0.053  31.314   5.848  1.00  0.00     0.020 C 
HETATM    8  C9  UNL     1      -0.697  33.208   4.468  1.00  0.00     0.030 C 
HETATM    9  C10 UNL     1       0.026  34.232   5.294  1.00  0.00     0.009 C 
HETATM   10  C11 UNL     1       0.714  35.159   4.276  1.00  0.00     0.012 C 
HETATM   11  C12 UNL     1      -0.446  35.976   3.697  1.00  0.00    -0.015 C 
HETATM   12  C13 UNL     1      -1.075  36.605   4.987  1.00  0.00     0.018 C 
ENDROOT
BRANCH  11  13
HETATM   13  C14 UNL     1       0.131  37.124   2.976  1.00  0.00     0.022 C 
BRANCH  13  14
HETATM   14  C15 UNL     1       1.410  37.034   2.259  1.00  0.00     0.114 C 
BRANCH  14  15
HETATM   15  C16 UNL     1       1.377  37.115   0.792  1.00  0.00     0.172 C 
HETATM   16  O5  UNL     1       0.355  37.599   0.188  1.00  0.00    -0.648 OA
HETATM   17  O6  UNL     1       2.442  36.677   0.029  1.00  0.00    -0.648 OA
ENDBRANCH  14  15
ENDBRANCH  13  14
ENDBRANCH  11  13
BRANCH   1  18
HETATM   18  O1  UNL     1      -1.537  35.356   1.704  1.00  0.00    -0.387 OA
HETATM   19  C1  UNL     1      -2.795  35.822   1.268  1.00  0.00     0.202 C 
ENDBRANCH   1  18
BRANCH   6  20
HETATM   20  C8  UNL     1      -2.022  32.622   6.533  1.00  0.00     0.176 C 
BRANCH  20  21
HETATM   21  O4  UNL     1      -2.671  31.523   7.096  1.00  0.00    -0.400 OA
ATOM     22  H4  UNL     1      -2.494  31.547   8.030  1.00  0.00     0.209 HD
ENDBRANCH  20  21
ENDBRANCH   6  20
BRANCH   5  23
HETATM   23  O3  UNL     1      -1.399  30.388   3.734  1.00  0.00    -0.393 OA
ATOM     24  H3  UNL     1      -0.469  30.571   3.790  1.00  0.00     0.210 HD
ENDBRANCH   5  23
TORSDOF 7
ENDMDL
MODEL 2
REMARK VINA RESULT: -5.796009313      7.727      9.530
REMARK  7 active torsions:
REMARK  status: ('A' for Active; 'I' for Inactive)
REMARK    1  A    between atoms: O1_2  and  C2_3 
REMARK    2  A    between atoms: C5_7  and  O3_8 
REMARK    3  A    between atoms: C6_10  and  C8_12 
REMARK    4  A    between atoms: C8_12  and  O4_13 
REMARK    5  A    between atoms: C12_18  and  C14_20 
REMARK    6  A    between atoms: C14_20  and  C15_21 
REMARK    7  A    between atoms: C15_21  and  C16_22 
ROOT
HETATM    1  C2  UNL     1      -3.370  28.148  -1.583  1.00  0.00     0.158 C 
HETATM    2  C3  UNL     1      -2.959  27.108  -2.584  1.00  0.00     0.156 C 
HETATM    3  O2  UNL     1      -2.462  25.974  -1.913  1.00  0.00    -0.380 OA
HETATM    4  C4  UNL     1      -2.548  24.897  -2.786  1.00  0.00     0.200 C 
HETATM    5  C5  UNL     1      -1.798  25.062  -4.064  1.00  0.00     0.152 C 
HETATM    6  C6  UNL     1      -1.062  26.373  -4.055  1.00  0.00     0.011 C 
HETATM    7  C7  UNL     1      -0.607  26.741  -5.478  1.00  0.00     0.020 C 
HETATM    8  C9  UNL     1      -1.989  27.479  -3.620  1.00  0.00     0.030 C 
HETATM    9  C10 UNL     1      -1.230  28.753  -3.382  1.00  0.00     0.009 C 
HETATM   10  C11 UNL     1      -2.307  29.827  -3.147  1.00  0.00     0.012 C 
HETATM   11  C12 UNL     1      -2.835  29.502  -1.746  1.00  0.00    -0.015 C 
HETATM   12  C13 UNL     1      -1.524  29.546  -0.887  1.00  0.00     0.018 C 
ENDROOT
BRANCH  11  13
HETATM   13  C14 UNL     1      -3.614  30.663  -1.280  1.00  0.00     0.022 C 
BRANCH  13  14
HETATM   14  C15 UNL     1      -3.229  31.436  -0.092  1.00  0.00     0.114 C 
BRANCH  14  15
HETATM   15  C16 UNL     1      -2.694  32.789  -0.302  1.00  0.00     0.172 C 
HETATM   16  O5  UNL     1      -2.183  33.120  -1.430  1.00  0.00    -0.648 OA
HETATM   17  O6  UNL     1      -2.729  33.735   0.704  1.00  0.00    -0.648 OA
ENDBRANCH  14  15
ENDBRANCH  13  14
ENDBRANCH  11  13
BRANCH   1  18
HETATM   18  O1  UNL     1      -4.746  28.166  -1.409  1.00  0.00    -0.387 OA
HETATM   19  C1  UNL     1      -5.412  27.688  -2.557  1.00  0.00     0.202 C 
ENDBRANCH   1  18
BRANCH   6  20
HETATM   20  C8  UNL     1       0.163  26.234  -3.197  1.00  0.00     0.176 C 
BRANCH  20  21
HETATM   21  O4  UNL     1       1.244  26.048  -4.060  1.00  0.00    -0.400 OA
ATOM     22  H4  UNL     1       2.032  26.185  -3.548  1.00  0.00     0.209 HD
ENDBRANCH  20  21
ENDBRANCH   6  20
BRANCH   5  23
HETATM   23  O3  UNL     1      -2.617  25.004  -5.189  1.00  0.00    -0.393 OA
ATOM     24  H3  UNL     1      -2.233  24.511  -5.904  1.00  0.00     0.210 HD
ENDBRANCH   5  23
TORSDOF 7
ENDMDL
MODEL 3
REMARK VINA RESULT: -5.557438912      2.846      4.453
REMARK  7 active torsions:
REMARK  status: ('A' for Active; 'I' for Inactive)
REMARK    1  A    between atoms: O1_2  and  C2_3 
REMARK    2  A    between atoms: C5_7  and  O3_8 
REMARK    3  A    between atoms: C6_10  and  C8_12 
REMARK    4  A    between atoms: C8_12  and  O4_13 
REMARK    5  A    between atoms: C12_18  and  C14_20 
REMARK    6  A    between atoms: C14_20  and  C15_21 
REMARK    7  A    between atoms: C15_21  and  C16_22 
ROOT
HETATM    1  C2  UNL     1      -0.083  35.010   4.918  1.00  0.00     0.158 C 
HETATM    2  C3  UNL     1      -0.553  35.472   6.266  1.00  0.00     0.156 C 
HETATM    3  O2  UNL     1      -1.375  34.486   6.847  1.00  0.00    -0.380 OA
HETATM    4  C4  UNL     1      -1.391  34.705   8.218  1.00  0.00     0.200 C 
HETATM    5  C5  UNL     1      -1.890  36.047   8.634  1.00  0.00     0.152 C 
HETATM    6  C6  UNL     1      -2.323  36.826   7.424  1.00  0.00     0.011 C 
HETATM    7  C7  UNL     1      -2.471  38.317   7.773  1.00  0.00     0.020 C 
HETATM    8  C9  UNL     1      -1.256  36.756   6.361  1.00  0.00     0.030 C 
HETATM    9  C10 UNL     1      -1.753  37.329   5.064  1.00  0.00     0.009 C 
HETATM   10  C11 UNL     1      -0.519  37.379   4.146  1.00  0.00     0.012 C 
HETATM   11  C12 UNL     1      -0.287  35.909   3.779  1.00  0.00    -0.015 C 
HETATM   12  C13 UNL     1      -1.672  35.507   3.163  1.00  0.00     0.018 C 
ENDROOT
BRANCH  11  13
HETATM   13  C14 UNL     1       0.643  35.874   2.638  1.00  0.00     0.022 C 
BRANCH  13  14
HETATM   14  C15 UNL     1       1.601  36.956   2.376  1.00  0.00     0.114 C 
BRANCH  14  15
HETATM   15  C16 UNL     1       3.033  36.627   2.423  1.00  0.00     0.172 C 
HETATM   16  O5  UNL     1       3.826  37.039   1.505  1.00  0.00    -0.648 OA
HETATM   17  O6  UNL     1       3.558  35.871   3.453  1.00  0.00    -0.648 OA
ENDBRANCH  14  15
ENDBRANCH  13  14
ENDBRANCH  11  13
BRANCH   1  18
HETATM   18  O1  UNL     1       1.222  34.548   4.969  1.00  0.00    -0.387 OA
HETATM   19  C1  UNL     1       1.264  33.161   5.228  1.00  0.00     0.202 C 
ENDBRANCH   1  18
BRANCH   6  20
HETATM   20  C8  UNL     1      -3.663  36.318   6.975  1.00  0.00     0.176 C 
BRANCH  20  21
HETATM   21  O4  UNL     1      -4.473  36.255   8.110  1.00  0.00    -0.400 OA
ATOM     22  H4  UNL     1      -5.114  36.952   8.031  1.00  0.00     0.209 HD
ENDBRANCH  20  21
ENDBRANCH   6  20
BRANCH   5  23
HETATM   23  O3  UNL     1      -0.943  36.785   9.342  1.00  0.00    -0.393 OA
ATOM     24  H3  UNL     1      -0.928  37.702   9.096  1.00  0.00     0.210 HD
ENDBRANCH   5  23
TORSDOF 7
ENDMDL
MODEL 4
REMARK VINA RESULT: -5.524274203      6.096      7.615
REMARK  7 active torsions:
REMARK  status: ('A' for Active; 'I' for Inactive)
REMARK    1  A    between atoms: O1_2  and  C2_3 
REMARK    2  A    between atoms: C5_7  and  O3_8 
REMARK    3  A    between atoms: C6_10  and  C8_12 
REMARK    4  A    between atoms: C8_12  and  O4_13 
REMARK    5  A    between atoms: C12_18  and  C14_20 
REMARK    6  A    between atoms: C14_20  and  C15_21 
REMARK    7  A    between atoms: C15_21  and  C16_22 
ROOT
HETATM    1  C2  UNL     1      -3.973  31.370  -1.553  1.00  0.00     0.158 C 
HETATM    2  C3  UNL     1      -3.733  30.260  -2.533  1.00  0.00     0.156 C 
HETATM    3  O2  UNL     1      -4.815  29.358  -2.504  1.00  0.00    -0.380 OA
HETATM    4  C4  UNL     1      -4.808  28.653  -3.700  1.00  0.00     0.200 C 
HETATM    5  C5  UNL     1      -3.558  27.887  -3.971  1.00  0.00     0.152 C 
HETATM    6  C6  UNL     1      -2.614  28.029  -2.810  1.00  0.00     0.011 C 
HETATM    7  C7  UNL     1      -1.197  27.586  -3.215  1.00  0.00     0.020 C 
HETATM    8  C9  UNL     1      -2.495  29.480  -2.419  1.00  0.00     0.030 C 
HETATM    9  C10 UNL     1      -1.744  29.627  -1.127  1.00  0.00     0.009 C 
HETATM   10  C11 UNL     1      -1.525  31.141  -0.958  1.00  0.00     0.012 C 
HETATM   11  C12 UNL     1      -2.916  31.663  -0.581  1.00  0.00    -0.015 C 
HETATM   12  C13 UNL     1      -3.252  30.802   0.685  1.00  0.00     0.018 C 
ENDROOT
BRANCH  11  13
HETATM   13  C14 UNL     1      -2.754  33.031  -0.059  1.00  0.00     0.022 C 
BRANCH  13  14
HETATM   14  C15 UNL     1      -2.521  33.301   1.366  1.00  0.00     0.114 C 
BRANCH  14  15
HETATM   15  C16 UNL     1      -2.482  34.706   1.797  1.00  0.00     0.172 C 
HETATM   16  O5  UNL     1      -1.789  35.055   2.818  1.00  0.00    -0.648 OA
HETATM   17  O6  UNL     1      -3.184  35.681   1.117  1.00  0.00    -0.648 OA
ENDBRANCH  14  15
ENDBRANCH  13  14
ENDBRANCH  11  13
BRANCH   1  18
HETATM   18  O1  UNL     1      -4.406  32.522  -2.191  1.00  0.00    -0.387 OA
HETATM   19  C1  UNL     1      -4.954  32.230  -3.457  1.00  0.00     0.202 C 
ENDBRANCH   1  18
BRANCH   6  20
HETATM   20  C8  UNL     1      -3.080  27.135  -1.697  1.00  0.00     0.176 C 
BRANCH  20  21
HETATM   21  O4  UNL     1      -2.363  25.943  -1.807  1.00  0.00    -0.400 OA
ATOM     22  H4  UNL     1      -2.071  25.714  -0.932  1.00  0.00     0.209 HD
ENDBRANCH  20  21
ENDBRANCH   6  20
BRANCH   5  23
HETATM   23  O3  UNL     1      -2.913  28.291  -5.139  1.00  0.00    -0.393 OA
ATOM     24  H3  UNL     1      -2.149  27.766  -5.342  1.00  0.00     0.210 HD
ENDBRANCH   5  23
TORSDOF 7
ENDMDL
MODEL 5
REMARK VINA RESULT: -5.457436191      2.013      3.223
REMARK  7 active torsions:
REMARK  status: ('A' for Active; 'I' for Inactive)
REMARK    1  A    between atoms: O1_2  and  C2_3 
REMARK    2  A    between atoms: C5_7  and  O3_8 
REMARK    3  A    between atoms: C6_10  and  C8_12 
REMARK    4  A    between atoms: C8_12  and  O4_13 
REMARK    5  A    between atoms: C12_18  and  C14_20 
REMARK    6  A    between atoms: C14_20  and  C15_21 
REMARK    7  A    between atoms: C15_21  and  C16_22 
ROOT
HETATM    1  C2  UNL     1      -1.254  36.400   5.222  1.00  0.00     0.158 C 
HETATM    2  C3  UNL     1      -1.632  35.254   6.113  1.00  0.00     0.156 C 
HETATM    3  O2  UNL     1      -0.762  35.205   7.220  1.00  0.00    -0.380 OA
HETATM    4  C4  UNL     1      -1.398  34.489   8.225  1.00  0.00     0.200 C 
HETATM    5  C5  UNL     1      -1.781  33.095   7.858  1.00  0.00     0.152 C 
HETATM    6  C6  UNL     1      -1.307  32.789   6.465  1.00  0.00     0.011 C 
HETATM    7  C7  UNL     1      -2.009  31.530   5.926  1.00  0.00     0.020 C 
HETATM    8  C9  UNL     1      -1.696  33.908   5.532  1.00  0.00     0.030 C 
HETATM    9  C10 UNL     1      -1.043  33.740   4.191  1.00  0.00     0.009 C 
HETATM   10  C11 UNL     1      -1.678  34.818   3.295  1.00  0.00     0.012 C 
HETATM   11  C12 UNL     1      -1.045  36.119   3.799  1.00  0.00    -0.015 C 
HETATM   12  C13 UNL     1       0.485  35.815   3.646  1.00  0.00     0.018 C 
ENDROOT
BRANCH  11  13
HETATM   13  C14 UNL     1      -1.310  37.164   2.795  1.00  0.00     0.022 C 
BRANCH  13  14
HETATM   14  C15 UNL     1      -1.947  36.865   1.506  1.00  0.00     0.114 C 
BRANCH  14  15
HETATM   15  C16 UNL     1      -1.098  36.878   0.306  1.00  0.00     0.172 C 
HETATM   16  O5  UNL     1      -1.448  36.238  -0.748  1.00  0.00    -0.648 OA
HETATM   17  O6  UNL     1       0.094  37.577   0.282  1.00  0.00    -0.648 OA
ENDBRANCH  14  15
ENDBRANCH  13  14
ENDBRANCH  11  13
BRANCH   1  18
HETATM   18  O1  UNL     1      -2.101  37.482   5.404  1.00  0.00    -0.387 OA
HETATM   19  C1  UNL     1      -1.874  38.105   6.649  1.00  0.00     0.202 C 
ENDBRANCH   1  18
BRANCH   6  20
HETATM   20  C8  UNL     1       0.169  32.517   6.505  1.00  0.00     0.176 C 
BRANCH  20  21
HETATM   21  O4  UNL     1       0.380  31.568   7.506  1.00  0.00    -0.400 OA
ATOM     22  H4  UNL     1       0.998  30.934   7.161  1.00  0.00     0.209 HD
ENDBRANCH  20  21
ENDBRANCH   6  20
BRANCH   5  23
HETATM   23  O3  UNL     1      -3.153  32.868   7.937  1.00  0.00    -0.393 OA
ATOM     24  H3  UNL     1      -3.535  33.178   8.749  1.00  0.00     0.210 HD
ENDBRANCH   5  23
TORSDOF 7
ENDMDL
