MODEL 1
REMARK VINA RESULT: -7.182736875      0.000      0.000
REMARK  6 active torsions:
REMARK  status: ('A' for Active; 'I' for Inactive)
REMARK    1  A    between atoms: C4_5  and  C5_6 
REMARK    2  A    between atoms: C5_6  and  O2_7 
REMARK    3  A    between atoms: C6_9  and  C7_10 
REMARK    4  A    between atoms: C11_14  and  N1_15 
REMARK    5  A    between atoms: N1_15  and  C12_18 
REMARK    6  A    between atoms: C17_23  and  O3_24 
ROOT
HETATM    1  C7  UNL     1      -3.902  27.990  -2.781  1.00  0.00     0.048 C 
HETATM    2  C8  UNL     1      -5.188  27.175  -2.411  1.00  0.00     0.009 C 
HETATM    3  C9  UNL     1      -4.855  25.907  -3.201  1.00  0.00     0.002 C 
HETATM    4  C10 UNL     1      -4.186  26.394  -4.447  1.00  0.00     0.033 C 
HETATM    5  C11 UNL     1      -3.914  27.904  -4.213  1.00  0.00     0.193 C 
ENDROOT
BRANCH   5   6
HETATM    6  N1  UNL     1      -2.711  28.087  -4.992  1.00  0.00    -0.064 N 
ATOM      7  H12 UNL     1      -2.911  28.017  -5.990  1.00  0.00     0.278 HD
ATOM      8  H11 UNL     1      -2.397  29.057  -4.951  1.00  0.00     0.278 HD
BRANCH   6   9
HETATM    9  C12 UNL     1      -1.663  27.201  -4.623  1.00  0.00     0.214 C 
HETATM   10  C13 UNL     1      -1.390  26.094  -5.606  1.00  0.00     0.036 C 
HETATM   11  C14 UNL     1      -0.780  24.953  -4.833  1.00  0.00     0.002 C 
HETATM   12  C15 UNL     1       0.495  25.445  -4.201  1.00  0.00     0.003 C 
HETATM   13  C16 UNL     1       0.312  26.675  -3.371  1.00  0.00     0.034 C 
HETATM   14  C17 UNL     1      -0.380  27.787  -4.169  1.00  0.00     0.148 C 
BRANCH  14  15
HETATM   15  O3  UNL     1      -0.571  28.825  -3.222  1.00  0.00    -0.393 OA
ATOM     16  H3  UNL     1       0.218  29.007  -2.725  1.00  0.00     0.210 HD
ENDBRANCH  14  15
ENDBRANCH   6   9
ENDBRANCH   5   6
BRANCH   1  17
HETATM   17  C6  UNL     1      -3.750  29.140  -1.937  1.00  0.00     0.162 C 
HETATM   18  C4  UNL     1      -3.832  30.534  -2.140  1.00  0.00     0.178 C 
HETATM   19  O1  UNL     1      -2.511  30.980  -1.777  1.00  0.00    -0.346 OA
HETATM   20  C2  UNL     1      -2.376  30.247  -0.578  1.00  0.00     0.158 C 
HETATM   21  C1  UNL     1      -0.975  30.400  -0.039  1.00  0.00     0.078 C 
HETATM   22  C3  UNL     1      -3.339  30.662   0.498  1.00  0.00     0.078 C 
HETATM   23  O4  UNL     1      -2.630  28.976  -1.065  1.00  0.00    -0.348 OA
BRANCH  18  24
HETATM   24  C5  UNL     1      -4.152  31.304  -3.335  1.00  0.00     0.198 C 
BRANCH  24  25
HETATM   25  O2  UNL     1      -5.161  32.211  -3.326  1.00  0.00    -0.398 OA
ATOM     26  H2  UNL     1      -5.885  32.138  -3.937  1.00  0.00     0.209 HD
ENDBRANCH  24  25
ENDBRANCH  18  24
ENDBRANCH   1  17
TORSDOF 6
ENDMDL
MODEL 2
REMARK VINA RESULT: -6.889732963     10.588     11.657
REMARK  6 active torsions:
REMARK  status: ('A' for Active; 'I' for Inactive)
REMARK    1  A    between atoms: C4_5  and  C5_6 
REMARK    2  A    between atoms: C5_6  and  O2_7 
REMARK    3  A    between atoms: C6_9  and  C7_10 
REMARK    4  A    between atoms: C11_14  and  N1_15 
REMARK    5  A    between atoms: N1_15  and  C12_18 
REMARK    6  A    between atoms: C17_23  and  O3_24 
ROOT
HETATM    1  C7  UNL     1      -0.328  34.827   5.906  1.00  0.00     0.048 C 
HETATM    2  C8  UNL     1      -1.043  33.436   5.841  1.00  0.00     0.009 C 
HETATM    3  C9  UNL     1       0.214  32.570   5.731  1.00  0.00     0.002 C 
HETATM    4  C10 UNL     1       1.154  33.361   4.877  1.00  0.00     0.033 C 
HETATM    5  C11 UNL     1       0.513  34.769   4.745  1.00  0.00     0.193 C 
ENDROOT
BRANCH   5   6
HETATM    6  N1  UNL     1       1.694  35.593   4.623  1.00  0.00    -0.064 N 
ATOM      7  H12 UNL     1       1.623  36.418   5.220  1.00  0.00     0.278 HD
ATOM      8  H11 UNL     1       2.498  35.140   5.057  1.00  0.00     0.278 HD
BRANCH   6   9
HETATM    9  C12 UNL     1       1.985  35.963   3.283  1.00  0.00     0.214 C 
HETATM   10  C13 UNL     1       1.111  37.050   2.718  1.00  0.00     0.036 C 
HETATM   11  C14 UNL     1       1.090  36.873   1.221  1.00  0.00     0.002 C 
HETATM   12  C15 UNL     1       2.503  36.995   0.717  1.00  0.00     0.003 C 
HETATM   13  C16 UNL     1       3.462  36.070   1.397  1.00  0.00     0.034 C 
HETATM   14  C17 UNL     1       3.398  36.226   2.922  1.00  0.00     0.148 C 
BRANCH  14  15
HETATM   15  O3  UNL     1       4.272  35.223   3.409  1.00  0.00    -0.393 OA
ATOM     16  H3  UNL     1       3.963  34.347   3.206  1.00  0.00     0.210 HD
ENDBRANCH  14  15
ENDBRANCH   6   9
ENDBRANCH   5   6
BRANCH   1  17
HETATM   17  C6  UNL     1      -1.228  35.861   6.329  1.00  0.00     0.162 C 
HETATM   18  C4  UNL     1      -1.864  36.944   5.685  1.00  0.00     0.178 C 
HETATM   19  O1  UNL     1      -1.354  38.080   6.410  1.00  0.00    -0.346 OA
HETATM   20  C2  UNL     1      -1.529  37.576   7.717  1.00  0.00     0.158 C 
HETATM   21  C1  UNL     1      -0.913  38.522   8.718  1.00  0.00     0.078 C 
HETATM   22  C3  UNL     1      -2.966  37.364   8.099  1.00  0.00     0.078 C 
HETATM   23  O4  UNL     1      -0.826  36.390   7.594  1.00  0.00    -0.348 OA
BRANCH  18  24
HETATM   24  C5  UNL     1      -1.838  37.370   4.292  1.00  0.00     0.198 C 
BRANCH  24  25
HETATM   25  O2  UNL     1      -2.584  38.423   3.874  1.00  0.00    -0.398 OA
ATOM     26  H2  UNL     1      -2.300  39.315   4.036  1.00  0.00     0.209 HD
ENDBRANCH  24  25
ENDBRANCH  18  24
ENDBRANCH   1  17
TORSDOF 6
ENDMDL
MODEL 3
REMARK VINA RESULT: -6.847698393      7.566     10.099
REMARK  6 active torsions:
REMARK  status: ('A' for Active; 'I' for Inactive)
REMARK    1  A    between atoms: C4_5  and  C5_6 
REMARK    2  A    between atoms: C5_6  and  O2_7 
REMARK    3  A    between atoms: C6_9  and  C7_10 
REMARK    4  A    between atoms: C11_14  and  N1_15 
REMARK    5  A    between atoms: N1_15  and  C12_18 
REMARK    6  A    between atoms: C17_23  and  O3_24 
ROOT
HETATM    1  C7  UNL     1      -0.685  35.117   3.787  1.00  0.00     0.048 C 
HETATM    2  C8  UNL     1      -0.985  33.808   4.594  1.00  0.00     0.009 C 
HETATM    3  C9  UNL     1      -0.097  34.113   5.803  1.00  0.00     0.002 C 
HETATM    4  C10 UNL     1       1.104  34.801   5.237  1.00  0.00     0.033 C 
HETATM    5  C11 UNL     1       0.749  35.110   3.758  1.00  0.00     0.193 C 
ENDROOT
BRANCH   5   6
HETATM    6  N1  UNL     1       1.507  36.323   3.545  1.00  0.00    -0.064 N 
ATOM      7  H12 UNL     1       0.890  37.135   3.514  1.00  0.00     0.278 HD
ATOM      8  H11 UNL     1       2.054  36.558   4.373  1.00  0.00     0.278 HD
BRANCH   6   9
HETATM    9  C12 UNL     1       2.335  36.272   2.392  1.00  0.00     0.214 C 
HETATM   10  C13 UNL     1       1.962  37.235   1.297  1.00  0.00     0.036 C 
HETATM   11  C14 UNL     1       2.455  36.648  -0.001  1.00  0.00     0.002 C 
HETATM   12  C15 UNL     1       3.949  36.489   0.097  1.00  0.00     0.003 C 
HETATM   13  C16 UNL     1       4.389  35.705   1.292  1.00  0.00     0.034 C 
HETATM   14  C17 UNL     1       3.804  36.288   2.585  1.00  0.00     0.148 C 
BRANCH  14  15
HETATM   15  O3  UNL     1       4.222  35.382   3.592  1.00  0.00    -0.393 OA
ATOM     16  H3  UNL     1       4.620  34.600   3.230  1.00  0.00     0.210 HD
ENDBRANCH  14  15
ENDBRANCH   6   9
ENDBRANCH   5   6
BRANCH   1  17
HETATM   17  C6  UNL     1      -1.619  35.295   2.712  1.00  0.00     0.162 C 
HETATM   18  C4  UNL     1      -2.410  34.424   1.934  1.00  0.00     0.178 C 
HETATM   19  O1  UNL     1      -1.921  34.667   0.601  1.00  0.00    -0.346 OA
HETATM   20  C2  UNL     1      -1.910  36.078   0.648  1.00  0.00     0.158 C 
HETATM   21  C1  UNL     1      -1.270  36.627  -0.603  1.00  0.00     0.078 C 
HETATM   22  C3  UNL     1      -3.274  36.692   0.783  1.00  0.00     0.078 C 
HETATM   23  O4  UNL     1      -1.127  36.255   1.776  1.00  0.00    -0.348 OA
BRANCH  18  24
HETATM   24  C5  UNL     1      -2.572  32.976   1.995  1.00  0.00     0.198 C 
BRANCH  24  25
HETATM   25  O2  UNL     1      -2.891  32.266   0.884  1.00  0.00    -0.398 OA
ATOM     26  H2  UNL     1      -2.775  31.324   0.860  1.00  0.00     0.209 HD
ENDBRANCH  24  25
ENDBRANCH  18  24
ENDBRANCH   1  17
TORSDOF 6
ENDMDL
MODEL 4
REMARK VINA RESULT: -6.740316962     10.407     12.106
REMARK  6 active torsions:
REMARK  status: ('A' for Active; 'I' for Inactive)
REMARK    1  A    between atoms: C4_5  and  C5_6 
REMARK    2  A    between atoms: C5_6  and  O2_7 
REMARK    3  A    between atoms: C6_9  and  C7_10 
REMARK    4  A    between atoms: C11_14  and  N1_15 
REMARK    5  A    between atoms: N1_15  and  C12_18 
REMARK    6  A    between atoms: C17_23  and  O3_24 
ROOT
HETATM    1  C7  UNL     1      -1.788  35.927   5.766  1.00  0.00     0.048 C 
HETATM    2  C8  UNL     1      -2.633  34.613   5.652  1.00  0.00     0.009 C 
HETATM    3  C9  UNL     1      -1.490  33.676   5.252  1.00  0.00     0.002 C 
HETATM    4  C10 UNL     1      -0.612  34.496   4.361  1.00  0.00     0.033 C 
HETATM    5  C11 UNL     1      -1.130  35.954   4.491  1.00  0.00     0.193 C 
ENDROOT
BRANCH   5   6
HETATM    6  N1  UNL     1       0.093  36.696   4.286  1.00  0.00    -0.064 N 
ATOM      7  H12 UNL     1       0.016  37.637   4.673  1.00  0.00     0.278 HD
ATOM      8  H11 UNL     1       0.841  36.332   4.876  1.00  0.00     0.278 HD
BRANCH   6   9
HETATM    9  C12 UNL     1       0.501  36.740   2.926  1.00  0.00     0.214 C 
HETATM   10  C13 UNL     1      -0.434  37.476   2.004  1.00  0.00     0.036 C 
HETATM   11  C14 UNL     1      -0.237  36.909   0.622  1.00  0.00     0.002 C 
HETATM   12  C15 UNL     1       1.199  37.129   0.227  1.00  0.00     0.003 C 
HETATM   13  C16 UNL     1       2.180  36.591   1.220  1.00  0.00     0.034 C 
HETATM   14  C17 UNL     1       1.899  37.132   2.628  1.00  0.00     0.148 C 
BRANCH  14  15
HETATM   15  O3  UNL     1       2.832  36.455   3.452  1.00  0.00    -0.393 OA
ATOM     16  H3  UNL     1       3.716  36.498   3.105  1.00  0.00     0.210 HD
ENDBRANCH  14  15
ENDBRANCH   6   9
ENDBRANCH   5   6
BRANCH   1  17
HETATM   17  C6  UNL     1      -2.518  36.964   6.437  1.00  0.00     0.162 C 
HETATM   18  C4  UNL     1      -2.186  37.953   7.388  1.00  0.00     0.178 C 
HETATM   19  O1  UNL     1      -3.040  37.616   8.498  1.00  0.00    -0.346 OA
HETATM   20  C2  UNL     1      -4.238  37.423   7.776  1.00  0.00     0.158 C 
HETATM   21  C1  UNL     1      -5.309  36.888   8.694  1.00  0.00     0.078 C 
HETATM   22  C3  UNL     1      -4.762  38.670   7.123  1.00  0.00     0.078 C 
HETATM   23  O4  UNL     1      -3.795  36.483   6.861  1.00  0.00    -0.348 OA
BRANCH  18  24
HETATM   24  C5  UNL     1      -0.910  38.285   8.008  1.00  0.00     0.198 C 
BRANCH  24  25
HETATM   25  O2  UNL     1       0.113  37.394   8.010  1.00  0.00    -0.398 OA
ATOM     26  H2  UNL     1       0.623  37.237   7.224  1.00  0.00     0.209 HD
ENDBRANCH  24  25
ENDBRANCH  18  24
ENDBRANCH   1  17
TORSDOF 6
ENDMDL
MODEL 5
REMARK VINA RESULT: -6.726313878      8.311     10.637
REMARK  6 active torsions:
REMARK  status: ('A' for Active; 'I' for Inactive)
REMARK    1  A    between atoms: C4_5  and  C5_6 
REMARK    2  A    between atoms: C5_6  and  O2_7 
REMARK    3  A    between atoms: C6_9  and  C7_10 
REMARK    4  A    between atoms: C11_14  and  N1_15 
REMARK    5  A    between atoms: N1_15  and  C12_18 
REMARK    6  A    between atoms: C17_23  and  O3_24 
ROOT
HETATM    1  C7  UNL     1       0.238  36.003   3.398  1.00  0.00     0.048 C 
HETATM    2  C8  UNL     1      -0.536  34.902   4.200  1.00  0.00     0.009 C 
HETATM    3  C9  UNL     1       0.363  34.889   5.438  1.00  0.00     0.002 C 
HETATM    4  C10 UNL     1       1.748  35.092   4.912  1.00  0.00     0.033 C 
HETATM    5  C11 UNL     1       1.575  35.483   3.420  1.00  0.00     0.193 C 
ENDROOT
BRANCH   5   6
HETATM    6  N1  UNL     1       2.723  36.340   3.229  1.00  0.00    -0.064 N 
ATOM      7  H12 UNL     1       2.492  37.310   3.446  1.00  0.00     0.278 HD
ATOM      8  H11 UNL     1       3.426  36.169   3.948  1.00  0.00     0.278 HD
BRANCH   6   9
HETATM    9  C12 UNL     1       3.293  36.234   1.932  1.00  0.00     0.214 C 
HETATM   10  C13 UNL     1       2.776  37.227   0.926  1.00  0.00     0.036 C 
HETATM   11  C14 UNL     1       2.950  36.612  -0.439  1.00  0.00     0.002 C 
HETATM   12  C15 UNL     1       4.417  36.343  -0.646  1.00  0.00     0.003 C 
HETATM   13  C16 UNL     1       5.033  35.524   0.443  1.00  0.00     0.034 C 
HETATM   14  C17 UNL     1       4.768  36.141   1.822  1.00  0.00     0.148 C 
BRANCH  14  15
HETATM   15  O3  UNL     1       5.315  35.203   2.732  1.00  0.00    -0.393 OA
ATOM     16  H3  UNL     1       6.073  34.756   2.376  1.00  0.00     0.210 HD
ENDBRANCH  14  15
ENDBRANCH   6   9
ENDBRANCH   5   6
BRANCH   1  17
HETATM   17  C6  UNL     1      -0.535  36.485   2.290  1.00  0.00     0.162 C 
HETATM   18  C4  UNL     1      -1.522  37.481   2.130  1.00  0.00     0.178 C 
HETATM   19  O1  UNL     1      -2.658  36.723   1.671  1.00  0.00    -0.346 OA
HETATM   20  C2  UNL     1      -1.996  35.942   0.699  1.00  0.00     0.158 C 
HETATM   21  C1  UNL     1      -2.941  34.905   0.145  1.00  0.00     0.078 C 
HETATM   22  C3  UNL     1      -1.450  36.739  -0.451  1.00  0.00     0.078 C 
HETATM   23  O4  UNL     1      -1.002  35.395   1.493  1.00  0.00    -0.348 OA
BRANCH  18  24
HETATM   24  C5  UNL     1      -2.086  38.424   3.088  1.00  0.00     0.198 C 
BRANCH  24  25
HETATM   25  O2  UNL     1      -2.404  38.028   4.346  1.00  0.00    -0.398 OA
ATOM     26  H2  UNL     1      -2.229  38.590   5.091  1.00  0.00     0.209 HD
ENDBRANCH  24  25
ENDBRANCH  18  24
ENDBRANCH   1  17
TORSDOF 6
ENDMDL
