MODEL 1
REMARK VINA RESULT: -7.779623355      0.000      0.000
REMARK  7 active torsions:
REMARK  status: ('A' for Active; 'I' for Inactive)
REMARK    1  A    between atoms: C4_5  and  O1_6 
REMARK    2  A    between atoms: C5_8  and  C6_9 
REMARK    3  A    between atoms: C6_9  and  C9_12 
REMARK    4  A    between atoms: C9_12  and  C10_13 
REMARK    5  A    between atoms: C12_16  and  C13_17 
REMARK    6  A    between atoms: C13_17  and  O2_18 
REMARK    7  A    between atoms: N3_20  and  O3_22 
ROOT
HETATM    1  C10 UNL     1       5.386  36.021   2.195  1.00  0.00     0.124 C 
HETATM    2  C11 UNL     1       6.514  35.563   1.382  1.00  0.00     0.059 C 
HETATM    3  N2  UNL     1       7.414  35.209   0.716  1.00  0.00    -0.197 NA
ENDROOT
BRANCH   1   4
HETATM    4  C9  UNL     1       4.132  35.482   1.539  1.00  0.00     0.023 C 
BRANCH   4   5
HETATM    5  C6  UNL     1       3.297  36.629   0.948  1.00  0.00    -0.036 C 
HETATM    6  C7  UNL     1       3.453  36.540  -0.575  1.00  0.00     0.015 C 
HETATM    7  C8  UNL     1       3.921  37.886   1.418  1.00  0.00     0.015 C 
BRANCH   5   8
HETATM    8  C5  UNL     1       1.851  36.466   1.241  1.00  0.00     0.080 C 
HETATM    9  C4  UNL     1       1.408  36.765   2.659  1.00  0.00     0.146 C 
HETATM   10  C3  UNL     1       1.189  35.552   3.511  1.00  0.00     0.081 C 
HETATM   11  N4  UNL     1       0.191  37.327   2.110  1.00  0.00    -0.288 N 
HETATM   12  C2  UNL     1      -0.008  35.600   4.395  1.00  0.00     0.132 C 
HETATM   13  N1  UNL     1      -0.805  36.796   4.265  1.00  0.00    -0.338 N 
HETATM   14  C1  UNL     1      -1.504  37.405   5.384  1.00  0.00     0.154 C 
HETATM   15  C14 UNL     1      -0.918  37.406   2.990  1.00  0.00     0.323 C 
HETATM   16  O4  UNL     1      -1.964  38.009   2.621  1.00  0.00    -0.247 OA
HETATM   17  C12 UNL     1       0.884  37.506   0.839  1.00  0.00     0.178 C 
BRANCH   9  18
HETATM   18  O1  UNL     1       2.104  37.791   3.293  1.00  0.00    -0.370 OA
ATOM     19  H1  UNL     1       2.359  38.502   2.718  1.00  0.00     0.212 HD
ENDBRANCH   9  18
BRANCH  17  20
HETATM   20  C13 UNL     1      -0.076  37.137  -0.244  1.00  0.00     0.159 C 
HETATM   21  N3  UNL     1      -0.658  36.026  -0.351  1.00  0.00    -0.249 N 
ATOM     22  H3  UNL     1      -0.487  35.292   0.337  1.00  0.00     0.196 HD
BRANCH  20  23
HETATM   23  O2  UNL     1      -0.318  38.125  -1.187  1.00  0.00    -0.347 OA
ATOM     24  H2  UNL     1       0.303  38.165  -1.905  1.00  0.00     0.219 HD
ENDBRANCH  20  23
BRANCH  21  25
HETATM   25  O3  UNL     1      -1.521  35.800  -1.389  1.00  0.00    -0.288 OA
ATOM     26  H3  UNL     1      -2.101  36.493  -1.685  1.00  0.00     0.244 HD
ENDBRANCH  21  25
ENDBRANCH  17  20
ENDBRANCH   5   8
ENDBRANCH   4   5
ENDBRANCH   1   4
TORSDOF 7
ENDMDL
MODEL 2
REMARK VINA RESULT: -7.306172775      9.260     10.599
REMARK  7 active torsions:
REMARK  status: ('A' for Active; 'I' for Inactive)
REMARK    1  A    between atoms: C4_5  and  O1_6 
REMARK    2  A    between atoms: C5_8  and  C6_9 
REMARK    3  A    between atoms: C6_9  and  C9_12 
REMARK    4  A    between atoms: C9_12  and  C10_13 
REMARK    5  A    between atoms: C12_16  and  C13_17 
REMARK    6  A    between atoms: C13_17  and  O2_18 
REMARK    7  A    between atoms: N3_20  and  O3_22 
ROOT
HETATM    1  C10 UNL     1      -0.451  25.726  -3.235  1.00  0.00     0.124 C 
HETATM    2  C11 UNL     1       0.599  25.674  -4.254  1.00  0.00     0.059 C 
HETATM    3  N2  UNL     1       1.454  25.644  -5.059  1.00  0.00    -0.197 NA
ENDROOT
BRANCH   1   4
HETATM    4  C9  UNL     1      -1.024  27.126  -3.275  1.00  0.00     0.023 C 
BRANCH   4   5
HETATM    5  C6  UNL     1      -2.515  27.088  -3.644  1.00  0.00    -0.036 C 
HETATM    6  C7  UNL     1      -3.032  25.707  -3.220  1.00  0.00     0.015 C 
HETATM    7  C8  UNL     1      -2.584  27.191  -5.118  1.00  0.00     0.015 C 
BRANCH   5   8
HETATM    8  C5  UNL     1      -3.299  28.091  -2.879  1.00  0.00     0.080 C 
HETATM    9  C4  UNL     1      -2.552  29.327  -2.418  1.00  0.00     0.146 C 
HETATM   10  C3  UNL     1      -2.145  29.307  -0.977  1.00  0.00     0.081 C 
HETATM   11  N4  UNL     1      -3.753  30.093  -2.681  1.00  0.00    -0.288 N 
HETATM   12  C2  UNL     1      -2.316  30.593  -0.246  1.00  0.00     0.132 C 
HETATM   13  N1  UNL     1      -2.891  31.659  -1.031  1.00  0.00    -0.338 N 
HETATM   14  C1  UNL     1      -2.521  33.054  -0.862  1.00  0.00     0.154 C 
HETATM   15  C14 UNL     1      -3.865  31.337  -2.010  1.00  0.00     0.323 C 
HETATM   16  O4  UNL     1      -4.816  32.117  -2.298  1.00  0.00    -0.247 OA
HETATM   17  C12 UNL     1      -4.196  29.031  -3.578  1.00  0.00     0.178 C 
BRANCH   9  18
HETATM   18  O1  UNL     1      -1.560  29.777  -3.286  1.00  0.00    -0.370 OA
ATOM     19  H1  UNL     1      -1.525  29.313  -4.114  1.00  0.00     0.212 HD
ENDBRANCH   9  18
BRANCH  17  20
HETATM   20  C13 UNL     1      -5.660  28.843  -3.352  1.00  0.00     0.159 C 
HETATM   21  N3  UNL     1      -6.575  29.392  -4.022  1.00  0.00    -0.249 N 
ATOM     22  H3  UNL     1      -6.338  30.023  -4.787  1.00  0.00     0.196 HD
BRANCH  20  23
HETATM   23  O2  UNL     1      -5.997  27.988  -2.314  1.00  0.00    -0.347 OA
ATOM     24  H2  UNL     1      -6.023  27.065  -2.538  1.00  0.00     0.219 HD
ENDBRANCH  20  23
BRANCH  21  25
HETATM   25  O3  UNL     1      -7.887  29.144  -3.722  1.00  0.00    -0.288 OA
ATOM     26  H3  UNL     1      -8.488  28.869  -4.406  1.00  0.00     0.244 HD
ENDBRANCH  21  25
ENDBRANCH  17  20
ENDBRANCH   5   8
ENDBRANCH   4   5
ENDBRANCH   1   4
TORSDOF 7
ENDMDL
MODEL 3
REMARK VINA RESULT: -6.806173189      3.129      6.850
REMARK  7 active torsions:
REMARK  status: ('A' for Active; 'I' for Inactive)
REMARK    1  A    between atoms: C4_5  and  O1_6 
REMARK    2  A    between atoms: C5_8  and  C6_9 
REMARK    3  A    between atoms: C6_9  and  C9_12 
REMARK    4  A    between atoms: C9_12  and  C10_13 
REMARK    5  A    between atoms: C12_16  and  C13_17 
REMARK    6  A    between atoms: C13_17  and  O2_18 
REMARK    7  A    between atoms: N3_20  and  O3_22 
ROOT
HETATM    1  C10 UNL     1      -1.953  35.050   8.698  1.00  0.00     0.124 C 
HETATM    2  C11 UNL     1      -1.687  36.325   9.367  1.00  0.00     0.059 C 
HETATM    3  N2  UNL     1      -1.475  37.358   9.885  1.00  0.00    -0.197 NA
ENDROOT
BRANCH   1   4
HETATM    4  C9  UNL     1      -0.687  34.678   7.956  1.00  0.00     0.023 C 
BRANCH   4   5
HETATM    5  C6  UNL     1      -0.980  34.467   6.462  1.00  0.00    -0.036 C 
HETATM    6  C7  UNL     1      -2.461  34.081   6.361  1.00  0.00     0.015 C 
HETATM    7  C8  UNL     1      -0.157  33.315   6.033  1.00  0.00     0.015 C 
BRANCH   5   8
HETATM    8  C5  UNL     1      -0.810  35.720   5.684  1.00  0.00     0.080 C 
HETATM    9  C4  UNL     1      -0.480  35.566   4.213  1.00  0.00     0.146 C 
HETATM   10  C3  UNL     1       0.965  35.769   3.875  1.00  0.00     0.081 C 
HETATM   11  N4  UNL     1      -1.314  36.721   3.953  1.00  0.00    -0.288 N 
HETATM   12  C2  UNL     1       1.227  36.543   2.630  1.00  0.00     0.132 C 
HETATM   13  N1  UNL     1       0.043  37.019   1.956  1.00  0.00    -0.338 N 
HETATM   14  C1  UNL     1      -0.056  37.123   0.510  1.00  0.00     0.154 C 
HETATM   15  C14 UNL     1      -1.076  37.408   2.736  1.00  0.00     0.323 C 
HETATM   16  O4  UNL     1      -1.855  38.336   2.381  1.00  0.00    -0.247 OA
HETATM   17  C12 UNL     1      -1.988  36.481   5.225  1.00  0.00     0.178 C 
BRANCH   9  18
HETATM   18  O1  UNL     1      -1.064  34.467   3.587  1.00  0.00    -0.370 OA
ATOM     19  H1  UNL     1      -0.542  33.674   3.624  1.00  0.00     0.212 HD
ENDBRANCH   9  18
BRANCH  17  20
HETATM   20  C13 UNL     1      -2.209  37.812   5.865  1.00  0.00     0.159 C 
HETATM   21  N3  UNL     1      -1.590  38.245   6.872  1.00  0.00    -0.249 N 
ATOM     22  H3  UNL     1      -0.872  37.671   7.315  1.00  0.00     0.196 HD
BRANCH  20  23
HETATM   23  O2  UNL     1      -3.182  38.604   5.273  1.00  0.00    -0.347 OA
ATOM     24  H2  UNL     1      -4.064  38.249   5.292  1.00  0.00     0.219 HD
ENDBRANCH  20  23
BRANCH  21  25
HETATM   25  O3  UNL     1      -1.878  39.486   7.374  1.00  0.00    -0.288 OA
ATOM     26  H3  UNL     1      -2.076  39.592   8.297  1.00  0.00     0.244 HD
ENDBRANCH  21  25
ENDBRANCH  17  20
ENDBRANCH   5   8
ENDBRANCH   4   5
ENDBRANCH   1   4
TORSDOF 7
ENDMDL
MODEL 4
REMARK VINA RESULT: -6.490183713      3.256      4.790
REMARK  7 active torsions:
REMARK  status: ('A' for Active; 'I' for Inactive)
REMARK    1  A    between atoms: C4_5  and  O1_6 
REMARK    2  A    between atoms: C5_8  and  C6_9 
REMARK    3  A    between atoms: C6_9  and  C9_12 
REMARK    4  A    between atoms: C9_12  and  C10_13 
REMARK    5  A    between atoms: C12_16  and  C13_17 
REMARK    6  A    between atoms: C13_17  and  O2_18 
REMARK    7  A    between atoms: N3_20  and  O3_22 
ROOT
HETATM    1  C10 UNL     1       1.032  37.011   1.554  1.00  0.00     0.124 C 
HETATM    2  C11 UNL     1       1.910  36.978   0.382  1.00  0.00     0.059 C 
HETATM    3  N2  UNL     1       2.611  36.973  -0.560  1.00  0.00    -0.197 NA
ENDROOT
BRANCH   1   4
HETATM    4  C9  UNL     1      -0.377  37.207   1.035  1.00  0.00     0.023 C 
BRANCH   4   5
HETATM    5  C6  UNL     1      -1.405  36.740   2.076  1.00  0.00    -0.036 C 
HETATM    6  C7  UNL     1      -2.787  37.076   1.503  1.00  0.00     0.015 C 
HETATM    7  C8  UNL     1      -1.178  37.561   3.286  1.00  0.00     0.015 C 
BRANCH   5   8
HETATM    8  C5  UNL     1      -1.367  35.268   2.267  1.00  0.00     0.080 C 
HETATM    9  C4  UNL     1      -1.442  34.766   3.696  1.00  0.00     0.146 C 
HETATM   10  C3  UNL     1      -0.125  34.358   4.281  1.00  0.00     0.081 C 
HETATM   11  N4  UNL     1      -2.243  33.659   3.215  1.00  0.00    -0.288 N 
HETATM   12  C2  UNL     1      -0.149  33.117   5.104  1.00  0.00     0.132 C 
HETATM   13  N1  UNL     1      -1.437  32.469   5.178  1.00  0.00    -0.338 N 
HETATM   14  C1  UNL     1      -1.902  31.769   6.363  1.00  0.00     0.154 C 
HETATM   15  C14 UNL     1      -2.287  32.510   4.044  1.00  0.00     0.323 C 
HETATM   16  O4  UNL     1      -3.073  31.564   3.756  1.00  0.00    -0.247 OA
HETATM   17  C12 UNL     1      -2.575  34.452   2.036  1.00  0.00     0.178 C 
BRANCH   9  18
HETATM   18  O1  UNL     1      -2.235  35.528   4.550  1.00  0.00    -0.370 OA
ATOM     19  H1  UNL     1      -2.875  35.026   5.040  1.00  0.00     0.212 HD
ENDBRANCH   9  18
BRANCH  17  20
HETATM   20  C13 UNL     1      -2.539  33.531   0.860  1.00  0.00     0.159 C 
HETATM   21  N3  UNL     1      -2.344  33.885  -0.333  1.00  0.00    -0.249 N 
ATOM     22  H3  UNL     1      -2.195  34.869  -0.555  1.00  0.00     0.196 HD
BRANCH  20  23
HETATM   23  O2  UNL     1      -2.740  32.190   1.148  1.00  0.00    -0.347 OA
ATOM     24  H2  UNL     1      -3.496  31.792   0.733  1.00  0.00     0.219 HD
ENDBRANCH  20  23
BRANCH  21  25
HETATM   25  O3  UNL     1      -2.332  32.949  -1.332  1.00  0.00    -0.288 OA
ATOM     26  H3  UNL     1      -2.293  32.024  -1.117  1.00  0.00     0.244 HD
ENDBRANCH  21  25
ENDBRANCH  17  20
ENDBRANCH   5   8
ENDBRANCH   4   5
ENDBRANCH   1   4
TORSDOF 7
ENDMDL
MODEL 5
REMARK VINA RESULT: -6.453544289      8.233      9.934
REMARK  7 active torsions:
REMARK  status: ('A' for Active; 'I' for Inactive)
REMARK    1  A    between atoms: C4_5  and  O1_6 
REMARK    2  A    between atoms: C5_8  and  C6_9 
REMARK    3  A    between atoms: C6_9  and  C9_12 
REMARK    4  A    between atoms: C9_12  and  C10_13 
REMARK    5  A    between atoms: C12_16  and  C13_17 
REMARK    6  A    between atoms: C13_17  and  O2_18 
REMARK    7  A    between atoms: N3_20  and  O3_22 
ROOT
HETATM    1  C10 UNL     1       6.356  26.689  -0.030  1.00  0.00     0.124 C 
HETATM    2  C11 UNL     1       7.048  27.844  -0.606  1.00  0.00     0.059 C 
HETATM    3  N2  UNL     1       7.609  28.776  -1.048  1.00  0.00    -0.197 NA
ENDROOT
BRANCH   1   4
HETATM    4  C9  UNL     1       5.150  27.230   0.709  1.00  0.00     0.023 C 
BRANCH   4   5
HETATM    5  C6  UNL     1       5.232  26.881   2.203  1.00  0.00    -0.036 C 
HETATM    6  C7  UNL     1       6.619  26.267   2.430  1.00  0.00     0.015 C 
HETATM    7  C8  UNL     1       4.206  25.842   2.446  1.00  0.00     0.015 C 
BRANCH   5   8
HETATM    8  C5  UNL     1       5.154  28.092   3.058  1.00  0.00     0.080 C 
HETATM    9  C4  UNL     1       5.097  27.863   4.555  1.00  0.00     0.146 C 
HETATM   10  C3  UNL     1       3.727  27.984   5.150  1.00  0.00     0.081 C 
HETATM   11  N4  UNL     1       5.918  29.045   4.720  1.00  0.00    -0.288 N 
HETATM   12  C2  UNL     1       3.660  28.694   6.458  1.00  0.00     0.132 C 
HETATM   13  N1  UNL     1       4.925  29.198   6.935  1.00  0.00    -0.338 N 
HETATM   14  C1  UNL     1       5.275  29.248   8.345  1.00  0.00     0.154 C 
HETATM   15  C14 UNL     1       5.872  29.670   5.991  1.00  0.00     0.323 C 
HETATM   16  O4  UNL     1       6.664  30.620   6.247  1.00  0.00    -0.247 OA
HETATM   17  C12 UNL     1       6.364  28.888   3.339  1.00  0.00     0.178 C 
BRANCH   9  18
HETATM   18  O1  UNL     1       5.825  26.769   5.015  1.00  0.00    -0.370 OA
ATOM     19  H1  UNL     1       6.732  26.758   4.733  1.00  0.00     0.212 HD
ENDBRANCH   9  18
BRANCH  17  20
HETATM   20  C13 UNL     1       6.416  30.253   2.734  1.00  0.00     0.159 C 
HETATM   21  N3  UNL     1       5.887  31.285   3.225  1.00  0.00    -0.249 N 
ATOM     22  H3  UNL     1       5.373  31.226   4.104  1.00  0.00     0.196 HD
BRANCH  20  23
HETATM   23  O2  UNL     1       7.111  30.348   1.538  1.00  0.00    -0.347 OA
ATOM     24  H2  UNL     1       7.160  29.547   1.030  1.00  0.00     0.219 HD
ENDBRANCH  20  23
BRANCH  21  25
HETATM   25  O3  UNL     1       6.001  32.487   2.579  1.00  0.00    -0.288 OA
ATOM     26  H3  UNL     1       5.526  32.640   1.770  1.00  0.00     0.244 HD
ENDBRANCH  21  25
ENDBRANCH  17  20
ENDBRANCH   5   8
ENDBRANCH   4   5
ENDBRANCH   1   4
TORSDOF 7
ENDMDL
