MODEL 1
REMARK VINA RESULT: -6.807480433      0.000      0.000
REMARK  8 active torsions:
REMARK  status: ('A' for Active; 'I' for Inactive)
REMARK    1  A    between atoms: C1_2  and  O2_3 
REMARK    2  A    between atoms: C1_2  and  C7_9 
REMARK    3  A    between atoms: O2_3  and  C2_4 
REMARK    4  A    between atoms: C7_9  and  C8_10 
REMARK    5  A    between atoms: C8_10  and  O3_11 
REMARK    6  A    between atoms: C14_18  and  O4_19 
REMARK    7  A    between atoms: C16_22  and  C17_23 
REMARK    8  A    between atoms: C17_23  and  O5_24 
ROOT
HETATM    1  C7  UNL     1      -3.347  26.650  -3.823  1.00  0.00     0.100 C 
HETATM    2  C9  UNL     1      -3.288  26.333  -5.283  1.00  0.00     0.025 C 
HETATM    3  C10 UNL     1      -2.045  26.766  -5.972  1.00  0.00     0.006 C 
HETATM    4  C11 UNL     1      -0.821  25.991  -5.570  1.00  0.00    -0.008 C 
HETATM    5  C12 UNL     1      -1.184  24.626  -4.991  1.00  0.00     0.008 C 
HETATM    6  C13 UNL     1      -1.779  24.723  -3.631  1.00  0.00     0.039 C 
HETATM    7  C14 UNL     1      -2.084  26.113  -3.170  1.00  0.00     0.077 C 
HETATM    8  C15 UNL     1      -0.918  27.045  -3.312  1.00  0.00     0.046 C 
HETATM    9  C16 UNL     1      -0.026  26.701  -4.491  1.00  0.00     0.016 C 
ENDROOT
BRANCH   1  10
HETATM   10  C1  UNL     1      -3.514  28.091  -3.541  1.00  0.00     0.273 C 
HETATM   11  O1  UNL     1      -4.456  28.742  -4.081  1.00  0.00    -0.264 OA
BRANCH  10  12
HETATM   12  O2  UNL     1      -2.724  28.838  -2.719  1.00  0.00    -0.315 OA
BRANCH  12  13
HETATM   13  C2  UNL     1      -3.110  29.794  -1.803  1.00  0.00     0.132 C 
HETATM   14  C3  UNL     1      -3.162  31.201  -2.325  1.00  0.00     0.032 C 
HETATM   15  C4  UNL     1      -3.545  31.940  -1.048  1.00  0.00     0.002 C 
HETATM   16  C5  UNL     1      -2.892  31.152   0.070  1.00  0.00     0.002 C 
HETATM   17  C6  UNL     1      -2.254  29.938  -0.587  1.00  0.00     0.032 C 
ENDBRANCH  12  13
ENDBRANCH  10  12
ENDBRANCH   1  10
BRANCH   1  18
HETATM   18  C8  UNL     1      -4.568  25.945  -3.260  1.00  0.00     0.187 C 
BRANCH  18  19
HETATM   19  O3  UNL     1      -5.041  26.499  -2.097  1.00  0.00    -0.399 OA
ATOM     20  H3  UNL     1      -5.532  25.893  -1.555  1.00  0.00     0.209 HD
ENDBRANCH  18  19
ENDBRANCH   1  18
BRANCH   7  21
HETATM   21  O4  UNL     1      -2.360  26.022  -1.786  1.00  0.00    -0.388 OA
ATOM     22  H4  UNL     1      -1.912  25.245  -1.474  1.00  0.00     0.210 HD
ENDBRANCH   7  21
BRANCH   9  23
HETATM   23  C17 UNL     1       0.704  27.901  -5.016  1.00  0.00     0.169 C 
BRANCH  23  24
HETATM   24  O5  UNL     1       0.551  28.927  -4.083  1.00  0.00    -0.400 OA
ATOM     25  H5  UNL     1       0.449  29.739  -4.565  1.00  0.00     0.209 HD
ENDBRANCH  23  24
ENDBRANCH   9  23
TORSDOF 8
ENDMDL
MODEL 2
REMARK VINA RESULT: -6.076075478      1.734      3.837
REMARK  8 active torsions:
REMARK  status: ('A' for Active; 'I' for Inactive)
REMARK    1  A    between atoms: C1_2  and  O2_3 
REMARK    2  A    between atoms: C1_2  and  C7_9 
REMARK    3  A    between atoms: O2_3  and  C2_4 
REMARK    4  A    between atoms: C7_9  and  C8_10 
REMARK    5  A    between atoms: C8_10  and  O3_11 
REMARK    6  A    between atoms: C14_18  and  O4_19 
REMARK    7  A    between atoms: C16_22  and  C17_23 
REMARK    8  A    between atoms: C17_23  and  O5_24 
ROOT
HETATM    1  C7  UNL     1      -1.765  27.063  -3.146  1.00  0.00     0.100 C 
HETATM    2  C9  UNL     1      -2.582  26.314  -2.142  1.00  0.00     0.025 C 
HETATM    3  C10 UNL     1      -3.957  26.835  -1.933  1.00  0.00     0.006 C 
HETATM    4  C11 UNL     1      -4.875  26.623  -3.105  1.00  0.00    -0.008 C 
HETATM    5  C12 UNL     1      -4.394  25.482  -3.998  1.00  0.00     0.008 C 
HETATM    6  C13 UNL     1      -3.188  25.846  -4.789  1.00  0.00     0.039 C 
HETATM    7  C14 UNL     1      -2.569  27.160  -4.433  1.00  0.00     0.077 C 
HETATM    8  C15 UNL     1      -3.558  28.287  -4.414  1.00  0.00     0.046 C 
HETATM    9  C16 UNL     1      -4.949  27.846  -3.999  1.00  0.00     0.016 C 
ENDROOT
BRANCH   1  10
HETATM   10  C1  UNL     1      -1.350  28.404  -2.683  1.00  0.00     0.273 C 
HETATM   11  O1  UNL     1      -0.666  29.156  -3.438  1.00  0.00    -0.264 OA
BRANCH  10  12
HETATM   12  O2  UNL     1      -1.637  28.951  -1.469  1.00  0.00    -0.315 OA
BRANCH  12  13
HETATM   13  C2  UNL     1      -2.005  30.250  -1.184  1.00  0.00     0.132 C 
HETATM   14  C3  UNL     1      -1.929  30.637   0.265  1.00  0.00     0.032 C 
HETATM   15  C4  UNL     1      -2.459  32.064   0.182  1.00  0.00     0.002 C 
HETATM   16  C5  UNL     1      -3.466  32.041  -0.951  1.00  0.00     0.002 C 
HETATM   17  C6  UNL     1      -3.400  30.643  -1.545  1.00  0.00     0.032 C 
ENDBRANCH  12  13
ENDBRANCH  10  12
ENDBRANCH   1  10
BRANCH   1  18
HETATM   18  C8  UNL     1      -0.497  26.263  -3.380  1.00  0.00     0.187 C 
BRANCH  18  19
HETATM   19  O3  UNL     1       0.535  27.001  -3.905  1.00  0.00    -0.399 OA
ATOM     20  H3  UNL     1       1.166  26.485  -4.393  1.00  0.00     0.209 HD
ENDBRANCH  18  19
ENDBRANCH   1  18
BRANCH   7  21
HETATM   21  O4  UNL     1      -1.641  27.455  -5.460  1.00  0.00    -0.388 OA
ATOM     22  H4  UNL     1      -0.783  27.445  -5.054  1.00  0.00     0.210 HD
ENDBRANCH   7  21
BRANCH   9  23
HETATM   23  C17 UNL     1      -5.733  28.962  -3.375  1.00  0.00     0.169 C 
BRANCH  23  24
HETATM   24  O5  UNL     1      -7.086  28.657  -3.519  1.00  0.00    -0.400 OA
ATOM     25  H5  UNL     1      -7.513  29.419  -3.892  1.00  0.00     0.209 HD
ENDBRANCH  23  24
ENDBRANCH   9  23
TORSDOF 8
ENDMDL
MODEL 3
REMARK VINA RESULT: -6.059765068      1.480      2.248
REMARK  8 active torsions:
REMARK  status: ('A' for Active; 'I' for Inactive)
REMARK    1  A    between atoms: C1_2  and  O2_3 
REMARK    2  A    between atoms: C1_2  and  C7_9 
REMARK    3  A    between atoms: O2_3  and  C2_4 
REMARK    4  A    between atoms: C7_9  and  C8_10 
REMARK    5  A    between atoms: C8_10  and  O3_11 
REMARK    6  A    between atoms: C14_18  and  O4_19 
REMARK    7  A    between atoms: C16_22  and  C17_23 
REMARK    8  A    between atoms: C17_23  and  O5_24 
ROOT
HETATM    1  C7  UNL     1      -3.785  27.922  -3.390  1.00  0.00     0.100 C 
HETATM    2  C9  UNL     1      -3.374  27.946  -4.827  1.00  0.00     0.025 C 
HETATM    3  C10 UNL     1      -2.193  27.109  -5.159  1.00  0.00     0.006 C 
HETATM    4  C11 UNL     1      -2.447  25.630  -5.070  1.00  0.00    -0.008 C 
HETATM    5  C12 UNL     1      -3.935  25.306  -5.198  1.00  0.00     0.008 C 
HETATM    6  C13 UNL     1      -4.707  25.686  -3.985  1.00  0.00     0.039 C 
HETATM    7  C14 UNL     1      -3.943  26.470  -2.966  1.00  0.00     0.077 C 
HETATM    8  C15 UNL     1      -2.640  25.831  -2.592  1.00  0.00     0.046 C 
HETATM    9  C16 UNL     1      -2.011  25.056  -3.735  1.00  0.00     0.016 C 
ENDROOT
BRANCH   1  10
HETATM   10  C1  UNL     1      -2.843  28.630  -2.497  1.00  0.00     0.273 C 
HETATM   11  O1  UNL     1      -1.690  28.951  -2.911  1.00  0.00    -0.264 OA
BRANCH  10  12
HETATM   12  O2  UNL     1      -3.091  28.996  -1.208  1.00  0.00    -0.315 OA
BRANCH  12  13
HETATM   13  C2  UNL     1      -3.154  30.269  -0.680  1.00  0.00     0.132 C 
HETATM   14  C3  UNL     1      -3.033  31.385  -1.678  1.00  0.00     0.032 C 
HETATM   15  C4  UNL     1      -3.076  32.583  -0.736  1.00  0.00     0.002 C 
HETATM   16  C5  UNL     1      -2.411  32.102   0.538  1.00  0.00     0.002 C 
HETATM   17  C6  UNL     1      -2.109  30.627   0.325  1.00  0.00     0.032 C 
ENDBRANCH  12  13
ENDBRANCH  10  12
ENDBRANCH   1  10
BRANCH   1  18
HETATM   18  C8  UNL     1      -5.115  28.645  -3.291  1.00  0.00     0.187 C 
BRANCH  18  19
HETATM   19  O3  UNL     1      -5.034  29.993  -3.536  1.00  0.00    -0.399 OA
ATOM     20  H3  UNL     1      -5.308  30.241  -4.412  1.00  0.00     0.209 HD
ENDBRANCH  18  19
ENDBRANCH   1  18
BRANCH   7  21
HETATM   21  O4  UNL     1      -4.737  26.482  -1.795  1.00  0.00    -0.388 OA
ATOM     22  H4  UNL     1      -5.497  25.944  -1.982  1.00  0.00     0.210 HD
ENDBRANCH   7  21
BRANCH   9  23
HETATM   23  C17 UNL     1      -0.520  24.974  -3.609  1.00  0.00     0.169 C 
BRANCH  23  24
HETATM   24  O5  UNL     1      -0.109  26.024  -2.789  1.00  0.00    -0.400 OA
ATOM     25  H5  UNL     1      -0.534  25.912  -1.946  1.00  0.00     0.209 HD
ENDBRANCH  23  24
ENDBRANCH   9  23
TORSDOF 8
ENDMDL
MODEL 4
REMARK VINA RESULT: -6.051867259     11.370     14.302
REMARK  8 active torsions:
REMARK  status: ('A' for Active; 'I' for Inactive)
REMARK    1  A    between atoms: C1_2  and  O2_3 
REMARK    2  A    between atoms: C1_2  and  C7_9 
REMARK    3  A    between atoms: O2_3  and  C2_4 
REMARK    4  A    between atoms: C7_9  and  C8_10 
REMARK    5  A    between atoms: C8_10  and  O3_11 
REMARK    6  A    between atoms: C14_18  and  O4_19 
REMARK    7  A    between atoms: C16_22  and  C17_23 
REMARK    8  A    between atoms: C17_23  and  O5_24 
ROOT
HETATM    1  C7  UNL     1      -2.184  36.284   6.618  1.00  0.00     0.100 C 
HETATM    2  C9  UNL     1      -0.915  36.309   7.408  1.00  0.00     0.025 C 
HETATM    3  C10 UNL     1      -0.596  37.610   8.048  1.00  0.00     0.006 C 
HETATM    4  C11 UNL     1      -1.518  37.979   9.178  1.00  0.00    -0.008 C 
HETATM    5  C12 UNL     1      -2.204  36.748   9.768  1.00  0.00     0.008 C 
HETATM    6  C13 UNL     1      -3.249  36.192   8.868  1.00  0.00     0.039 C 
HETATM    7  C14 UNL     1      -3.304  36.804   7.505  1.00  0.00     0.077 C 
HETATM    8  C15 UNL     1      -3.368  38.302   7.537  1.00  0.00     0.046 C 
HETATM    9  C16 UNL     1      -2.635  38.899   8.724  1.00  0.00     0.016 C 
ENDROOT
BRANCH   1  10
HETATM   10  C1  UNL     1      -2.108  37.056   5.359  1.00  0.00     0.273 C 
HETATM   11  O1  UNL     1      -2.612  38.214   5.290  1.00  0.00    -0.264 OA
BRANCH  10  12
HETATM   12  O2  UNL     1      -1.523  36.635   4.202  1.00  0.00    -0.315 OA
BRANCH  12  13
HETATM   13  C2  UNL     1      -0.192  36.701   3.847  1.00  0.00     0.132 C 
HETATM   14  C3  UNL     1       0.074  37.055   2.412  1.00  0.00     0.032 C 
HETATM   15  C4  UNL     1       1.595  36.962   2.397  1.00  0.00     0.002 C 
HETATM   16  C5  UNL     1       1.929  35.869   3.393  1.00  0.00     0.002 C 
HETATM   17  C6  UNL     1       0.608  35.451   4.019  1.00  0.00     0.032 C 
ENDBRANCH  12  13
ENDBRANCH  10  12
ENDBRANCH   1  10
BRANCH   1  18
HETATM   18  C8  UNL     1      -2.447  34.839   6.236  1.00  0.00     0.187 C 
BRANCH  18  19
HETATM   19  O3  UNL     1      -3.298  34.694   5.169  1.00  0.00    -0.399 OA
ATOM     20  H3  UNL     1      -3.687  33.830   5.103  1.00  0.00     0.209 HD
ENDBRANCH  18  19
ENDBRANCH   1  18
BRANCH   7  21
HETATM   21  O4  UNL     1      -4.513  36.362   6.917  1.00  0.00    -0.388 OA
ATOM     22  H4  UNL     1      -5.206  36.876   7.314  1.00  0.00     0.210 HD
ENDBRANCH   7  21
BRANCH   9  23
HETATM   23  C17 UNL     1      -2.150  40.290   8.447  1.00  0.00     0.169 C 
BRANCH  23  24
HETATM   24  O5  UNL     1      -2.521  40.612   7.141  1.00  0.00    -0.400 OA
ATOM     25  H5  UNL     1      -3.455  40.781   7.142  1.00  0.00     0.209 HD
ENDBRANCH  23  24
ENDBRANCH   9  23
TORSDOF 8
ENDMDL
MODEL 5
REMARK VINA RESULT: -6.024391931      9.905     11.727
REMARK  8 active torsions:
REMARK  status: ('A' for Active; 'I' for Inactive)
REMARK    1  A    between atoms: C1_2  and  O2_3 
REMARK    2  A    between atoms: C1_2  and  C7_9 
REMARK    3  A    between atoms: O2_3  and  C2_4 
REMARK    4  A    between atoms: C7_9  and  C8_10 
REMARK    5  A    between atoms: C8_10  and  O3_11 
REMARK    6  A    between atoms: C14_18  and  O4_19 
REMARK    7  A    between atoms: C16_22  and  C17_23 
REMARK    8  A    between atoms: C17_23  and  O5_24 
ROOT
HETATM    1  C7  UNL     1      -0.873  36.241   3.716  1.00  0.00     0.100 C 
HETATM    2  C9  UNL     1      -1.728  35.243   3.003  1.00  0.00     0.025 C 
HETATM    3  C10 UNL     1      -1.473  33.824   3.361  1.00  0.00     0.006 C 
HETATM    4  C11 UNL     1      -1.897  33.459   4.756  1.00  0.00    -0.008 C 
HETATM    5  C12 UNL     1      -2.956  34.421   5.292  1.00  0.00     0.008 C 
HETATM    6  C13 UNL     1      -2.396  35.757   5.627  1.00  0.00     0.039 C 
HETATM    7  C14 UNL     1      -0.976  35.973   5.209  1.00  0.00     0.077 C 
HETATM    8  C15 UNL     1      -0.059  34.878   5.665  1.00  0.00     0.046 C 
HETATM    9  C16 UNL     1      -0.742  33.525   5.738  1.00  0.00     0.016 C 
ENDROOT
BRANCH   1  10
HETATM   10  C1  UNL     1       0.539  36.226   3.275  1.00  0.00     0.273 C 
HETATM   11  O1  UNL     1       1.384  35.495   3.869  1.00  0.00    -0.264 OA
BRANCH  10  12
HETATM   12  O2  UNL     1       1.058  36.952   2.245  1.00  0.00    -0.315 OA
BRANCH  12  13
HETATM   13  C2  UNL     1       2.056  36.589   1.365  1.00  0.00     0.132 C 
HETATM   14  C3  UNL     1       3.441  37.031   1.745  1.00  0.00     0.032 C 
HETATM   15  C4  UNL     1       4.218  36.520   0.538  1.00  0.00     0.002 C 
HETATM   16  C5  UNL     1       3.253  36.635  -0.626  1.00  0.00     0.002 C 
HETATM   17  C6  UNL     1       1.932  37.100  -0.033  1.00  0.00     0.032 C 
ENDBRANCH  12  13
ENDBRANCH  10  12
ENDBRANCH   1  10
BRANCH   1  18
HETATM   18  C8  UNL     1      -1.423  37.617   3.391  1.00  0.00     0.187 C 
BRANCH  18  19
HETATM   19  O3  UNL     1      -1.653  37.821   2.053  1.00  0.00    -0.399 OA
ATOM     20  H3  UNL     1      -1.126  38.516   1.675  1.00  0.00     0.209 HD
ENDBRANCH  18  19
ENDBRANCH   1  18
BRANCH   7  21
HETATM   21  O4  UNL     1      -0.545  37.155   5.855  1.00  0.00    -0.388 OA
ATOM     22  H4  UNL     1      -0.820  37.080   6.761  1.00  0.00     0.210 HD
ENDBRANCH   7  21
BRANCH   9  23
HETATM   23  C17 UNL     1       0.224  32.394   5.558  1.00  0.00     0.169 C 
BRANCH  23  24
HETATM   24  O5  UNL     1       1.455  32.945   5.201  1.00  0.00    -0.400 OA
ATOM     25  H5  UNL     1       2.071  32.743   5.896  1.00  0.00     0.209 HD
ENDBRANCH  23  24
ENDBRANCH   9  23
TORSDOF 8
ENDMDL
