MODEL 1
REMARK VINA RESULT: -9.051169143      0.000      0.000
REMARK  3 active torsions:
REMARK  status: ('A' for Active; 'I' for Inactive)
REMARK    1  A    between atoms: C2_2  and  C3_3 
REMARK    2  A    between atoms: C14_16  and  C15_17 
REMARK    3  A    between atoms: N2_19  and  O1_21 
ROOT
HETATM    1  C1  UNL     1      -7.212  -3.984  22.737  1.00  0.00     0.016 C 
HETATM    2  C2  UNL     1      -5.971  -3.944  21.882  1.00  0.00    -0.028 C 
HETATM    3  C9  UNL     1      -6.053  -2.803  20.909  1.00  0.00    -0.005 C 
HETATM    4  C10 UNL     1      -6.479  -1.509  21.556  1.00  0.00     0.005 C 
HETATM    5  C11 UNL     1      -5.739  -1.115  22.778  1.00  0.00     0.001 C 
HETATM    6  C12 UNL     1      -5.234  -2.279  23.593  1.00  0.00     0.006 C 
HETATM    7  C13 UNL     1      -4.772  -3.422  22.670  1.00  0.00     0.006 C 
HETATM    8  C14 UNL     1      -3.851  -2.763  21.668  1.00  0.00     0.057 C 
HETATM    9  C16 UNL     1      -4.614  -2.659  20.374  1.00  0.00     0.017 C 
ENDROOT
BRANCH   2  10
HETATM   10  C3  UNL     1      -5.689  -5.264  21.287  1.00  0.00     0.050 C 
HETATM   11  C4  UNL     1      -5.681  -6.402  22.293  1.00  0.00     0.010 C 
HETATM   12  C5  UNL     1      -4.978  -7.570  21.629  1.00  0.00     0.001 C 
HETATM   13  C6  UNL     1      -5.568  -7.983  20.327  1.00  0.00     0.004 C 
HETATM   14  C7  UNL     1      -5.745  -6.796  19.399  1.00  0.00     0.061 C 
HETATM   15  C8  UNL     1      -6.568  -5.773  20.219  1.00  0.00     0.183 C 
HETATM   16  F1  UNL     1      -7.099  -4.957  19.308  1.00  0.00    -0.225 F 
HETATM   17 CL1  UNL     1      -7.937  -6.773  20.845  1.00  0.00    -0.082 Cl
ENDBRANCH   2  10
BRANCH   8  18
HETATM   18  C15 UNL     1      -2.536  -3.383  21.542  1.00  0.00     0.117 C 
HETATM   19  N1  UNL     1      -1.683  -3.449  22.654  1.00  0.00    -0.085 NA
HETATM   20  N2  UNL     1      -2.159  -3.871  20.427  1.00  0.00    -0.259 N 
ATOM     21  H2  UNL     1      -2.802  -3.811  19.638  1.00  0.00     0.195 HD
BRANCH  20  22
HETATM   22  O1  UNL     1      -0.945  -4.471  20.219  1.00  0.00    -0.289 OA
ATOM     23  H1  UNL     1      -0.127  -4.000  20.109  1.00  0.00     0.244 HD
ENDBRANCH  20  22
ENDBRANCH   8  18
TORSDOF 3
ENDMDL
MODEL 2
REMARK VINA RESULT: -8.839105458      1.031      1.129
REMARK  3 active torsions:
REMARK  status: ('A' for Active; 'I' for Inactive)
REMARK    1  A    between atoms: C2_2  and  C3_3 
REMARK    2  A    between atoms: C14_16  and  C15_17 
REMARK    3  A    between atoms: N2_19  and  O1_21 
ROOT
HETATM    1  C1  UNL     1      -6.020  -4.293  23.621  1.00  0.00     0.016 C 
HETATM    2  C2  UNL     1      -5.388  -4.093  22.267  1.00  0.00    -0.028 C 
HETATM    3  C9  UNL     1      -5.870  -2.807  21.660  1.00  0.00    -0.005 C 
HETATM    4  C10 UNL     1      -5.811  -1.645  22.620  1.00  0.00     0.005 C 
HETATM    5  C11 UNL     1      -4.526  -1.450  23.331  1.00  0.00     0.001 C 
HETATM    6  C12 UNL     1      -3.762  -2.726  23.583  1.00  0.00     0.006 C 
HETATM    7  C13 UNL     1      -3.920  -3.692  22.395  1.00  0.00     0.006 C 
HETATM    8  C14 UNL     1      -3.593  -2.861  21.174  1.00  0.00     0.057 C 
HETATM    9  C16 UNL     1      -4.899  -2.554  20.490  1.00  0.00     0.017 C 
ENDROOT
BRANCH   2  10
HETATM   10  C3  UNL     1      -5.546  -5.290  21.421  1.00  0.00     0.050 C 
HETATM   11  C4  UNL     1      -5.647  -6.588  22.205  1.00  0.00     0.010 C 
HETATM   12  C5  UNL     1      -5.377  -7.714  21.226  1.00  0.00     0.001 C 
HETATM   13  C6  UNL     1      -6.265  -7.717  20.032  1.00  0.00     0.004 C 
HETATM   14  C7  UNL     1      -6.300  -6.353  19.368  1.00  0.00     0.061 C 
HETATM   15  C8  UNL     1      -6.692  -5.373  20.498  1.00  0.00     0.183 C 
HETATM   16  F1  UNL     1      -7.154  -4.293  19.866  1.00  0.00    -0.225 F 
HETATM   17 CL1  UNL     1      -8.138  -6.170  21.233  1.00  0.00    -0.082 Cl
ENDBRANCH   2  10
BRANCH   8  18
HETATM   18  C15 UNL     1      -2.575  -3.432  20.298  1.00  0.00     0.117 C 
HETATM   19  N1  UNL     1      -1.421  -4.011  20.848  1.00  0.00    -0.085 NA
HETATM   20  N2  UNL     1      -2.730  -3.412  19.033  1.00  0.00    -0.259 N 
ATOM     21  H2  UNL     1      -3.580  -2.988  18.664  1.00  0.00     0.195 HD
BRANCH  20  22
HETATM   22  O1  UNL     1      -1.829  -3.924  18.138  1.00  0.00    -0.289 OA
ATOM     23  H1  UNL     1      -2.049  -4.199  17.255  1.00  0.00     0.244 HD
ENDBRANCH  20  22
ENDBRANCH   8  18
TORSDOF 3
ENDMDL
MODEL 3
REMARK VINA RESULT: -8.551882870      3.446      4.808
REMARK  3 active torsions:
REMARK  status: ('A' for Active; 'I' for Inactive)
REMARK    1  A    between atoms: C2_2  and  C3_3 
REMARK    2  A    between atoms: C14_16  and  C15_17 
REMARK    3  A    between atoms: N2_19  and  O1_21 
ROOT
HETATM    1  C1  UNL     1      -4.415  -2.559  23.356  1.00  0.00     0.016 C 
HETATM    2  C2  UNL     1      -4.699  -3.746  22.471  1.00  0.00    -0.028 C 
HETATM    3  C9  UNL     1      -4.881  -4.979  23.307  1.00  0.00    -0.005 C 
HETATM    4  C10 UNL     1      -5.806  -4.764  24.478  1.00  0.00     0.005 C 
HETATM    5  C11 UNL     1      -7.111  -4.131  24.173  1.00  0.00     0.001 C 
HETATM    6  C12 UNL     1      -7.072  -3.174  23.008  1.00  0.00     0.006 C 
HETATM    7  C13 UNL     1      -6.120  -3.694  21.915  1.00  0.00     0.006 C 
HETATM    8  C14 UNL     1      -6.544  -5.128  21.683  1.00  0.00     0.057 C 
HETATM    9  C16 UNL     1      -5.509  -6.002  22.340  1.00  0.00     0.017 C 
ENDROOT
BRANCH   2  10
HETATM   10  C3  UNL     1      -3.702  -3.856  21.389  1.00  0.00     0.050 C 
HETATM   11  C4  UNL     1      -3.922  -2.875  20.249  1.00  0.00     0.010 C 
HETATM   12  C5  UNL     1      -3.117  -3.385  19.070  1.00  0.00     0.001 C 
HETATM   13  C6  UNL     1      -1.670  -3.590  19.356  1.00  0.00     0.004 C 
HETATM   14  C7  UNL     1      -1.468  -4.417  20.612  1.00  0.00     0.061 C 
HETATM   15  C8  UNL     1      -2.274  -3.678  21.706  1.00  0.00     0.183 C 
HETATM   16  F1  UNL     1      -1.759  -4.112  22.858  1.00  0.00    -0.225 F 
HETATM   17 CL1  UNL     1      -1.716  -1.969  21.528  1.00  0.00    -0.082 Cl
ENDBRANCH   2  10
BRANCH   8  18
HETATM   18  C15 UNL     1      -6.823  -5.468  20.292  1.00  0.00     0.117 C 
HETATM   19  N1  UNL     1      -6.025  -6.412  19.628  1.00  0.00    -0.085 NA
HETATM   20  N2  UNL     1      -7.793  -4.917  19.676  1.00  0.00    -0.259 N 
ATOM     21  H2  UNL     1      -8.357  -4.238  20.186  1.00  0.00     0.195 HD
BRANCH  20  22
HETATM   22  O1  UNL     1      -8.127  -5.178  18.374  1.00  0.00    -0.289 OA
ATOM     23  H1  UNL     1      -9.019  -5.217  18.048  1.00  0.00     0.244 HD
ENDBRANCH  20  22
ENDBRANCH   8  18
TORSDOF 3
ENDMDL
MODEL 4
REMARK VINA RESULT: -7.982250853      2.162      4.536
REMARK  3 active torsions:
REMARK  status: ('A' for Active; 'I' for Inactive)
REMARK    1  A    between atoms: C2_2  and  C3_3 
REMARK    2  A    between atoms: C14_16  and  C15_17 
REMARK    3  A    between atoms: N2_19  and  O1_21 
ROOT
HETATM    1  C1  UNL     1      -7.164  -5.250  21.864  1.00  0.00     0.016 C 
HETATM    2  C2  UNL     1      -5.745  -4.763  21.713  1.00  0.00    -0.028 C 
HETATM    3  C9  UNL     1      -4.789  -5.791  22.244  1.00  0.00    -0.005 C 
HETATM    4  C10 UNL     1      -5.090  -7.184  21.751  1.00  0.00     0.005 C 
HETATM    5  C11 UNL     1      -5.274  -7.334  20.288  1.00  0.00     0.001 C 
HETATM    6  C12 UNL     1      -5.846  -6.113  19.612  1.00  0.00     0.006 C 
HETATM    7  C13 UNL     1      -5.290  -4.830  20.257  1.00  0.00     0.006 C 
HETATM    8  C14 UNL     1      -3.791  -5.029  20.283  1.00  0.00     0.057 C 
HETATM    9  C16 UNL     1      -3.415  -5.343  21.707  1.00  0.00     0.017 C 
ENDROOT
BRANCH   2  10
HETATM   10  C3  UNL     1      -5.584  -3.404  22.263  1.00  0.00     0.050 C 
HETATM   11  C4  UNL     1      -6.766  -2.488  21.994  1.00  0.00     0.010 C 
HETATM   12  C5  UNL     1      -6.284  -1.070  22.230  1.00  0.00     0.001 C 
HETATM   13  C6  UNL     1      -5.696  -0.836  23.577  1.00  0.00     0.004 C 
HETATM   14  C7  UNL     1      -4.646  -1.879  23.909  1.00  0.00     0.061 C 
HETATM   15  C8  UNL     1      -5.361  -3.237  23.711  1.00  0.00     0.183 C 
HETATM   16  F1  UNL     1      -4.630  -4.110  24.406  1.00  0.00    -0.225 F 
HETATM   17 CL1  UNL     1      -6.892  -3.022  24.644  1.00  0.00    -0.082 Cl
ENDBRANCH   2  10
BRANCH   8  18
HETATM   18  C15 UNL     1      -3.017  -3.947  19.683  1.00  0.00     0.117 C 
HETATM   19  N1  UNL     1      -3.669  -2.939  18.955  1.00  0.00    -0.085 NA
HETATM   20  N2  UNL     1      -1.751  -3.907  19.820  1.00  0.00    -0.259 N 
ATOM     21  H2  UNL     1      -1.307  -4.651  20.357  1.00  0.00     0.195 HD
BRANCH  20  22
HETATM   22  O1  UNL     1      -0.948  -2.930  19.294  1.00  0.00    -0.289 OA
ATOM     23  H1  UNL     1      -0.520  -2.988  18.447  1.00  0.00     0.244 HD
ENDBRANCH  20  22
ENDBRANCH   8  18
TORSDOF 3
ENDMDL
MODEL 5
REMARK VINA RESULT: -7.910689165      3.207      4.806
REMARK  3 active torsions:
REMARK  status: ('A' for Active; 'I' for Inactive)
REMARK    1  A    between atoms: C2_2  and  C3_3 
REMARK    2  A    between atoms: C14_16  and  C15_17 
REMARK    3  A    between atoms: N2_19  and  O1_21 
ROOT
HETATM    1  C1  UNL     1      -3.851  -6.142  20.773  1.00  0.00     0.016 C 
HETATM    2  C2  UNL     1      -4.380  -4.771  21.112  1.00  0.00    -0.028 C 
HETATM    3  C9  UNL     1      -5.355  -4.323  20.062  1.00  0.00    -0.005 C 
HETATM    4  C10 UNL     1      -6.372  -5.381  19.715  1.00  0.00     0.005 C 
HETATM    5  C11 UNL     1      -7.072  -6.014  20.857  1.00  0.00     0.001 C 
HETATM    6  C12 UNL     1      -6.248  -6.092  22.118  1.00  0.00     0.006 C 
HETATM    7  C13 UNL     1      -5.375  -4.832  22.268  1.00  0.00     0.006 C 
HETATM    8  C14 UNL     1      -6.329  -3.675  22.076  1.00  0.00     0.057 C 
HETATM    9  C16 UNL     1      -6.070  -3.116  20.702  1.00  0.00     0.017 C 
ENDROOT
BRANCH   2  10
HETATM   10  C3  UNL     1      -3.281  -3.830  21.398  1.00  0.00     0.050 C 
HETATM   11  C4  UNL     1      -2.390  -4.258  22.552  1.00  0.00     0.010 C 
HETATM   12  C5  UNL     1      -1.611  -3.031  22.984  1.00  0.00     0.001 C 
HETATM   13  C6  UNL     1      -0.835  -2.380  21.894  1.00  0.00     0.004 C 
HETATM   14  C7  UNL     1      -1.700  -2.131  20.673  1.00  0.00     0.061 C 
HETATM   15  C8  UNL     1      -2.312  -3.511  20.334  1.00  0.00     0.183 C 
HETATM   16  F1  UNL     1      -2.689  -3.411  19.059  1.00  0.00    -0.225 F 
HETATM   17 CL1  UNL     1      -0.871  -4.600  20.338  1.00  0.00    -0.082 Cl
ENDBRANCH   2  10
BRANCH   8  18
HETATM   18  C15 UNL     1      -6.310  -2.679  23.143  1.00  0.00     0.117 C 
HETATM   19  N1  UNL     1      -6.475  -3.079  24.478  1.00  0.00    -0.085 NA
HETATM   20  N2  UNL     1      -6.137  -1.447  22.870  1.00  0.00    -0.259 N 
ATOM     21  H2  UNL     1      -6.017  -1.187  21.892  1.00  0.00     0.195 HD
BRANCH  20  22
HETATM   22  O1  UNL     1      -6.104  -0.447  23.806  1.00  0.00    -0.289 OA
ATOM     23  H1  UNL     1      -6.771   0.223  23.897  1.00  0.00     0.244 HD
ENDBRANCH  20  22
ENDBRANCH   8  18
TORSDOF 3
ENDMDL
