MODEL 1
REMARK VINA RESULT: -7.291978355      0.000      0.000
REMARK  3 active torsions:
REMARK  status: ('A' for Active; 'I' for Inactive)
REMARK    1  A    between atoms: C9_11  and  O1_12 
REMARK    2  A    between atoms: O1_12  and  C10_13 
REMARK    3  A    between atoms: C10_13  and  C11_14 
ROOT
HETATM    1  C1  UNL     1      -3.200  -1.504  24.550  1.00  0.00     0.051 C 
HETATM    2  C2  UNL     1      -4.017  -2.267  23.549  1.00  0.00    -0.026 A 
HETATM    3  C3  UNL     1      -5.264  -2.745  23.802  1.00  0.00     0.039 A 
HETATM    4  C4  UNL     1      -6.025  -3.446  22.894  1.00  0.00     0.044 A 
HETATM    5  N1  UNL     1      -7.261  -4.000  22.940  1.00  0.00    -0.358 N 
ATOM      6  H1  UNL     1      -7.895  -3.984  23.739  1.00  0.00     0.166 HD
HETATM    7  C5  UNL     1      -7.503  -4.568  21.757  1.00  0.00     0.018 A 
HETATM    8  C6  UNL     1      -6.420  -4.388  20.928  1.00  0.00    -0.023 A 
HETATM    9  C7  UNL     1      -5.477  -3.672  21.655  1.00  0.00     0.002 A 
HETATM   10  C8  UNL     1      -4.204  -3.200  21.358  1.00  0.00     0.051 A 
HETATM   11  C9  UNL     1      -3.433  -2.490  22.275  1.00  0.00     0.076 A 
HETATM   12  C12 UNL     1      -6.352  -4.894  19.537  1.00  0.00     0.042 C 
HETATM   13  C13 UNL     1      -7.695  -5.371  19.068  1.00  0.00     0.021 C 
HETATM   14  C14 UNL     1      -8.314  -6.207  20.162  1.00  0.00     0.064 C 
HETATM   15  S1  UNL     1      -7.007  -7.335  20.772  1.00  0.00    -0.092 SA
HETATM   16  C15 UNL     1      -8.732  -5.310  21.302  1.00  0.00     0.073 C 
ENDROOT
BRANCH  11  17
HETATM   17  O1  UNL     1      -2.207  -2.022  22.030  1.00  0.00    -0.342 OA
BRANCH  17  18
HETATM   18  C10 UNL     1      -0.906  -2.291  22.015  1.00  0.00     0.293 C 
BRANCH  18  19
HETATM   19  C11 UNL     1      -0.271  -3.008  20.868  1.00  0.00     0.408 C 
HETATM   20  F1  UNL     1      -0.608  -2.290  19.702  1.00  0.00    -0.169 F 
HETATM   21  F2  UNL     1      -0.874  -4.261  20.668  1.00  0.00    -0.169 F 
HETATM   22  F3  UNL     1       1.077  -3.177  20.910  1.00  0.00    -0.169 F 
ENDBRANCH  18  19
ENDBRANCH  17  18
ENDBRANCH  11  17
TORSDOF 3
ENDMDL
MODEL 2
REMARK VINA RESULT: -6.518222955      1.093      1.440
REMARK  3 active torsions:
REMARK  status: ('A' for Active; 'I' for Inactive)
REMARK    1  A    between atoms: C9_11  and  O1_12 
REMARK    2  A    between atoms: O1_12  and  C10_13 
REMARK    3  A    between atoms: C10_13  and  C11_14 
ROOT
HETATM    1  C1  UNL     1      -4.040  -1.245  24.212  1.00  0.00     0.051 C 
HETATM    2  C2  UNL     1      -4.419  -2.369  23.292  1.00  0.00    -0.026 A 
HETATM    3  C3  UNL     1      -5.632  -2.980  23.308  1.00  0.00     0.039 A 
HETATM    4  C4  UNL     1      -5.992  -4.012  22.471  1.00  0.00     0.044 A 
HETATM    5  N1  UNL     1      -7.123  -4.746  22.325  1.00  0.00    -0.358 N 
ATOM      6  H1  UNL     1      -7.979  -4.642  22.868  1.00  0.00     0.166 HD
HETATM    7  C5  UNL     1      -6.917  -5.628  21.344  1.00  0.00     0.018 A 
HETATM    8  C6  UNL     1      -5.645  -5.475  20.844  1.00  0.00    -0.023 A 
HETATM    9  C7  UNL     1      -5.056  -4.443  21.564  1.00  0.00     0.002 A 
HETATM   10  C8  UNL     1      -3.803  -3.844  21.516  1.00  0.00     0.051 A 
HETATM   11  C9  UNL     1      -3.436  -2.799  22.362  1.00  0.00     0.076 A 
HETATM   12  C12 UNL     1      -5.086  -6.296  19.745  1.00  0.00     0.042 C 
HETATM   13  C13 UNL     1      -6.157  -7.106  19.075  1.00  0.00     0.021 C 
HETATM   14  C14 UNL     1      -7.018  -7.734  20.144  1.00  0.00     0.064 C 
HETATM   15  S1  UNL     1      -5.884  -8.421  21.405  1.00  0.00    -0.092 SA
HETATM   16  C15 UNL     1      -7.862  -6.667  20.799  1.00  0.00     0.073 C 
ENDROOT
BRANCH  11  17
HETATM   17  O1  UNL     1      -2.244  -2.199  22.350  1.00  0.00    -0.342 OA
BRANCH  17  18
HETATM   18  C10 UNL     1      -0.934  -2.351  22.192  1.00  0.00     0.293 C 
BRANCH  18  19
HETATM   19  C11 UNL     1      -0.346  -2.730  20.872  1.00  0.00     0.408 C 
HETATM   20  F1  UNL     1      -0.600  -4.106  20.694  1.00  0.00    -0.169 F 
HETATM   21  F2  UNL     1       1.056  -2.657  20.911  1.00  0.00    -0.169 F 
HETATM   22  F3  UNL     1      -0.785  -2.054  19.777  1.00  0.00    -0.169 F 
ENDBRANCH  18  19
ENDBRANCH  17  18
ENDBRANCH  11  17
TORSDOF 3
ENDMDL
MODEL 3
REMARK VINA RESULT: -6.357217720      4.121      6.578
REMARK  3 active torsions:
REMARK  status: ('A' for Active; 'I' for Inactive)
REMARK    1  A    between atoms: C9_11  and  O1_12 
REMARK    2  A    between atoms: O1_12  and  C10_13 
REMARK    3  A    between atoms: C10_13  and  C11_14 
ROOT
HETATM    1  C1  UNL     1      -8.262  -5.112  19.061  1.00  0.00     0.051 C 
HETATM    2  C2  UNL     1      -7.002  -4.823  19.824  1.00  0.00    -0.026 A 
HETATM    3  C3  UNL     1      -6.760  -3.648  20.463  1.00  0.00     0.039 A 
HETATM    4  C4  UNL     1      -5.610  -3.371  21.166  1.00  0.00     0.044 A 
HETATM    5  N1  UNL     1      -5.177  -2.289  21.860  1.00  0.00    -0.358 N 
ATOM      6  H1  UNL     1      -5.686  -1.415  21.986  1.00  0.00     0.166 HD
HETATM    7  C5  UNL     1      -3.966  -2.571  22.347  1.00  0.00     0.018 A 
HETATM    8  C6  UNL     1      -3.601  -3.842  21.972  1.00  0.00    -0.023 A 
HETATM    9  C7  UNL     1      -4.651  -4.352  21.218  1.00  0.00     0.002 A 
HETATM   10  C8  UNL     1      -4.860  -5.567  20.577  1.00  0.00     0.051 A 
HETATM   11  C9  UNL     1      -6.023  -5.851  19.865  1.00  0.00     0.076 A 
HETATM   12  C12 UNL     1      -2.314  -4.475  22.343  1.00  0.00     0.042 C 
HETATM   13  C13 UNL     1      -1.598  -3.673  23.391  1.00  0.00     0.021 C 
HETATM   14  C14 UNL     1      -1.656  -2.217  22.999  1.00  0.00     0.064 C 
HETATM   15  S1  UNL     1      -1.246  -2.129  21.218  1.00  0.00    -0.092 SA
HETATM   16  C15 UNL     1      -3.064  -1.703  23.185  1.00  0.00     0.073 C 
ENDROOT
BRANCH  11  17
HETATM   17  O1  UNL     1      -6.262  -7.003  19.234  1.00  0.00    -0.342 OA
BRANCH  17  18
HETATM   18  C10 UNL     1      -6.597  -8.281  19.361  1.00  0.00     0.293 C 
BRANCH  18  19
HETATM   19  C11 UNL     1      -7.089  -8.834  20.659  1.00  0.00     0.408 C 
HETATM   20  F1  UNL     1      -8.163  -8.018  21.068  1.00  0.00    -0.169 F 
HETATM   21  F2  UNL     1      -6.133  -8.651  21.672  1.00  0.00    -0.169 F 
HETATM   22  F3  UNL     1      -7.489 -10.133  20.670  1.00  0.00    -0.169 F 
ENDBRANCH  18  19
ENDBRANCH  17  18
ENDBRANCH  11  17
TORSDOF 3
ENDMDL
MODEL 4
REMARK VINA RESULT: -6.274220611      3.904      6.330
REMARK  3 active torsions:
REMARK  status: ('A' for Active; 'I' for Inactive)
REMARK    1  A    between atoms: C9_11  and  O1_12 
REMARK    2  A    between atoms: O1_12  and  C10_13 
REMARK    3  A    between atoms: C10_13  and  C11_14 
ROOT
HETATM    1  C1  UNL     1      -8.073  -4.112  21.503  1.00  0.00     0.051 C 
HETATM    2  C2  UNL     1      -6.582  -4.018  21.357  1.00  0.00    -0.026 A 
HETATM    3  C3  UNL     1      -5.825  -3.064  21.960  1.00  0.00     0.039 A 
HETATM    4  C4  UNL     1      -4.458  -2.966  21.835  1.00  0.00     0.044 A 
HETATM    5  N1  UNL     1      -3.532  -2.112  22.337  1.00  0.00    -0.358 N 
ATOM      6  H1  UNL     1      -3.718  -1.321  22.953  1.00  0.00     0.166 HD
HETATM    7  C5  UNL     1      -2.335  -2.489  21.883  1.00  0.00     0.018 A 
HETATM    8  C6  UNL     1      -2.473  -3.595  21.077  1.00  0.00    -0.023 A 
HETATM    9  C7  UNL     1      -3.829  -3.898  21.047  1.00  0.00     0.002 A 
HETATM   10  C8  UNL     1      -4.568  -4.890  20.414  1.00  0.00     0.051 A 
HETATM   11  C9  UNL     1      -5.952  -4.992  20.539  1.00  0.00     0.076 A 
HETATM   12  C12 UNL     1      -1.341  -4.274  20.406  1.00  0.00     0.042 C 
HETATM   13  C13 UNL     1      -0.024  -3.781  20.931  1.00  0.00     0.021 C 
HETATM   14  C14 UNL     1      -0.079  -2.275  21.016  1.00  0.00     0.064 C 
HETATM   15  S1  UNL     1      -0.817  -1.681  19.450  1.00  0.00    -0.092 SA
HETATM   16  C15 UNL     1      -0.988  -1.869  22.151  1.00  0.00     0.073 C 
ENDROOT
BRANCH  11  17
HETATM   17  O1  UNL     1      -6.698  -5.926  19.946  1.00  0.00    -0.342 OA
BRANCH  17  18
HETATM   18  C10 UNL     1      -6.959  -7.223  19.835  1.00  0.00     0.293 C 
BRANCH  18  19
HETATM   19  C11 UNL     1      -6.316  -8.228  20.734  1.00  0.00     0.408 C 
HETATM   20  F1  UNL     1      -6.156  -7.607  21.990  1.00  0.00    -0.169 F 
HETATM   21  F2  UNL     1      -4.997  -8.490  20.327  1.00  0.00    -0.169 F 
HETATM   22  F3  UNL     1      -6.960  -9.413  20.904  1.00  0.00    -0.169 F 
ENDBRANCH  18  19
ENDBRANCH  17  18
ENDBRANCH  11  17
TORSDOF 3
ENDMDL
MODEL 5
REMARK VINA RESULT: -6.187307443      5.183      7.358
REMARK  3 active torsions:
REMARK  status: ('A' for Active; 'I' for Inactive)
REMARK    1  A    between atoms: C9_11  and  O1_12 
REMARK    2  A    between atoms: O1_12  and  C10_13 
REMARK    3  A    between atoms: C10_13  and  C11_14 
ROOT
HETATM    1  C1  UNL     1      -8.987  -7.699  20.214  1.00  0.00     0.051 C 
HETATM    2  C2  UNL     1      -7.698  -7.009  20.556  1.00  0.00    -0.026 A 
HETATM    3  C3  UNL     1      -7.551  -5.659  20.585  1.00  0.00     0.039 A 
HETATM    4  C4  UNL     1      -6.375  -5.014  20.897  1.00  0.00     0.044 A 
HETATM    5  N1  UNL     1      -6.020  -3.708  20.982  1.00  0.00    -0.358 N 
ATOM      6  H1  UNL     1      -6.629  -2.909  20.810  1.00  0.00     0.166 HD
HETATM    7  C5  UNL     1      -4.732  -3.653  21.329  1.00  0.00     0.018 A 
HETATM    8  C6  UNL     1      -4.238  -4.929  21.472  1.00  0.00    -0.023 A 
HETATM    9  C7  UNL     1      -5.287  -5.796  21.196  1.00  0.00     0.002 A 
HETATM   10  C8  UNL     1      -5.397  -7.181  21.177  1.00  0.00     0.051 A 
HETATM   11  C9  UNL     1      -6.586  -7.836  20.862  1.00  0.00     0.076 A 
HETATM   12  C12 UNL     1      -2.838  -5.234  21.851  1.00  0.00     0.042 C 
HETATM   13  C13 UNL     1      -2.124  -4.001  22.322  1.00  0.00     0.021 C 
HETATM   14  C14 UNL     1      -2.435  -2.875  21.366  1.00  0.00     0.064 C 
HETATM   15  S1  UNL     1      -2.258  -3.551  19.674  1.00  0.00    -0.092 SA
HETATM   16  C15 UNL     1      -3.868  -2.440  21.553  1.00  0.00     0.073 C 
ENDROOT
BRANCH  11  17
HETATM   17  O1  UNL     1      -6.732  -9.163  20.830  1.00  0.00    -0.342 OA
BRANCH  17  18
HETATM   18  C10 UNL     1      -6.543 -10.310  21.472  1.00  0.00     0.293 C 
BRANCH  18  19
HETATM   19  C11 UNL     1      -7.672 -11.251  21.738  1.00  0.00     0.408 C 
HETATM   20  F1  UNL     1      -7.394 -11.883  22.968  1.00  0.00    -0.169 F 
HETATM   21  F2  UNL     1      -7.666 -12.310  20.816  1.00  0.00    -0.169 F 
HETATM   22  F3  UNL     1      -8.924 -10.723  21.785  1.00  0.00    -0.169 F 
ENDBRANCH  18  19
ENDBRANCH  17  18
ENDBRANCH  11  17
TORSDOF 3
ENDMDL
