MODEL 1
REMARK VINA RESULT: -5.132851837      0.000      0.000
REMARK  2 active torsions:
REMARK  status: ('A' for Active; 'I' for Inactive)
REMARK    1  A    between atoms: C5_6  and  N1_7 
REMARK       I    between atoms: N1_7  and  C6_9 
REMARK       I    between atoms: C6_9  and  N2_11 
REMARK    2  A    between atoms: N2_11  and  C7_13 
ROOT
HETATM    1  C7  UNL     1      -2.618  -2.949  21.172  1.00  0.00     0.123 C 
HETATM    2  C8  UNL     1      -1.426  -2.286  20.623  1.00  0.00     0.091 C 
HETATM    3  N3  UNL     1      -0.497  -1.765  20.193  1.00  0.00    -0.195 NA
HETATM    4  C9  UNL     1      -2.198  -3.862  22.334  1.00  0.00     0.046 C 
HETATM    5  C10 UNL     1      -1.299  -3.025  23.215  1.00  0.00     0.004 C 
HETATM    6  C11 UNL     1      -1.986  -1.787  23.715  1.00  0.00     0.000 C 
HETATM    7  C12 UNL     1      -3.377  -1.618  23.185  1.00  0.00     0.004 C 
HETATM    8  C13 UNL     1      -3.533  -1.922  21.737  1.00  0.00     0.046 C 
ENDROOT
BRANCH   1   9
HETATM    9  N2  UNL     1      -3.265  -3.784  20.200  1.00  0.00    -0.321 N 
HETATM   10  C6  UNL     1      -4.346  -4.630  20.635  1.00  0.00     0.322 C 
HETATM   11  N1  UNL     1      -4.985  -5.449  19.698  1.00  0.00    -0.306 N 
HETATM   12  O1  UNL     1      -4.654  -4.588  21.822  1.00  0.00    -0.247 OA
ATOM     13  H1  UNL     1      -4.649  -5.406  18.737  1.00  0.00     0.171 HD
ATOM     14  H2  UNL     1      -2.966  -3.778  19.224  1.00  0.00     0.166 HD
BRANCH  11  15
HETATM   15  C5  UNL     1      -6.039  -6.318  19.966  1.00  0.00     0.076 A 
HETATM   16  C4  UNL     1      -7.353  -5.857  19.806  1.00  0.00     0.143 A 
HETATM   17  C3  UNL     1      -8.458  -6.648  20.050  1.00  0.00     0.053 A 
HETATM   18  F1  UNL     1      -7.514  -4.577  19.396  1.00  0.00    -0.204 F 
HETATM   19  C2  UNL     1      -8.285  -7.955  20.468  1.00  0.00    -0.037 A 
HETATM   20  C1  UNL     1      -9.506  -8.760  20.715  1.00  0.00     0.050 C 
HETATM   21  C15 UNL     1      -7.018  -8.458  20.641  1.00  0.00     0.042 A 
HETATM   22  C14 UNL     1      -5.927  -7.616  20.382  1.00  0.00     0.057 A 
HETATM   23 CL1  UNL     1      -6.798 -10.111  21.171  1.00  0.00    -0.084 Cl
ENDBRANCH  11  15
ENDBRANCH   1   9
TORSDOF 2
ENDMDL
MODEL 2
REMARK VINA RESULT: -4.712108537      1.312      2.057
REMARK  2 active torsions:
REMARK  status: ('A' for Active; 'I' for Inactive)
REMARK    1  A    between atoms: C5_6  and  N1_7 
REMARK       I    between atoms: N1_7  and  C6_9 
REMARK       I    between atoms: C6_9  and  N2_11 
REMARK    2  A    between atoms: N2_11  and  C7_13 
ROOT
HETATM    1  C7  UNL     1      -2.217  -3.145  20.308  1.00  0.00     0.123 C 
HETATM    2  C8  UNL     1      -2.740  -2.429  21.480  1.00  0.00     0.091 C 
HETATM    3  N3  UNL     1      -3.148  -1.871  22.398  1.00  0.00    -0.195 NA
HETATM    4  C9  UNL     1      -1.432  -2.163  19.424  1.00  0.00     0.046 C 
HETATM    5  C10 UNL     1      -0.505  -1.417  20.355  1.00  0.00     0.004 C 
HETATM    6  C11 UNL     1       0.419  -2.340  21.099  1.00  0.00     0.000 C 
HETATM    7  C12 UNL     1       0.178  -3.790  20.808  1.00  0.00     0.004 C 
HETATM    8  C13 UNL     1      -1.255  -4.186  20.759  1.00  0.00     0.046 C 
ENDROOT
BRANCH   1   9
HETATM    9  N2  UNL     1      -3.269  -3.686  19.495  1.00  0.00    -0.321 N 
HETATM   10  C6  UNL     1      -4.155  -4.659  20.080  1.00  0.00     0.322 C 
HETATM   11  N1  UNL     1      -5.184  -5.195  19.299  1.00  0.00    -0.306 N 
HETATM   12  O1  UNL     1      -3.957  -4.972  21.249  1.00  0.00    -0.247 OA
ATOM     13  H1  UNL     1      -5.259  -4.864  18.337  1.00  0.00     0.171 HD
ATOM     14  H2  UNL     1      -3.386  -3.389  18.526  1.00  0.00     0.166 HD
BRANCH  11  15
HETATM   15  C5  UNL     1      -6.115  -6.140  19.721  1.00  0.00     0.076 A 
HETATM   16  C4  UNL     1      -7.480  -5.839  19.619  1.00  0.00     0.143 A 
HETATM   17  C3  UNL     1      -8.471  -6.715  20.014  1.00  0.00     0.053 A 
HETATM   18  F1  UNL     1      -7.810  -4.630  19.108  1.00  0.00    -0.204 F 
HETATM   19  C2  UNL     1      -8.125  -7.949  20.535  1.00  0.00    -0.037 A 
HETATM   20  C1  UNL     1      -9.230  -8.851  20.943  1.00  0.00     0.050 C 
HETATM   21  C15 UNL     1      -6.802  -8.295  20.658  1.00  0.00     0.042 A 
HETATM   22  C14 UNL     1      -5.831  -7.372  20.244  1.00  0.00     0.057 A 
HETATM   23 CL1  UNL     1      -6.364  -9.856  21.317  1.00  0.00    -0.084 Cl
ENDBRANCH  11  15
ENDBRANCH   1   9
TORSDOF 2
ENDMDL
MODEL 3
REMARK VINA RESULT: -4.223080289      2.214      2.986
REMARK  2 active torsions:
REMARK  status: ('A' for Active; 'I' for Inactive)
REMARK    1  A    between atoms: C5_6  and  N1_7 
REMARK       I    between atoms: N1_7  and  C6_9 
REMARK       I    between atoms: C6_9  and  N2_11 
REMARK    2  A    between atoms: N2_11  and  C7_13 
ROOT
HETATM    1  C7  UNL     1      -1.734  -3.396  21.410  1.00  0.00     0.123 C 
HETATM    2  C8  UNL     1      -2.535  -2.258  21.887  1.00  0.00     0.091 C 
HETATM    3  N3  UNL     1      -3.158  -1.369  22.262  1.00  0.00    -0.195 NA
HETATM    4  C9  UNL     1      -1.727  -3.400  19.874  1.00  0.00     0.046 C 
HETATM    5  C10 UNL     1      -1.393  -1.987  19.457  1.00  0.00     0.004 C 
HETATM    6  C11 UNL     1      -0.073  -1.528  20.007  1.00  0.00     0.000 C 
HETATM    7  C12 UNL     1       0.589  -2.537  20.895  1.00  0.00     0.004 C 
HETATM    8  C13 UNL     1      -0.325  -3.221  21.850  1.00  0.00     0.046 C 
ENDROOT
BRANCH   1   9
HETATM    9  N2  UNL     1      -2.286  -4.654  21.827  1.00  0.00    -0.321 N 
HETATM   10  C6  UNL     1      -3.589  -5.026  21.338  1.00  0.00     0.322 C 
HETATM   11  N1  UNL     1      -4.138  -6.248  21.737  1.00  0.00    -0.306 N 
HETATM   12  O1  UNL     1      -4.156  -4.239  20.587  1.00  0.00    -0.247 OA
ATOM     13  H1  UNL     1      -3.581  -6.827  22.364  1.00  0.00     0.171 HD
ATOM     14  H2  UNL     1      -1.768  -5.269  22.454  1.00  0.00     0.166 HD
BRANCH  11  15
HETATM   15  C5  UNL     1      -5.381  -6.743  21.351  1.00  0.00     0.076 A 
HETATM   16  C4  UNL     1      -5.490  -8.092  20.988  1.00  0.00     0.143 A 
HETATM   17  C3  UNL     1      -6.681  -8.667  20.591  1.00  0.00     0.053 A 
HETATM   18  F1  UNL     1      -4.362  -8.839  21.036  1.00  0.00    -0.204 F 
HETATM   19  C2  UNL     1      -7.829  -7.897  20.545  1.00  0.00    -0.037 A 
HETATM   20  C1  UNL     1      -9.081  -8.565  20.112  1.00  0.00     0.050 C 
HETATM   21  C15 UNL     1      -7.779  -6.569  20.890  1.00  0.00     0.042 A 
HETATM   22  C14 UNL     1      -6.547  -6.029  21.285  1.00  0.00     0.057 A 
HETATM   23 CL1  UNL     1      -9.232  -5.594  20.830  1.00  0.00    -0.084 Cl
ENDBRANCH  11  15
ENDBRANCH   1   9
TORSDOF 2
ENDMDL
MODEL 4
REMARK VINA RESULT: -4.136764266      3.158      7.434
REMARK  2 active torsions:
REMARK  status: ('A' for Active; 'I' for Inactive)
REMARK    1  A    between atoms: C5_6  and  N1_7 
REMARK       I    between atoms: N1_7  and  C6_9 
REMARK       I    between atoms: C6_9  and  N2_11 
REMARK    2  A    between atoms: N2_11  and  C7_13 
ROOT
HETATM    1  C7  UNL     1      -7.035  -5.742  20.635  1.00  0.00     0.123 C 
HETATM    2  C8  UNL     1      -7.559  -5.276  19.343  1.00  0.00     0.091 C 
HETATM    3  N3  UNL     1      -7.966  -4.914  18.331  1.00  0.00    -0.195 NA
HETATM    4  C9  UNL     1      -8.209  -6.159  21.536  1.00  0.00     0.046 C 
HETATM    5  C10 UNL     1      -9.086  -7.049  20.687  1.00  0.00     0.004 C 
HETATM    6  C11 UNL     1      -8.346  -8.248  20.166  1.00  0.00     0.000 C 
HETATM    7  C12 UNL     1      -6.895  -8.266  20.542  1.00  0.00     0.004 C 
HETATM    8  C13 UNL     1      -6.204  -6.955  20.418  1.00  0.00     0.046 C 
ENDROOT
BRANCH   1   9
HETATM    9  N2  UNL     1      -6.324  -4.707  21.332  1.00  0.00    -0.321 N 
HETATM   10  C6  UNL     1      -4.953  -4.456  20.970  1.00  0.00     0.322 C 
HETATM   11  N1  UNL     1      -4.249  -3.451  21.641  1.00  0.00    -0.306 N 
HETATM   12  O1  UNL     1      -4.468  -5.147  20.081  1.00  0.00    -0.247 OA
ATOM     13  H1  UNL     1      -4.749  -2.936  22.365  1.00  0.00     0.171 HD
ATOM     14  H2  UNL     1      -6.780  -4.163  22.065  1.00  0.00     0.166 HD
BRANCH  11  15
HETATM   15  C5  UNL     1      -2.924  -3.094  21.406  1.00  0.00     0.076 A 
HETATM   16  C4  UNL     1      -2.009  -3.149  22.465  1.00  0.00     0.143 A 
HETATM   17  C3  UNL     1      -0.677  -2.811  22.323  1.00  0.00     0.053 A 
HETATM   18  F1  UNL     1      -2.479  -3.553  23.668  1.00  0.00    -0.204 F 
HETATM   19  C2  UNL     1      -0.205  -2.400  21.090  1.00  0.00    -0.037 A 
HETATM   20  C1  UNL     1       1.233  -2.050  20.993  1.00  0.00     0.050 C 
HETATM   21  C15 UNL     1      -1.059  -2.327  20.017  1.00  0.00     0.042 A 
HETATM   22  C14 UNL     1      -2.403  -2.679  20.210  1.00  0.00     0.057 A 
HETATM   23 CL1  UNL     1      -0.461  -1.806  18.457  1.00  0.00    -0.084 Cl
ENDBRANCH  11  15
ENDBRANCH   1   9
TORSDOF 2
ENDMDL
MODEL 5
REMARK VINA RESULT: -4.037643046      1.595      1.943
REMARK  2 active torsions:
REMARK  status: ('A' for Active; 'I' for Inactive)
REMARK    1  A    between atoms: C5_6  and  N1_7 
REMARK       I    between atoms: N1_7  and  C6_9 
REMARK       I    between atoms: C6_9  and  N2_11 
REMARK    2  A    between atoms: N2_11  and  C7_13 
ROOT
HETATM    1  C7  UNL     1      -2.727  -2.869  21.425  1.00  0.00     0.123 C 
HETATM    2  C8  UNL     1      -1.539  -2.166  20.919  1.00  0.00     0.091 C 
HETATM    3  N3  UNL     1      -0.612  -1.615  20.522  1.00  0.00    -0.195 NA
HETATM    4  C9  UNL     1      -2.328  -3.732  22.632  1.00  0.00     0.046 C 
HETATM    5  C10 UNL     1      -1.514  -2.833  23.533  1.00  0.00     0.004 C 
HETATM    6  C11 UNL     1      -2.280  -1.614  23.964  1.00  0.00     0.000 C 
HETATM    7  C12 UNL     1      -3.648  -1.523  23.359  1.00  0.00     0.004 C 
HETATM    8  C13 UNL     1      -3.715  -1.870  21.914  1.00  0.00     0.046 C 
ENDROOT
BRANCH   1   9
HETATM    9  N2  UNL     1      -3.285  -3.757  20.445  1.00  0.00    -0.321 N 
HETATM   10  C6  UNL     1      -4.142  -4.824  20.896  1.00  0.00     0.322 C 
HETATM   11  N1  UNL     1      -4.691  -5.696  19.952  1.00  0.00    -0.306 N 
HETATM   12  O1  UNL     1      -4.347  -4.911  22.102  1.00  0.00    -0.247 OA
ATOM     13  H1  UNL     1      -4.455  -5.533  18.974  1.00  0.00     0.171 HD
ATOM     14  H2  UNL     1      -3.079  -3.636  19.453  1.00  0.00     0.166 HD
BRANCH  11  15
HETATM   15  C5  UNL     1      -5.533  -6.769  20.232  1.00  0.00     0.076 A 
HETATM   16  C4  UNL     1      -5.001  -7.901  20.865  1.00  0.00     0.143 A 
HETATM   17  C3  UNL     1      -5.761  -9.010  21.179  1.00  0.00     0.053 A 
HETATM   18  F1  UNL     1      -3.681  -7.877  21.167  1.00  0.00    -0.204 F 
HETATM   19  C2  UNL     1      -7.108  -9.026  20.867  1.00  0.00    -0.037 A 
HETATM   20  C1  UNL     1      -7.877 -10.242  21.228  1.00  0.00     0.050 C 
HETATM   21  C15 UNL     1      -7.681  -7.943  20.246  1.00  0.00     0.042 A 
HETATM   22  C14 UNL     1      -6.869  -6.840  19.946  1.00  0.00     0.057 A 
HETATM   23 CL1  UNL     1      -9.386  -7.964  19.851  1.00  0.00    -0.084 Cl
ENDBRANCH  11  15
ENDBRANCH   1   9
TORSDOF 2
ENDMDL
