MODEL 1
REMARK VINA RESULT: -7.031363938      0.000      0.000
REMARK  7 active torsions:
REMARK  status: ('A' for Active; 'I' for Inactive)
REMARK    1  A    between atoms: C2_2  and  C3_3 
REMARK    2  A    between atoms: C3_3  and  C4_4 
REMARK    3  A    between atoms: C4_4  and  S1_5 
REMARK    4  A    between atoms: C4_4  and  C9_18 
REMARK    5  A    between atoms: S1_5  and  C5_6 
REMARK    6  A    between atoms: C6_9  and  C7_10 
REMARK       I    between atoms: C9_18  and  N5_20 
REMARK    7  A    between atoms: N5_20  and  C10_22 
ROOT
HETATM    1  C7  UNL     1     -15.070  24.300  -0.419  1.00  0.00     0.296 C 
HETATM    2  O1  UNL     1     -14.895  25.506  -0.175  1.00  0.00    -0.272 OA
HETATM    3  C8  UNL     1     -14.335  23.320   0.296  1.00  0.00     0.147 C 
HETATM    4  N2  UNL     1     -13.729  22.529   0.899  1.00  0.00    -0.188 NA
ENDROOT
BRANCH   1   5
HETATM    5  C6  UNL     1     -16.030  23.916  -1.440  1.00  0.00     0.184 A 
HETATM    6  N1  UNL     1     -17.304  24.270  -1.586  1.00  0.00    -0.317 N 
HETATM    7  C5  UNL     1     -17.844  23.682  -2.681  1.00  0.00     0.161 A 
ATOM      8  H1  UNL     1     -17.806  24.899  -0.959  1.00  0.00     0.169 HD
HETATM    9  N4  UNL     1     -16.846  22.951  -3.199  1.00  0.00    -0.278 N 
HETATM   10  N3  UNL     1     -15.771  23.090  -2.463  1.00  0.00    -0.280 N 
ATOM     11  H4  UNL     1     -16.914  22.375  -4.037  1.00  0.00     0.189 HD
ATOM     12  H3  UNL     1     -14.874  22.639  -2.642  1.00  0.00     0.189 HD
BRANCH   7  13
HETATM   13  S1  UNL     1     -19.501  23.873  -3.282  1.00  0.00    -0.078 SA
BRANCH  13  14
HETATM   14  C4  UNL     1     -20.047  22.649  -4.424  1.00  0.00     0.147 C 
BRANCH  14  15
HETATM   15  C3  UNL     1     -20.736  21.440  -3.881  1.00  0.00     0.025 C 
BRANCH  15  16
HETATM   16  C2  UNL     1     -22.190  21.409  -4.097  1.00  0.00    -0.003 C 
HETATM   17  C1  UNL     1     -22.566  21.424  -5.575  1.00  0.00     0.005 C 
ENDBRANCH  15  16
ENDBRANCH  14  15
BRANCH  14  18
HETATM   18  C9  UNL     1     -18.980  22.216  -5.377  1.00  0.00     0.232 C 
HETATM   19  O2  UNL     1     -18.437  23.096  -6.076  1.00  0.00    -0.272 OA
HETATM   20  N5  UNL     1     -18.569  20.869  -5.516  1.00  0.00    -0.355 N 
ATOM     21  H5  UNL     1     -19.019  20.157  -4.940  1.00  0.00     0.162 HD
BRANCH  20  22
HETATM   22  C10 UNL     1     -17.545  20.466  -6.434  1.00  0.00     0.084 C 
HETATM   23  C11 UNL     1     -16.186  20.314  -5.834  1.00  0.00     0.025 C 
HETATM   24  C12 UNL     1     -15.778  18.875  -5.961  1.00  0.00     0.002 C 
HETATM   25  C13 UNL     1     -16.928  18.135  -6.601  1.00  0.00     0.002 C 
HETATM   26  C14 UNL     1     -17.871  19.168  -7.138  1.00  0.00     0.025 C 
ENDBRANCH  20  22
ENDBRANCH  14  18
ENDBRANCH  13  14
ENDBRANCH   7  13
ENDBRANCH   1   5
TORSDOF 7
ENDMDL
MODEL 2
REMARK VINA RESULT: -6.877457454      1.274      1.641
REMARK  7 active torsions:
REMARK  status: ('A' for Active; 'I' for Inactive)
REMARK    1  A    between atoms: C2_2  and  C3_3 
REMARK    2  A    between atoms: C3_3  and  C4_4 
REMARK    3  A    between atoms: C4_4  and  S1_5 
REMARK    4  A    between atoms: C4_4  and  C9_18 
REMARK    5  A    between atoms: S1_5  and  C5_6 
REMARK    6  A    between atoms: C6_9  and  C7_10 
REMARK       I    between atoms: C9_18  and  N5_20 
REMARK    7  A    between atoms: N5_20  and  C10_22 
ROOT
HETATM    1  C7  UNL     1     -15.214  23.300  -0.952  1.00  0.00     0.296 C 
HETATM    2  O1  UNL     1     -15.131  22.821   0.192  1.00  0.00    -0.272 OA
HETATM    3  C8  UNL     1     -14.069  23.336  -1.789  1.00  0.00     0.147 C 
HETATM    4  N2  UNL     1     -13.122  23.349  -2.465  1.00  0.00    -0.188 NA
ENDROOT
BRANCH   1   5
HETATM    5  C6  UNL     1     -16.492  23.816  -1.412  1.00  0.00     0.184 A 
HETATM    6  N1  UNL     1     -17.124  23.620  -2.566  1.00  0.00    -0.317 N 
HETATM    7  C5  UNL     1     -18.301  24.290  -2.591  1.00  0.00     0.161 A 
ATOM      8  H1  UNL     1     -16.770  23.043  -3.329  1.00  0.00     0.169 HD
HETATM    9  N4  UNL     1     -18.363  24.907  -1.402  1.00  0.00    -0.278 N 
HETATM   10  N3  UNL     1     -17.291  24.625  -0.703  1.00  0.00    -0.280 N 
ATOM     11  H4  UNL     1     -19.128  25.504  -1.089  1.00  0.00     0.189 HD
ATOM     12  H3  UNL     1     -17.095  24.969   0.237  1.00  0.00     0.189 HD
BRANCH   7  13
HETATM   13  S1  UNL     1     -19.486  24.311  -3.910  1.00  0.00    -0.078 SA
BRANCH  13  14
HETATM   14  C4  UNL     1     -19.914  22.739  -4.578  1.00  0.00     0.147 C 
BRANCH  14  15
HETATM   15  C3  UNL     1     -20.265  21.643  -3.627  1.00  0.00     0.025 C 
BRANCH  15  16
HETATM   16  C2  UNL     1     -21.707  21.405  -3.464  1.00  0.00    -0.003 C 
HETATM   17  C1  UNL     1     -22.024  20.507  -2.271  1.00  0.00     0.005 C 
ENDBRANCH  15  16
ENDBRANCH  14  15
BRANCH  14  18
HETATM   18  C9  UNL     1     -18.915  22.228  -5.566  1.00  0.00     0.232 C 
HETATM   19  O2  UNL     1     -18.609  22.974  -6.518  1.00  0.00    -0.272 OA
HETATM   20  N5  UNL     1     -18.314  20.951  -5.464  1.00  0.00    -0.355 N 
ATOM     21  H5  UNL     1     -18.571  20.349  -4.682  1.00  0.00     0.162 HD
BRANCH  20  22
HETATM   22  C10 UNL     1     -17.357  20.471  -6.418  1.00  0.00     0.084 C 
HETATM   23  C11 UNL     1     -16.053  20.037  -5.836  1.00  0.00     0.025 C 
HETATM   24  C12 UNL     1     -15.889  18.568  -6.101  1.00  0.00     0.002 C 
HETATM   25  C13 UNL     1     -17.136  18.096  -6.810  1.00  0.00     0.002 C 
HETATM   26  C14 UNL     1     -17.885  19.320  -7.244  1.00  0.00     0.025 C 
ENDBRANCH  20  22
ENDBRANCH  14  18
ENDBRANCH  13  14
ENDBRANCH   7  13
ENDBRANCH   1   5
TORSDOF 7
ENDMDL
MODEL 3
REMARK VINA RESULT: -6.871563328      3.028      6.529
REMARK  7 active torsions:
REMARK  status: ('A' for Active; 'I' for Inactive)
REMARK    1  A    between atoms: C2_2  and  C3_3 
REMARK    2  A    between atoms: C3_3  and  C4_4 
REMARK    3  A    between atoms: C4_4  and  S1_5 
REMARK    4  A    between atoms: C4_4  and  C9_18 
REMARK    5  A    between atoms: S1_5  and  C5_6 
REMARK    6  A    between atoms: C6_9  and  C7_10 
REMARK       I    between atoms: C9_18  and  N5_20 
REMARK    7  A    between atoms: N5_20  and  C10_22 
ROOT
HETATM    1  C7  UNL     1     -24.197  19.585  -4.914  1.00  0.00     0.296 C 
HETATM    2  O1  UNL     1     -24.902  19.011  -5.763  1.00  0.00    -0.272 OA
HETATM    3  C8  UNL     1     -24.037  19.013  -3.625  1.00  0.00     0.147 C 
HETATM    4  N2  UNL     1     -23.910  18.526  -2.576  1.00  0.00    -0.188 NA
ENDROOT
BRANCH   1   5
HETATM    5  C6  UNL     1     -23.547  20.837  -5.262  1.00  0.00     0.184 A 
HETATM    6  N1  UNL     1     -22.644  21.543  -4.587  1.00  0.00    -0.317 N 
HETATM    7  C5  UNL     1     -22.296  22.659  -5.272  1.00  0.00     0.161 A 
ATOM      8  H1  UNL     1     -22.264  21.279  -3.678  1.00  0.00     0.169 HD
HETATM    9  N4  UNL     1     -23.028  22.608  -6.395  1.00  0.00    -0.278 N 
HETATM   10  N3  UNL     1     -23.768  21.527  -6.389  1.00  0.00    -0.280 N 
ATOM     11  H4  UNL     1     -23.010  23.303  -7.140  1.00  0.00     0.189 HD
ATOM     12  H3  UNL     1     -24.415  21.253  -7.129  1.00  0.00     0.189 HD
BRANCH   7  13
HETATM   13  S1  UNL     1     -21.117  23.888  -4.776  1.00  0.00    -0.078 SA
BRANCH  13  14
HETATM   14  C4  UNL     1     -19.542  23.279  -4.279  1.00  0.00     0.147 C 
BRANCH  14  15
HETATM   15  C3  UNL     1     -18.624  24.211  -3.559  1.00  0.00     0.025 C 
BRANCH  15  16
HETATM   16  C2  UNL     1     -18.031  23.665  -2.329  1.00  0.00    -0.003 C 
HETATM   17  C1  UNL     1     -16.542  23.362  -2.477  1.00  0.00     0.005 C 
ENDBRANCH  15  16
ENDBRANCH  14  15
BRANCH  14  18
HETATM   18  C9  UNL     1     -18.791  22.613  -5.388  1.00  0.00     0.232 C 
HETATM   19  O2  UNL     1     -18.859  23.127  -6.522  1.00  0.00    -0.272 OA
HETATM   20  N5  UNL     1     -18.020  21.442  -5.202  1.00  0.00    -0.355 N 
ATOM     21  H5  UNL     1     -17.971  21.029  -4.270  1.00  0.00     0.162 HD
BRANCH  20  22
HETATM   22  C10 UNL     1     -17.304  20.812  -6.272  1.00  0.00     0.084 C 
HETATM   23  C11 UNL     1     -15.956  20.287  -5.905  1.00  0.00     0.025 C 
HETATM   24  C12 UNL     1     -15.972  18.796  -6.079  1.00  0.00     0.002 C 
HETATM   25  C13 UNL     1     -17.366  18.407  -6.511  1.00  0.00     0.002 C 
HETATM   26  C14 UNL     1     -18.075  19.670  -6.896  1.00  0.00     0.025 C 
ENDBRANCH  20  22
ENDBRANCH  14  18
ENDBRANCH  13  14
ENDBRANCH   7  13
ENDBRANCH   1   5
TORSDOF 7
ENDMDL
MODEL 4
REMARK VINA RESULT: -6.848571574      4.508      6.553
REMARK  7 active torsions:
REMARK  status: ('A' for Active; 'I' for Inactive)
REMARK    1  A    between atoms: C2_2  and  C3_3 
REMARK    2  A    between atoms: C3_3  and  C4_4 
REMARK    3  A    between atoms: C4_4  and  S1_5 
REMARK    4  A    between atoms: C4_4  and  C9_18 
REMARK    5  A    between atoms: S1_5  and  C5_6 
REMARK    6  A    between atoms: C6_9  and  C7_10 
REMARK       I    between atoms: C9_18  and  N5_20 
REMARK    7  A    between atoms: N5_20  and  C10_22 
ROOT
HETATM    1  C7  UNL     1     -17.163  19.448  -6.969  1.00  0.00     0.296 C 
HETATM    2  O1  UNL     1     -17.302  18.818  -8.032  1.00  0.00    -0.272 OA
HETATM    3  C8  UNL     1     -16.190  19.035  -6.024  1.00  0.00     0.147 C 
HETATM    4  N2  UNL     1     -15.380  18.687  -5.263  1.00  0.00    -0.188 NA
ENDROOT
BRANCH   1   5
HETATM    5  C6  UNL     1     -18.008  20.603  -6.716  1.00  0.00     0.184 A 
HETATM    6  N1  UNL     1     -19.328  20.676  -6.571  1.00  0.00    -0.317 N 
HETATM    7  C5  UNL     1     -19.718  21.955  -6.346  1.00  0.00     0.161 A 
ATOM      8  H1  UNL     1     -19.961  19.879  -6.621  1.00  0.00     0.169 HD
HETATM    9  N4  UNL     1     -18.579  22.662  -6.362  1.00  0.00    -0.278 N 
HETATM   10  N3  UNL     1     -17.566  21.861  -6.581  1.00  0.00    -0.280 N 
ATOM     11  H4  UNL     1     -18.511  23.670  -6.225  1.00  0.00     0.189 HD
ATOM     12  H3  UNL     1     -16.589  22.150  -6.639  1.00  0.00     0.189 HD
BRANCH   7  13
HETATM   13  S1  UNL     1     -21.373  22.531  -6.075  1.00  0.00    -0.078 SA
BRANCH  13  14
HETATM   14  C4  UNL     1     -22.021  22.263  -4.460  1.00  0.00     0.147 C 
BRANCH  14  15
HETATM   15  C3  UNL     1     -21.157  21.562  -3.464  1.00  0.00     0.025 C 
BRANCH  15  16
HETATM   16  C2  UNL     1     -21.642  21.621  -2.076  1.00  0.00    -0.003 C 
HETATM   17  C1  UNL     1     -21.950  20.241  -1.503  1.00  0.00     0.005 C 
ENDBRANCH  15  16
ENDBRANCH  14  15
BRANCH  14  18
HETATM   18  C9  UNL     1     -23.373  21.627  -4.466  1.00  0.00     0.232 C 
HETATM   19  O2  UNL     1     -24.357  22.357  -4.231  1.00  0.00    -0.272 OA
HETATM   20  N5  UNL     1     -23.578  20.251  -4.726  1.00  0.00    -0.355 N 
ATOM     21  H5  UNL     1     -22.767  19.662  -4.917  1.00  0.00     0.162 HD
BRANCH  20  22
HETATM   22  C10 UNL     1     -24.880  19.652  -4.729  1.00  0.00     0.084 C 
HETATM   23  C11 UNL     1     -25.123  18.681  -5.836  1.00  0.00     0.025 C 
HETATM   24  C12 UNL     1     -25.358  17.328  -5.229  1.00  0.00     0.002 C 
HETATM   25  C13 UNL     1     -25.205  17.473  -3.734  1.00  0.00     0.002 C 
HETATM   26  C14 UNL     1     -25.198  18.941  -3.432  1.00  0.00     0.025 C 
ENDBRANCH  20  22
ENDBRANCH  14  18
ENDBRANCH  13  14
ENDBRANCH   7  13
ENDBRANCH   1   5
TORSDOF 7
ENDMDL
MODEL 5
REMARK VINA RESULT: -6.805032132      4.511      6.722
REMARK  7 active torsions:
REMARK  status: ('A' for Active; 'I' for Inactive)
REMARK    1  A    between atoms: C2_2  and  C3_3 
REMARK    2  A    between atoms: C3_3  and  C4_4 
REMARK    3  A    between atoms: C4_4  and  S1_5 
REMARK    4  A    between atoms: C4_4  and  C9_18 
REMARK    5  A    between atoms: S1_5  and  C5_6 
REMARK    6  A    between atoms: C6_9  and  C7_10 
REMARK       I    between atoms: C9_18  and  N5_20 
REMARK    7  A    between atoms: N5_20  and  C10_22 
ROOT
HETATM    1  C7  UNL     1     -17.516  19.212  -6.578  1.00  0.00     0.296 C 
HETATM    2  O1  UNL     1     -18.090  18.380  -7.302  1.00  0.00    -0.272 OA
HETATM    3  C8  UNL     1     -16.318  18.858  -5.906  1.00  0.00     0.147 C 
HETATM    4  N2  UNL     1     -15.331  18.553  -5.369  1.00  0.00    -0.188 NA
ENDROOT
BRANCH   1   5
HETATM    5  C6  UNL     1     -18.090  20.539  -6.434  1.00  0.00     0.184 A 
HETATM    6  N1  UNL     1     -19.254  20.911  -5.909  1.00  0.00    -0.317 N 
HETATM    7  C5  UNL     1     -19.404  22.256  -5.972  1.00  0.00     0.161 A 
ATOM      8  H1  UNL     1     -19.941  20.270  -5.513  1.00  0.00     0.169 HD
HETATM    9  N4  UNL     1     -18.281  22.693  -6.561  1.00  0.00    -0.278 N 
HETATM   10  N3  UNL     1     -17.502  21.676  -6.834  1.00  0.00    -0.280 N 
ATOM     11  H4  UNL     1     -18.065  23.669  -6.764  1.00  0.00     0.189 HD
ATOM     12  H3  UNL     1     -16.588  21.738  -7.282  1.00  0.00     0.189 HD
BRANCH   7  13
HETATM   13  S1  UNL     1     -20.782  23.202  -5.381  1.00  0.00    -0.078 SA
BRANCH  13  14
HETATM   14  C4  UNL     1     -22.237  23.133  -6.369  1.00  0.00     0.147 C 
BRANCH  14  15
HETATM   15  C3  UNL     1     -22.743  24.405  -6.966  1.00  0.00     0.025 C 
BRANCH  15  16
HETATM   16  C2  UNL     1     -22.112  25.627  -6.442  1.00  0.00    -0.003 C 
HETATM   17  C1  UNL     1     -23.053  26.828  -6.462  1.00  0.00     0.005 C 
ENDBRANCH  15  16
ENDBRANCH  14  15
BRANCH  14  18
HETATM   18  C9  UNL     1     -23.370  22.424  -5.699  1.00  0.00     0.232 C 
HETATM   19  O2  UNL     1     -23.829  22.926  -4.653  1.00  0.00    -0.272 OA
HETATM   20  N5  UNL     1     -23.933  21.226  -6.199  1.00  0.00    -0.355 N 
ATOM     21  H5  UNL     1     -23.551  20.824  -7.055  1.00  0.00     0.162 HD
BRANCH  20  22
HETATM   22  C10 UNL     1     -25.020  20.555  -5.548  1.00  0.00     0.084 C 
HETATM   23  C11 UNL     1     -26.241  20.375  -6.387  1.00  0.00     0.025 C 
HETATM   24  C12 UNL     1     -26.468  18.902  -6.573  1.00  0.00     0.002 C 
HETATM   25  C13 UNL     1     -25.338  18.181  -5.877  1.00  0.00     0.002 C 
HETATM   26  C14 UNL     1     -24.632  19.190  -5.024  1.00  0.00     0.025 C 
ENDBRANCH  20  22
ENDBRANCH  14  18
ENDBRANCH  13  14
ENDBRANCH   7  13
ENDBRANCH   1   5
TORSDOF 7
ENDMDL
