MODEL 1
REMARK VINA RESULT: -6.631138258      0.000      0.000
REMARK  9 active torsions:
REMARK  status: ('A' for Active; 'I' for Inactive)
REMARK    1  A    between atoms: C2_2  and  C3_3 
REMARK    2  A    between atoms: C3_3  and  O1_4 
REMARK    3  A    between atoms: O1_4  and  C4_5 
REMARK       I    between atoms: C4_5  and  N1_7 
REMARK    4  A    between atoms: N1_7  and  C5_9 
REMARK    5  A    between atoms: C5_9  and  C7_11 
REMARK    6  A    between atoms: C7_11  and  S1_12 
REMARK    7  A    between atoms: S1_12  and  C8_13 
REMARK    8  A    between atoms: C8_13  and  C9_14 
REMARK       I    between atoms: C9_14  and  N2_16 
REMARK    9  A    between atoms: N2_16  and  C10_18 
ROOT
HETATM    1  S1  UNL     1     -16.296  23.246  -2.360  1.00  0.00    -0.158 SA
ENDROOT
BRANCH   1   2
HETATM    2  C7  UNL     1     -17.978  23.633  -2.791  1.00  0.00     0.099 C 
BRANCH   2   3
HETATM    3  C5  UNL     1     -18.514  22.986  -4.018  1.00  0.00     0.092 C 
HETATM    4  C6  UNL     1     -19.037  23.991  -5.019  1.00  0.00     0.033 C 
BRANCH   3   5
HETATM    5  N1  UNL     1     -17.354  22.349  -4.675  1.00  0.00    -0.332 N 
HETATM    6  C4  UNL     1     -17.540  21.253  -5.562  1.00  0.00     0.360 C 
HETATM    7  O2  UNL     1     -18.676  20.801  -5.809  1.00  0.00    -0.239 OA
ATOM      8  H1  UNL     1     -16.414  22.698  -4.491  1.00  0.00     0.165 HD
BRANCH   6   9
HETATM    9  O1  UNL     1     -16.459  20.648  -6.183  1.00  0.00    -0.304 OA
BRANCH   9  10
HETATM   10  C3  UNL     1     -15.544  19.804  -5.510  1.00  0.00     0.180 C 
BRANCH  10  11
HETATM   11  C2  UNL     1     -15.402  18.555  -6.354  1.00  0.00     0.022 C 
HETATM   12  C1  UNL     1     -16.764  17.987  -6.649  1.00  0.00     0.007 C 
ENDBRANCH  10  11
ENDBRANCH   9  10
ENDBRANCH   6   9
ENDBRANCH   3   5
ENDBRANCH   2   3
ENDBRANCH   1   2
BRANCH   1  13
HETATM   13  C8  UNL     1     -15.609  24.141  -0.987  1.00  0.00     0.176 C 
BRANCH  13  14
HETATM   14  C9  UNL     1     -14.421  23.458  -0.411  1.00  0.00     0.227 C 
HETATM   15  O3  UNL     1     -13.437  23.166  -1.136  1.00  0.00    -0.273 OA
HETATM   16  N2  UNL     1     -14.362  23.116   0.966  1.00  0.00    -0.356 N 
ATOM     17  H2  UNL     1     -15.155  23.348   1.565  1.00  0.00     0.162 HD
BRANCH  16  18
HETATM   18  C10 UNL     1     -13.214  22.450   1.549  1.00  0.00     0.084 C 
HETATM   19  C11 UNL     1     -13.731  21.564   2.662  1.00  0.00     0.025 C 
HETATM   20  C12 UNL     1     -12.681  21.152   3.633  1.00  0.00     0.002 C 
HETATM   21  C13 UNL     1     -11.283  21.479   3.226  1.00  0.00     0.000 C 
HETATM   22  C14 UNL     1     -11.091  22.887   2.754  1.00  0.00     0.002 C 
HETATM   23  C15 UNL     1     -12.335  23.498   2.184  1.00  0.00     0.025 C 
ENDBRANCH  16  18
ENDBRANCH  13  14
ENDBRANCH   1  13
TORSDOF 9
ENDMDL
MODEL 2
REMARK VINA RESULT: -6.598578190      1.425      8.091
REMARK  9 active torsions:
REMARK  status: ('A' for Active; 'I' for Inactive)
REMARK    1  A    between atoms: C2_2  and  C3_3 
REMARK    2  A    between atoms: C3_3  and  O1_4 
REMARK    3  A    between atoms: O1_4  and  C4_5 
REMARK       I    between atoms: C4_5  and  N1_7 
REMARK    4  A    between atoms: N1_7  and  C5_9 
REMARK    5  A    between atoms: C5_9  and  C7_11 
REMARK    6  A    between atoms: C7_11  and  S1_12 
REMARK    7  A    between atoms: S1_12  and  C8_13 
REMARK    8  A    between atoms: C8_13  and  C9_14 
REMARK       I    between atoms: C9_14  and  N2_16 
REMARK    9  A    between atoms: N2_16  and  C10_18 
ROOT
HETATM    1  S1  UNL     1     -18.637  24.206  -3.125  1.00  0.00    -0.158 SA
ENDROOT
BRANCH   1   2
HETATM    2  C7  UNL     1     -17.141  23.646  -2.341  1.00  0.00     0.099 C 
BRANCH   2   3
HETATM    3  C5  UNL     1     -16.962  24.014  -0.911  1.00  0.00     0.092 C 
HETATM    4  C6  UNL     1     -18.212  23.780  -0.095  1.00  0.00     0.033 C 
BRANCH   3   5
HETATM    5  N1  UNL     1     -15.964  23.067  -0.375  1.00  0.00    -0.332 N 
HETATM    6  C4  UNL     1     -14.594  23.440  -0.279  1.00  0.00     0.360 C 
HETATM    7  O2  UNL     1     -14.200  24.567  -0.641  1.00  0.00    -0.239 OA
ATOM      8  H1  UNL     1     -16.257  22.138  -0.072  1.00  0.00     0.165 HD
BRANCH   6   9
HETATM    9  O1  UNL     1     -13.649  22.559   0.222  1.00  0.00    -0.304 OA
BRANCH   9  10
HETATM   10  C3  UNL     1     -13.430  22.352   1.604  1.00  0.00     0.180 C 
BRANCH  10  11
HETATM   11  C2  UNL     1     -12.173  23.114   1.966  1.00  0.00     0.022 C 
HETATM   12  C1  UNL     1     -11.294  22.254   2.833  1.00  0.00     0.007 C 
ENDBRANCH  10  11
ENDBRANCH   9  10
ENDBRANCH   6   9
ENDBRANCH   3   5
ENDBRANCH   2   3
ENDBRANCH   1   2
BRANCH   1  13
HETATM   13  C8  UNL     1     -18.895  23.674  -4.800  1.00  0.00     0.176 C 
BRANCH  13  14
HETATM   14  C9  UNL     1     -18.675  22.213  -4.964  1.00  0.00     0.227 C 
HETATM   15  O3  UNL     1     -19.556  21.389  -4.612  1.00  0.00    -0.273 OA
HETATM   16  N2  UNL     1     -17.470  21.707  -5.520  1.00  0.00    -0.356 N 
ATOM     17  H2  UNL     1     -16.747  22.365  -5.810  1.00  0.00     0.162 HD
BRANCH  16  18
HETATM   18  C10 UNL     1     -17.234  20.286  -5.690  1.00  0.00     0.084 C 
HETATM   19  C11 UNL     1     -15.738  20.072  -5.605  1.00  0.00     0.025 C 
HETATM   20  C12 UNL     1     -15.288  18.773  -6.180  1.00  0.00     0.002 C 
HETATM   21  C13 UNL     1     -16.386  17.822  -6.521  1.00  0.00     0.000 C 
HETATM   22  C14 UNL     1     -17.506  18.428  -7.309  1.00  0.00     0.002 C 
HETATM   23  C15 UNL     1     -17.663  19.901  -7.083  1.00  0.00     0.025 C 
ENDBRANCH  16  18
ENDBRANCH  13  14
ENDBRANCH   1  13
TORSDOF 9
ENDMDL
MODEL 3
REMARK VINA RESULT: -6.561111090      4.024      7.697
REMARK  9 active torsions:
REMARK  status: ('A' for Active; 'I' for Inactive)
REMARK    1  A    between atoms: C2_2  and  C3_3 
REMARK    2  A    between atoms: C3_3  and  O1_4 
REMARK    3  A    between atoms: O1_4  and  C4_5 
REMARK       I    between atoms: C4_5  and  N1_7 
REMARK    4  A    between atoms: N1_7  and  C5_9 
REMARK    5  A    between atoms: C5_9  and  C7_11 
REMARK    6  A    between atoms: C7_11  and  S1_12 
REMARK    7  A    between atoms: S1_12  and  C8_13 
REMARK    8  A    between atoms: C8_13  and  C9_14 
REMARK       I    between atoms: C9_14  and  N2_16 
REMARK    9  A    between atoms: N2_16  and  C10_18 
ROOT
HETATM    1  S1  UNL     1     -20.439  24.480  -6.099  1.00  0.00    -0.158 SA
ENDROOT
BRANCH   1   2
HETATM    2  C7  UNL     1     -21.526  25.351  -4.993  1.00  0.00     0.099 C 
BRANCH   2   3
HETATM    3  C5  UNL     1     -21.531  24.901  -3.575  1.00  0.00     0.092 C 
HETATM    4  C6  UNL     1     -22.540  23.806  -3.321  1.00  0.00     0.033 C 
BRANCH   3   5
HETATM    5  N1  UNL     1     -20.211  24.276  -3.349  1.00  0.00    -0.332 N 
HETATM    6  C4  UNL     1     -19.257  24.892  -2.493  1.00  0.00     0.360 C 
HETATM    7  O2  UNL     1     -19.504  25.969  -1.914  1.00  0.00    -0.239 OA
ATOM      8  H1  UNL     1     -19.983  23.395  -3.810  1.00  0.00     0.165 HD
BRANCH   6   9
HETATM    9  O1  UNL     1     -18.017  24.314  -2.275  1.00  0.00    -0.304 OA
BRANCH   9  10
HETATM   10  C3  UNL     1     -17.428  23.374  -3.153  1.00  0.00     0.180 C 
BRANCH  10  11
HETATM   11  C2  UNL     1     -16.085  23.004  -2.560  1.00  0.00     0.022 C 
HETATM   12  C1  UNL     1     -16.047  23.406  -1.110  1.00  0.00     0.007 C 
ENDBRANCH  10  11
ENDBRANCH   9  10
ENDBRANCH   6   9
ENDBRANCH   3   5
ENDBRANCH   2   3
ENDBRANCH   1   2
BRANCH   1  13
HETATM   13  C8  UNL     1     -20.906  22.816  -6.513  1.00  0.00     0.176 C 
BRANCH  13  14
HETATM   14  C9  UNL     1     -19.975  21.813  -5.935  1.00  0.00     0.227 C 
HETATM   15  O3  UNL     1     -20.030  21.516  -4.716  1.00  0.00    -0.273 OA
HETATM   16  N2  UNL     1     -19.000  21.162  -6.738  1.00  0.00    -0.356 N 
ATOM     17  H2  UNL     1     -18.945  21.394  -7.730  1.00  0.00     0.162 HD
BRANCH  16  18
HETATM   18  C10 UNL     1     -18.082  20.180  -6.196  1.00  0.00     0.084 C 
HETATM   19  C11 UNL     1     -16.787  20.903  -5.892  1.00  0.00     0.025 C 
HETATM   20  C12 UNL     1     -15.617  19.993  -5.744  1.00  0.00     0.002 C 
HETATM   21  C13 UNL     1     -15.952  18.540  -5.689  1.00  0.00     0.000 C 
HETATM   22  C14 UNL     1     -16.889  18.081  -6.763  1.00  0.00     0.002 C 
HETATM   23  C15 UNL     1     -17.786  19.167  -7.273  1.00  0.00     0.025 C 
ENDBRANCH  16  18
ENDBRANCH  13  14
ENDBRANCH   1  13
TORSDOF 9
ENDMDL
MODEL 4
REMARK VINA RESULT: -6.507002681      3.302      7.558
REMARK  9 active torsions:
REMARK  status: ('A' for Active; 'I' for Inactive)
REMARK    1  A    between atoms: C2_2  and  C3_3 
REMARK    2  A    between atoms: C3_3  and  O1_4 
REMARK    3  A    between atoms: O1_4  and  C4_5 
REMARK       I    between atoms: C4_5  and  N1_7 
REMARK    4  A    between atoms: N1_7  and  C5_9 
REMARK    5  A    between atoms: C5_9  and  C7_11 
REMARK    6  A    between atoms: C7_11  and  S1_12 
REMARK    7  A    between atoms: S1_12  and  C8_13 
REMARK    8  A    between atoms: C8_13  and  C9_14 
REMARK       I    between atoms: C9_14  and  N2_16 
REMARK    9  A    between atoms: N2_16  and  C10_18 
ROOT
HETATM    1  S1  UNL     1     -20.530  24.519  -4.999  1.00  0.00    -0.158 SA
ENDROOT
BRANCH   1   2
HETATM    2  C7  UNL     1     -19.773  25.466  -3.697  1.00  0.00     0.099 C 
BRANCH   2   3
HETATM    3  C5  UNL     1     -19.646  24.795  -2.376  1.00  0.00     0.092 C 
HETATM    4  C6  UNL     1     -20.783  23.837  -2.104  1.00  0.00     0.033 C 
BRANCH   3   5
HETATM    5  N1  UNL     1     -18.438  23.950  -2.471  1.00  0.00    -0.332 N 
HETATM    6  C4  UNL     1     -17.430  24.016  -1.469  1.00  0.00     0.360 C 
HETATM    7  O2  UNL     1     -17.536  24.783  -0.490  1.00  0.00    -0.239 OA
ATOM      8  H1  UNL     1     -18.325  23.314  -3.260  1.00  0.00     0.165 HD
BRANCH   6   9
HETATM    9  O1  UNL     1     -16.293  23.228  -1.549  1.00  0.00    -0.304 OA
BRANCH   9  10
HETATM   10  C3  UNL     1     -15.200  23.343  -0.659  1.00  0.00     0.180 C 
BRANCH  10  11
HETATM   11  C2  UNL     1     -14.145  24.167  -1.367  1.00  0.00     0.022 C 
HETATM   12  C1  UNL     1     -13.376  23.292  -2.319  1.00  0.00     0.007 C 
ENDBRANCH  10  11
ENDBRANCH   9  10
ENDBRANCH   6   9
ENDBRANCH   3   5
ENDBRANCH   2   3
ENDBRANCH   1   2
BRANCH   1  13
HETATM   13  C8  UNL     1     -19.426  23.796  -6.190  1.00  0.00     0.176 C 
BRANCH  13  14
HETATM   14  C9  UNL     1     -18.944  22.456  -5.764  1.00  0.00     0.227 C 
HETATM   15  O3  UNL     1     -19.324  21.954  -4.677  1.00  0.00    -0.273 OA
HETATM   16  N2  UNL     1     -18.046  21.705  -6.569  1.00  0.00    -0.356 N 
ATOM     17  H2  UNL     1     -17.730  22.101  -7.454  1.00  0.00     0.162 HD
BRANCH  16  18
HETATM   18  C10 UNL     1     -17.564  20.396  -6.174  1.00  0.00     0.084 C 
HETATM   19  C11 UNL     1     -16.092  20.544  -5.851  1.00  0.00     0.025 C 
HETATM   20  C12 UNL     1     -15.349  19.253  -5.852  1.00  0.00     0.002 C 
HETATM   21  C13 UNL     1     -16.205  18.034  -5.937  1.00  0.00     0.000 C 
HETATM   22  C14 UNL     1     -17.246  18.084  -7.011  1.00  0.00     0.002 C 
HETATM   23  C15 UNL     1     -17.670  19.477  -7.365  1.00  0.00     0.025 C 
ENDBRANCH  16  18
ENDBRANCH  13  14
ENDBRANCH   1  13
TORSDOF 9
ENDMDL
MODEL 5
REMARK VINA RESULT: -6.505192701      5.343      9.306
REMARK  9 active torsions:
REMARK  status: ('A' for Active; 'I' for Inactive)
REMARK    1  A    between atoms: C2_2  and  C3_3 
REMARK    2  A    between atoms: C3_3  and  O1_4 
REMARK    3  A    between atoms: O1_4  and  C4_5 
REMARK       I    between atoms: C4_5  and  N1_7 
REMARK    4  A    between atoms: N1_7  and  C5_9 
REMARK    5  A    between atoms: C5_9  and  C7_11 
REMARK    6  A    between atoms: C7_11  and  S1_12 
REMARK    7  A    between atoms: S1_12  and  C8_13 
REMARK    8  A    between atoms: C8_13  and  C9_14 
REMARK       I    between atoms: C9_14  and  N2_16 
REMARK    9  A    between atoms: N2_16  and  C10_18 
ROOT
HETATM    1  S1  UNL     1     -20.385  24.131  -6.502  1.00  0.00    -0.158 SA
ENDROOT
BRANCH   1   2
HETATM    2  C7  UNL     1     -19.499  24.177  -4.959  1.00  0.00     0.099 C 
BRANCH   2   3
HETATM    3  C5  UNL     1     -18.307  23.294  -4.852  1.00  0.00     0.092 C 
HETATM    4  C6  UNL     1     -17.839  23.128  -3.425  1.00  0.00     0.033 C 
BRANCH   3   5
HETATM    5  N1  UNL     1     -18.763  21.953  -5.272  1.00  0.00    -0.332 N 
HETATM    6  C4  UNL     1     -17.940  21.136  -6.096  1.00  0.00     0.360 C 
HETATM    7  O2  UNL     1     -16.820  21.524  -6.485  1.00  0.00    -0.239 OA
ATOM      8  H1  UNL     1     -19.674  21.610  -4.968  1.00  0.00     0.165 HD
BRANCH   6   9
HETATM    9  O1  UNL     1     -18.359  19.876  -6.495  1.00  0.00    -0.304 OA
BRANCH   9  10
HETATM   10  C3  UNL     1     -17.661  19.084  -7.436  1.00  0.00     0.180 C 
BRANCH  10  11
HETATM   11  C2  UNL     1     -17.040  17.938  -6.666  1.00  0.00     0.022 C 
HETATM   12  C1  UNL     1     -15.580  18.219  -6.433  1.00  0.00     0.007 C 
ENDBRANCH  10  11
ENDBRANCH   9  10
ENDBRANCH   6   9
ENDBRANCH   3   5
ENDBRANCH   2   3
ENDBRANCH   1   2
BRANCH   1  13
HETATM   13  C8  UNL     1     -22.128  23.801  -6.399  1.00  0.00     0.176 C 
BRANCH  13  14
HETATM   14  C9  UNL     1     -22.413  22.356  -6.201  1.00  0.00     0.227 C 
HETATM   15  O3  UNL     1     -21.508  21.498  -6.352  1.00  0.00    -0.273 OA
HETATM   16  N2  UNL     1     -23.709  21.904  -5.836  1.00  0.00    -0.356 N 
ATOM     17  H2  UNL     1     -24.453  22.590  -5.710  1.00  0.00     0.162 HD
BRANCH  16  18
HETATM   18  C10 UNL     1     -24.010  20.499  -5.637  1.00  0.00     0.084 C 
HETATM   19  C11 UNL     1     -25.424  20.274  -6.125  1.00  0.00     0.025 C 
HETATM   20  C12 UNL     1     -26.042  19.022  -5.607  1.00  0.00     0.002 C 
HETATM   21  C13 UNL     1     -25.103  18.102  -4.900  1.00  0.00     0.000 C 
HETATM   22  C14 UNL     1     -24.241  18.770  -3.874  1.00  0.00     0.002 C 
HETATM   23  C15 UNL     1     -23.999  20.222  -4.154  1.00  0.00     0.025 C 
ENDBRANCH  16  18
ENDBRANCH  13  14
ENDBRANCH   1  13
TORSDOF 9
ENDMDL
