MODEL 1
REMARK VINA RESULT: -6.876961464      0.000      0.000
REMARK  9 active torsions:
REMARK  status: ('A' for Active; 'I' for Inactive)
REMARK    1  A    between atoms: C2_2  and  S1_4 
REMARK    2  A    between atoms: S1_4  and  C4_5 
REMARK    3  A    between atoms: C4_5  and  C5_6 
REMARK    4  A    between atoms: C5_6  and  C6_8 
REMARK    5  A    between atoms: C6_8  and  N1_9 
REMARK    6  A    between atoms: N1_9  and  C7_11 
REMARK    7  A    between atoms: C15_19  and  C16_20 
REMARK    8  A    between atoms: C15_19  and  C17_22 
REMARK    9  A    between atoms: C17_22  and  O3_23 
ROOT
HETATM    1  C7  UNL     1     -18.103  22.426  -4.101  1.00  0.00     0.081 C 
HETATM    2  C8  UNL     1     -19.275  23.314  -4.222  1.00  0.00     0.025 C 
HETATM    3  C9  UNL     1     -20.425  22.663  -4.999  1.00  0.00     0.002 C 
HETATM    4  C10 UNL     1     -20.000  22.385  -6.394  1.00  0.00     0.001 C 
HETATM    5  C11 UNL     1     -19.393  20.987  -6.395  1.00  0.00     0.011 C 
HETATM    6  C12 UNL     1     -17.916  21.102  -6.260  1.00  0.00    -0.021 A 
HETATM    7  C13 UNL     1     -17.397  22.219  -5.444  1.00  0.00     0.035 C 
HETATM    8  C14 UNL     1     -17.121  20.647  -7.434  1.00  0.00     0.030 A 
HETATM    9  C15 UNL     1     -17.037  19.862  -6.199  1.00  0.00     0.043 A 
ENDROOT
BRANCH   1  10
HETATM   10  N1  UNL     1     -17.102  22.890  -3.222  1.00  0.00    -0.391 N 
ATOM     11  H1  UNL     1     -16.156  22.532  -3.353  1.00  0.00     0.159 HD
BRANCH  10  12
HETATM   12  C6  UNL     1     -17.307  23.790  -2.200  1.00  0.00     0.134 C 
BRANCH  12  13
HETATM   13  C5  UNL     1     -16.453  23.716  -0.999  1.00  0.00     0.173 C 
HETATM   14  O1  UNL     1     -16.551  22.886  -0.121  1.00  0.00    -0.291 OA
BRANCH  13  15
HETATM   15  C4  UNL     1     -15.356  24.746  -0.824  1.00  0.00     0.158 C 
BRANCH  15  16
HETATM   16  S1  UNL     1     -13.784  23.917  -0.580  1.00  0.00    -0.157 SA
BRANCH  16  17
HETATM   17  C2  UNL     1     -13.379  23.876   1.189  1.00  0.00     0.039 C 
HETATM   18  C1  UNL     1     -13.514  22.479   1.739  1.00  0.00     0.021 C 
HETATM   19  C3  UNL     1     -11.902  24.244   1.321  1.00  0.00     0.021 C 
ENDBRANCH  16  17
ENDBRANCH  15  16
ENDBRANCH  13  15
ENDBRANCH  12  13
ENDBRANCH  10  12
ENDBRANCH   1  10
BRANCH   9  20
HETATM   20  C16 UNL     1     -17.766  18.587  -6.114  1.00  0.00     0.243 C 
HETATM   21  O2  UNL     1     -17.506  17.688  -6.867  1.00  0.00    -0.306 OA
ENDBRANCH   9  20
BRANCH   9  22
HETATM   22  C17 UNL     1     -15.706  19.936  -5.473  1.00  0.00     0.181 C 
BRANCH  22  23
HETATM   23  O3  UNL     1     -15.461  18.648  -4.961  1.00  0.00    -0.400 OA
ATOM     24  H3  UNL     1     -15.634  18.693  -4.028  1.00  0.00     0.209 HD
ENDBRANCH  22  23
ENDBRANCH   9  22
TORSDOF 9
ENDMDL
MODEL 2
REMARK VINA RESULT: -6.715076503      1.219      1.523
REMARK  9 active torsions:
REMARK  status: ('A' for Active; 'I' for Inactive)
REMARK    1  A    between atoms: C2_2  and  S1_4 
REMARK    2  A    between atoms: S1_4  and  C4_5 
REMARK    3  A    between atoms: C4_5  and  C5_6 
REMARK    4  A    between atoms: C5_6  and  C6_8 
REMARK    5  A    between atoms: C6_8  and  N1_9 
REMARK    6  A    between atoms: N1_9  and  C7_11 
REMARK    7  A    between atoms: C15_19  and  C16_20 
REMARK    8  A    between atoms: C15_19  and  C17_22 
REMARK    9  A    between atoms: C17_22  and  O3_23 
ROOT
HETATM    1  C7  UNL     1     -18.604  22.643  -4.042  1.00  0.00     0.081 C 
HETATM    2  C8  UNL     1     -19.862  23.391  -4.228  1.00  0.00     0.025 C 
HETATM    3  C9  UNL     1     -20.891  22.612  -5.056  1.00  0.00     0.002 C 
HETATM    4  C10 UNL     1     -20.368  22.380  -6.425  1.00  0.00     0.001 C 
HETATM    5  C11 UNL     1     -19.607  21.061  -6.385  1.00  0.00     0.011 C 
HETATM    6  C12 UNL     1     -18.161  21.344  -6.179  1.00  0.00    -0.021 A 
HETATM    7  C13 UNL     1     -17.814  22.515  -5.347  1.00  0.00     0.035 C 
HETATM    8  C14 UNL     1     -17.262  20.979  -7.308  1.00  0.00     0.030 A 
HETATM    9  C15 UNL     1     -17.151  20.211  -6.064  1.00  0.00     0.043 A 
ENDROOT
BRANCH   1  10
HETATM   10  N1  UNL     1     -17.708  23.220  -3.119  1.00  0.00    -0.391 N 
ATOM     11  H1  UNL     1     -16.756  22.855  -3.095  1.00  0.00     0.159 HD
BRANCH  10  12
HETATM   12  C6  UNL     1     -18.022  24.239  -2.247  1.00  0.00     0.134 C 
BRANCH  12  13
HETATM   13  C5  UNL     1     -18.169  23.933  -0.811  1.00  0.00     0.173 C 
HETATM   14  O1  UNL     1     -19.222  23.851  -0.218  1.00  0.00    -0.291 OA
BRANCH  13  15
HETATM   15  C4  UNL     1     -16.920  23.696   0.012  1.00  0.00     0.158 C 
BRANCH  15  16
HETATM   16  S1  UNL     1     -15.822  25.107  -0.138  1.00  0.00    -0.157 SA
BRANCH  16  17
HETATM   17  C2  UNL     1     -14.143  24.541  -0.531  1.00  0.00     0.039 C 
HETATM   18  C1  UNL     1     -13.738  23.399   0.365  1.00  0.00     0.021 C 
HETATM   19  C3  UNL     1     -14.181  23.975  -1.950  1.00  0.00     0.021 C 
ENDBRANCH  16  17
ENDBRANCH  15  16
ENDBRANCH  13  15
ENDBRANCH  12  13
ENDBRANCH  10  12
ENDBRANCH   1  10
BRANCH   9  20
HETATM   20  C16 UNL     1     -17.735  18.862  -6.004  1.00  0.00     0.243 C 
HETATM   21  O2  UNL     1     -17.023  17.894  -5.982  1.00  0.00    -0.306 OA
ENDBRANCH   9  20
BRANCH   9  22
HETATM   22  C17 UNL     1     -15.876  20.438  -5.274  1.00  0.00     0.181 C 
BRANCH  22  23
HETATM   23  O3  UNL     1     -14.847  19.794  -5.988  1.00  0.00    -0.400 OA
ATOM     24  H3  UNL     1     -14.687  20.323  -6.761  1.00  0.00     0.209 HD
ENDBRANCH  22  23
ENDBRANCH   9  22
TORSDOF 9
ENDMDL
MODEL 3
REMARK VINA RESULT: -6.358238215      1.976      2.921
REMARK  9 active torsions:
REMARK  status: ('A' for Active; 'I' for Inactive)
REMARK    1  A    between atoms: C2_2  and  S1_4 
REMARK    2  A    between atoms: S1_4  and  C4_5 
REMARK    3  A    between atoms: C4_5  and  C5_6 
REMARK    4  A    between atoms: C5_6  and  C6_8 
REMARK    5  A    between atoms: C6_8  and  N1_9 
REMARK    6  A    between atoms: N1_9  and  C7_11 
REMARK    7  A    between atoms: C15_19  and  C16_20 
REMARK    8  A    between atoms: C15_19  and  C17_22 
REMARK    9  A    between atoms: C17_22  and  O3_23 
ROOT
HETATM    1  C7  UNL     1     -18.652  22.863  -4.209  1.00  0.00     0.081 C 
HETATM    2  C8  UNL     1     -19.937  23.552  -4.431  1.00  0.00     0.025 C 
HETATM    3  C9  UNL     1     -20.958  22.669  -5.159  1.00  0.00     0.002 C 
HETATM    4  C10 UNL     1     -20.457  22.328  -6.513  1.00  0.00     0.001 C 
HETATM    5  C11 UNL     1     -19.654  21.042  -6.372  1.00  0.00     0.011 C 
HETATM    6  C12 UNL     1     -18.213  21.386  -6.227  1.00  0.00    -0.021 A 
HETATM    7  C13 UNL     1     -17.886  22.639  -5.515  1.00  0.00     0.035 C 
HETATM    8  C14 UNL     1     -17.327  20.947  -7.341  1.00  0.00     0.030 A 
HETATM    9  C15 UNL     1     -17.165  20.300  -6.034  1.00  0.00     0.043 A 
ENDROOT
BRANCH   1  10
HETATM   10  N1  UNL     1     -17.755  23.550  -3.364  1.00  0.00    -0.391 N 
ATOM     11  H1  UNL     1     -17.938  24.537  -3.184  1.00  0.00     0.159 HD
BRANCH  10  12
HETATM   12  C6  UNL     1     -16.650  22.987  -2.764  1.00  0.00     0.134 C 
BRANCH  12  13
HETATM   13  C5  UNL     1     -15.928  23.754  -1.732  1.00  0.00     0.173 C 
HETATM   14  O1  UNL     1     -14.891  24.357  -1.907  1.00  0.00    -0.291 OA
BRANCH  13  15
HETATM   15  C4  UNL     1     -16.505  23.812  -0.333  1.00  0.00     0.158 C 
BRANCH  15  16
HETATM   16  S1  UNL     1     -17.203  25.438  -0.035  1.00  0.00    -0.157 SA
BRANCH  16  17
HETATM   17  C2  UNL     1     -19.012  25.361  -0.154  1.00  0.00     0.039 C 
HETATM   18  C1  UNL     1     -19.490  25.957  -1.452  1.00  0.00     0.021 C 
HETATM   19  C3  UNL     1     -19.397  23.882  -0.198  1.00  0.00     0.021 C 
ENDBRANCH  16  17
ENDBRANCH  15  16
ENDBRANCH  13  15
ENDBRANCH  12  13
ENDBRANCH  10  12
ENDBRANCH   1  10
BRANCH   9  20
HETATM   20  C16 UNL     1     -17.703  18.946  -5.837  1.00  0.00     0.243 C 
HETATM   21  O2  UNL     1     -17.005  17.984  -6.020  1.00  0.00    -0.306 OA
ENDBRANCH   9  20
BRANCH   9  22
HETATM   22  C17 UNL     1     -15.880  20.638  -5.300  1.00  0.00     0.181 C 
BRANCH  22  23
HETATM   23  O3  UNL     1     -14.854  19.923  -5.946  1.00  0.00    -0.400 OA
ATOM     24  H3  UNL     1     -15.205  19.060  -6.131  1.00  0.00     0.209 HD
ENDBRANCH  22  23
ENDBRANCH   9  22
TORSDOF 9
ENDMDL
MODEL 4
REMARK VINA RESULT: -6.333700386      1.516      2.312
REMARK  9 active torsions:
REMARK  status: ('A' for Active; 'I' for Inactive)
REMARK    1  A    between atoms: C2_2  and  S1_4 
REMARK    2  A    between atoms: S1_4  and  C4_5 
REMARK    3  A    between atoms: C4_5  and  C5_6 
REMARK    4  A    between atoms: C5_6  and  C6_8 
REMARK    5  A    between atoms: C6_8  and  N1_9 
REMARK    6  A    between atoms: N1_9  and  C7_11 
REMARK    7  A    between atoms: C15_19  and  C16_20 
REMARK    8  A    between atoms: C15_19  and  C17_22 
REMARK    9  A    between atoms: C17_22  and  O3_23 
ROOT
HETATM    1  C7  UNL     1     -18.144  22.477  -4.071  1.00  0.00     0.081 C 
HETATM    2  C8  UNL     1     -19.314  23.364  -4.214  1.00  0.00     0.025 C 
HETATM    3  C9  UNL     1     -20.453  22.710  -5.004  1.00  0.00     0.002 C 
HETATM    4  C10 UNL     1     -20.007  22.423  -6.390  1.00  0.00     0.001 C 
HETATM    5  C11 UNL     1     -19.402  21.025  -6.375  1.00  0.00     0.011 C 
HETATM    6  C12 UNL     1     -17.926  21.141  -6.219  1.00  0.00    -0.021 A 
HETATM    7  C13 UNL     1     -17.419  22.262  -5.402  1.00  0.00     0.035 C 
HETATM    8  C14 UNL     1     -17.114  20.679  -7.379  1.00  0.00     0.030 A 
HETATM    9  C15 UNL     1     -17.049  19.900  -6.138  1.00  0.00     0.043 A 
ENDROOT
BRANCH   1  10
HETATM   10  N1  UNL     1     -17.156  22.945  -3.180  1.00  0.00    -0.391 N 
ATOM     11  H1  UNL     1     -16.191  22.669  -3.358  1.00  0.00     0.159 HD
BRANCH  10  12
HETATM   12  C6  UNL     1     -17.398  23.748  -2.087  1.00  0.00     0.134 C 
BRANCH  12  13
HETATM   13  C5  UNL     1     -16.475  23.689  -0.937  1.00  0.00     0.173 C 
HETATM   14  O1  UNL     1     -16.487  22.838  -0.074  1.00  0.00    -0.291 OA
BRANCH  13  15
HETATM   15  C4  UNL     1     -15.417  24.764  -0.799  1.00  0.00     0.158 C 
BRANCH  15  16
HETATM   16  S1  UNL     1     -15.822  25.834   0.583  1.00  0.00    -0.157 SA
BRANCH  16  17
HETATM   17  C2  UNL     1     -17.624  26.000   0.725  1.00  0.00     0.039 C 
HETATM   18  C1  UNL     1     -18.005  26.593   2.056  1.00  0.00     0.021 C 
HETATM   19  C3  UNL     1     -18.066  27.010  -0.333  1.00  0.00     0.021 C 
ENDBRANCH  16  17
ENDBRANCH  15  16
ENDBRANCH  13  15
ENDBRANCH  12  13
ENDBRANCH  10  12
ENDBRANCH   1  10
BRANCH   9  20
HETATM   20  C16 UNL     1     -17.780  18.626  -6.056  1.00  0.00     0.243 C 
HETATM   21  O2  UNL     1     -17.528  17.732  -6.819  1.00  0.00    -0.306 OA
ENDBRANCH   9  20
BRANCH   9  22
HETATM   22  C17 UNL     1     -15.729  19.978  -5.393  1.00  0.00     0.181 C 
BRANCH  22  23
HETATM   23  O3  UNL     1     -15.435  18.668  -4.970  1.00  0.00    -0.400 OA
ATOM     24  H3  UNL     1     -15.044  18.227  -5.715  1.00  0.00     0.209 HD
ENDBRANCH  22  23
ENDBRANCH   9  22
TORSDOF 9
ENDMDL
MODEL 5
REMARK VINA RESULT: -6.302711576      2.272      3.243
REMARK  9 active torsions:
REMARK  status: ('A' for Active; 'I' for Inactive)
REMARK    1  A    between atoms: C2_2  and  S1_4 
REMARK    2  A    between atoms: S1_4  and  C4_5 
REMARK    3  A    between atoms: C4_5  and  C5_6 
REMARK    4  A    between atoms: C5_6  and  C6_8 
REMARK    5  A    between atoms: C6_8  and  N1_9 
REMARK    6  A    between atoms: N1_9  and  C7_11 
REMARK    7  A    between atoms: C15_19  and  C16_20 
REMARK    8  A    between atoms: C15_19  and  C17_22 
REMARK    9  A    between atoms: C17_22  and  O3_23 
ROOT
HETATM    1  C7  UNL     1     -18.162  22.390  -4.047  1.00  0.00     0.081 C 
HETATM    2  C8  UNL     1     -19.344  23.262  -4.184  1.00  0.00     0.025 C 
HETATM    3  C9  UNL     1     -20.467  22.605  -4.994  1.00  0.00     0.002 C 
HETATM    4  C10 UNL     1     -20.008  22.349  -6.382  1.00  0.00     0.001 C 
HETATM    5  C11 UNL     1     -19.382  20.960  -6.386  1.00  0.00     0.011 C 
HETATM    6  C12 UNL     1     -17.909  21.094  -6.217  1.00  0.00    -0.021 A 
HETATM    7  C13 UNL     1     -17.424  22.209  -5.376  1.00  0.00     0.035 C 
HETATM    8  C14 UNL     1     -17.082  20.664  -7.378  1.00  0.00     0.030 A 
HETATM    9  C15 UNL     1     -17.014  19.865  -6.150  1.00  0.00     0.043 A 
ENDROOT
BRANCH   1  10
HETATM   10  N1  UNL     1     -17.188  22.857  -3.141  1.00  0.00    -0.391 N 
ATOM     11  H1  UNL     1     -16.289  22.376  -3.125  1.00  0.00     0.159 HD
BRANCH  10  12
HETATM   12  C6  UNL     1     -17.360  23.915  -2.276  1.00  0.00     0.134 C 
BRANCH  12  13
HETATM   13  C5  UNL     1     -17.193  23.689  -0.828  1.00  0.00     0.173 C 
HETATM   14  O1  UNL     1     -16.351  22.977  -0.324  1.00  0.00    -0.291 OA
BRANCH  13  15
HETATM   15  C4  UNL     1     -18.131  24.392   0.131  1.00  0.00     0.158 C 
BRANCH  15  16
HETATM   16  S1  UNL     1     -19.643  24.839  -0.725  1.00  0.00    -0.157 SA
BRANCH  16  17
HETATM   17  C2  UNL     1     -19.654  26.622  -1.064  1.00  0.00     0.039 C 
HETATM   18  C1  UNL     1     -18.364  27.261  -0.617  1.00  0.00     0.021 C 
HETATM   19  C3  UNL     1     -19.709  26.791  -2.582  1.00  0.00     0.021 C 
ENDBRANCH  16  17
ENDBRANCH  15  16
ENDBRANCH  13  15
ENDBRANCH  12  13
ENDBRANCH  10  12
ENDBRANCH   1  10
BRANCH   9  20
HETATM   20  C16 UNL     1     -17.728  18.580  -6.095  1.00  0.00     0.243 C 
HETATM   21  O2  UNL     1     -17.559  17.756  -6.954  1.00  0.00    -0.306 OA
ENDBRANCH   9  20
BRANCH   9  22
HETATM   22  C17 UNL     1     -15.701  19.949  -5.394  1.00  0.00     0.181 C 
BRANCH  22  23
HETATM   23  O3  UNL     1     -15.431  18.650  -4.924  1.00  0.00    -0.400 OA
ATOM     24  H3  UNL     1     -15.181  18.743  -4.012  1.00  0.00     0.209 HD
ENDBRANCH  22  23
ENDBRANCH   9  22
TORSDOF 9
ENDMDL
