MODEL 1
REMARK VINA RESULT: -5.860347081      0.000      0.000
REMARK  6 active torsions:
REMARK  status: ('A' for Active; 'I' for Inactive)
REMARK    1  A    between atoms: C2_2  and  C4_4 
REMARK    2  A    between atoms: C5_5  and  C6_6 
REMARK    3  A    between atoms: C6_6  and  C7_7 
REMARK    4  A    between atoms: C7_7  and  C9_9 
REMARK    5  A    between atoms: C9_9  and  C10_10 
REMARK    6  A    between atoms: C10_10  and  C11_11 
ROOT
HETATM    1  C11 UNL     1     -15.836 -16.871  43.083  1.00  0.00     0.264 C 
HETATM    2  N1  UNL     1     -15.236 -15.503  43.075  1.00  0.00    -0.052 N 
ATOM      3  H11 UNL     1     -15.624 -14.728  42.536  1.00  0.00     0.279 HD
ATOM      4  H12 UNL     1     -14.347 -15.287  42.622  1.00  0.00     0.279 HD
HETATM    5  C12 UNL     1     -15.383 -15.619  44.492  1.00  0.00     0.131 C 
HETATM    6  C13 UNL     1     -14.471 -14.745  45.266  1.00  0.00     0.047 C 
HETATM    7  C14 UNL     1     -16.835 -15.576  44.878  1.00  0.00     0.039 C 
HETATM    8  C15 UNL     1     -17.350 -16.774  45.570  1.00  0.00     0.003 C 
HETATM    9  C16 UNL     1     -16.386 -17.773  46.076  1.00  0.00     0.009 C 
HETATM   10  C17 UNL     1     -15.115 -17.938  45.337  1.00  0.00    -0.039 C 
HETATM   11  C18 UNL     1     -13.980 -17.600  46.342  1.00  0.00     0.015 C 
HETATM   12  C19 UNL     1     -14.847 -19.382  44.984  1.00  0.00     0.015 C 
HETATM   13  C20 UNL     1     -14.934 -17.037  44.205  1.00  0.00     0.071 C 
ENDROOT
BRANCH   1  14
HETATM   14  C10 UNL     1     -16.735 -17.274  42.249  1.00  0.00    -0.122 C 
BRANCH  14  15
HETATM   15  C9  UNL     1     -17.660 -17.818  41.395  1.00  0.00     0.059 C 
BRANCH  15  16
HETATM   16  C7  UNL     1     -18.068 -19.143  41.502  1.00  0.00    -0.055 C 
HETATM   17  C8  UNL     1     -18.409 -19.828  40.240  1.00  0.00     0.049 C 
BRANCH  16  18
HETATM   18  C6  UNL     1     -18.172 -19.721  42.790  1.00  0.00     0.007 C 
BRANCH  18  19
HETATM   19  C5  UNL     1     -19.208 -19.932  43.536  1.00  0.00     0.001 C 
HETATM   20  C4  UNL     1     -19.615 -19.530  44.826  1.00  0.00     0.006 C 
BRANCH  20  21
HETATM   21  C2  UNL     1     -20.684 -19.829  45.472  1.00  0.00    -0.071 C 
HETATM   22  C1  UNL     1     -21.825 -20.177  46.080  1.00  0.00     0.018 C 
HETATM   23  C3  UNL     1     -20.127 -18.837  46.923  1.00  0.00     0.047 C 
ENDBRANCH  20  21
ENDBRANCH  18  19
ENDBRANCH  16  18
ENDBRANCH  15  16
ENDBRANCH  14  15
ENDBRANCH   1  14
TORSDOF 6
ENDMDL
MODEL 2
REMARK VINA RESULT: -5.695474330      2.237      4.829
REMARK  6 active torsions:
REMARK  status: ('A' for Active; 'I' for Inactive)
REMARK    1  A    between atoms: C2_2  and  C4_4 
REMARK    2  A    between atoms: C5_5  and  C6_6 
REMARK    3  A    between atoms: C6_6  and  C7_7 
REMARK    4  A    between atoms: C7_7  and  C9_9 
REMARK    5  A    between atoms: C9_9  and  C10_10 
REMARK    6  A    between atoms: C10_10  and  C11_11 
ROOT
HETATM    1  C11 UNL     1     -18.184 -20.255  44.918  1.00  0.00     0.264 C 
HETATM    2  N1  UNL     1     -18.192 -21.419  45.854  1.00  0.00    -0.052 N 
ATOM      3  H11 UNL     1     -17.850 -22.344  45.594  1.00  0.00     0.279 HD
ATOM      4  H12 UNL     1     -19.047 -21.890  46.150  1.00  0.00     0.279 HD
HETATM    5  C12 UNL     1     -17.462 -20.523  46.697  1.00  0.00     0.131 C 
HETATM    6  C13 UNL     1     -17.539 -20.856  48.138  1.00  0.00     0.047 C 
HETATM    7  C14 UNL     1     -16.086 -20.280  46.141  1.00  0.00     0.039 C 
HETATM    8  C15 UNL     1     -15.772 -18.878  45.800  1.00  0.00     0.003 C 
HETATM    9  C16 UNL     1     -16.679 -17.810  46.273  1.00  0.00     0.009 C 
HETATM   10  C17 UNL     1     -18.112 -18.143  46.428  1.00  0.00    -0.039 C 
HETATM   11  C18 UNL     1     -18.454 -17.912  47.925  1.00  0.00     0.015 C 
HETATM   12  C19 UNL     1     -19.003 -17.156  45.711  1.00  0.00     0.015 C 
HETATM   13  C20 UNL     1     -18.461 -19.530  46.143  1.00  0.00     0.071 C 
ENDROOT
BRANCH   1  14
HETATM   14  C10 UNL     1     -17.978 -20.346  43.647  1.00  0.00    -0.122 C 
BRANCH  14  15
HETATM   15  C9  UNL     1     -17.718 -20.327  42.301  1.00  0.00     0.059 C 
BRANCH  15  16
HETATM   16  C7  UNL     1     -17.768 -19.152  41.559  1.00  0.00    -0.055 C 
HETATM   17  C8  UNL     1     -18.719 -19.129  40.430  1.00  0.00     0.049 C 
BRANCH  16  18
HETATM   18  C6  UNL     1     -16.891 -18.095  41.900  1.00  0.00     0.007 C 
BRANCH  18  19
HETATM   19  C5  UNL     1     -17.118 -16.980  42.516  1.00  0.00     0.001 C 
HETATM   20  C4  UNL     1     -16.326 -16.025  43.189  1.00  0.00     0.006 C 
BRANCH  20  21
HETATM   21  C2  UNL     1     -16.685 -14.945  43.786  1.00  0.00    -0.071 C 
HETATM   22  C1  UNL     1     -17.125 -13.820  44.364  1.00  0.00     0.018 C 
HETATM   23  C3  UNL     1     -15.070 -14.857  44.671  1.00  0.00     0.047 C 
ENDBRANCH  20  21
ENDBRANCH  18  19
ENDBRANCH  16  18
ENDBRANCH  15  16
ENDBRANCH  14  15
ENDBRANCH   1  14
TORSDOF 6
ENDMDL
MODEL 3
REMARK VINA RESULT: -5.632641432      1.974      4.889
REMARK  6 active torsions:
REMARK  status: ('A' for Active; 'I' for Inactive)
REMARK    1  A    between atoms: C2_2  and  C4_4 
REMARK    2  A    between atoms: C5_5  and  C6_6 
REMARK    3  A    between atoms: C6_6  and  C7_7 
REMARK    4  A    between atoms: C7_7  and  C9_9 
REMARK    5  A    between atoms: C9_9  and  C10_10 
REMARK    6  A    between atoms: C10_10  and  C11_11 
ROOT
HETATM    1  C11 UNL     1     -17.494 -20.031  44.738  1.00  0.00     0.264 C 
HETATM    2  N1  UNL     1     -16.661 -20.419  45.915  1.00  0.00    -0.052 N 
ATOM      3  H11 UNL     1     -15.646 -20.321  45.936  1.00  0.00     0.279 HD
ATOM      4  H12 UNL     1     -16.508 -21.389  46.194  1.00  0.00     0.279 HD
HETATM    5  C12 UNL     1     -17.545 -19.537  46.612  1.00  0.00     0.131 C 
HETATM    6  C13 UNL     1     -17.640 -19.804  48.066  1.00  0.00     0.047 C 
HETATM    7  C14 UNL     1     -17.292 -18.111  46.211  1.00  0.00     0.039 C 
HETATM    8  C15 UNL     1     -18.432 -17.407  45.590  1.00  0.00     0.003 C 
HETATM    9  C16 UNL     1     -19.773 -18.024  45.662  1.00  0.00     0.009 C 
HETATM   10  C17 UNL     1     -19.851 -19.501  45.691  1.00  0.00    -0.039 C 
HETATM   11  C18 UNL     1     -20.550 -19.875  47.027  1.00  0.00     0.015 C 
HETATM   12  C19 UNL     1     -20.794 -20.040  44.642  1.00  0.00     0.015 C 
HETATM   13  C20 UNL     1     -18.565 -20.190  45.702  1.00  0.00     0.071 C 
ENDROOT
BRANCH   1  14
HETATM   14  C10 UNL     1     -17.018 -19.767  43.567  1.00  0.00    -0.122 C 
BRANCH  14  15
HETATM   15  C9  UNL     1     -16.616 -19.422  42.302  1.00  0.00     0.059 C 
BRANCH  15  16
HETATM   16  C7  UNL     1     -17.402 -18.632  41.471  1.00  0.00    -0.055 C 
HETATM   17  C8  UNL     1     -18.469 -19.325  40.722  1.00  0.00     0.049 C 
BRANCH  16  18
HETATM   18  C6  UNL     1     -17.105 -17.251  41.366  1.00  0.00     0.007 C 
BRANCH  18  19
HETATM   19  C5  UNL     1     -17.217 -16.299  42.235  1.00  0.00     0.001 C 
HETATM   20  C4  UNL     1     -16.351 -15.678  43.160  1.00  0.00     0.006 C 
BRANCH  20  21
HETATM   21  C2  UNL     1     -16.596 -14.734  43.997  1.00  0.00    -0.071 C 
HETATM   22  C1  UNL     1     -16.916 -13.733  44.826  1.00  0.00     0.018 C 
HETATM   23  C3  UNL     1     -14.987 -15.025  44.849  1.00  0.00     0.047 C 
ENDBRANCH  20  21
ENDBRANCH  18  19
ENDBRANCH  16  18
ENDBRANCH  15  16
ENDBRANCH  14  15
ENDBRANCH   1  14
TORSDOF 6
ENDMDL
MODEL 4
REMARK VINA RESULT: -5.599877875      2.776      6.356
REMARK  6 active torsions:
REMARK  status: ('A' for Active; 'I' for Inactive)
REMARK    1  A    between atoms: C2_2  and  C4_4 
REMARK    2  A    between atoms: C5_5  and  C6_6 
REMARK    3  A    between atoms: C6_6  and  C7_7 
REMARK    4  A    between atoms: C7_7  and  C9_9 
REMARK    5  A    between atoms: C9_9  and  C10_10 
REMARK    6  A    between atoms: C10_10  and  C11_11 
ROOT
HETATM    1  C11 UNL     1     -20.504 -20.485  42.158  1.00  0.00     0.264 C 
HETATM    2  N1  UNL     1     -21.594 -21.346  41.608  1.00  0.00    -0.052 N 
ATOM      3  H11 UNL     1     -21.569 -21.744  40.669  1.00  0.00     0.279 HD
ATOM      4  H12 UNL     1     -22.517 -20.987  41.361  1.00  0.00     0.279 HD
HETATM    5  C12 UNL     1     -21.345 -22.114  42.789  1.00  0.00     0.131 C 
HETATM    6  C13 UNL     1     -22.489 -22.953  43.213  1.00  0.00     0.047 C 
HETATM    7  C14 UNL     1     -20.011 -22.800  42.701  1.00  0.00     0.039 C 
HETATM    8  C15 UNL     1     -19.033 -22.435  43.745  1.00  0.00     0.003 C 
HETATM    9  C16 UNL     1     -19.500 -21.675  44.924  1.00  0.00     0.009 C 
HETATM   10  C17 UNL     1     -20.638 -20.748  44.738  1.00  0.00    -0.039 C 
HETATM   11  C18 UNL     1     -21.764 -21.245  45.684  1.00  0.00     0.015 C 
HETATM   12  C19 UNL     1     -20.332 -19.363  45.258  1.00  0.00     0.015 C 
HETATM   13  C20 UNL     1     -21.213 -20.733  43.398  1.00  0.00     0.071 C 
ENDROOT
BRANCH   1  14
HETATM   14  C10 UNL     1     -19.560 -19.966  41.446  1.00  0.00    -0.122 C 
BRANCH  14  15
HETATM   15  C9  UNL     1     -18.502 -19.384  40.797  1.00  0.00     0.059 C 
BRANCH  15  16
HETATM   16  C7  UNL     1     -17.457 -18.781  41.488  1.00  0.00    -0.055 C 
HETATM   17  C8  UNL     1     -16.770 -19.613  42.495  1.00  0.00     0.049 C 
BRANCH  16  18
HETATM   18  C6  UNL     1     -17.158 -17.424  41.218  1.00  0.00     0.007 C 
BRANCH  18  19
HETATM   19  C5  UNL     1     -17.027 -16.417  42.020  1.00  0.00     0.001 C 
HETATM   20  C4  UNL     1     -17.396 -16.141  43.355  1.00  0.00     0.006 C 
BRANCH  20  21
HETATM   21  C2  UNL     1     -17.218 -15.072  44.044  1.00  0.00    -0.071 C 
HETATM   22  C1  UNL     1     -16.995 -13.926  44.700  1.00  0.00     0.018 C 
HETATM   23  C3  UNL     1     -17.924 -15.880  45.543  1.00  0.00     0.047 C 
ENDBRANCH  20  21
ENDBRANCH  18  19
ENDBRANCH  16  18
ENDBRANCH  15  16
ENDBRANCH  14  15
ENDBRANCH   1  14
TORSDOF 6
ENDMDL
MODEL 5
REMARK VINA RESULT: -5.587697613      2.061      5.556
REMARK  6 active torsions:
REMARK  status: ('A' for Active; 'I' for Inactive)
REMARK    1  A    between atoms: C2_2  and  C4_4 
REMARK    2  A    between atoms: C5_5  and  C6_6 
REMARK    3  A    between atoms: C6_6  and  C7_7 
REMARK    4  A    between atoms: C7_7  and  C9_9 
REMARK    5  A    between atoms: C9_9  and  C10_10 
REMARK    6  A    between atoms: C10_10  and  C11_11 
ROOT
HETATM    1  C11 UNL     1     -16.469 -18.599  43.079  1.00  0.00     0.264 C 
HETATM    2  N1  UNL     1     -15.280 -19.171  42.378  1.00  0.00    -0.052 N 
ATOM      3  H11 UNL     1     -14.621 -18.602  41.846  1.00  0.00     0.279 HD
ATOM      4  H12 UNL     1     -15.352 -19.753  41.543  1.00  0.00     0.279 HD
HETATM    5  C12 UNL     1     -14.987 -19.698  43.675  1.00  0.00     0.131 C 
HETATM    6  C13 UNL     1     -14.112 -20.893  43.656  1.00  0.00     0.047 C 
HETATM    7  C14 UNL     1     -14.588 -18.594  44.615  1.00  0.00     0.039 C 
HETATM    8  C15 UNL     1     -15.449 -18.422  45.803  1.00  0.00     0.003 C 
HETATM    9  C16 UNL     1     -16.431 -19.477  46.129  1.00  0.00     0.009 C 
HETATM   10  C17 UNL     1     -17.007 -20.252  45.008  1.00  0.00    -0.039 C 
HETATM   11  C18 UNL     1     -16.617 -21.735  45.257  1.00  0.00     0.015 C 
HETATM   12  C19 UNL     1     -18.516 -20.276  45.052  1.00  0.00     0.015 C 
HETATM   13  C20 UNL     1     -16.486 -19.914  43.688  1.00  0.00     0.071 C 
ENDROOT
BRANCH   1  14
HETATM   14  C10 UNL     1     -16.915 -17.402  42.892  1.00  0.00    -0.122 C 
BRANCH  14  15
HETATM   15  C9  UNL     1     -17.432 -16.135  42.811  1.00  0.00     0.059 C 
BRANCH  15  16
HETATM   16  C7  UNL     1     -17.834 -15.430  43.941  1.00  0.00    -0.055 C 
HETATM   17  C8  UNL     1     -18.691 -16.157  44.897  1.00  0.00     0.049 C 
BRANCH  16  18
HETATM   18  C6  UNL     1     -17.439 -14.077  44.074  1.00  0.00     0.007 C 
BRANCH  18  19
HETATM   19  C5  UNL     1     -16.338 -13.563  44.518  1.00  0.00     0.001 C 
HETATM   20  C4  UNL     1     -14.965 -13.861  44.385  1.00  0.00     0.006 C 
BRANCH  20  21
HETATM   21  C2  UNL     1     -13.949 -13.269  44.903  1.00  0.00    -0.071 C 
HETATM   22  C1  UNL     1     -12.919 -12.584  45.415  1.00  0.00     0.018 C 
HETATM   23  C3  UNL     1     -13.219 -14.887  45.404  1.00  0.00     0.047 C 
ENDBRANCH  20  21
ENDBRANCH  18  19
ENDBRANCH  16  18
ENDBRANCH  15  16
ENDBRANCH  14  15
ENDBRANCH   1  14
TORSDOF 6
ENDMDL
