MODEL 1
REMARK VINA RESULT: -6.133094434      0.000      0.000
REMARK  4 active torsions:
REMARK  status: ('A' for Active; 'I' for Inactive)
REMARK    1  A    between atoms: C7_7  and  C8_8 
REMARK    2  A    between atoms: C8_8  and  C9_9 
REMARK    3  A    between atoms: C12_12  and  C13_13 
REMARK    4  A    between atoms: C13_13  and  O1_16 
ROOT
HETATM    1  C1  UNL     1     -15.829 -19.251  42.811  1.00  0.00     0.015 C 
HETATM    2  C2  UNL     1     -16.378 -18.456  43.723  1.00  0.00    -0.076 C 
HETATM    3  C3  UNL     1     -17.587 -17.634  43.414  1.00  0.00     0.020 C 
HETATM    4  C4  UNL     1     -17.312 -16.413  42.565  1.00  0.00     0.019 C 
HETATM    5  C5  UNL     1     -16.948 -15.711  43.886  1.00  0.00    -0.035 C 
HETATM    6  C6  UNL     1     -17.689 -14.358  43.865  1.00  0.00     0.016 C 
HETATM    7  C7  UNL     1     -15.502 -15.435  43.938  1.00  0.00    -0.005 C 
HETATM    8  C11 UNL     1     -14.557 -16.526  44.208  1.00  0.00     0.014 C 
HETATM    9  C12 UNL     1     -14.781 -17.426  45.382  1.00  0.00     0.032 C 
HETATM   10  C16 UNL     1     -15.943 -18.255  45.140  1.00  0.00    -0.014 C 
HETATM   11  C17 UNL     1     -16.045 -19.612  45.773  1.00  0.00     0.020 C 
HETATM   12  C18 UNL     1     -17.142 -17.470  45.724  1.00  0.00     0.020 C 
HETATM   13  C19 UNL     1     -17.652 -16.700  44.601  1.00  0.00     0.003 C 
ENDROOT
BRANCH   9  14
HETATM   14  C13 UNL     1     -13.468 -18.035  45.758  1.00  0.00     0.055 C 
HETATM   15  C14 UNL     1     -13.223 -18.260  47.209  1.00  0.00     0.045 C 
HETATM   16  C15 UNL     1     -13.042 -19.221  44.937  1.00  0.00     0.045 C 
BRANCH  14  17
HETATM   17  O1  UNL     1     -12.508 -17.041  45.400  1.00  0.00    -0.390 OA
ATOM     18  H1  UNL     1     -12.425 -16.508  46.181  1.00  0.00     0.210 HD
ENDBRANCH  14  17
ENDBRANCH   9  14
BRANCH   7  19
HETATM   19  C8  UNL     1     -15.208 -14.110  44.643  1.00  0.00     0.005 C 
BRANCH  19  20
HETATM   20  C9  UNL     1     -13.940 -13.455  44.254  1.00  0.00    -0.004 C 
HETATM   21  C10 UNL     1     -13.192 -12.826  45.405  1.00  0.00     0.005 C 
ENDBRANCH  19  20
ENDBRANCH   7  19
TORSDOF 4
ENDMDL
MODEL 2
REMARK VINA RESULT: -6.028540967      2.666      4.092
REMARK  4 active torsions:
REMARK  status: ('A' for Active; 'I' for Inactive)
REMARK    1  A    between atoms: C7_7  and  C8_8 
REMARK    2  A    between atoms: C8_8  and  C9_9 
REMARK    3  A    between atoms: C12_12  and  C13_13 
REMARK    4  A    between atoms: C13_13  and  O1_16 
ROOT
HETATM    1  C1  UNL     1     -16.252 -20.788  45.221  1.00  0.00     0.015 C 
HETATM    2  C2  UNL     1     -17.062 -20.154  44.382  1.00  0.00    -0.076 C 
HETATM    3  C3  UNL     1     -16.596 -19.710  43.033  1.00  0.00     0.020 C 
HETATM    4  C4  UNL     1     -15.710 -18.485  43.050  1.00  0.00     0.019 C 
HETATM    5  C5  UNL     1     -17.018 -17.673  43.066  1.00  0.00    -0.035 C 
HETATM    6  C6  UNL     1     -16.853 -16.582  41.988  1.00  0.00     0.016 C 
HETATM    7  C7  UNL     1     -17.191 -17.004  44.367  1.00  0.00    -0.005 C 
HETATM    8  C11 UNL     1     -17.609 -17.779  45.541  1.00  0.00     0.014 C 
HETATM    9  C12 UNL     1     -18.804 -18.674  45.450  1.00  0.00     0.032 C 
HETATM   10  C16 UNL     1     -18.501 -19.800  44.593  1.00  0.00    -0.014 C 
HETATM   11  C17 UNL     1     -19.196 -21.114  44.801  1.00  0.00     0.020 C 
HETATM   12  C18 UNL     1     -18.925 -19.366  43.170  1.00  0.00     0.020 C 
HETATM   13  C19 UNL     1     -17.718 -18.799  42.589  1.00  0.00     0.003 C 
ENDROOT
BRANCH   9  14
HETATM   14  C13 UNL     1     -19.335 -18.882  46.832  1.00  0.00     0.055 C 
HETATM   15  C14 UNL     1     -20.781 -19.216  46.953  1.00  0.00     0.045 C 
HETATM   16  C15 UNL     1     -18.493 -19.746  47.729  1.00  0.00     0.045 C 
BRANCH  14  17
HETATM   17  O1  UNL     1     -19.230 -17.596  47.443  1.00  0.00    -0.390 OA
ATOM     18  H1  UNL     1     -18.321 -17.352  47.315  1.00  0.00     0.210 HD
ENDBRANCH  14  17
ENDBRANCH   9  14
BRANCH   7  19
HETATM   19  C8  UNL     1     -17.845 -15.630  44.209  1.00  0.00     0.005 C 
BRANCH  19  20
HETATM   20  C9  UNL     1     -17.285 -14.561  45.064  1.00  0.00    -0.004 C 
HETATM   21  C10 UNL     1     -16.434 -13.560  44.321  1.00  0.00     0.005 C 
ENDBRANCH  19  20
ENDBRANCH   7  19
TORSDOF 4
ENDMDL
MODEL 3
REMARK VINA RESULT: -5.897662250      1.421      4.128
REMARK  4 active torsions:
REMARK  status: ('A' for Active; 'I' for Inactive)
REMARK    1  A    between atoms: C7_7  and  C8_8 
REMARK    2  A    between atoms: C8_8  and  C9_9 
REMARK    3  A    between atoms: C12_12  and  C13_13 
REMARK    4  A    between atoms: C13_13  and  O1_16 
ROOT
HETATM    1  C1  UNL     1     -18.103 -16.189  45.861  1.00  0.00     0.015 C 
HETATM    2  C2  UNL     1     -17.583 -16.871  44.847  1.00  0.00    -0.076 C 
HETATM    3  C3  UNL     1     -17.882 -18.322  44.648  1.00  0.00     0.020 C 
HETATM    4  C4  UNL     1     -17.152 -19.245  45.598  1.00  0.00     0.019 C 
HETATM    5  C5  UNL     1     -15.980 -19.164  44.604  1.00  0.00    -0.035 C 
HETATM    6  C6  UNL     1     -15.515 -20.618  44.377  1.00  0.00     0.016 C 
HETATM    7  C7  UNL     1     -14.857 -18.416  45.195  1.00  0.00    -0.005 C 
HETATM    8  C11 UNL     1     -14.925 -16.954  45.300  1.00  0.00     0.014 C 
HETATM    9  C12 UNL     1     -15.287 -16.141  44.098  1.00  0.00     0.032 C 
HETATM   10  C16 UNL     1     -16.680 -16.359  43.769  1.00  0.00    -0.014 C 
HETATM   11  C17 UNL     1     -17.469 -15.284  43.081  1.00  0.00     0.020 C 
HETATM   12  C18 UNL     1     -16.691 -17.540  42.769  1.00  0.00     0.020 C 
HETATM   13  C19 UNL     1     -16.865 -18.719  43.602  1.00  0.00     0.003 C 
ENDROOT
BRANCH   9  14
HETATM   14  C13 UNL     1     -14.752 -14.759  44.293  1.00  0.00     0.055 C 
HETATM   15  C14 UNL     1     -15.752 -13.666  44.444  1.00  0.00     0.045 C 
HETATM   16  C15 UNL     1     -13.637 -14.627  45.293  1.00  0.00     0.045 C 
BRANCH  14  17
HETATM   17  O1  UNL     1     -14.104 -14.459  43.056  1.00  0.00    -0.390 OA
ATOM     18  H1  UNL     1     -14.083 -13.510  43.030  1.00  0.00     0.210 HD
ENDBRANCH  14  17
ENDBRANCH   9  14
BRANCH   7  19
HETATM   19  C8  UNL     1     -13.508 -18.991  44.760  1.00  0.00     0.005 C 
BRANCH  19  20
HETATM   20  C9  UNL     1     -12.334 -18.474  45.497  1.00  0.00    -0.004 C 
HETATM   21  C10 UNL     1     -11.332 -17.750  44.629  1.00  0.00     0.005 C 
ENDBRANCH  19  20
ENDBRANCH   7  19
TORSDOF 4
ENDMDL
MODEL 4
REMARK VINA RESULT: -5.763313733      0.722      1.000
REMARK  4 active torsions:
REMARK  status: ('A' for Active; 'I' for Inactive)
REMARK    1  A    between atoms: C7_7  and  C8_8 
REMARK    2  A    between atoms: C8_8  and  C9_9 
REMARK    3  A    between atoms: C12_12  and  C13_13 
REMARK    4  A    between atoms: C13_13  and  O1_16 
ROOT
HETATM    1  C1  UNL     1     -15.848 -19.184  42.799  1.00  0.00     0.015 C 
HETATM    2  C2  UNL     1     -16.356 -18.374  43.719  1.00  0.00    -0.076 C 
HETATM    3  C3  UNL     1     -17.531 -17.498  43.423  1.00  0.00     0.020 C 
HETATM    4  C4  UNL     1     -17.209 -16.284  42.581  1.00  0.00     0.019 C 
HETATM    5  C5  UNL     1     -16.808 -15.608  43.904  1.00  0.00    -0.035 C 
HETATM    6  C6  UNL     1     -17.491 -14.225  43.897  1.00  0.00     0.016 C 
HETATM    7  C7  UNL     1     -15.351 -15.394  43.950  1.00  0.00    -0.005 C 
HETATM    8  C11 UNL     1     -14.452 -16.526  44.207  1.00  0.00     0.014 C 
HETATM    9  C12 UNL     1     -14.707 -17.424  45.375  1.00  0.00     0.032 C 
HETATM   10  C16 UNL     1     -15.905 -18.201  45.136  1.00  0.00    -0.014 C 
HETATM   11  C17 UNL     1     -16.061 -19.556  45.760  1.00  0.00     0.020 C 
HETATM   12  C18 UNL     1     -17.066 -17.370  45.732  1.00  0.00     0.020 C 
HETATM   13  C19 UNL     1     -17.549 -16.571  44.617  1.00  0.00     0.003 C 
ENDROOT
BRANCH   9  14
HETATM   14  C13 UNL     1     -13.419 -18.091  45.739  1.00  0.00     0.055 C 
HETATM   15  C14 UNL     1     -12.182 -17.550  45.112  1.00  0.00     0.045 C 
HETATM   16  C15 UNL     1     -13.220 -18.365  47.204  1.00  0.00     0.045 C 
BRANCH  14  17
HETATM   17  O1  UNL     1     -13.538 -19.401  45.185  1.00  0.00    -0.390 OA
ATOM     18  H1  UNL     1     -12.846 -19.895  45.608  1.00  0.00     0.210 HD
ENDBRANCH  14  17
ENDBRANCH   9  14
BRANCH   7  19
HETATM   19  C8  UNL     1     -14.997 -14.088  44.662  1.00  0.00     0.005 C 
BRANCH  19  20
HETATM   20  C9  UNL     1     -13.585 -13.960  45.083  1.00  0.00    -0.004 C 
HETATM   21  C10 UNL     1     -13.173 -12.552  45.441  1.00  0.00     0.005 C 
ENDBRANCH  19  20
ENDBRANCH   7  19
TORSDOF 4
ENDMDL
MODEL 5
REMARK VINA RESULT: -5.732690556      2.037      4.921
REMARK  4 active torsions:
REMARK  status: ('A' for Active; 'I' for Inactive)
REMARK    1  A    between atoms: C7_7  and  C8_8 
REMARK    2  A    between atoms: C8_8  and  C9_9 
REMARK    3  A    between atoms: C12_12  and  C13_13 
REMARK    4  A    between atoms: C13_13  and  O1_16 
ROOT
HETATM    1  C1  UNL     1     -15.676 -18.239  46.808  1.00  0.00     0.015 C 
HETATM    2  C2  UNL     1     -16.662 -18.633  46.011  1.00  0.00    -0.076 C 
HETATM    3  C3  UNL     1     -16.988 -20.081  45.831  1.00  0.00     0.020 C 
HETATM    4  C4  UNL     1     -16.019 -20.833  44.947  1.00  0.00     0.019 C 
HETATM    5  C5  UNL     1     -16.858 -20.311  43.767  1.00  0.00    -0.035 C 
HETATM    6  C6  UNL     1     -17.121 -21.531  42.861  1.00  0.00     0.016 C 
HETATM    7  C7  UNL     1     -16.089 -19.324  42.989  1.00  0.00    -0.005 C 
HETATM    8  C11 UNL     1     -15.899 -17.966  43.511  1.00  0.00     0.014 C 
HETATM    9  C12 UNL     1     -17.081 -17.184  43.988  1.00  0.00     0.032 C 
HETATM   10  C16 UNL     1     -17.589 -17.773  45.210  1.00  0.00    -0.014 C 
HETATM   11  C17 UNL     1     -18.295 -16.919  46.221  1.00  0.00     0.020 C 
HETATM   12  C18 UNL     1     -18.656 -18.800  44.765  1.00  0.00     0.020 C 
HETATM   13  C19 UNL     1     -17.928 -20.053  44.647  1.00  0.00     0.003 C 
ENDROOT
BRANCH   9  14
HETATM   14  C13 UNL     1     -16.736 -15.731  43.923  1.00  0.00     0.055 C 
HETATM   15  C14 UNL     1     -17.873 -14.770  43.905  1.00  0.00     0.045 C 
HETATM   16  C15 UNL     1     -15.647 -15.278  44.856  1.00  0.00     0.045 C 
BRANCH  14  17
HETATM   17  O1  UNL     1     -16.136 -15.574  42.637  1.00  0.00    -0.390 OA
ATOM     18  H1  UNL     1     -15.226 -15.382  42.828  1.00  0.00     0.210 HD
ENDBRANCH  14  17
ENDBRANCH   9  14
BRANCH   7  19
HETATM   19  C8  UNL     1     -16.396 -19.427  41.494  1.00  0.00     0.005 C 
BRANCH  19  20
HETATM   20  C9  UNL     1     -17.409 -18.474  40.990  1.00  0.00    -0.004 C 
HETATM   21  C10 UNL     1     -18.754 -19.098  40.705  1.00  0.00     0.005 C 
ENDBRANCH  19  20
ENDBRANCH   7  19
TORSDOF 4
ENDMDL
