MODEL 1
REMARK VINA RESULT: -7.496904479      0.000      0.000
REMARK  9 active torsions:
REMARK  status: ('A' for Active; 'I' for Inactive)
REMARK    1  A    between atoms: O1_2  and  C2_3 
REMARK    2  A    between atoms: C3_4  and  N1_5 
REMARK    3  A    between atoms: C6_10  and  N3_11 
REMARK    4  A    between atoms: C7_15  and  O2_16 
REMARK    5  A    between atoms: O2_16  and  C8_17 
REMARK    6  A    between atoms: C9_18  and  O3_19 
REMARK    7  A    between atoms: C10_21  and  N4_22 
REMARK    8  A    between atoms: C12_27  and  N5_28 
REMARK    9  A    between atoms: C13_32  and  O4_33 
ROOT
HETATM    1  C8  UNL     1      17.606  30.193  10.271  1.00  0.00     0.183 C 
HETATM    2  C9  UNL     1      18.459  31.321  10.700  1.00  0.00     0.180 C 
HETATM    3  C10 UNL     1      18.820  32.336   9.673  1.00  0.00     0.216 C 
HETATM    4  C11 UNL     1      19.203  31.710   8.380  1.00  0.00     0.071 C 
HETATM    5  C12 UNL     1      18.164  30.732   7.866  1.00  0.00     0.216 C 
HETATM    6  C13 UNL     1      17.814  29.690   8.870  1.00  0.00     0.180 C 
ENDROOT
BRANCH   1   7
HETATM    7  O2  UNL     1      17.922  29.098  11.105  1.00  0.00    -0.371 OA
BRANCH   7   8
HETATM    8  C7  UNL     1      17.207  29.073  12.276  1.00  0.00     0.183 C 
HETATM    9  C2  UNL     1      17.226  27.677  12.829  1.00  0.00     0.174 C 
HETATM   10  C3  UNL     1      15.776  27.226  12.846  1.00  0.00     0.115 C 
HETATM   11  C5  UNL     1      15.237  27.918  11.611  1.00  0.00     0.063 C 
HETATM   12  C6  UNL     1      15.745  29.336  11.860  1.00  0.00     0.216 C 
BRANCH   9  13
HETATM   13  O1  UNL     1      17.805  27.573  14.090  1.00  0.00    -0.386 OA
HETATM   14  C1  UNL     1      18.767  28.522  14.353  1.00  0.00     0.202 C 
ENDBRANCH   9  13
BRANCH  10  15
HETATM   15  N1  UNL     1      15.638  25.803  12.804  1.00  0.00    -0.381 N 
HETATM   16  C4  UNL     1      15.139  25.184  11.808  1.00  0.00     0.185 C 
HETATM   17  N2  UNL     1      15.002  23.774  11.764  1.00  0.00    -0.097 NA
ATOM     18  H1  UNL     1      15.954  25.260  13.607  1.00  0.00     0.160 HD
ENDBRANCH  10  15
BRANCH  12  19
HETATM   19  N3  UNL     1      15.012  29.987  12.906  1.00  0.00    -0.072 N 
ATOM     20  H33 UNL     1      15.431  30.885  13.151  1.00  0.00     0.274 HD
ATOM     21  H32 UNL     1      14.107  30.320  12.573  1.00  0.00     0.274 HD
ATOM     22  H31 UNL     1      14.911  29.389  13.725  1.00  0.00     0.274 HD
ENDBRANCH  12  19
ENDBRANCH   7   8
ENDBRANCH   1   7
BRANCH   2  23
HETATM   23  O3  UNL     1      17.787  31.971  11.765  1.00  0.00    -0.391 OA
ATOM     24  H3  UNL     1      16.951  32.269  11.426  1.00  0.00     0.210 HD
ENDBRANCH   2  23
BRANCH   6  25
HETATM   25  O4  UNL     1      18.872  28.752   8.890  1.00  0.00    -0.391 OA
ATOM     26  H4  UNL     1      18.858  28.272   8.071  1.00  0.00     0.210 HD
ENDBRANCH   6  25
BRANCH   3  27
HETATM   27  N4  UNL     1      17.813  33.374   9.525  1.00  0.00    -0.072 N 
ATOM     28  H43 UNL     1      17.096  33.093   8.856  1.00  0.00     0.274 HD
ATOM     29  H42 UNL     1      17.239  33.447  10.364  1.00  0.00     0.274 HD
ATOM     30  H41 UNL     1      18.210  34.279   9.274  1.00  0.00     0.274 HD
ENDBRANCH   3  27
BRANCH   5  31
HETATM   31  N5  UNL     1      17.024  31.386   7.280  1.00  0.00    -0.072 N 
ATOM     32  H53 UNL     1      17.011  32.377   7.518  1.00  0.00     0.274 HD
ATOM     33  H52 UNL     1      17.126  31.459   6.269  1.00  0.00     0.274 HD
ATOM     34  H51 UNL     1      16.141  30.938   7.527  1.00  0.00     0.274 HD
ENDBRANCH   5  31
TORSDOF 9
ENDMDL
MODEL 2
REMARK VINA RESULT: -7.306393852      3.515      4.571
REMARK  9 active torsions:
REMARK  status: ('A' for Active; 'I' for Inactive)
REMARK    1  A    between atoms: O1_2  and  C2_3 
REMARK    2  A    between atoms: C3_4  and  N1_5 
REMARK    3  A    between atoms: C6_10  and  N3_11 
REMARK    4  A    between atoms: C7_15  and  O2_16 
REMARK    5  A    between atoms: O2_16  and  C8_17 
REMARK    6  A    between atoms: C9_18  and  O3_19 
REMARK    7  A    between atoms: C10_21  and  N4_22 
REMARK    8  A    between atoms: C12_27  and  N5_28 
REMARK    9  A    between atoms: C13_32  and  O4_33 
ROOT
HETATM    1  C8  UNL     1      18.710  29.086  12.364  1.00  0.00     0.183 C 
HETATM    2  C9  UNL     1      18.076  30.189  11.611  1.00  0.00     0.180 C 
HETATM    3  C10 UNL     1      18.354  30.270  10.152  1.00  0.00     0.216 C 
HETATM    4  C11 UNL     1      19.789  30.038   9.842  1.00  0.00     0.071 C 
HETATM    5  C12 UNL     1      20.324  28.754  10.447  1.00  0.00     0.216 C 
HETATM    6  C13 UNL     1      20.083  28.670  11.914  1.00  0.00     0.180 C 
ENDROOT
BRANCH   1   7
HETATM    7  O2  UNL     1      18.880  29.537  13.691  1.00  0.00    -0.371 OA
BRANCH   7   8
HETATM    8  C7  UNL     1      17.746  29.436  14.457  1.00  0.00     0.183 C 
HETATM    9  C2  UNL     1      18.072  29.837  15.867  1.00  0.00     0.174 C 
HETATM   10  C3  UNL     1      17.812  28.602  16.712  1.00  0.00     0.115 C 
HETATM   11  C5  UNL     1      18.215  27.499  15.755  1.00  0.00     0.063 C 
HETATM   12  C6  UNL     1      17.435  27.926  14.514  1.00  0.00     0.216 C 
BRANCH   9  13
HETATM   13  O1  UNL     1      17.347  30.931  16.329  1.00  0.00    -0.386 OA
HETATM   14  C1  UNL     1      16.876  31.759  15.336  1.00  0.00     0.202 C 
ENDBRANCH   9  13
BRANCH  10  15
HETATM   15  N1  UNL     1      18.560  28.598  17.930  1.00  0.00    -0.381 N 
HETATM   16  C4  UNL     1      18.191  27.956  18.968  1.00  0.00     0.185 C 
HETATM   17  N2  UNL     1      18.932  27.949  20.177  1.00  0.00    -0.097 NA
ATOM     18  H1  UNL     1      19.428  29.132  17.971  1.00  0.00     0.160 HD
ENDBRANCH  10  15
BRANCH  12  19
HETATM   19  N3  UNL     1      16.029  27.687  14.663  1.00  0.00    -0.072 N 
ATOM     20  H33 UNL     1      15.812  27.300  15.582  1.00  0.00     0.274 HD
ATOM     21  H32 UNL     1      15.508  28.562  14.733  1.00  0.00     0.274 HD
ATOM     22  H31 UNL     1      15.665  27.096  13.916  1.00  0.00     0.274 HD
ENDBRANCH  12  19
ENDBRANCH   7   8
ENDBRANCH   1   7
BRANCH   2  23
HETATM   23  O3  UNL     1      16.677  30.073  11.802  1.00  0.00    -0.391 OA
ATOM     24  H3  UNL     1      16.357  30.932  12.051  1.00  0.00     0.210 HD
ENDBRANCH   2  23
BRANCH   6  25
HETATM   25  O4  UNL     1      21.028  29.511  12.545  1.00  0.00    -0.391 OA
ATOM     26  H4  UNL     1      20.879  29.473  13.483  1.00  0.00     0.210 HD
ENDBRANCH   6  25
BRANCH   3  27
HETATM   27  N4  UNL     1      17.461  29.441   9.358  1.00  0.00    -0.072 N 
ATOM     28  H43 UNL     1      17.327  29.836   8.428  1.00  0.00     0.274 HD
ATOM     29  H42 UNL     1      17.911  28.562   9.104  1.00  0.00     0.274 HD
ATOM     30  H41 UNL     1      16.565  29.273   9.815  1.00  0.00     0.274 HD
ENDBRANCH   3  27
BRANCH   5  31
HETATM   31  N5  UNL     1      19.916  27.583   9.719  1.00  0.00    -0.072 N 
ATOM     32  H53 UNL     1      19.106  27.781   9.133  1.00  0.00     0.274 HD
ATOM     33  H52 UNL     1      20.593  27.350   8.993  1.00  0.00     0.274 HD
ATOM     34  H51 UNL     1      19.741  26.781  10.326  1.00  0.00     0.274 HD
ENDBRANCH   5  31
TORSDOF 9
ENDMDL
MODEL 3
REMARK VINA RESULT: -7.118743626      2.603      3.392
REMARK  9 active torsions:
REMARK  status: ('A' for Active; 'I' for Inactive)
REMARK    1  A    between atoms: O1_2  and  C2_3 
REMARK    2  A    between atoms: C3_4  and  N1_5 
REMARK    3  A    between atoms: C6_10  and  N3_11 
REMARK    4  A    between atoms: C7_15  and  O2_16 
REMARK    5  A    between atoms: O2_16  and  C8_17 
REMARK    6  A    between atoms: C9_18  and  O3_19 
REMARK    7  A    between atoms: C10_21  and  N4_22 
REMARK    8  A    between atoms: C12_27  and  N5_28 
REMARK    9  A    between atoms: C13_32  and  O4_33 
ROOT
HETATM    1  C8  UNL     1      19.112  29.551  11.958  1.00  0.00     0.183 C 
HETATM    2  C9  UNL     1      18.975  30.465  10.804  1.00  0.00     0.180 C 
HETATM    3  C10 UNL     1      19.404  29.956   9.473  1.00  0.00     0.216 C 
HETATM    4  C11 UNL     1      20.693  29.217   9.546  1.00  0.00     0.071 C 
HETATM    5  C12 UNL     1      20.688  28.121  10.594  1.00  0.00     0.216 C 
HETATM    6  C13 UNL     1      20.293  28.620  11.940  1.00  0.00     0.180 C 
ENDROOT
BRANCH   1   7
HETATM    7  O2  UNL     1      19.299  30.358  13.102  1.00  0.00    -0.371 OA
BRANCH   7   8
HETATM    8  C7  UNL     1      18.582  29.940  14.195  1.00  0.00     0.183 C 
HETATM    9  C2  UNL     1      17.566  28.927  13.754  1.00  0.00     0.174 C 
HETATM   10  C3  UNL     1      16.214  29.538  14.077  1.00  0.00     0.115 C 
HETATM   11  C5  UNL     1      16.488  31.007  13.833  1.00  0.00     0.063 C 
HETATM   12  C6  UNL     1      17.773  31.175  14.640  1.00  0.00     0.216 C 
BRANCH   9  13
HETATM   13  O1  UNL     1      17.714  27.677  14.347  1.00  0.00    -0.386 OA
HETATM   14  C1  UNL     1      18.560  27.661  15.433  1.00  0.00     0.202 C 
ENDBRANCH   9  13
BRANCH  10  15
HETATM   15  N1  UNL     1      15.161  29.014  13.264  1.00  0.00    -0.381 N 
HETATM   16  C4  UNL     1      15.339  28.633  12.061  1.00  0.00     0.185 C 
HETATM   17  N2  UNL     1      14.296  28.113  11.253  1.00  0.00    -0.097 NA
ATOM     18  H1  UNL     1      14.226  28.943  13.665  1.00  0.00     0.160 HD
ENDBRANCH  10  15
BRANCH  12  19
HETATM   19  N3  UNL     1      17.519  31.154  16.051  1.00  0.00    -0.072 N 
ATOM     20  H33 UNL     1      17.016  30.311  16.327  1.00  0.00     0.274 HD
ATOM     21  H32 UNL     1      18.379  31.007  16.581  1.00  0.00     0.274 HD
ATOM     22  H31 UNL     1      17.031  31.995  16.359  1.00  0.00     0.274 HD
ENDBRANCH  12  19
ENDBRANCH   7   8
ENDBRANCH   1   7
BRANCH   2  23
HETATM   23  O3  UNL     1      17.612  30.841  10.730  1.00  0.00    -0.391 OA
ATOM     24  H3  UNL     1      17.409  30.974   9.811  1.00  0.00     0.210 HD
ENDBRANCH   2  23
BRANCH   6  25
HETATM   25  O4  UNL     1      21.405  29.307  12.479  1.00  0.00    -0.391 OA
ATOM     26  H4  UNL     1      21.292  30.235  12.308  1.00  0.00     0.210 HD
ENDBRANCH   6  25
BRANCH   3  27
HETATM   27  N4  UNL     1      18.361  29.209   8.790  1.00  0.00    -0.072 N 
ATOM     28  H43 UNL     1      17.638  28.911   9.445  1.00  0.00     0.274 HD
ATOM     29  H42 UNL     1      17.804  29.821   8.195  1.00  0.00     0.274 HD
ATOM     30  H41 UNL     1      18.722  28.416   8.261  1.00  0.00     0.274 HD
ENDBRANCH   3  27
BRANCH   5  31
HETATM   31  N5  UNL     1      19.972  26.949  10.171  1.00  0.00    -0.072 N 
ATOM     32  H53 UNL     1      19.003  27.174   9.948  1.00  0.00     0.274 HD
ATOM     33  H52 UNL     1      20.286  26.641   9.252  1.00  0.00     0.274 HD
ATOM     34  H51 UNL     1      20.024  26.187  10.849  1.00  0.00     0.274 HD
ENDBRANCH   5  31
TORSDOF 9
ENDMDL
MODEL 4
REMARK VINA RESULT: -7.014186889      2.519      5.918
REMARK  9 active torsions:
REMARK  status: ('A' for Active; 'I' for Inactive)
REMARK    1  A    between atoms: O1_2  and  C2_3 
REMARK    2  A    between atoms: C3_4  and  N1_5 
REMARK    3  A    between atoms: C6_10  and  N3_11 
REMARK    4  A    between atoms: C7_15  and  O2_16 
REMARK    5  A    between atoms: O2_16  and  C8_17 
REMARK    6  A    between atoms: C9_18  and  O3_19 
REMARK    7  A    between atoms: C10_21  and  N4_22 
REMARK    8  A    between atoms: C12_27  and  N5_28 
REMARK    9  A    between atoms: C13_32  and  O4_33 
ROOT
HETATM    1  C8  UNL     1      17.922  29.267  12.582  1.00  0.00     0.183 C 
HETATM    2  C9  UNL     1      16.543  28.874  12.225  1.00  0.00     0.180 C 
HETATM    3  C10 UNL     1      15.464  29.207  13.194  1.00  0.00     0.216 C 
HETATM    4  C11 UNL     1      15.861  28.915  14.597  1.00  0.00     0.071 C 
HETATM    5  C12 UNL     1      17.182  29.553  14.982  1.00  0.00     0.216 C 
HETATM    6  C13 UNL     1      18.281  29.203  14.041  1.00  0.00     0.180 C 
ENDROOT
BRANCH   1   7
HETATM    7  O2  UNL     1      18.789  28.347  11.951  1.00  0.00    -0.371 OA
BRANCH   7   8
HETATM    8  C7  UNL     1      19.851  28.938  11.315  1.00  0.00     0.183 C 
HETATM    9  C2  UNL     1      19.584  30.409  11.183  1.00  0.00     0.174 C 
HETATM   10  C3  UNL     1      19.542  30.684   9.689  1.00  0.00     0.115 C 
HETATM   11  C5  UNL     1      18.932  29.398   9.171  1.00  0.00     0.063 C 
HETATM   12  C6  UNL     1      19.820  28.378   9.878  1.00  0.00     0.216 C 
BRANCH   9  13
HETATM   13  O1  UNL     1      20.520  31.217  11.822  1.00  0.00    -0.386 OA
HETATM   14  C1  UNL     1      21.448  30.528  12.569  1.00  0.00     0.202 C 
ENDBRANCH   9  13
BRANCH  10  15
HETATM   15  N1  UNL     1      18.779  31.847   9.361  1.00  0.00    -0.381 N 
HETATM   16  C4  UNL     1      18.637  32.269   8.167  1.00  0.00     0.185 C 
HETATM   17  N2  UNL     1      17.880  33.422   7.839  1.00  0.00    -0.097 NA
ATOM     18  H1  UNL     1      18.328  32.362  10.117  1.00  0.00     0.160 HD
ENDBRANCH  10  15
BRANCH  12  19
HETATM   19  N3  UNL     1      21.134  28.332   9.306  1.00  0.00    -0.072 N 
ATOM     20  H33 UNL     1      21.099  28.383   8.287  1.00  0.00     0.274 HD
ATOM     21  H32 UNL     1      21.650  29.192   9.490  1.00  0.00     0.274 HD
ATOM     22  H31 UNL     1      21.654  27.512   9.619  1.00  0.00     0.274 HD
ENDBRANCH  12  19
ENDBRANCH   7   8
ENDBRANCH   1   7
BRANCH   2  23
HETATM   23  O3  UNL     1      16.244  29.485  10.983  1.00  0.00    -0.391 OA
ATOM     24  H3  UNL     1      15.452  29.076  10.654  1.00  0.00     0.210 HD
ENDBRANCH   2  23
BRANCH   6  25
HETATM   25  O4  UNL     1      18.687  27.882  14.339  1.00  0.00    -0.391 OA
ATOM     26  H4  UNL     1      17.928  27.401  14.648  1.00  0.00     0.210 HD
ENDBRANCH   6  25
BRANCH   3  27
HETATM   27  N4  UNL     1      14.945  30.554  13.021  1.00  0.00    -0.072 N 
ATOM     28  H43 UNL     1      15.694  31.207  12.794  1.00  0.00     0.274 HD
ATOM     29  H42 UNL     1      14.396  30.626  12.165  1.00  0.00     0.274 HD
ATOM     30  H41 UNL     1      14.409  30.879  13.826  1.00  0.00     0.274 HD
ENDBRANCH   3  27
BRANCH   5  31
HETATM   31  N5  UNL     1      17.064  30.961  15.246  1.00  0.00    -0.072 N 
ATOM     32  H53 UNL     1      16.160  31.317  14.937  1.00  0.00     0.274 HD
ATOM     33  H52 UNL     1      16.979  31.139  16.247  1.00  0.00     0.274 HD
ATOM     34  H51 UNL     1      17.828  31.505  14.843  1.00  0.00     0.274 HD
ENDBRANCH   5  31
TORSDOF 9
ENDMDL
MODEL 5
REMARK VINA RESULT: -6.997091240      1.501      3.150
REMARK  9 active torsions:
REMARK  status: ('A' for Active; 'I' for Inactive)
REMARK    1  A    between atoms: O1_2  and  C2_3 
REMARK    2  A    between atoms: C3_4  and  N1_5 
REMARK    3  A    between atoms: C6_10  and  N3_11 
REMARK    4  A    between atoms: C7_15  and  O2_16 
REMARK    5  A    between atoms: O2_16  and  C8_17 
REMARK    6  A    between atoms: C9_18  and  O3_19 
REMARK    7  A    between atoms: C10_21  and  N4_22 
REMARK    8  A    between atoms: C12_27  and  N5_28 
REMARK    9  A    between atoms: C13_32  and  O4_33 
ROOT
HETATM    1  C8  UNL     1      17.608  30.362   9.976  1.00  0.00     0.183 C 
HETATM    2  C9  UNL     1      18.463  31.451  10.492  1.00  0.00     0.180 C 
HETATM    3  C10 UNL     1      18.815  32.549   9.551  1.00  0.00     0.216 C 
HETATM    4  C11 UNL     1      19.189  32.034   8.207  1.00  0.00     0.071 C 
HETATM    5  C12 UNL     1      18.147  31.101   7.620  1.00  0.00     0.216 C 
HETATM    6  C13 UNL     1      17.806  29.978   8.536  1.00  0.00     0.180 C 
ENDROOT
BRANCH   1   7
HETATM    7  O2  UNL     1      17.931  29.201  10.713  1.00  0.00    -0.371 OA
BRANCH   7   8
HETATM    8  C7  UNL     1      16.834  28.514  11.168  1.00  0.00     0.183 C 
HETATM    9  C2  UNL     1      16.198  29.292  12.283  1.00  0.00     0.174 C 
HETATM   10  C3  UNL     1      16.292  28.400  13.509  1.00  0.00     0.115 C 
HETATM   11  C5  UNL     1      17.612  27.700  13.263  1.00  0.00     0.063 C 
HETATM   12  C6  UNL     1      17.404  27.238  11.823  1.00  0.00     0.216 C 
BRANCH   9  13
HETATM   13  O1  UNL     1      14.883  29.673  12.032  1.00  0.00    -0.386 OA
HETATM   14  C1  UNL     1      14.240  28.905  11.088  1.00  0.00     0.202 C 
ENDBRANCH   9  13
BRANCH  10  15
HETATM   15  N1  UNL     1      16.260  29.138  14.733  1.00  0.00    -0.381 N 
HETATM   16  C4  UNL     1      17.047  30.110  14.978  1.00  0.00     0.185 C 
HETATM   17  N2  UNL     1      17.017  30.843  16.191  1.00  0.00    -0.097 NA
ATOM     18  H1  UNL     1      15.576  28.874  15.443  1.00  0.00     0.160 HD
ENDBRANCH  10  15
BRANCH  12  19
HETATM   19  N3  UNL     1      16.474  26.149  11.745  1.00  0.00    -0.072 N 
ATOM     20  H33 UNL     1      16.915  25.311  11.366  1.00  0.00     0.274 HD
ATOM     21  H32 UNL     1      16.235  25.798  12.672  1.00  0.00     0.274 HD
ATOM     22  H31 UNL     1      15.640  26.402  11.216  1.00  0.00     0.274 HD
ENDBRANCH  12  19
ENDBRANCH   7   8
ENDBRANCH   1   7
BRANCH   2  23
HETATM   23  O3  UNL     1      17.797  32.009  11.612  1.00  0.00    -0.391 OA
ATOM     24  H3  UNL     1      16.880  31.774  11.537  1.00  0.00     0.210 HD
ENDBRANCH   2  23
BRANCH   6  25
HETATM   25  O4  UNL     1      18.865  29.044   8.470  1.00  0.00    -0.391 OA
ATOM     26  H4  UNL     1      18.738  28.505   7.698  1.00  0.00     0.210 HD
ENDBRANCH   6  25
BRANCH   3  27
HETATM   27  N4  UNL     1      17.806  33.594   9.497  1.00  0.00    -0.072 N 
ATOM     28  H43 UNL     1      17.313  33.671  10.386  1.00  0.00     0.274 HD
ATOM     29  H42 UNL     1      18.238  34.517   9.467  1.00  0.00     0.274 HD
ATOM     30  H41 UNL     1      17.150  33.473   8.726  1.00  0.00     0.274 HD
ENDBRANCH   3  27
BRANCH   5  31
HETATM   31  N5  UNL     1      17.003  31.799   7.100  1.00  0.00    -0.072 N 
ATOM     32  H53 UNL     1      17.226  32.776   6.911  1.00  0.00     0.274 HD
ATOM     33  H52 UNL     1      16.787  31.492   6.152  1.00  0.00     0.274 HD
ATOM     34  H51 UNL     1      16.184  31.723   7.704  1.00  0.00     0.274 HD
ENDBRANCH   5  31
TORSDOF 9
ENDMDL
