MODEL 1
REMARK VINA RESULT: -7.609215786      0.000      0.000
REMARK  12 active torsions:
REMARK  status: ('A' for Active; 'I' for Inactive)
REMARK    1  A    between atoms: O1_1  and  C1_3 
REMARK    2  A    between atoms: C1_3  and  N1_4 
REMARK    3  A    between atoms: N1_4  and  C2_6 
REMARK    4  A    between atoms: N3_10  and  C4_12 
REMARK    5  A    between atoms: C4_12  and  C5_13 
REMARK    6  A    between atoms: C5_13  and  O2_14 
REMARK    7  A    between atoms: N6_23  and  C9_24 
REMARK    8  A    between atoms: C9_24  and  O3_25 
REMARK    9  A    between atoms: C9_24  and  C10_27 
REMARK   10  A    between atoms: C9_24  and  C11_30 
REMARK   11  A    between atoms: C10_27  and  O4_28 
REMARK   12  A    between atoms: C11_30  and  O5_31 
ROOT
HETATM    1  C2  UNL     1      20.514  23.606  40.221  1.00  0.00     0.688 A 
HETATM    2  N2  UNL     1      20.869  23.925  38.963  1.00  0.00    -0.174 N 
ATOM      3  H2  UNL     1      20.715  23.237  38.226  1.00  0.00     0.186 HD
HETATM    4  C3  UNL     1      21.420  25.108  38.629  1.00  0.00     0.147 A 
HETATM    5  N3  UNL     1      21.745  25.381  37.434  1.00  0.00    -0.372 N 
ATOM      6  H3  UNL     1      21.572  24.665  36.729  1.00  0.00     0.161 HD
HETATM    7  C6  UNL     1      21.608  26.004  39.667  1.00  0.00     0.123 A 
HETATM    8  N4  UNL     1      22.133  27.268  39.649  1.00  0.00    -0.346 N 
ATOM      9  H4  UNL     1      22.483  27.768  38.832  1.00  0.00     0.167 HD
HETATM   10  C7  UNL     1      22.096  27.718  40.900  1.00  0.00     0.182 A 
HETATM   11  N5  UNL     1      21.554  26.749  41.699  1.00  0.00    -0.336 N 
ATOM     12  H5  UNL     1      21.408  26.831  42.705  1.00  0.00     0.168 HD
HETATM   13  C8  UNL     1      21.242  25.670  40.954  1.00  0.00     0.158 A 
HETATM   14  N6  UNL     1      20.684  24.449  41.249  1.00  0.00    -0.128 N 
ENDROOT
BRANCH  14  15
HETATM   15  C9  UNL     1      20.349  24.220  42.608  1.00  0.00     0.199 C 
BRANCH  15  16
HETATM   16  O3  UNL     1      19.413  25.216  42.950  1.00  0.00    -0.366 OA
ATOM     17  H3  UNL     1      19.921  25.973  43.215  1.00  0.00     0.212 HD
ENDBRANCH  15  16
BRANCH  15  18
HETATM   18  C10 UNL     1      21.548  24.363  43.510  1.00  0.00     0.228 C 
BRANCH  18  19
HETATM   19  O4  UNL     1      21.134  24.433  44.867  1.00  0.00    -0.396 OA
ATOM     20  H4  UNL     1      21.838  24.151  45.439  1.00  0.00     0.209 HD
ENDBRANCH  18  19
ENDBRANCH  15  18
BRANCH  15  21
HETATM   21  C11 UNL     1      19.694  22.934  42.973  1.00  0.00     0.228 C 
BRANCH  21  22
HETATM   22  O5  UNL     1      20.794  22.087  43.330  1.00  0.00    -0.396 OA
ATOM     23  H5  UNL     1      20.926  21.554  42.554  1.00  0.00     0.209 HD
ENDBRANCH  21  22
ENDBRANCH  15  21
ENDBRANCH  14  15
BRANCH   1  24
HETATM   24  N1  UNL     1      19.987  22.467  40.483  1.00  0.00    -0.205 N 
ATOM     25  H1  UNL     1      19.502  22.368  41.375  1.00  0.00     0.179 HD
BRANCH  24  26
HETATM   26  C1  UNL     1      20.024  21.325  39.624  1.00  0.00     0.305 C 
BRANCH  26  27
HETATM   27  O1  UNL     1      19.027  21.483  38.641  1.00  0.00    -0.382 OA
ATOM     28  H1  UNL     1      18.317  20.885  38.840  1.00  0.00     0.211 HD
ENDBRANCH  26  27
ENDBRANCH  24  26
ENDBRANCH   1  24
BRANCH   5  29
HETATM   29  C4  UNL     1      22.327  26.596  36.990  1.00  0.00     0.147 C 
BRANCH  29  30
HETATM   30  C5  UNL     1      22.526  26.603  35.463  1.00  0.00     0.183 C 
BRANCH  30  31
HETATM   31  O2  UNL     1      21.528  27.421  34.934  1.00  0.00    -0.399 OA
ATOM     32  H2  UNL     1      21.754  27.572  34.024  1.00  0.00     0.209 HD
ENDBRANCH  30  31
ENDBRANCH  29  30
ENDBRANCH   5  29
TORSDOF 12
ENDMDL
MODEL 2
REMARK VINA RESULT: -7.546434909      2.379      3.791
REMARK  12 active torsions:
REMARK  status: ('A' for Active; 'I' for Inactive)
REMARK    1  A    between atoms: O1_1  and  C1_3 
REMARK    2  A    between atoms: C1_3  and  N1_4 
REMARK    3  A    between atoms: N1_4  and  C2_6 
REMARK    4  A    between atoms: N3_10  and  C4_12 
REMARK    5  A    between atoms: C4_12  and  C5_13 
REMARK    6  A    between atoms: C5_13  and  O2_14 
REMARK    7  A    between atoms: N6_23  and  C9_24 
REMARK    8  A    between atoms: C9_24  and  O3_25 
REMARK    9  A    between atoms: C9_24  and  C10_27 
REMARK   10  A    between atoms: C9_24  and  C11_30 
REMARK   11  A    between atoms: C10_27  and  O4_28 
REMARK   12  A    between atoms: C11_30  and  O5_31 
ROOT
HETATM    1  C2  UNL     1      20.671  24.185  42.059  1.00  0.00     0.688 A 
HETATM    2  N2  UNL     1      19.956  25.068  41.338  1.00  0.00    -0.174 N 
ATOM      3  H2  UNL     1      19.221  25.596  41.808  1.00  0.00     0.186 HD
HETATM    4  C3  UNL     1      20.163  25.289  40.025  1.00  0.00     0.147 A 
HETATM    5  N3  UNL     1      19.473  26.128  39.370  1.00  0.00    -0.372 N 
ATOM      6  H3  UNL     1      18.750  26.634  39.881  1.00  0.00     0.161 HD
HETATM    7  C6  UNL     1      21.171  24.545  39.436  1.00  0.00     0.123 A 
HETATM    8  N4  UNL     1      21.617  24.544  38.143  1.00  0.00    -0.346 N 
ATOM      9  H4  UNL     1      21.260  25.114  37.376  1.00  0.00     0.167 HD
HETATM   10  C7  UNL     1      22.607  23.656  38.078  1.00  0.00     0.182 A 
HETATM   11  N5  UNL     1      22.783  23.104  39.316  1.00  0.00    -0.336 N 
ATOM     12  H5  UNL     1      23.477  22.395  39.550  1.00  0.00     0.168 HD
HETATM   13  C8  UNL     1      21.899  23.641  40.181  1.00  0.00     0.158 A 
HETATM   14  N6  UNL     1      21.652  23.449  41.520  1.00  0.00    -0.128 N 
ENDROOT
BRANCH  14  15
HETATM   15  C9  UNL     1      22.466  22.493  42.180  1.00  0.00     0.199 C 
BRANCH  15  16
HETATM   16  O3  UNL     1      21.746  22.093  43.323  1.00  0.00    -0.366 OA
ATOM     17  H3  UNL     1      20.846  21.982  43.039  1.00  0.00     0.212 HD
ENDBRANCH  15  16
BRANCH  15  18
HETATM   18  C10 UNL     1      23.777  23.087  42.626  1.00  0.00     0.228 C 
BRANCH  18  19
HETATM   19  O4  UNL     1      23.640  23.660  43.919  1.00  0.00    -0.396 OA
ATOM     20  H4  UNL     1      24.370  23.402  44.469  1.00  0.00     0.209 HD
ENDBRANCH  18  19
ENDBRANCH  15  18
BRANCH  15  21
HETATM   21  C11 UNL     1      22.795  21.226  41.469  1.00  0.00     0.228 C 
BRANCH  21  22
HETATM   22  O5  UNL     1      24.227  21.224  41.432  1.00  0.00    -0.396 OA
ATOM     23  H5  UNL     1      24.427  21.365  40.513  1.00  0.00     0.209 HD
ENDBRANCH  21  22
ENDBRANCH  15  21
ENDBRANCH  14  15
BRANCH   1  24
HETATM   24  N1  UNL     1      20.438  24.020  43.308  1.00  0.00    -0.205 N 
ATOM     25  H1  UNL     1      20.159  23.088  43.615  1.00  0.00     0.179 HD
BRANCH  24  26
HETATM   26  C1  UNL     1      20.538  25.039  44.307  1.00  0.00     0.305 C 
BRANCH  26  27
HETATM   27  O1  UNL     1      21.303  24.532  45.376  1.00  0.00    -0.382 OA
ATOM     28  H1  UNL     1      22.086  25.064  45.458  1.00  0.00     0.211 HD
ENDBRANCH  26  27
ENDBRANCH  24  26
ENDBRANCH   1  24
BRANCH   5  29
HETATM   29  C4  UNL     1      19.619  26.426  37.992  1.00  0.00     0.147 C 
BRANCH  29  30
HETATM   30  C5  UNL     1      18.406  25.939  37.176  1.00  0.00     0.183 C 
BRANCH  30  31
HETATM   31  O2  UNL     1      18.455  24.545  37.183  1.00  0.00    -0.399 OA
ATOM     32  H2  UNL     1      17.565  24.243  37.321  1.00  0.00     0.209 HD
ENDBRANCH  30  31
ENDBRANCH  29  30
ENDBRANCH   5  29
TORSDOF 12
ENDMDL
MODEL 3
REMARK VINA RESULT: -7.496023371      2.459      2.739
REMARK  12 active torsions:
REMARK  status: ('A' for Active; 'I' for Inactive)
REMARK    1  A    between atoms: O1_1  and  C1_3 
REMARK    2  A    between atoms: C1_3  and  N1_4 
REMARK    3  A    between atoms: N1_4  and  C2_6 
REMARK    4  A    between atoms: N3_10  and  C4_12 
REMARK    5  A    between atoms: C4_12  and  C5_13 
REMARK    6  A    between atoms: C5_13  and  O2_14 
REMARK    7  A    between atoms: N6_23  and  C9_24 
REMARK    8  A    between atoms: C9_24  and  O3_25 
REMARK    9  A    between atoms: C9_24  and  C10_27 
REMARK   10  A    between atoms: C9_24  and  C11_30 
REMARK   11  A    between atoms: C10_27  and  O4_28 
REMARK   12  A    between atoms: C11_30  and  O5_31 
ROOT
HETATM    1  C2  UNL     1      20.664  22.634  40.449  1.00  0.00     0.688 A 
HETATM    2  N2  UNL     1      19.921  23.133  39.444  1.00  0.00    -0.174 N 
ATOM      3  H2  UNL     1      19.447  22.480  38.821  1.00  0.00     0.186 HD
HETATM    4  C3  UNL     1      19.772  24.453  39.222  1.00  0.00     0.147 A 
HETATM    5  N3  UNL     1      19.064  24.895  38.266  1.00  0.00    -0.372 N 
ATOM      6  H3  UNL     1      18.608  24.206  37.668  1.00  0.00     0.161 HD
HETATM    7  C6  UNL     1      20.437  25.295  40.096  1.00  0.00     0.123 A 
HETATM    8  N4  UNL     1      20.479  26.662  40.134  1.00  0.00    -0.346 N 
ATOM      9  H4  UNL     1      20.008  27.303  39.495  1.00  0.00     0.167 HD
HETATM   10  C7  UNL     1      21.251  26.995  41.165  1.00  0.00     0.182 A 
HETATM   11  N5  UNL     1      21.691  25.851  41.771  1.00  0.00    -0.336 N 
ATOM     12  H5  UNL     1      22.300  25.815  42.589  1.00  0.00     0.168 HD
HETATM   13  C8  UNL     1      21.197  24.777  41.123  1.00  0.00     0.158 A 
HETATM   14  N6  UNL     1      21.321  23.421  41.312  1.00  0.00    -0.128 N 
ENDROOT
BRANCH  14  15
HETATM   15  C9  UNL     1      22.131  23.007  42.402  1.00  0.00     0.199 C 
BRANCH  15  16
HETATM   16  O3  UNL     1      21.303  22.216  43.221  1.00  0.00    -0.366 OA
ATOM     17  H3  UNL     1      21.723  22.193  44.073  1.00  0.00     0.212 HD
ENDBRANCH  15  16
BRANCH  15  18
HETATM   18  C10 UNL     1      22.621  24.181  43.210  1.00  0.00     0.228 C 
BRANCH  18  19
HETATM   19  O4  UNL     1      23.826  23.843  43.883  1.00  0.00    -0.396 OA
ATOM     20  H4  UNL     1      23.963  24.425  44.620  1.00  0.00     0.209 HD
ENDBRANCH  18  19
ENDBRANCH  15  18
BRANCH  15  21
HETATM   21  C11 UNL     1      23.322  22.158  42.121  1.00  0.00     0.228 C 
BRANCH  21  22
HETATM   22  O5  UNL     1      23.062  20.960  42.863  1.00  0.00    -0.396 OA
ATOM     23  H5  UNL     1      23.754  20.371  42.585  1.00  0.00     0.209 HD
ENDBRANCH  21  22
ENDBRANCH  15  21
ENDBRANCH  14  15
BRANCH   1  24
HETATM   24  N1  UNL     1      20.767  21.368  40.621  1.00  0.00    -0.205 N 
ATOM     25  H1  UNL     1      20.489  20.993  41.528  1.00  0.00     0.179 HD
BRANCH  24  26
HETATM   26  C1  UNL     1      21.240  20.440  39.641  1.00  0.00     0.305 C 
BRANCH  26  27
HETATM   27  O1  UNL     1      20.360  20.477  38.541  1.00  0.00    -0.382 OA
ATOM     28  H1  UNL     1      20.445  19.658  38.067  1.00  0.00     0.211 HD
ENDBRANCH  26  27
ENDBRANCH  24  26
ENDBRANCH   1  24
BRANCH   5  29
HETATM   29  C4  UNL     1      18.850  26.262  37.957  1.00  0.00     0.147 C 
BRANCH  29  30
HETATM   30  C5  UNL     1      17.434  26.718  38.356  1.00  0.00     0.183 C 
BRANCH  30  31
HETATM   31  O2  UNL     1      17.532  27.242  39.645  1.00  0.00    -0.399 OA
ATOM     32  H2  UNL     1      16.695  27.648  39.838  1.00  0.00     0.209 HD
ENDBRANCH  30  31
ENDBRANCH  29  30
ENDBRANCH   5  29
TORSDOF 12
ENDMDL
MODEL 4
REMARK VINA RESULT: -7.474586171      1.809      2.241
REMARK  12 active torsions:
REMARK  status: ('A' for Active; 'I' for Inactive)
REMARK    1  A    between atoms: O1_1  and  C1_3 
REMARK    2  A    between atoms: C1_3  and  N1_4 
REMARK    3  A    between atoms: N1_4  and  C2_6 
REMARK    4  A    between atoms: N3_10  and  C4_12 
REMARK    5  A    between atoms: C4_12  and  C5_13 
REMARK    6  A    between atoms: C5_13  and  O2_14 
REMARK    7  A    between atoms: N6_23  and  C9_24 
REMARK    8  A    between atoms: C9_24  and  O3_25 
REMARK    9  A    between atoms: C9_24  and  C10_27 
REMARK   10  A    between atoms: C9_24  and  C11_30 
REMARK   11  A    between atoms: C10_27  and  O4_28 
REMARK   12  A    between atoms: C11_30  and  O5_31 
ROOT
HETATM    1  C2  UNL     1      22.172  23.363  41.118  1.00  0.00     0.688 A 
HETATM    2  N2  UNL     1      22.601  23.552  39.857  1.00  0.00    -0.174 N 
ATOM      3  H2  UNL     1      22.919  22.742  39.326  1.00  0.00     0.186 HD
HETATM    4  C3  UNL     1      22.632  24.760  39.261  1.00  0.00     0.147 A 
HETATM    5  N3  UNL     1      23.041  24.909  38.070  1.00  0.00    -0.372 N 
ATOM      6  H3  UNL     1      23.350  24.071  37.576  1.00  0.00     0.161 HD
HETATM    7  C6  UNL     1      22.190  25.826  40.026  1.00  0.00     0.123 A 
HETATM    8  N4  UNL     1      22.098  27.153  39.708  1.00  0.00    -0.346 N 
ATOM      9  H4  UNL     1      22.353  27.585  38.820  1.00  0.00     0.167 HD
HETATM   10  C7  UNL     1      21.611  27.773  40.781  1.00  0.00     0.182 A 
HETATM   11  N5  UNL     1      21.399  26.847  41.764  1.00  0.00    -0.336 N 
ATOM     12  H5  UNL     1      21.029  27.049  42.693  1.00  0.00     0.168 HD
HETATM   13  C8  UNL     1      21.753  25.624  41.319  1.00  0.00     0.158 A 
HETATM   14  N6  UNL     1      21.739  24.372  41.886  1.00  0.00    -0.128 N 
ENDROOT
BRANCH  14  15
HETATM   15  C9  UNL     1      21.268  24.291  43.222  1.00  0.00     0.199 C 
BRANCH  15  16
HETATM   16  O3  UNL     1      21.380  22.936  43.590  1.00  0.00    -0.366 OA
ATOM     17  H3  UNL     1      22.167  22.873  44.118  1.00  0.00     0.212 HD
ENDBRANCH  15  16
BRANCH  15  18
HETATM   18  C10 UNL     1      19.821  24.697  43.329  1.00  0.00     0.228 C 
BRANCH  18  19
HETATM   19  O4  UNL     1      19.703  25.897  44.080  1.00  0.00    -0.396 OA
ATOM     20  H4  UNL     1      18.827  25.974  44.439  1.00  0.00     0.209 HD
ENDBRANCH  18  19
ENDBRANCH  15  18
BRANCH  15  21
HETATM   21  C11 UNL     1      21.998  25.041  44.281  1.00  0.00     0.228 C 
BRANCH  21  22
HETATM   22  O5  UNL     1      21.586  24.397  45.493  1.00  0.00    -0.396 OA
ATOM     23  H5  UNL     1      22.011  23.548  45.451  1.00  0.00     0.209 HD
ENDBRANCH  21  22
ENDBRANCH  15  21
ENDBRANCH  14  15
BRANCH   1  24
HETATM   24  N1  UNL     1      22.156  22.190  41.635  1.00  0.00    -0.205 N 
ATOM     25  H1  UNL     1      21.706  22.083  42.544  1.00  0.00     0.179 HD
BRANCH  24  26
HETATM   26  C1  UNL     1      22.721  21.020  41.038  1.00  0.00     0.305 C 
BRANCH  26  27
HETATM   27  O1  UNL     1      24.110  21.034  41.275  1.00  0.00    -0.382 OA
ATOM     28  H1  UNL     1      24.551  20.820  40.462  1.00  0.00     0.211 HD
ENDBRANCH  26  27
ENDBRANCH  24  26
ENDBRANCH   1  24
BRANCH   5  29
HETATM   29  C4  UNL     1      23.109  26.136  37.363  1.00  0.00     0.147 C 
BRANCH  29  30
HETATM   30  C5  UNL     1      22.479  26.018  35.963  1.00  0.00     0.183 C 
BRANCH  30  31
HETATM   31  O2  UNL     1      21.187  25.526  36.147  1.00  0.00    -0.399 OA
ATOM     32  H2  UNL     1      21.273  24.596  36.322  1.00  0.00     0.209 HD
ENDBRANCH  30  31
ENDBRANCH  29  30
ENDBRANCH   5  29
TORSDOF 12
ENDMDL
MODEL 5
REMARK VINA RESULT: -7.472927112      1.638      2.056
REMARK  12 active torsions:
REMARK  status: ('A' for Active; 'I' for Inactive)
REMARK    1  A    between atoms: O1_1  and  C1_3 
REMARK    2  A    between atoms: C1_3  and  N1_4 
REMARK    3  A    between atoms: N1_4  and  C2_6 
REMARK    4  A    between atoms: N3_10  and  C4_12 
REMARK    5  A    between atoms: C4_12  and  C5_13 
REMARK    6  A    between atoms: C5_13  and  O2_14 
REMARK    7  A    between atoms: N6_23  and  C9_24 
REMARK    8  A    between atoms: C9_24  and  O3_25 
REMARK    9  A    between atoms: C9_24  and  C10_27 
REMARK   10  A    between atoms: C9_24  and  C11_30 
REMARK   11  A    between atoms: C10_27  and  O4_28 
REMARK   12  A    between atoms: C11_30  and  O5_31 
ROOT
HETATM    1  C2  UNL     1      22.131  23.721  40.920  1.00  0.00     0.688 A 
HETATM    2  N2  UNL     1      22.571  24.037  39.688  1.00  0.00    -0.174 N 
ATOM      3  H2  UNL     1      22.810  23.278  39.049  1.00  0.00     0.186 HD
HETATM    4  C3  UNL     1      22.714  25.305  39.258  1.00  0.00     0.147 A 
HETATM    5  N3  UNL     1      23.131  25.573  38.091  1.00  0.00    -0.372 N 
ATOM      6  H3  UNL     1      23.357  24.785  37.485  1.00  0.00     0.161 HD
HETATM    7  C6  UNL     1      22.378  26.295  40.166  1.00  0.00     0.123 A 
HETATM    8  N4  UNL     1      22.410  27.656  40.029  1.00  0.00    -0.346 N 
ATOM      9  H4  UNL     1      22.701  28.177  39.202  1.00  0.00     0.167 HD
HETATM   10  C7  UNL     1      21.988  28.169  41.183  1.00  0.00     0.182 A 
HETATM   11  N5  UNL     1      21.693  27.143  42.037  1.00  0.00    -0.336 N 
ATOM     12  H5  UNL     1      21.347  27.252  42.990  1.00  0.00     0.168 HD
HETATM   13  C8  UNL     1      21.928  25.964  41.427  1.00  0.00     0.158 A 
HETATM   14  N6  UNL     1      21.799  24.654  41.823  1.00  0.00    -0.128 N 
ENDROOT
BRANCH  14  15
HETATM   15  C9  UNL     1      21.327  24.438  43.143  1.00  0.00     0.199 C 
BRANCH  15  16
HETATM   16  O3  UNL     1      21.516  23.066  43.403  1.00  0.00    -0.366 OA
ATOM     17  H3  UNL     1      21.812  23.009  44.303  1.00  0.00     0.212 HD
ENDBRANCH  15  16
BRANCH  15  18
HETATM   18  C10 UNL     1      19.858  24.750  43.269  1.00  0.00     0.228 C 
BRANCH  18  19
HETATM   19  O4  UNL     1      19.672  25.930  44.038  1.00  0.00    -0.396 OA
ATOM     20  H4  UNL     1      20.195  25.889  44.830  1.00  0.00     0.209 HD
ENDBRANCH  18  19
ENDBRANCH  15  18
BRANCH  15  21
HETATM   21  C11 UNL     1      22.008  25.141  44.265  1.00  0.00     0.228 C 
BRANCH  21  22
HETATM   22  O5  UNL     1      21.600  24.399  45.422  1.00  0.00    -0.396 OA
ATOM     23  H5  UNL     1      21.598  23.498  45.120  1.00  0.00     0.209 HD
ENDBRANCH  21  22
ENDBRANCH  15  21
ENDBRANCH  14  15
BRANCH   1  24
HETATM   24  N1  UNL     1      22.007  22.496  41.276  1.00  0.00    -0.205 N 
ATOM     25  H1  UNL     1      22.520  22.192  42.103  1.00  0.00     0.179 HD
BRANCH  24  26
HETATM   26  C1  UNL     1      21.204  21.521  40.605  1.00  0.00     0.305 C 
BRANCH  26  27
HETATM   27  O1  UNL     1      19.901  21.582  41.139  1.00  0.00    -0.382 OA
ATOM     28  H1  UNL     1      19.341  21.021  40.617  1.00  0.00     0.211 HD
ENDBRANCH  26  27
ENDBRANCH  24  26
ENDBRANCH   1  24
BRANCH   5  29
HETATM   29  C4  UNL     1      23.311  26.873  37.553  1.00  0.00     0.147 C 
BRANCH  29  30
HETATM   30  C5  UNL     1      24.649  26.992  36.799  1.00  0.00     0.183 C 
BRANCH  30  31
HETATM   31  O2  UNL     1      24.873  28.354  36.597  1.00  0.00    -0.399 OA
ATOM     32  H2  UNL     1      24.785  28.773  37.446  1.00  0.00     0.209 HD
ENDBRANCH  30  31
ENDBRANCH  29  30
ENDBRANCH   5  29
TORSDOF 12
ENDMDL
