MODEL 1
REMARK VINA RESULT: -8.679738383      0.000      0.000
REMARK  7 active torsions:
REMARK  status: ('A' for Active; 'I' for Inactive)
REMARK    1  A    between atoms: N1_1  and  C1_4 
REMARK    2  A    between atoms: N3_9  and  C3_10 
REMARK    3  A    between atoms: C3_10  and  C4_11 
REMARK    4  A    between atoms: C4_11  and  N4_12 
REMARK    5  A    between atoms: N4_12  and  N5_14 
REMARK       I    between atoms: N5_14  and  C5_16 
REMARK    6  A    between atoms: C7_22  and  C8_23 
REMARK    7  A    between atoms: C8_23  and  O2_24 
ROOT
HETATM    1  C1  UNL     1      21.085  24.823  42.904  1.00  0.00     0.122 A 
HETATM    2  N2  UNL     1      21.164  26.121  42.556  1.00  0.00    -0.294 N 
ATOM      3  H2  UNL     1      21.399  26.815  43.266  1.00  0.00     0.172 HD
HETATM    4  C2  UNL     1      20.942  26.517  41.305  1.00  0.00     0.329 A 
HETATM    5  O1  UNL     1      21.031  27.744  41.043  1.00  0.00    -0.246 OA
HETATM    6  N3  UNL     1      20.621  25.685  40.274  1.00  0.00    -0.283 N 
HETATM    7  C6  UNL     1      20.533  24.387  40.588  1.00  0.00     0.132 A 
HETATM    8  N8  UNL     1      20.206  23.461  39.671  1.00  0.00    -0.329 N 
ATOM      9  H8  UNL     1      20.034  23.768  38.714  1.00  0.00     0.168 HD
HETATM   10  C7  UNL     1      20.093  22.153  39.950  1.00  0.00     0.109 A 
HETATM   11  N9  UNL     1      20.321  21.760  41.216  1.00  0.00    -0.310 N 
ATOM     12  H9  UNL     1      20.238  20.768  41.436  1.00  0.00     0.170 HD
HETATM   13  C9  UNL     1      20.652  22.606  42.203  1.00  0.00     0.264 A 
HETATM   14  O3  UNL     1      20.865  22.231  43.386  1.00  0.00    -0.267 OA
HETATM   15  C10 UNL     1      20.762  23.945  41.891  1.00  0.00     0.120 A 
ENDROOT
BRANCH   6  16
HETATM   16  C3  UNL     1      20.365  26.231  38.978  1.00  0.00     0.156 C 
BRANCH  16  17
HETATM   17  C4  UNL     1      18.965  26.251  38.507  1.00  0.00     0.159 C 
BRANCH  17  18
HETATM   18  N4  UNL     1      17.946  26.772  39.337  1.00  0.00    -0.333 N 
ATOM     19  H4  UNL     1      18.134  27.145  40.268  1.00  0.00     0.180 HD
BRANCH  18  20
HETATM   20  N5  UNL     1      16.633  26.739  38.775  1.00  0.00    -0.280 N 
HETATM   21  C5  UNL     1      15.613  27.097  39.464  1.00  0.00     0.215 C 
HETATM   22  N6  UNL     1      14.306  27.075  38.938  1.00  0.00    -0.065 NA
HETATM   23  N7  UNL     1      15.810  27.528  40.795  1.00  0.00    -0.065 NA
ATOM     24  H5  UNL     1      16.504  26.426  37.813  1.00  0.00     0.189 HD
ENDBRANCH  18  20
ENDBRANCH  17  18
ENDBRANCH  16  17
ENDBRANCH   6  16
BRANCH   1  25
HETATM   25  N1  UNL     1      21.299  24.421  44.115  1.00  0.00    -0.384 N 
ATOM     26  H12 UNL     1      22.127  24.704  44.639  1.00  0.00     0.157 HD
ATOM     27  H11 UNL     1      20.652  23.802  44.604  1.00  0.00     0.157 HD
ENDBRANCH   1  25
BRANCH  10  28
HETATM   28  C8  UNL     1      19.726  21.157  38.893  1.00  0.00     0.240 C 
BRANCH  28  29
HETATM   29  O2  UNL     1      18.623  21.586  38.159  1.00  0.00    -0.393 OA
ATOM     30  H2  UNL     1      18.609  21.189  37.296  1.00  0.00     0.209 HD
ENDBRANCH  28  29
ENDBRANCH  10  28
TORSDOF 7
ENDMDL
MODEL 2
REMARK VINA RESULT: -8.508604528      2.498      5.973
REMARK  7 active torsions:
REMARK  status: ('A' for Active; 'I' for Inactive)
REMARK    1  A    between atoms: N1_1  and  C1_4 
REMARK    2  A    between atoms: N3_9  and  C3_10 
REMARK    3  A    between atoms: C3_10  and  C4_11 
REMARK    4  A    between atoms: C4_11  and  N4_12 
REMARK    5  A    between atoms: N4_12  and  N5_14 
REMARK       I    between atoms: N5_14  and  C5_16 
REMARK    6  A    between atoms: C7_22  and  C8_23 
REMARK    7  A    between atoms: C8_23  and  O2_24 
ROOT
HETATM    1  C1  UNL     1      21.796  25.253  42.452  1.00  0.00     0.122 A 
HETATM    2  N2  UNL     1      21.775  24.023  43.000  1.00  0.00    -0.294 N 
ATOM      3  H2  UNL     1      22.251  23.864  43.888  1.00  0.00     0.172 HD
HETATM    4  C2  UNL     1      21.145  23.011  42.407  1.00  0.00     0.329 A 
HETATM    5  O1  UNL     1      21.162  21.886  42.970  1.00  0.00    -0.246 OA
HETATM    6  N3  UNL     1      20.477  23.101  41.223  1.00  0.00    -0.283 N 
HETATM    7  C6  UNL     1      20.480  24.312  40.651  1.00  0.00     0.132 A 
HETATM    8  N8  UNL     1      19.875  24.535  39.472  1.00  0.00    -0.329 N 
ATOM      9  H8  UNL     1      19.396  23.757  39.020  1.00  0.00     0.168 HD
HETATM   10  C7  UNL     1      19.869  25.730  38.860  1.00  0.00     0.109 A 
HETATM   11  N9  UNL     1      20.505  26.747  39.466  1.00  0.00    -0.310 N 
ATOM     12  H9  UNL     1      20.506  27.658  39.008  1.00  0.00     0.170 HD
HETATM   13  C9  UNL     1      21.140  26.626  40.642  1.00  0.00     0.264 A 
HETATM   14  O3  UNL     1      21.733  27.584  41.204  1.00  0.00    -0.267 OA
HETATM   15  C10 UNL     1      21.131  25.389  41.251  1.00  0.00     0.120 A 
ENDROOT
BRANCH   6  16
HETATM   16  C3  UNL     1      19.872  21.934  40.662  1.00  0.00     0.156 C 
BRANCH  16  17
HETATM   17  C4  UNL     1      20.368  21.467  39.352  1.00  0.00     0.159 C 
BRANCH  17  18
HETATM   18  N4  UNL     1      21.271  20.382  39.281  1.00  0.00    -0.333 N 
ATOM     19  H4  UNL     1      21.274  19.721  38.505  1.00  0.00     0.180 HD
BRANCH  18  20
HETATM   20  N5  UNL     1      22.180  20.280  40.379  1.00  0.00    -0.280 N 
HETATM   21  C5  UNL     1      23.424  20.037  40.184  1.00  0.00     0.215 C 
HETATM   22  N6  UNL     1      24.344  19.931  41.245  1.00  0.00    -0.065 NA
HETATM   23  N7  UNL     1      23.882  19.870  38.857  1.00  0.00    -0.065 NA
ATOM     24  H5  UNL     1      21.836  20.403  41.331  1.00  0.00     0.189 HD
ENDBRANCH  18  20
ENDBRANCH  17  18
ENDBRANCH  16  17
ENDBRANCH   6  16
BRANCH   1  25
HETATM   25  N1  UNL     1      22.402  26.247  43.015  1.00  0.00    -0.384 N 
ATOM     26  H12 UNL     1      23.028  26.117  43.809  1.00  0.00     0.157 HD
ATOM     27  H11 UNL     1      22.282  27.208  42.693  1.00  0.00     0.157 HD
ENDBRANCH   1  25
BRANCH  10  28
HETATM   28  C8  UNL     1      19.180  25.930  37.546  1.00  0.00     0.240 C 
BRANCH  28  29
HETATM   29  O2  UNL     1      19.981  25.510  36.487  1.00  0.00    -0.393 OA
ATOM     30  H2  UNL     1      20.341  26.251  36.013  1.00  0.00     0.209 HD
ENDBRANCH  28  29
ENDBRANCH  10  28
TORSDOF 7
ENDMDL
MODEL 3
REMARK VINA RESULT: -8.489935690      3.689      5.746
REMARK  7 active torsions:
REMARK  status: ('A' for Active; 'I' for Inactive)
REMARK    1  A    between atoms: N1_1  and  C1_4 
REMARK    2  A    between atoms: N3_9  and  C3_10 
REMARK    3  A    between atoms: C3_10  and  C4_11 
REMARK    4  A    between atoms: C4_11  and  N4_12 
REMARK    5  A    between atoms: N4_12  and  N5_14 
REMARK       I    between atoms: N5_14  and  C5_16 
REMARK    6  A    between atoms: C7_22  and  C8_23 
REMARK    7  A    between atoms: C8_23  and  O2_24 
ROOT
HETATM    1  C1  UNL     1      23.087  26.643  38.424  1.00  0.00     0.122 A 
HETATM    2  N2  UNL     1      23.245  25.574  37.620  1.00  0.00    -0.294 N 
ATOM      3  H2  UNL     1      23.507  25.716  36.645  1.00  0.00     0.172 HD
HETATM    4  C2  UNL     1      23.065  24.335  38.073  1.00  0.00     0.329 A 
HETATM    5  O1  UNL     1      23.227  23.378  37.273  1.00  0.00    -0.246 OA
HETATM    6  N3  UNL     1      22.714  24.020  39.352  1.00  0.00    -0.283 N 
HETATM    7  C6  UNL     1      22.548  25.063  40.176  1.00  0.00     0.132 A 
HETATM    8  N8  UNL     1      22.184  24.895  41.458  1.00  0.00    -0.329 N 
ATOM      9  H8  UNL     1      22.045  23.945  41.801  1.00  0.00     0.168 HD
HETATM   10  C7  UNL     1      21.993  25.914  42.311  1.00  0.00     0.109 A 
HETATM   11  N9  UNL     1      22.178  27.162  41.847  1.00  0.00    -0.310 N 
ATOM     12  H9  UNL     1      22.035  27.942  42.488  1.00  0.00     0.170 HD
HETATM   13  C9  UNL     1      22.540  27.434  40.584  1.00  0.00     0.264 A 
HETATM   14  O3  UNL     1      22.713  28.606  40.156  1.00  0.00    -0.267 OA
HETATM   15  C10 UNL     1      22.731  26.370  39.728  1.00  0.00     0.120 A 
ENDROOT
BRANCH   6  16
HETATM   16  C3  UNL     1      22.510  22.652  39.713  1.00  0.00     0.156 C 
BRANCH  16  17
HETATM   17  C4  UNL     1      21.161  22.085  39.514  1.00  0.00     0.159 C 
BRANCH  17  18
HETATM   18  N4  UNL     1      20.509  21.417  40.576  1.00  0.00    -0.333 N 
ATOM     19  H4  UNL     1      20.665  20.430  40.780  1.00  0.00     0.180 HD
BRANCH  18  20
HETATM   20  N5  UNL     1      19.616  22.227  41.343  1.00  0.00    -0.280 N 
HETATM   21  C5  UNL     1      19.924  22.605  42.529  1.00  0.00     0.215 C 
HETATM   22  N6  UNL     1      19.066  23.404  43.309  1.00  0.00    -0.065 NA
HETATM   23  N7  UNL     1      21.168  22.204  43.067  1.00  0.00    -0.065 NA
ATOM     24  H5  UNL     1      18.722  22.509  40.942  1.00  0.00     0.189 HD
ENDBRANCH  18  20
ENDBRANCH  17  18
ENDBRANCH  16  17
ENDBRANCH   6  16
BRANCH   1  25
HETATM   25  N1  UNL     1      23.259  27.853  38.000  1.00  0.00    -0.384 N 
ATOM     26  H12 UNL     1      23.705  28.053  37.105  1.00  0.00     0.157 HD
ATOM     27  H11 UNL     1      22.958  28.664  38.540  1.00  0.00     0.157 HD
ENDBRANCH   1  25
BRANCH  10  28
HETATM   28  C8  UNL     1      21.587  25.677  43.733  1.00  0.00     0.240 C 
BRANCH  28  29
HETATM   29  O2  UNL     1      20.255  26.028  43.941  1.00  0.00    -0.393 OA
ATOM     30  H2  UNL     1      20.165  26.608  44.688  1.00  0.00     0.209 HD
ENDBRANCH  28  29
ENDBRANCH  10  28
TORSDOF 7
ENDMDL
MODEL 4
REMARK VINA RESULT: -8.447386692      2.673      5.087
REMARK  7 active torsions:
REMARK  status: ('A' for Active; 'I' for Inactive)
REMARK    1  A    between atoms: N1_1  and  C1_4 
REMARK    2  A    between atoms: N3_9  and  C3_10 
REMARK    3  A    between atoms: C3_10  and  C4_11 
REMARK    4  A    between atoms: C4_11  and  N4_12 
REMARK    5  A    between atoms: N4_12  and  N5_14 
REMARK       I    between atoms: N5_14  and  C5_16 
REMARK    6  A    between atoms: C7_22  and  C8_23 
REMARK    7  A    between atoms: C8_23  and  O2_24 
ROOT
HETATM    1  C1  UNL     1      21.389  21.252  40.266  1.00  0.00     0.122 A 
HETATM    2  N2  UNL     1      22.543  21.241  40.959  1.00  0.00    -0.294 N 
ATOM      3  H2  UNL     1      22.953  20.348  41.234  1.00  0.00     0.172 HD
HETATM    4  C2  UNL     1      23.161  22.372  41.292  1.00  0.00     0.329 A 
HETATM    5  O1  UNL     1      24.236  22.296  41.941  1.00  0.00    -0.246 OA
HETATM    6  N3  UNL     1      22.712  23.621  40.983  1.00  0.00    -0.283 N 
HETATM    7  C6  UNL     1      21.565  23.665  40.295  1.00  0.00     0.132 A 
HETATM    8  N8  UNL     1      21.001  24.833  39.941  1.00  0.00    -0.329 N 
ATOM      9  H8  UNL     1      21.476  25.697  40.200  1.00  0.00     0.168 HD
HETATM   10  C7  UNL     1      19.845  24.919  39.264  1.00  0.00     0.109 A 
HETATM   11  N9  UNL     1      19.228  23.773  38.929  1.00  0.00    -0.310 N 
ATOM     12  H9  UNL     1      18.349  23.829  38.415  1.00  0.00     0.170 HD
HETATM   13  C9  UNL     1      19.708  22.558  39.237  1.00  0.00     0.264 A 
HETATM   14  O3  UNL     1      19.125  21.488  38.919  1.00  0.00    -0.267 OA
HETATM   15  C10 UNL     1      20.898  22.496  39.932  1.00  0.00     0.120 A 
ENDROOT
BRANCH   6  16
HETATM   16  C3  UNL     1      23.442  24.766  41.431  1.00  0.00     0.156 C 
BRANCH  16  17
HETATM   17  C4  UNL     1      23.430  25.062  42.877  1.00  0.00     0.159 C 
BRANCH  17  18
HETATM   18  N4  UNL     1      22.540  26.032  43.394  1.00  0.00    -0.333 N 
ATOM     19  H4  UNL     1      22.554  27.006  43.091  1.00  0.00     0.180 HD
BRANCH  18  20
HETATM   20  N5  UNL     1      21.620  25.547  44.374  1.00  0.00    -0.280 N 
HETATM   21  C5  UNL     1      20.388  25.348  44.078  1.00  0.00     0.215 C 
HETATM   22  N6  UNL     1      19.457  24.870  45.021  1.00  0.00    -0.065 NA
HETATM   23  N7  UNL     1      19.954  25.618  42.761  1.00  0.00    -0.065 NA
ATOM     24  H5  UNL     1      21.946  25.356  45.321  1.00  0.00     0.189 HD
ENDBRANCH  18  20
ENDBRANCH  17  18
ENDBRANCH  16  17
ENDBRANCH   6  16
BRANCH   1  25
HETATM   25  N1  UNL     1      20.777  20.162  39.933  1.00  0.00    -0.384 N 
ATOM     26  H12 UNL     1      21.170  19.242  40.126  1.00  0.00     0.157 HD
ATOM     27  H11 UNL     1      19.872  20.171  39.461  1.00  0.00     0.157 HD
ENDBRANCH   1  25
BRANCH  10  28
HETATM   28  C8  UNL     1      19.255  26.244  38.892  1.00  0.00     0.240 C 
BRANCH  28  29
HETATM   29  O2  UNL     1      18.637  26.846  39.985  1.00  0.00    -0.393 OA
ATOM     30  H2  UNL     1      17.693  26.740  39.947  1.00  0.00     0.209 HD
ENDBRANCH  28  29
ENDBRANCH  10  28
TORSDOF 7
ENDMDL
MODEL 5
REMARK VINA RESULT: -8.435044846      2.939      4.950
REMARK  7 active torsions:
REMARK  status: ('A' for Active; 'I' for Inactive)
REMARK    1  A    between atoms: N1_1  and  C1_4 
REMARK    2  A    between atoms: N3_9  and  C3_10 
REMARK    3  A    between atoms: C3_10  and  C4_11 
REMARK    4  A    between atoms: C4_11  and  N4_12 
REMARK    5  A    between atoms: N4_12  and  N5_14 
REMARK       I    between atoms: N5_14  and  C5_16 
REMARK    6  A    between atoms: C7_22  and  C8_23 
REMARK    7  A    between atoms: C8_23  and  O2_24 
ROOT
HETATM    1  C1  UNL     1      20.020  23.567  39.225  1.00  0.00     0.122 A 
HETATM    2  N2  UNL     1      20.288  24.877  39.384  1.00  0.00    -0.294 N 
ATOM      3  H2  UNL     1      19.630  25.569  39.025  1.00  0.00     0.172 HD
HETATM    4  C2  UNL     1      21.394  25.288  40.000  1.00  0.00     0.329 A 
HETATM    5  O1  UNL     1      21.588  26.525  40.117  1.00  0.00    -0.246 OA
HETATM    6  N3  UNL     1      22.345  24.460  40.519  1.00  0.00    -0.283 N 
HETATM    7  C6  UNL     1      22.108  23.150  40.375  1.00  0.00     0.132 A 
HETATM    8  N8  UNL     1      22.972  22.225  40.825  1.00  0.00    -0.329 N 
ATOM      9  H8  UNL     1      23.820  22.543  41.294  1.00  0.00     0.168 HD
HETATM   10  C7  UNL     1      22.778  20.904  40.687  1.00  0.00     0.109 A 
HETATM   11  N9  UNL     1      21.658  20.498  40.065  1.00  0.00    -0.310 N 
ATOM     12  H9  UNL     1      21.502  19.496  39.956  1.00  0.00     0.170 HD
HETATM   13  C9  UNL     1      20.734  21.341  39.581  1.00  0.00     0.264 A 
HETATM   14  O3  UNL     1      19.686  20.953  39.000  1.00  0.00    -0.267 OA
HETATM   15  C10 UNL     1      20.957  22.694  39.735  1.00  0.00     0.120 A 
ENDROOT
BRANCH   6  16
HETATM   16  C3  UNL     1      23.513  25.018  41.124  1.00  0.00     0.156 C 
BRANCH  16  17
HETATM   17  C4  UNL     1      23.517  25.172  42.593  1.00  0.00     0.159 C 
BRANCH  17  18
HETATM   18  N4  UNL     1      22.645  26.099  43.210  1.00  0.00    -0.333 N 
ATOM     19  H4  UNL     1      22.440  27.012  42.805  1.00  0.00     0.180 HD
BRANCH  18  20
HETATM   20  N5  UNL     1      22.071  25.660  44.443  1.00  0.00    -0.280 N 
HETATM   21  C5  UNL     1      20.841  25.307  44.508  1.00  0.00     0.215 C 
HETATM   22  N6  UNL     1      20.247  24.871  45.708  1.00  0.00    -0.065 NA
HETATM   23  N7  UNL     1      20.056  25.360  43.334  1.00  0.00    -0.065 NA
ATOM     24  H5  UNL     1      22.648  25.627  45.283  1.00  0.00     0.189 HD
ENDBRANCH  18  20
ENDBRANCH  17  18
ENDBRANCH  16  17
ENDBRANCH   6  16
BRANCH   1  25
HETATM   25  N1  UNL     1      18.949  23.152  38.630  1.00  0.00    -0.384 N 
ATOM     26  H12 UNL     1      18.023  23.493  38.885  1.00  0.00     0.157 HD
ATOM     27  H11 UNL     1      18.979  22.463  37.878  1.00  0.00     0.157 HD
ENDBRANCH   1  25
BRANCH  10  28
HETATM   28  C8  UNL     1      23.771  19.911  41.204  1.00  0.00     0.240 C 
BRANCH  28  29
HETATM   29  O2  UNL     1      23.585  19.672  42.564  1.00  0.00    -0.393 OA
ATOM     30  H2  UNL     1      23.783  18.769  42.785  1.00  0.00     0.209 HD
ENDBRANCH  28  29
ENDBRANCH  10  28
TORSDOF 7
ENDMDL
