MODEL 1
REMARK VINA RESULT: -7.844682810      0.000      0.000
REMARK  8 active torsions:
REMARK  status: ('A' for Active; 'I' for Inactive)
REMARK    1  A    between atoms: N1_1  and  C1_5 
REMARK    2  A    between atoms: C1_5  and  C2_6 
REMARK    3  A    between atoms: C2_6  and  C3_7 
REMARK    4  A    between atoms: C3_7  and  N2_8 
REMARK    5  A    between atoms: C5_13  and  N4_14 
REMARK    6  A    between atoms: N4_14  and  N5_16 
REMARK       I    between atoms: N5_16  and  C6_18 
REMARK       I    between atoms: C6_18  and  N6_19 
REMARK       I    between atoms: C6_18  and  N7_23 
REMARK    7  A    between atoms: C8_30  and  S1_31 
REMARK    8  A    between atoms: S1_31  and  N9_32 
ROOT
HETATM    1  N2  UNL     1      21.868  25.340  37.379  1.00  0.00    -0.374 N 
ATOM      2  H2  UNL     1      21.455  24.872  36.573  1.00  0.00     0.161 HD
HETATM    3  C4  UNL     1      20.895  25.694  38.022  1.00  0.00     0.141 A 
HETATM    4  N3  UNL     1      19.633  25.399  37.538  1.00  0.00    -0.174 N 
ATOM      5  H3  UNL     1      19.567  24.881  36.662  1.00  0.00     0.186 HD
HETATM    6  C5  UNL     1      18.511  25.746  38.136  1.00  0.00     0.698 A 
HETATM    7  N8  UNL     1      18.534  26.428  39.292  1.00  0.00    -0.199 N 
ATOM      8  H8  UNL     1      17.670  26.700  39.762  1.00  0.00     0.183 HD
HETATM    9  C7  UNL     1      19.722  26.735  39.800  1.00  0.00     0.135 A 
HETATM   10  C8  UNL     1      20.942  26.398  39.218  1.00  0.00     0.139 A 
ENDROOT
BRANCH   6  11
HETATM   11  N4  UNL     1      17.328  25.454  37.654  1.00  0.00    -0.133 N 
ATOM     12  H4  UNL     1      17.201  24.574  37.156  1.00  0.00     0.205 HD
BRANCH  11  13
HETATM   13  N5  UNL     1      16.240  26.312  37.802  1.00  0.00    -0.270 N 
HETATM   14  C6  UNL     1      15.005  26.122  37.083  1.00  0.00     0.495 C 
HETATM   15  N6  UNL     1      14.075  27.173  37.453  1.00  0.00    -0.032 N 
HETATM   16  N7  UNL     1      14.374  24.859  37.386  1.00  0.00    -0.032 N 
ATOM     17  H63 UNL     1      13.932  27.227  38.462  1.00  0.00     0.279 HD
ATOM     18  H62 UNL     1      14.466  28.104  37.313  1.00  0.00     0.279 HD
ATOM     19  H61 UNL     1      13.201  27.038  36.945  1.00  0.00     0.279 HD
ATOM     20  H73 UNL     1      15.015  24.082  37.225  1.00  0.00     0.279 HD
ATOM     21  H72 UNL     1      14.234  24.751  38.390  1.00  0.00     0.279 HD
ATOM     22  H71 UNL     1      13.501  24.724  36.878  1.00  0.00     0.279 HD
ATOM     23  H5  UNL     1      16.321  27.102  38.442  1.00  0.00     0.184 HD
ENDBRANCH  11  13
ENDBRANCH   6  11
BRANCH   1  24
HETATM   24  C3  UNL     1      23.194  25.228  37.151  1.00  0.00     0.123 C 
BRANCH  24  25
HETATM   25  C2  UNL     1      23.813  26.399  36.356  1.00  0.00     0.047 C 
BRANCH  25  26
HETATM   26  C1  UNL     1      25.301  26.375  36.647  1.00  0.00     0.231 C 
BRANCH  26  27
HETATM   27  N1  UNL     1      26.073  26.886  35.534  1.00  0.00    -0.079 N 
ATOM     28  H13 UNL     1      25.961  26.302  34.705  1.00  0.00     0.274 HD
ATOM     29  H12 UNL     1      25.675  27.753  35.173  1.00  0.00     0.274 HD
ATOM     30  H11 UNL     1      27.056  27.002  35.779  1.00  0.00     0.274 HD
ENDBRANCH  26  27
ENDBRANCH  25  26
ENDBRANCH  24  25
ENDBRANCH   1  24
BRANCH  10  31
HETATM   31  S1  UNL     1      22.437  26.832  40.011  1.00  0.00     0.261 S 
HETATM   32  O1  UNL     1      23.103  27.910  39.250  1.00  0.00    -0.201 OA
HETATM   33  O2  UNL     1      23.311  25.639  40.285  1.00  0.00    -0.201 OA
BRANCH  31  34
HETATM   34  N9  UNL     1      22.014  27.430  41.606  1.00  0.00    -0.324 N 
ATOM     35  H92 UNL     1      21.295  27.043  42.216  1.00  0.00     0.169 HD
ATOM     36  H91 UNL     1      22.622  28.227  41.795  1.00  0.00     0.169 HD
ENDBRANCH  31  34
ENDBRANCH  10  31
TORSDOF 8
ENDMDL
MODEL 2
REMARK VINA RESULT: -7.776118734      2.589      3.278
REMARK  8 active torsions:
REMARK  status: ('A' for Active; 'I' for Inactive)
REMARK    1  A    between atoms: N1_1  and  C1_5 
REMARK    2  A    between atoms: C1_5  and  C2_6 
REMARK    3  A    between atoms: C2_6  and  C3_7 
REMARK    4  A    between atoms: C3_7  and  N2_8 
REMARK    5  A    between atoms: C5_13  and  N4_14 
REMARK    6  A    between atoms: N4_14  and  N5_16 
REMARK       I    between atoms: N5_16  and  C6_18 
REMARK       I    between atoms: C6_18  and  N6_19 
REMARK       I    between atoms: C6_18  and  N7_23 
REMARK    7  A    between atoms: C8_30  and  S1_31 
REMARK    8  A    between atoms: S1_31  and  N9_32 
ROOT
HETATM    1  N2  UNL     1      21.179  23.499  39.118  1.00  0.00    -0.374 N 
ATOM      2  H2  UNL     1      20.715  22.878  38.457  1.00  0.00     0.161 HD
HETATM    3  C4  UNL     1      20.427  24.457  39.172  1.00  0.00     0.141 A 
HETATM    4  N3  UNL     1      19.277  24.445  38.404  1.00  0.00    -0.174 N 
ATOM      5  H3  UNL     1      19.095  23.622  37.829  1.00  0.00     0.186 HD
HETATM    6  C5  UNL     1      18.401  25.429  38.366  1.00  0.00     0.698 A 
HETATM    7  N8  UNL     1      18.585  26.538  39.100  1.00  0.00    -0.199 N 
ATOM      8  H8  UNL     1      17.913  27.305  39.078  1.00  0.00     0.183 HD
HETATM    9  C7  UNL     1      19.676  26.599  39.857  1.00  0.00     0.135 A 
HETATM   10  C8  UNL     1      20.637  25.594  39.940  1.00  0.00     0.139 A 
ENDROOT
BRANCH   6  11
HETATM   11  N4  UNL     1      17.319  25.392  37.629  1.00  0.00    -0.133 N 
ATOM     12  H4  UNL     1      17.259  24.708  36.874  1.00  0.00     0.205 HD
BRANCH  11  13
HETATM   13  N5  UNL     1      16.249  26.258  37.844  1.00  0.00    -0.270 N 
HETATM   14  C6  UNL     1      15.010  26.150  37.115  1.00  0.00     0.495 C 
HETATM   15  N6  UNL     1      14.103  27.188  37.566  1.00  0.00    -0.032 N 
HETATM   16  N7  UNL     1      14.353  24.881  37.319  1.00  0.00    -0.032 N 
ATOM     17  H63 UNL     1      13.961  27.167  38.576  1.00  0.00     0.279 HD
ATOM     18  H62 UNL     1      14.514  28.120  37.499  1.00  0.00     0.279 HD
ATOM     19  H61 UNL     1      13.227  27.112  37.050  1.00  0.00     0.279 HD
ATOM     20  H73 UNL     1      14.978  24.106  37.097  1.00  0.00     0.279 HD
ATOM     21  H72 UNL     1      14.211  24.698  38.311  1.00  0.00     0.279 HD
ATOM     22  H71 UNL     1      13.477  24.805  36.803  1.00  0.00     0.279 HD
ATOM     23  H5  UNL     1      16.346  26.994  38.544  1.00  0.00     0.184 HD
ENDBRANCH  11  13
ENDBRANCH   6  11
BRANCH   1  24
HETATM   24  C3  UNL     1      22.290  22.810  39.457  1.00  0.00     0.123 C 
BRANCH  24  25
HETATM   25  C2  UNL     1      22.055  21.656  40.456  1.00  0.00     0.047 C 
BRANCH  25  26
HETATM   26  C1  UNL     1      23.302  21.572  41.315  1.00  0.00     0.231 C 
BRANCH  26  27
HETATM   27  N1  UNL     1      23.032  21.938  42.688  1.00  0.00    -0.079 N 
ATOM     28  H13 UNL     1      22.890  22.943  42.784  1.00  0.00     0.274 HD
ATOM     29  H12 UNL     1      22.111  21.617  42.984  1.00  0.00     0.274 HD
ATOM     30  H11 UNL     1      23.762  21.603  43.318  1.00  0.00     0.274 HD
ENDBRANCH  26  27
ENDBRANCH  25  26
ENDBRANCH  24  25
ENDBRANCH   1  24
BRANCH  10  31
HETATM   31  S1  UNL     1      22.009  25.786  41.005  1.00  0.00     0.261 S 
HETATM   32  O1  UNL     1      23.252  25.818  40.204  1.00  0.00    -0.201 OA
HETATM   33  O2  UNL     1      22.019  24.776  42.119  1.00  0.00    -0.201 OA
BRANCH  31  34
HETATM   34  N9  UNL     1      21.810  27.326  41.822  1.00  0.00    -0.324 N 
ATOM     35  H92 UNL     1      20.922  27.791  42.009  1.00  0.00     0.169 HD
ATOM     36  H91 UNL     1      22.744  27.655  42.067  1.00  0.00     0.169 HD
ENDBRANCH  31  34
ENDBRANCH  10  31
TORSDOF 8
ENDMDL
MODEL 3
REMARK VINA RESULT: -7.698581150      2.450      4.190
REMARK  8 active torsions:
REMARK  status: ('A' for Active; 'I' for Inactive)
REMARK    1  A    between atoms: N1_1  and  C1_5 
REMARK    2  A    between atoms: C1_5  and  C2_6 
REMARK    3  A    between atoms: C2_6  and  C3_7 
REMARK    4  A    between atoms: C3_7  and  N2_8 
REMARK    5  A    between atoms: C5_13  and  N4_14 
REMARK    6  A    between atoms: N4_14  and  N5_16 
REMARK       I    between atoms: N5_16  and  C6_18 
REMARK       I    between atoms: C6_18  and  N6_19 
REMARK       I    between atoms: C6_18  and  N7_23 
REMARK    7  A    between atoms: C8_30  and  S1_31 
REMARK    8  A    between atoms: S1_31  and  N9_32 
ROOT
HETATM    1  N2  UNL     1      19.912  25.934  40.485  1.00  0.00    -0.374 N 
ATOM      2  H2  UNL     1      19.170  26.113  41.161  1.00  0.00     0.161 HD
HETATM    3  C4  UNL     1      19.342  26.042  39.414  1.00  0.00     0.141 A 
HETATM    4  N3  UNL     1      17.992  26.343  39.405  1.00  0.00    -0.174 N 
ATOM      5  H3  UNL     1      17.526  26.477  40.302  1.00  0.00     0.186 HD
HETATM    6  C5  UNL     1      17.268  26.467  38.310  1.00  0.00     0.698 A 
HETATM    7  N8  UNL     1      17.824  26.302  37.100  1.00  0.00    -0.199 N 
ATOM      8  H8  UNL     1      17.272  26.396  36.247  1.00  0.00     0.183 HD
HETATM    9  C7  UNL     1      19.120  26.012  37.053  1.00  0.00     0.135 A 
HETATM   10  C8  UNL     1      19.938  25.869  38.172  1.00  0.00     0.139 A 
ENDROOT
BRANCH   6  11
HETATM   11  N4  UNL     1      15.990  26.752  38.331  1.00  0.00    -0.133 N 
ATOM     12  H4  UNL     1      15.564  27.053  39.208  1.00  0.00     0.205 HD
BRANCH  11  13
HETATM   13  N5  UNL     1      15.194  26.656  37.191  1.00  0.00    -0.270 N 
HETATM   14  C6  UNL     1      14.656  25.400  36.729  1.00  0.00     0.495 C 
HETATM   15  N6  UNL     1      13.877  25.632  35.527  1.00  0.00    -0.032 N 
HETATM   16  N7  UNL     1      13.785  24.779  37.698  1.00  0.00    -0.032 N 
ATOM     17  H63 UNL     1      13.152  26.337  35.665  1.00  0.00     0.279 HD
ATOM     18  H62 UNL     1      14.411  26.115  34.805  1.00  0.00     0.279 HD
ATOM     19  H61 UNL     1      13.496  24.744  35.201  1.00  0.00     0.279 HD
ATOM     20  H73 UNL     1      14.257  24.668  38.596  1.00  0.00     0.279 HD
ATOM     21  H72 UNL     1      13.040  25.415  37.981  1.00  0.00     0.279 HD
ATOM     22  H71 UNL     1      13.405  23.891  37.371  1.00  0.00     0.279 HD
ATOM     23  H5  UNL     1      14.986  27.504  36.664  1.00  0.00     0.184 HD
ENDBRANCH  11  13
ENDBRANCH   6  11
BRANCH   1  24
HETATM   24  C3  UNL     1      20.990  25.707  41.267  1.00  0.00     0.123 C 
BRANCH  24  25
HETATM   25  C2  UNL     1      20.746  24.725  42.434  1.00  0.00     0.047 C 
BRANCH  25  26
HETATM   26  C1  UNL     1      20.691  23.338  41.822  1.00  0.00     0.231 C 
BRANCH  26  27
HETATM   27  N1  UNL     1      19.526  22.604  42.264  1.00  0.00    -0.079 N 
ATOM     28  H13 UNL     1      19.366  22.728  43.264  1.00  0.00     0.274 HD
ATOM     29  H12 UNL     1      18.665  23.023  41.912  1.00  0.00     0.274 HD
ATOM     30  H11 UNL     1      19.586  21.616  42.017  1.00  0.00     0.274 HD
ENDBRANCH  26  27
ENDBRANCH  25  26
ENDBRANCH  24  25
ENDBRANCH   1  24
BRANCH  10  31
HETATM   31  S1  UNL     1      21.638  25.522  37.970  1.00  0.00     0.261 S 
HETATM   32  O1  UNL     1      21.950  24.213  38.584  1.00  0.00    -0.201 OA
HETATM   33  O2  UNL     1      22.516  26.649  38.441  1.00  0.00    -0.201 OA
BRANCH  31  34
HETATM   34  N9  UNL     1      21.940  25.434  36.243  1.00  0.00    -0.324 N 
ATOM     35  H92 UNL     1      21.587  26.085  35.542  1.00  0.00     0.169 HD
ATOM     36  H91 UNL     1      22.529  24.617  36.086  1.00  0.00     0.169 HD
ENDBRANCH  31  34
ENDBRANCH  10  31
TORSDOF 8
ENDMDL
MODEL 4
REMARK VINA RESULT: -7.693365825      1.842      4.067
REMARK  8 active torsions:
REMARK  status: ('A' for Active; 'I' for Inactive)
REMARK    1  A    between atoms: N1_1  and  C1_5 
REMARK    2  A    between atoms: C1_5  and  C2_6 
REMARK    3  A    between atoms: C2_6  and  C3_7 
REMARK    4  A    between atoms: C3_7  and  N2_8 
REMARK    5  A    between atoms: C5_13  and  N4_14 
REMARK    6  A    between atoms: N4_14  and  N5_16 
REMARK       I    between atoms: N5_16  and  C6_18 
REMARK       I    between atoms: C6_18  and  N6_19 
REMARK       I    between atoms: C6_18  and  N7_23 
REMARK    7  A    between atoms: C8_30  and  S1_31 
REMARK    8  A    between atoms: S1_31  and  N9_32 
ROOT
HETATM    1  N2  UNL     1      20.608  26.388  40.766  1.00  0.00    -0.374 N 
ATOM      2  H2  UNL     1      19.719  26.240  41.242  1.00  0.00     0.161 HD
HETATM    3  C4  UNL     1      20.338  26.167  39.599  1.00  0.00     0.141 A 
HETATM    4  N3  UNL     1      19.041  25.813  39.270  1.00  0.00    -0.174 N 
ATOM      5  H3  UNL     1      18.355  25.764  40.023  1.00  0.00     0.186 HD
HETATM    6  C5  UNL     1      18.637  25.534  38.048  1.00  0.00     0.698 A 
HETATM    7  N8  UNL     1      19.494  25.582  37.016  1.00  0.00    -0.199 N 
ATOM      8  H8  UNL     1      19.190  25.368  36.065  1.00  0.00     0.183 HD
HETATM    9  C7  UNL     1      20.752  25.918  37.277  1.00  0.00     0.135 A 
HETATM   10  C8  UNL     1      21.241  26.224  38.546  1.00  0.00     0.139 A 
ENDROOT
BRANCH   6  11
HETATM   11  N4  UNL     1      17.402  25.200  37.765  1.00  0.00    -0.133 N 
ATOM     12  H4  UNL     1      17.207  24.252  37.445  1.00  0.00     0.205 HD
BRANCH  11  13
HETATM   13  N5  UNL     1      16.348  26.103  37.888  1.00  0.00    -0.270 N 
HETATM   14  C6  UNL     1      15.142  25.993  37.105  1.00  0.00     0.495 C 
HETATM   15  N6  UNL     1      14.244  27.074  37.463  1.00  0.00    -0.032 N 
HETATM   16  N7  UNL     1      14.441  24.752  37.335  1.00  0.00    -0.032 N 
ATOM     17  H63 UNL     1      14.054  27.105  38.465  1.00  0.00     0.279 HD
ATOM     18  H62 UNL     1      14.683  27.991  37.373  1.00  0.00     0.279 HD
ATOM     19  H61 UNL     1      13.391  26.996  36.909  1.00  0.00     0.279 HD
ATOM     20  H73 UNL     1      15.054  23.951  37.180  1.00  0.00     0.279 HD
ATOM     21  H72 UNL     1      14.247  24.621  38.327  1.00  0.00     0.279 HD
ATOM     22  H71 UNL     1      13.589  24.674  36.781  1.00  0.00     0.279 HD
ATOM     23  H5  UNL     1      16.432  26.869  38.557  1.00  0.00     0.184 HD
ENDBRANCH  11  13
ENDBRANCH   6  11
BRANCH   1  24
HETATM   24  C3  UNL     1      21.442  26.722  41.774  1.00  0.00     0.123 C 
BRANCH  24  25
HETATM   25  C2  UNL     1      21.893  25.539  42.659  1.00  0.00     0.047 C 
BRANCH  25  26
HETATM   26  C1  UNL     1      20.729  25.224  43.579  1.00  0.00     0.231 C 
BRANCH  26  27
HETATM   27  N1  UNL     1      21.012  25.598  44.947  1.00  0.00    -0.079 N 
ATOM     28  H13 UNL     1      21.343  26.562  45.008  1.00  0.00     0.274 HD
ATOM     29  H12 UNL     1      20.155  25.690  45.492  1.00  0.00     0.274 HD
ATOM     30  H11 UNL     1      21.665  24.951  45.388  1.00  0.00     0.274 HD
ENDBRANCH  26  27
ENDBRANCH  25  26
ENDBRANCH  24  25
ENDBRANCH   1  24
BRANCH  10  31
HETATM   31  S1  UNL     1      22.913  26.688  38.748  1.00  0.00     0.261 S 
HETATM   32  O1  UNL     1      23.616  25.660  39.545  1.00  0.00    -0.201 OA
HETATM   33  O2  UNL     1      23.063  28.087  39.277  1.00  0.00    -0.201 OA
BRANCH  31  34
HETATM   34  N9  UNL     1      23.621  26.756  37.143  1.00  0.00    -0.324 N 
ATOM     35  H92 UNL     1      23.189  27.170  36.318  1.00  0.00     0.169 HD
ATOM     36  H91 UNL     1      24.535  26.308  37.203  1.00  0.00     0.169 HD
ENDBRANCH  31  34
ENDBRANCH  10  31
TORSDOF 8
ENDMDL
MODEL 5
REMARK VINA RESULT: -7.665813270      3.620      6.110
REMARK  8 active torsions:
REMARK  status: ('A' for Active; 'I' for Inactive)
REMARK    1  A    between atoms: N1_1  and  C1_5 
REMARK    2  A    between atoms: C1_5  and  C2_6 
REMARK    3  A    between atoms: C2_6  and  C3_7 
REMARK    4  A    between atoms: C3_7  and  N2_8 
REMARK    5  A    between atoms: C5_13  and  N4_14 
REMARK    6  A    between atoms: N4_14  and  N5_16 
REMARK       I    between atoms: N5_16  and  C6_18 
REMARK       I    between atoms: C6_18  and  N6_19 
REMARK       I    between atoms: C6_18  and  N7_23 
REMARK    7  A    between atoms: C8_30  and  S1_31 
REMARK    8  A    between atoms: S1_31  and  N9_32 
ROOT
HETATM    1  N2  UNL     1      20.315  24.912  38.068  1.00  0.00    -0.374 N 
ATOM      2  H2  UNL     1      20.112  24.161  37.408  1.00  0.00     0.161 HD
HETATM    3  C4  UNL     1      20.524  24.315  39.110  1.00  0.00     0.141 A 
HETATM    4  N3  UNL     1      20.437  22.935  39.116  1.00  0.00    -0.174 N 
ATOM      5  H3  UNL     1      20.213  22.466  38.239  1.00  0.00     0.186 HD
HETATM    6  C5  UNL     1      20.625  22.187  40.185  1.00  0.00     0.698 A 
HETATM    7  N8  UNL     1      20.923  22.745  41.368  1.00  0.00    -0.199 N 
ATOM      8  H8  UNL     1      21.071  22.173  42.201  1.00  0.00     0.183 HD
HETATM    9  C7  UNL     1      21.019  24.069  41.415  1.00  0.00     0.135 A 
HETATM   10  C8  UNL     1      20.833  24.914  40.324  1.00  0.00     0.139 A 
ENDROOT
BRANCH   6  11
HETATM   11  N4  UNL     1      20.536  20.879  40.163  1.00  0.00    -0.133 N 
ATOM     12  H4  UNL     1      19.855  20.420  40.767  1.00  0.00     0.205 HD
BRANCH  11  13
HETATM   13  N5  UNL     1      21.345  20.099  39.339  1.00  0.00    -0.270 N 
HETATM   14  C6  UNL     1      22.782  20.224  39.327  1.00  0.00     0.495 C 
HETATM   15  N6  UNL     1      23.331  19.280  38.371  1.00  0.00    -0.032 N 
HETATM   16  N7  UNL     1      23.376  19.936  40.610  1.00  0.00    -0.032 N 
ATOM     17  H63 UNL     1      23.026  18.323  38.552  1.00  0.00     0.279 HD
ATOM     18  H62 UNL     1      22.924  19.387  37.442  1.00  0.00     0.279 HD
ATOM     19  H61 UNL     1      24.347  19.368  38.363  1.00  0.00     0.279 HD
ATOM     20  H73 UNL     1      22.964  20.515  41.343  1.00  0.00     0.279 HD
ATOM     21  H72 UNL     1      23.090  19.017  40.948  1.00  0.00     0.279 HD
ATOM     22  H71 UNL     1      24.391  20.024  40.602  1.00  0.00     0.279 HD
ATOM     23  H5  UNL     1      20.905  19.415  38.723  1.00  0.00     0.184 HD
ENDBRANCH  11  13
ENDBRANCH   6  11
BRANCH   1  24
HETATM   24  C3  UNL     1      20.205  26.023  37.309  1.00  0.00     0.123 C 
BRANCH  24  25
HETATM   25  C2  UNL     1      18.763  26.372  36.880  1.00  0.00     0.047 C 
BRANCH  25  26
HETATM   26  C1  UNL     1      17.842  25.601  37.805  1.00  0.00     0.231 C 
BRANCH  26  27
HETATM   27  N1  UNL     1      17.250  26.458  38.809  1.00  0.00    -0.079 N 
ATOM     28  H13 UNL     1      16.803  27.272  38.386  1.00  0.00     0.274 HD
ATOM     29  H12 UNL     1      16.428  26.026  39.229  1.00  0.00     0.274 HD
ATOM     30  H11 UNL     1      17.929  26.733  39.518  1.00  0.00     0.274 HD
ENDBRANCH  26  27
ENDBRANCH  25  26
ENDBRANCH  24  25
ENDBRANCH   1  24
BRANCH  10  31
HETATM   31  S1  UNL     1      21.025  26.640  40.514  1.00  0.00     0.261 S 
HETATM   32  O1  UNL     1      19.716  27.304  40.334  1.00  0.00    -0.201 OA
HETATM   33  O2  UNL     1      22.122  27.197  39.649  1.00  0.00    -0.201 OA
BRANCH  31  34
HETATM   34  N9  UNL     1      21.588  26.914  42.153  1.00  0.00    -0.324 N 
ATOM     35  H92 UNL     1      22.308  27.580  42.433  1.00  0.00     0.169 HD
ATOM     36  H91 UNL     1      21.060  26.284  42.758  1.00  0.00     0.169 HD
ENDBRANCH  31  34
ENDBRANCH  10  31
TORSDOF 8
ENDMDL
