MODEL 1
REMARK VINA RESULT: -7.653969892      0.000      0.000
REMARK  9 active torsions:
REMARK  status: ('A' for Active; 'I' for Inactive)
REMARK    1  A    between atoms: C3_7  and  N3_8 
REMARK    2  A    between atoms: N3_8  and  C4_10 
REMARK    3  A    between atoms: C4_10  and  C6_12 
REMARK    4  A    between atoms: C4_10  and  C7_15 
REMARK    5  A    between atoms: C6_12  and  O1_13 
REMARK    6  A    between atoms: C7_15  and  O2_16 
REMARK    7  A    between atoms: C9_20  and  N5_21 
REMARK    8  A    between atoms: N5_21  and  N6_23 
REMARK       I    between atoms: N6_23  and  C10_25 
REMARK    9  A    between atoms: N9_30  and  N10_31 
ROOT
HETATM    1  C1  UNL     1      23.545  19.682  39.337  1.00  0.00     0.165 C 
HETATM    2  N1  UNL     1      22.650  20.699  38.984  1.00  0.00    -0.228 N 
ATOM      3  H1  UNL     1      22.482  20.760  37.980  1.00  0.00     0.177 HD
HETATM    4  C2  UNL     1      22.004  21.564  39.656  1.00  0.00     0.728 A 
HETATM    5  N2  UNL     1      21.195  22.430  38.967  1.00  0.00    -0.020 N 
ATOM      6  H2  UNL     1      21.150  22.341  37.951  1.00  0.00     0.203 HD
HETATM    7  C3  UNL     1      20.466  23.379  39.544  1.00  0.00     0.708 A 
HETATM    8  N4  UNL     1      20.550  23.464  40.887  1.00  0.00    -0.018 N 
ATOM      9  H4  UNL     1      20.005  24.178  41.370  1.00  0.00     0.203 HD
HETATM   10  C9  UNL     1      21.339  22.627  41.624  1.00  0.00     0.747 A 
HETATM   11  N9  UNL     1      22.051  21.694  40.995  1.00  0.00     0.085 N 
ENDROOT
BRANCH   7  12
HETATM   12  N3  UNL     1      19.699  24.207  38.952  1.00  0.00    -0.212 N 
ATOM     13  H3  UNL     1      18.749  23.872  38.793  1.00  0.00     0.178 HD
BRANCH  12  14
HETATM   14  C4  UNL     1      19.957  25.525  38.476  1.00  0.00     0.086 C 
HETATM   15  C5  UNL     1      21.271  25.563  37.765  1.00  0.00     0.043 C 
BRANCH  14  16
HETATM   16  C6  UNL     1      19.812  26.556  39.574  1.00  0.00     0.197 C 
BRANCH  16  17
HETATM   17  O1  UNL     1      18.784  26.280  40.437  1.00  0.00    -0.398 OA
ATOM     18  H1  UNL     1      19.080  26.077  41.316  1.00  0.00     0.209 HD
ENDBRANCH  16  17
ENDBRANCH  14  16
BRANCH  14  19
HETATM   19  C7  UNL     1      18.906  25.913  37.410  1.00  0.00     0.200 C 
BRANCH  19  20
HETATM   20  O2  UNL     1      17.772  25.129  37.584  1.00  0.00    -0.393 OA
HETATM   21  C8  UNL     1      16.612  25.795  37.271  1.00  0.00     0.201 C 
ENDBRANCH  19  20
ENDBRANCH  14  19
ENDBRANCH  12  14
ENDBRANCH   7  12
BRANCH  10  22
HETATM   22  N5  UNL     1      21.332  22.806  42.871  1.00  0.00    -0.127 N 
ATOM     23  H5  UNL     1      20.937  22.061  43.445  1.00  0.00     0.205 HD
BRANCH  22  24
HETATM   24  N6  UNL     1      21.808  23.909  43.523  1.00  0.00    -0.259 N 
HETATM   25  C10 UNL     1      20.974  24.973  43.950  1.00  0.00     0.201 C 
HETATM   26  N7  UNL     1      21.320  25.665  44.968  1.00  0.00    -0.372 N 
HETATM   27  N8  UNL     1      19.789  25.246  43.252  1.00  0.00    -0.062 NA
ATOM     28  H72 UNL     1      22.183  25.467  45.476  1.00  0.00     0.158 HD
ATOM     29  H71 UNL     1      20.720  26.431  45.275  1.00  0.00     0.158 HD
ATOM     30  H6  UNL     1      22.809  23.970  43.711  1.00  0.00     0.190 HD
ENDBRANCH  22  24
ENDBRANCH  10  22
BRANCH  11  31
HETATM   31  N10 UNL     1      22.885  20.807  41.726  1.00  0.00    -0.309 N 
ATOM     32 2H10 UNL     1      22.907  19.812  41.502  1.00  0.00     0.178 HD
ATOM     33 1H10 UNL     1      23.458  21.192  42.477  1.00  0.00     0.178 HD
ENDBRANCH  11  31
TORSDOF 9
ENDMDL
MODEL 2
REMARK VINA RESULT: -7.634141353      1.239      2.282
REMARK  9 active torsions:
REMARK  status: ('A' for Active; 'I' for Inactive)
REMARK    1  A    between atoms: C3_7  and  N3_8 
REMARK    2  A    between atoms: N3_8  and  C4_10 
REMARK    3  A    between atoms: C4_10  and  C6_12 
REMARK    4  A    between atoms: C4_10  and  C7_15 
REMARK    5  A    between atoms: C6_12  and  O1_13 
REMARK    6  A    between atoms: C7_15  and  O2_16 
REMARK    7  A    between atoms: C9_20  and  N5_21 
REMARK    8  A    between atoms: N5_21  and  N6_23 
REMARK       I    between atoms: N6_23  and  C10_25 
REMARK    9  A    between atoms: N9_30  and  N10_31 
ROOT
HETATM    1  C1  UNL     1      23.428  19.643  39.029  1.00  0.00     0.165 C 
HETATM    2  N1  UNL     1      22.559  20.725  38.843  1.00  0.00    -0.228 N 
ATOM      3  H1  UNL     1      22.175  20.778  37.900  1.00  0.00     0.177 HD
HETATM    4  C2  UNL     1      22.150  21.655  39.607  1.00  0.00     0.728 A 
HETATM    5  N2  UNL     1      21.277  22.572  39.081  1.00  0.00    -0.020 N 
ATOM      6  H2  UNL     1      20.999  22.466  38.105  1.00  0.00     0.203 HD
HETATM    7  C3  UNL     1      20.772  23.591  39.767  1.00  0.00     0.708 A 
HETATM    8  N4  UNL     1      21.162  23.697  41.053  1.00  0.00    -0.018 N 
ATOM      9  H4  UNL     1      20.797  24.465  41.616  1.00  0.00     0.203 HD
HETATM   10  C9  UNL     1      22.028  22.813  41.630  1.00  0.00     0.747 A 
HETATM   11  N9  UNL     1      22.506  21.808  40.895  1.00  0.00     0.085 N 
ENDROOT
BRANCH   7  12
HETATM   12  N3  UNL     1      19.959  24.469  39.328  1.00  0.00    -0.212 N 
ATOM     13  H3  UNL     1      18.979  24.187  39.337  1.00  0.00     0.178 HD
BRANCH  12  14
HETATM   14  C4  UNL     1      20.201  25.780  38.825  1.00  0.00     0.086 C 
HETATM   15  C5  UNL     1      20.014  26.787  39.913  1.00  0.00     0.043 C 
BRANCH  14  16
HETATM   16  C6  UNL     1      19.397  26.058  37.574  1.00  0.00     0.197 C 
BRANCH  16  17
HETATM   17  O1  UNL     1      18.893  24.921  36.996  1.00  0.00    -0.398 OA
ATOM     18  H1  UNL     1      19.459  24.166  37.104  1.00  0.00     0.209 HD
ENDBRANCH  16  17
ENDBRANCH  14  16
BRANCH  14  19
HETATM   19  C7  UNL     1      21.681  25.912  38.397  1.00  0.00     0.200 C 
BRANCH  19  20
HETATM   20  O2  UNL     1      21.868  25.238  37.195  1.00  0.00    -0.393 OA
HETATM   21  C8  UNL     1      23.164  24.820  37.017  1.00  0.00     0.201 C 
ENDBRANCH  19  20
ENDBRANCH  14  19
ENDBRANCH  12  14
ENDBRANCH   7  12
BRANCH  10  22
HETATM   22  N5  UNL     1      22.315  23.017  42.839  1.00  0.00    -0.127 N 
ATOM     23  H5  UNL     1      23.210  22.656  43.172  1.00  0.00     0.205 HD
BRANCH  22  24
HETATM   24  N6  UNL     1      21.535  23.680  43.744  1.00  0.00    -0.259 N 
HETATM   25  C10 UNL     1      21.945  24.873  44.391  1.00  0.00     0.201 C 
HETATM   26  N7  UNL     1      21.057  25.712  44.770  1.00  0.00    -0.372 N 
HETATM   27  N8  UNL     1      23.310  25.111  44.601  1.00  0.00    -0.062 NA
ATOM     28  H72 UNL     1      20.063  25.539  44.617  1.00  0.00     0.158 HD
ATOM     29  H71 UNL     1      21.352  26.571  45.235  1.00  0.00     0.158 HD
ATOM     30  H6  UNL     1      20.615  23.298  43.966  1.00  0.00     0.190 HD
ENDBRANCH  22  24
ENDBRANCH  10  22
BRANCH  11  31
HETATM   31  N10 UNL     1      23.411  20.870  41.458  1.00  0.00    -0.309 N 
ATOM     32 2H10 UNL     1      24.230  20.562  40.935  1.00  0.00     0.178 HD
ATOM     33 1H10 UNL     1      23.218  20.515  42.394  1.00  0.00     0.178 HD
ENDBRANCH  11  31
TORSDOF 9
ENDMDL
MODEL 3
REMARK VINA RESULT: -7.530418907      1.210      2.344
REMARK  9 active torsions:
REMARK  status: ('A' for Active; 'I' for Inactive)
REMARK    1  A    between atoms: C3_7  and  N3_8 
REMARK    2  A    between atoms: N3_8  and  C4_10 
REMARK    3  A    between atoms: C4_10  and  C6_12 
REMARK    4  A    between atoms: C4_10  and  C7_15 
REMARK    5  A    between atoms: C6_12  and  O1_13 
REMARK    6  A    between atoms: C7_15  and  O2_16 
REMARK    7  A    between atoms: C9_20  and  N5_21 
REMARK    8  A    between atoms: N5_21  and  N6_23 
REMARK       I    between atoms: N6_23  and  C10_25 
REMARK    9  A    between atoms: N9_30  and  N10_31 
ROOT
HETATM    1  C1  UNL     1      23.449  19.603  39.050  1.00  0.00     0.165 C 
HETATM    2  N1  UNL     1      22.495  20.607  38.845  1.00  0.00    -0.228 N 
ATOM      3  H1  UNL     1      22.058  20.568  37.925  1.00  0.00     0.177 HD
HETATM    4  C2  UNL     1      22.061  21.557  39.570  1.00  0.00     0.728 A 
HETATM    5  N2  UNL     1      21.096  22.374  39.036  1.00  0.00    -0.020 N 
ATOM      6  H2  UNL     1      20.774  22.181  38.087  1.00  0.00     0.203 HD
HETATM    7  C3  UNL     1      20.557  23.401  39.684  1.00  0.00     0.708 A 
HETATM    8  N4  UNL     1      21.007  23.622  40.934  1.00  0.00    -0.018 N 
ATOM      9  H4  UNL     1      20.618  24.400  41.467  1.00  0.00     0.203 HD
HETATM   10  C9  UNL     1      21.965  22.842  41.516  1.00  0.00     0.747 A 
HETATM   11  N9  UNL     1      22.474  21.824  40.822  1.00  0.00     0.085 N 
ENDROOT
BRANCH   7  12
HETATM   12  N3  UNL     1      19.659  24.187  39.236  1.00  0.00    -0.212 N 
ATOM     13  H3  UNL     1      18.704  23.842  39.325  1.00  0.00     0.178 HD
BRANCH  12  14
HETATM   14  C4  UNL     1      19.778  25.472  38.631  1.00  0.00     0.086 C 
HETATM   15  C5  UNL     1      18.527  25.803  37.884  1.00  0.00     0.043 C 
BRANCH  14  16
HETATM   16  C6  UNL     1      21.044  25.591  37.810  1.00  0.00     0.197 C 
BRANCH  16  17
HETATM   17  O1  UNL     1      20.813  25.556  36.460  1.00  0.00    -0.398 OA
ATOM     18  H1  UNL     1      20.444  26.364  36.124  1.00  0.00     0.209 HD
ENDBRANCH  16  17
ENDBRANCH  14  16
BRANCH  14  19
HETATM   19  C7  UNL     1      19.898  26.558  39.726  1.00  0.00     0.200 C 
BRANCH  19  20
HETATM   20  O2  UNL     1      21.241  26.762  40.017  1.00  0.00    -0.393 OA
HETATM   21  C8  UNL     1      21.444  27.219  41.296  1.00  0.00     0.201 C 
ENDBRANCH  19  20
ENDBRANCH  14  19
ENDBRANCH  12  14
ENDBRANCH   7  12
BRANCH  10  22
HETATM   22  N5  UNL     1      22.301  23.149  42.690  1.00  0.00    -0.127 N 
ATOM     23  H5  UNL     1      23.248  22.904  42.982  1.00  0.00     0.205 HD
BRANCH  22  24
HETATM   24  N6  UNL     1      21.510  23.781  43.608  1.00  0.00    -0.259 N 
HETATM   25  C10 UNL     1      21.933  24.920  44.338  1.00  0.00     0.201 C 
HETATM   26  N7  UNL     1      21.058  25.763  44.738  1.00  0.00    -0.372 N 
HETATM   27  N8  UNL     1      23.297  25.102  44.606  1.00  0.00    -0.062 NA
ATOM     28  H72 UNL     1      20.065  25.630  44.543  1.00  0.00     0.158 HD
ATOM     29  H71 UNL     1      21.363  26.583  45.264  1.00  0.00     0.158 HD
ATOM     30  H6  UNL     1      20.573  23.416  43.776  1.00  0.00     0.190 HD
ENDBRANCH  22  24
ENDBRANCH  10  22
BRANCH  11  31
HETATM   31  N10 UNL     1      23.474  20.992  41.390  1.00  0.00    -0.309 N 
ATOM     32 2H10 UNL     1      23.232  20.080  41.776  1.00  0.00     0.178 HD
ATOM     33 1H10 UNL     1      24.436  21.331  41.402  1.00  0.00     0.178 HD
ENDBRANCH  11  31
TORSDOF 9
ENDMDL
MODEL 4
REMARK VINA RESULT: -7.411168192      2.546      5.161
REMARK  9 active torsions:
REMARK  status: ('A' for Active; 'I' for Inactive)
REMARK    1  A    between atoms: C3_7  and  N3_8 
REMARK    2  A    between atoms: N3_8  and  C4_10 
REMARK    3  A    between atoms: C4_10  and  C6_12 
REMARK    4  A    between atoms: C4_10  and  C7_15 
REMARK    5  A    between atoms: C6_12  and  O1_13 
REMARK    6  A    between atoms: C7_15  and  O2_16 
REMARK    7  A    between atoms: C9_20  and  N5_21 
REMARK    8  A    between atoms: N5_21  and  N6_23 
REMARK       I    between atoms: N6_23  and  C10_25 
REMARK    9  A    between atoms: N9_30  and  N10_31 
ROOT
HETATM    1  C1  UNL     1      18.878  26.166  37.240  1.00  0.00     0.165 C 
HETATM    2  N1  UNL     1      19.777  25.186  37.678  1.00  0.00    -0.228 N 
ATOM      3  H1  UNL     1      19.979  24.478  36.972  1.00  0.00     0.177 HD
HETATM    4  C2  UNL     1      20.394  24.996  38.773  1.00  0.00     0.728 A 
HETATM    5  N2  UNL     1      21.220  23.904  38.856  1.00  0.00    -0.020 N 
ATOM      6  H2  UNL     1      21.300  23.298  38.039  1.00  0.00     0.203 HD
HETATM    7  C3  UNL     1      21.923  23.590  39.939  1.00  0.00     0.708 A 
HETATM    8  N4  UNL     1      21.792  24.415  40.997  1.00  0.00    -0.018 N 
ATOM      9  H4  UNL     1      22.316  24.210  41.848  1.00  0.00     0.203 HD
HETATM   10  C9  UNL     1      20.985  25.516  40.970  1.00  0.00     0.747 A 
HETATM   11  N9  UNL     1      20.301  25.786  39.858  1.00  0.00     0.085 N 
ENDROOT
BRANCH   7  12
HETATM   12  N3  UNL     1      22.703  22.591  40.068  1.00  0.00    -0.212 N 
ATOM     13  H3  UNL     1      23.583  22.666  39.558  1.00  0.00     0.178 HD
BRANCH  12  14
HETATM   14  C4  UNL     1      22.543  21.386  40.811  1.00  0.00     0.086 C 
HETATM   15  C5  UNL     1      21.187  20.808  40.563  1.00  0.00     0.043 C 
BRANCH  14  16
HETATM   16  C6  UNL     1      22.879  21.580  42.274  1.00  0.00     0.197 C 
BRANCH  16  17
HETATM   17  O1  UNL     1      21.803  21.977  43.024  1.00  0.00    -0.398 OA
ATOM     18  H1  UNL     1      21.031  22.156  42.501  1.00  0.00     0.209 HD
ENDBRANCH  16  17
ENDBRANCH  14  16
BRANCH  14  19
HETATM   19  C7  UNL     1      23.540  20.318  40.301  1.00  0.00     0.200 C 
BRANCH  19  20
HETATM   20  O2  UNL     1      23.597  20.378  38.914  1.00  0.00    -0.393 OA
HETATM   21  C8  UNL     1      23.619  19.135  38.329  1.00  0.00     0.201 C 
ENDBRANCH  19  20
ENDBRANCH  14  19
ENDBRANCH  12  14
ENDBRANCH   7  12
BRANCH  10  22
HETATM   22  N5  UNL     1      20.949  26.210  42.020  1.00  0.00    -0.127 N 
ATOM     23  H5  UNL     1      20.318  27.012  42.027  1.00  0.00     0.205 HD
BRANCH  22  24
HETATM   24  N6  UNL     1      21.679  25.983  43.153  1.00  0.00    -0.259 N 
HETATM   25  C10 UNL     1      21.219  25.171  44.219  1.00  0.00     0.201 C 
HETATM   26  N7  UNL     1      22.072  24.563  44.953  1.00  0.00    -0.372 N 
HETATM   27  N8  UNL     1      19.841  25.047  44.449  1.00  0.00    -0.062 NA
ATOM     28  H72 UNL     1      23.075  24.653  44.786  1.00  0.00     0.158 HD
ATOM     29  H71 UNL     1      21.741  23.978  45.720  1.00  0.00     0.158 HD
ATOM     30  H6  UNL     1      22.598  26.419  43.235  1.00  0.00     0.190 HD
ENDBRANCH  22  24
ENDBRANCH  10  22
BRANCH  11  31
HETATM   31  N10 UNL     1      19.449  26.920  39.792  1.00  0.00    -0.309 N 
ATOM     32 2H10 UNL     1      18.908  27.113  38.950  1.00  0.00     0.178 HD
ATOM     33 1H10 UNL     1      19.396  27.531  40.606  1.00  0.00     0.178 HD
ENDBRANCH  11  31
TORSDOF 9
ENDMDL
MODEL 5
REMARK VINA RESULT: -7.347166989      2.923      4.926
REMARK  9 active torsions:
REMARK  status: ('A' for Active; 'I' for Inactive)
REMARK    1  A    between atoms: C3_7  and  N3_8 
REMARK    2  A    between atoms: N3_8  and  C4_10 
REMARK    3  A    between atoms: C4_10  and  C6_12 
REMARK    4  A    between atoms: C4_10  and  C7_15 
REMARK    5  A    between atoms: C6_12  and  O1_13 
REMARK    6  A    between atoms: C7_15  and  O2_16 
REMARK    7  A    between atoms: C9_20  and  N5_21 
REMARK    8  A    between atoms: N5_21  and  N6_23 
REMARK       I    between atoms: N6_23  and  C10_25 
REMARK    9  A    between atoms: N9_30  and  N10_31 
ROOT
HETATM    1  C1  UNL     1      23.446  27.299  36.968  1.00  0.00     0.165 C 
HETATM    2  N1  UNL     1      22.681  26.213  37.411  1.00  0.00    -0.228 N 
ATOM      3  H1  UNL     1      22.495  25.524  36.682  1.00  0.00     0.177 HD
HETATM    4  C2  UNL     1      22.169  25.909  38.534  1.00  0.00     0.728 A 
HETATM    5  N2  UNL     1      21.461  24.736  38.614  1.00  0.00    -0.020 N 
ATOM      6  H2  UNL     1      21.379  24.167  37.772  1.00  0.00     0.203 HD
HETATM    7  C3  UNL     1      20.877  24.299  39.724  1.00  0.00     0.708 A 
HETATM    8  N4  UNL     1      21.009  25.079  40.816  1.00  0.00    -0.018 N 
ATOM      9  H4  UNL     1      20.577  24.779  41.689  1.00  0.00     0.203 HD
HETATM   10  C9  UNL     1      21.702  26.256  40.794  1.00  0.00     0.747 A 
HETATM   11  N9  UNL     1      22.268  26.649  39.654  1.00  0.00     0.085 N 
ENDROOT
BRANCH   7  12
HETATM   12  N3  UNL     1      20.212  23.220  39.852  1.00  0.00    -0.212 N 
ATOM     13  H3  UNL     1      19.372  23.164  39.275  1.00  0.00     0.178 HD
BRANCH  12  14
HETATM   14  C4  UNL     1      20.452  22.080  40.672  1.00  0.00     0.086 C 
HETATM   15  C5  UNL     1      19.863  20.861  40.039  1.00  0.00     0.043 C 
BRANCH  14  16
HETATM   16  C6  UNL     1      20.015  22.314  42.101  1.00  0.00     0.197 C 
BRANCH  16  17
HETATM   17  O1  UNL     1      21.045  22.220  43.000  1.00  0.00    -0.398 OA
ATOM     18  H1  UNL     1      21.195  21.332  43.302  1.00  0.00     0.209 HD
ENDBRANCH  16  17
ENDBRANCH  14  16
BRANCH  14  19
HETATM   19  C7  UNL     1      21.972  21.802  40.751  1.00  0.00     0.200 C 
BRANCH  19  20
HETATM   20  O2  UNL     1      22.176  20.436  40.905  1.00  0.00    -0.393 OA
HETATM   21  C8  UNL     1      23.481  20.124  41.198  1.00  0.00     0.201 C 
ENDBRANCH  19  20
ENDBRANCH  14  19
ENDBRANCH  12  14
ENDBRANCH   7  12
BRANCH  10  22
HETATM   22  N5  UNL     1      21.756  26.894  41.879  1.00  0.00    -0.127 N 
ATOM     23  H5  UNL     1      21.409  27.853  41.872  1.00  0.00     0.205 HD
BRANCH  22  24
HETATM   24  N6  UNL     1      22.237  26.415  43.065  1.00  0.00    -0.259 N 
HETATM   25  C10 UNL     1      21.502  25.534  43.898  1.00  0.00     0.201 C 
HETATM   26  N7  UNL     1      22.134  24.720  44.655  1.00  0.00    -0.372 N 
HETATM   27  N8  UNL     1      20.100  25.571  43.876  1.00  0.00    -0.062 NA
ATOM     28  H72 UNL     1      23.154  24.693  44.671  1.00  0.00     0.158 HD
ATOM     29  H71 UNL     1      21.605  24.086  45.254  1.00  0.00     0.158 HD
ATOM     30  H6  UNL     1      23.168  26.704  43.365  1.00  0.00     0.190 HD
ENDBRANCH  22  24
ENDBRANCH  10  22
BRANCH  11  31
HETATM   31  N10 UNL     1      22.995  27.867  39.591  1.00  0.00    -0.309 N 
ATOM     32 2H10 UNL     1      23.702  28.012  38.871  1.00  0.00     0.178 HD
ATOM     33 1H10 UNL     1      22.790  28.587  40.283  1.00  0.00     0.178 HD
ENDBRANCH  11  31
TORSDOF 9
ENDMDL
