MODEL 1
REMARK VINA RESULT: -7.651885117      0.000      0.000
REMARK  10 active torsions:
REMARK  status: ('A' for Active; 'I' for Inactive)
REMARK    1  A    between atoms: N1_2  and  C2_3 
REMARK    2  A    between atoms: N1_2  and  C4_7 
REMARK    3  A    between atoms: C2_3  and  C3_4 
REMARK    4  A    between atoms: C3_4  and  O1_5 
REMARK    5  A    between atoms: C4_7  and  C5_8 
REMARK    6  A    between atoms: C5_8  and  N2_9 
REMARK    7  A    between atoms: N2_9  and  C6_11 
REMARK    8  A    between atoms: N4_19  and  N5_21 
REMARK    9  A    between atoms: C12_26  and  N7_27 
REMARK   10  A    between atoms: N8_30  and  N9_31 
ROOT
HETATM    1  C6  UNL     1      20.510  25.319  38.931  1.00  0.00     0.101 A 
HETATM    2  C7  UNL     1      21.212  26.456  39.352  1.00  0.00     0.050 A 
HETATM    3  C8  UNL     1      21.698  26.500  40.639  1.00  0.00     0.038 A 
HETATM    4  C9  UNL     1      21.489  25.431  41.501  1.00  0.00     0.104 A 
HETATM    5  C10 UNL     1      20.793  24.310  41.076  1.00  0.00     0.110 A 
HETATM    6  N3  UNL     1      20.339  24.325  39.797  1.00  0.00    -0.338 N 
ATOM      7  H3  UNL     1      19.825  23.505  39.473  1.00  0.00     0.167 HD
HETATM    8  C11 UNL     1      20.596  23.263  41.946  1.00  0.00     0.164 A 
HETATM    9  N4  UNL     1      19.993  22.238  41.673  1.00  0.00    -0.290 N 
ATOM     10  H4  UNL     1      20.009  21.649  42.505  1.00  0.00     0.188 HD
HETATM   11  N6  UNL     1      21.112  23.373  43.233  1.00  0.00    -0.172 N 
ATOM     12  H6  UNL     1      20.976  22.606  43.893  1.00  0.00     0.186 HD
HETATM   13  C12 UNL     1      21.773  24.446  43.619  1.00  0.00     0.699 A 
HETATM   14  N8  UNL     1      21.961  25.465  42.766  1.00  0.00    -0.091 N 
ENDROOT
BRANCH   1  15
HETATM   15  N2  UNL     1      20.058  25.283  37.753  1.00  0.00    -0.375 N 
ATOM     16  H2  UNL     1      20.544  24.634  37.133  1.00  0.00     0.161 HD
BRANCH  15  17
HETATM   17  C5  UNL     1      18.991  25.990  37.146  1.00  0.00     0.141 C 
BRANCH  17  18
HETATM   18  C4  UNL     1      17.636  25.310  37.397  1.00  0.00     0.141 C 
BRANCH  18  19
HETATM   19  N1  UNL     1      16.805  26.204  38.093  1.00  0.00    -0.394 N 
HETATM   20  C1  UNL     1      17.358  27.101  39.019  1.00  0.00     0.148 C 
BRANCH  19  21
HETATM   21  C2  UNL     1      15.500  26.436  37.616  1.00  0.00     0.083 C 
BRANCH  21  22
HETATM   22  C3  UNL     1      14.978  25.369  36.684  1.00  0.00     0.208 C 
BRANCH  22  23
HETATM   23  O1  UNL     1      14.007  24.612  37.360  1.00  0.00    -0.396 OA
ATOM     24  H1  UNL     1      14.345  24.374  38.215  1.00  0.00     0.209 HD
ENDBRANCH  22  23
ENDBRANCH  21  22
ENDBRANCH  19  21
ENDBRANCH  18  19
ENDBRANCH  17  18
ENDBRANCH  15  17
ENDBRANCH   1  15
BRANCH  14  25
HETATM   25  N9  UNL     1      22.653  26.601  43.161  1.00  0.00    -0.324 N 
ATOM     26  H92 UNL     1      22.974  27.282  42.472  1.00  0.00     0.178 HD
ATOM     27  H91 UNL     1      22.827  26.725  44.159  1.00  0.00     0.178 HD
ENDBRANCH  14  25
BRANCH   9  28
HETATM   28  N5  UNL     1      19.337  21.589  40.754  1.00  0.00    -0.344 N 
ATOM     29  H52 UNL     1      19.246  22.242  39.976  1.00  0.00     0.176 HD
ATOM     30  H51 UNL     1      18.887  20.708  40.504  1.00  0.00     0.176 HD
ENDBRANCH   9  28
BRANCH  13  31
HETATM   31  N7  UNL     1      22.250  24.530  44.834  1.00  0.00    -0.233 N 
ATOM     32  H72 UNL     1      21.991  23.824  45.522  1.00  0.00     0.174 HD
ATOM     33  H71 UNL     1      22.875  25.294  45.092  1.00  0.00     0.174 HD
ENDBRANCH  13  31
TORSDOF 10
ENDMDL
MODEL 2
REMARK VINA RESULT: -7.582995441      1.154      2.674
REMARK  10 active torsions:
REMARK  status: ('A' for Active; 'I' for Inactive)
REMARK    1  A    between atoms: N1_2  and  C2_3 
REMARK    2  A    between atoms: N1_2  and  C4_7 
REMARK    3  A    between atoms: C2_3  and  C3_4 
REMARK    4  A    between atoms: C3_4  and  O1_5 
REMARK    5  A    between atoms: C4_7  and  C5_8 
REMARK    6  A    between atoms: C5_8  and  N2_9 
REMARK    7  A    between atoms: N2_9  and  C6_11 
REMARK    8  A    between atoms: N4_19  and  N5_21 
REMARK    9  A    between atoms: C12_26  and  N7_27 
REMARK   10  A    between atoms: N8_30  and  N9_31 
ROOT
HETATM    1  C6  UNL     1      20.518  24.848  38.992  1.00  0.00     0.101 A 
HETATM    2  C7  UNL     1      20.405  23.532  39.458  1.00  0.00     0.050 A 
HETATM    3  C8  UNL     1      20.785  23.248  40.749  1.00  0.00     0.038 A 
HETATM    4  C9  UNL     1      21.275  24.256  41.570  1.00  0.00     0.104 A 
HETATM    5  C10 UNL     1      21.384  25.555  41.101  1.00  0.00     0.110 A 
HETATM    6  N3  UNL     1      20.992  25.773  39.820  1.00  0.00    -0.338 N 
ATOM      7  H3  UNL     1      21.068  26.726  39.463  1.00  0.00     0.167 HD
HETATM    8  C11 UNL     1      21.872  26.538  41.930  1.00  0.00     0.164 A 
HETATM    9  N4  UNL     1      22.013  27.707  41.612  1.00  0.00    -0.290 N 
ATOM     10  H4  UNL     1      22.390  28.197  42.423  1.00  0.00     0.188 HD
HETATM   11  N6  UNL     1      22.241  26.182  43.224  1.00  0.00    -0.172 N 
ATOM     12  H6  UNL     1      22.605  26.898  43.854  1.00  0.00     0.186 HD
HETATM   13  C12 UNL     1      22.129  24.941  43.653  1.00  0.00     0.699 A 
HETATM   14  N8  UNL     1      21.652  23.986  42.839  1.00  0.00    -0.091 N 
ENDROOT
BRANCH   1  15
HETATM   15  N2  UNL     1      20.175  25.107  37.804  1.00  0.00    -0.375 N 
ATOM     16  H2  UNL     1      20.694  24.593  37.092  1.00  0.00     0.161 HD
BRANCH  15  17
HETATM   17  C5  UNL     1      19.191  25.989  37.294  1.00  0.00     0.141 C 
BRANCH  17  18
HETATM   18  C4  UNL     1      17.786  25.369  37.337  1.00  0.00     0.141 C 
BRANCH  18  19
HETATM   19  N1  UNL     1      16.951  26.196  38.109  1.00  0.00    -0.394 N 
HETATM   20  C1  UNL     1      17.507  27.057  39.065  1.00  0.00     0.148 C 
BRANCH  19  21
HETATM   21  C2  UNL     1      15.625  26.410  37.687  1.00  0.00     0.083 C 
BRANCH  21  22
HETATM   22  C3  UNL     1      15.106  25.381  36.712  1.00  0.00     0.208 C 
BRANCH  22  23
HETATM   23  O1  UNL     1      14.104  24.624  37.342  1.00  0.00    -0.396 OA
ATOM     24  H1  UNL     1      13.262  24.865  36.976  1.00  0.00     0.209 HD
ENDBRANCH  22  23
ENDBRANCH  21  22
ENDBRANCH  19  21
ENDBRANCH  18  19
ENDBRANCH  17  18
ENDBRANCH  15  17
ENDBRANCH   1  15
BRANCH  14  25
HETATM   25  N9  UNL     1      21.531  22.675  43.279  1.00  0.00    -0.324 N 
ATOM     26  H92 UNL     1      21.433  21.909  42.613  1.00  0.00     0.178 HD
ATOM     27  H91 UNL     1      21.544  22.513  44.286  1.00  0.00     0.178 HD
ENDBRANCH  14  25
BRANCH   9  28
HETATM   28  N5  UNL     1      21.880  28.586  40.660  1.00  0.00    -0.344 N 
ATOM     29  H52 UNL     1      21.183  28.194  40.027  1.00  0.00     0.176 HD
ATOM     30  H51 UNL     1      22.185  29.491  40.300  1.00  0.00     0.176 HD
ENDBRANCH   9  28
BRANCH  13  31
HETATM   31  N7  UNL     1      22.480  24.627  44.873  1.00  0.00    -0.233 N 
ATOM     32  H72 UNL     1      22.383  23.662  45.187  1.00  0.00     0.174 HD
ATOM     33  H71 UNL     1      22.849  25.338  45.505  1.00  0.00     0.174 HD
ENDBRANCH  13  31
TORSDOF 10
ENDMDL
MODEL 3
REMARK VINA RESULT: -7.571459462      3.394      4.987
REMARK  10 active torsions:
REMARK  status: ('A' for Active; 'I' for Inactive)
REMARK    1  A    between atoms: N1_2  and  C2_3 
REMARK    2  A    between atoms: N1_2  and  C4_7 
REMARK    3  A    between atoms: C2_3  and  C3_4 
REMARK    4  A    between atoms: C3_4  and  O1_5 
REMARK    5  A    between atoms: C4_7  and  C5_8 
REMARK    6  A    between atoms: C5_8  and  N2_9 
REMARK    7  A    between atoms: N2_9  and  C6_11 
REMARK    8  A    between atoms: N4_19  and  N5_21 
REMARK    9  A    between atoms: C12_26  and  N7_27 
REMARK   10  A    between atoms: N8_30  and  N9_31 
ROOT
HETATM    1  C6  UNL     1      20.436  24.839  39.015  1.00  0.00     0.101 A 
HETATM    2  C7  UNL     1      20.338  23.520  39.477  1.00  0.00     0.050 A 
HETATM    3  C8  UNL     1      20.744  23.231  40.759  1.00  0.00     0.038 A 
HETATM    4  C9  UNL     1      21.243  24.238  41.577  1.00  0.00     0.104 A 
HETATM    5  C10 UNL     1      21.337  25.540  41.112  1.00  0.00     0.110 A 
HETATM    6  N3  UNL     1      20.921  25.762  39.839  1.00  0.00    -0.338 N 
ATOM      7  H3  UNL     1      20.985  26.717  39.485  1.00  0.00     0.167 HD
HETATM    8  C11 UNL     1      21.836  26.522  41.936  1.00  0.00     0.164 A 
HETATM    9  N4  UNL     1      21.965  27.693  41.622  1.00  0.00    -0.290 N 
ATOM     10  H4  UNL     1      22.354  28.180  42.428  1.00  0.00     0.188 HD
HETATM   11  N6  UNL     1      22.230  26.162  43.222  1.00  0.00    -0.172 N 
ATOM     12  H6  UNL     1      22.602  26.875  43.848  1.00  0.00     0.186 HD
HETATM   13  C12 UNL     1      22.132  24.918  43.647  1.00  0.00     0.699 A 
HETATM   14  N8  UNL     1      21.645  23.964  42.837  1.00  0.00    -0.091 N 
ENDROOT
BRANCH   1  15
HETATM   15  N2  UNL     1      20.071  25.101  37.836  1.00  0.00    -0.375 N 
ATOM     16  H2  UNL     1      19.248  24.585  37.523  1.00  0.00     0.161 HD
BRANCH  15  17
HETATM   17  C5  UNL     1      20.609  25.991  36.874  1.00  0.00     0.141 C 
BRANCH  17  18
HETATM   18  C4  UNL     1      22.072  25.660  36.541  1.00  0.00     0.141 C 
BRANCH  18  19
HETATM   19  N1  UNL     1      22.829  26.843  36.611  1.00  0.00    -0.394 N 
HETATM   20  C1  UNL     1      23.548  27.148  37.775  1.00  0.00     0.148 C 
BRANCH  19  21
HETATM   21  C2  UNL     1      23.141  27.524  35.419  1.00  0.00     0.083 C 
BRANCH  21  22
HETATM   22  C3  UNL     1      24.286  28.502  35.540  1.00  0.00     0.208 C 
BRANCH  22  23
HETATM   23  O1  UNL     1      23.787  29.806  35.380  1.00  0.00    -0.396 OA
ATOM     24  H1  UNL     1      23.102  29.952  36.022  1.00  0.00     0.209 HD
ENDBRANCH  22  23
ENDBRANCH  21  22
ENDBRANCH  19  21
ENDBRANCH  18  19
ENDBRANCH  17  18
ENDBRANCH  15  17
ENDBRANCH   1  15
BRANCH  14  25
HETATM   25  N9  UNL     1      21.539  22.651  43.273  1.00  0.00    -0.324 N 
ATOM     26  H92 UNL     1      20.787  22.369  43.902  1.00  0.00     0.178 HD
ATOM     27  H91 UNL     1      22.238  21.986  42.941  1.00  0.00     0.178 HD
ENDBRANCH  14  25
BRANCH   9  28
HETATM   28  N5  UNL     1      21.810  28.576  40.677  1.00  0.00    -0.344 N 
ATOM     29  H52 UNL     1      20.807  28.604  40.497  1.00  0.00     0.176 HD
ATOM     30  H51 UNL     1      22.278  29.237  40.057  1.00  0.00     0.176 HD
ENDBRANCH   9  28
BRANCH  13  31
HETATM   31  N7  UNL     1      22.507  24.600  44.858  1.00  0.00    -0.233 N 
ATOM     32  H72 UNL     1      23.236  23.898  44.987  1.00  0.00     0.174 HD
ATOM     33  H71 UNL     1      22.077  25.047  45.668  1.00  0.00     0.174 HD
ENDBRANCH  13  31
TORSDOF 10
ENDMDL
MODEL 4
REMARK VINA RESULT: -7.554138757      3.874      5.461
REMARK  10 active torsions:
REMARK  status: ('A' for Active; 'I' for Inactive)
REMARK    1  A    between atoms: N1_2  and  C2_3 
REMARK    2  A    between atoms: N1_2  and  C4_7 
REMARK    3  A    between atoms: C2_3  and  C3_4 
REMARK    4  A    between atoms: C3_4  and  O1_5 
REMARK    5  A    between atoms: C4_7  and  C5_8 
REMARK    6  A    between atoms: C5_8  and  N2_9 
REMARK    7  A    between atoms: N2_9  and  C6_11 
REMARK    8  A    between atoms: N4_19  and  N5_21 
REMARK    9  A    between atoms: C12_26  and  N7_27 
REMARK   10  A    between atoms: N8_30  and  N9_31 
ROOT
HETATM    1  C6  UNL     1      21.568  24.650  38.844  1.00  0.00     0.101 A 
HETATM    2  C7  UNL     1      21.497  23.323  39.286  1.00  0.00     0.050 A 
HETATM    3  C8  UNL     1      21.560  23.066  40.636  1.00  0.00     0.038 A 
HETATM    4  C9  UNL     1      21.695  24.113  41.540  1.00  0.00     0.104 A 
HETATM    5  C10 UNL     1      21.766  25.423  41.093  1.00  0.00     0.110 A 
HETATM    6  N3  UNL     1      21.697  25.612  39.751  1.00  0.00    -0.338 N 
ATOM      7  H3  UNL     1      21.748  26.573  39.410  1.00  0.00     0.167 HD
HETATM    8  C11 UNL     1      21.901  26.445  42.005  1.00  0.00     0.164 A 
HETATM    9  N4  UNL     1      21.978  27.627  41.715  1.00  0.00    -0.290 N 
ATOM     10  H4  UNL     1      22.070  28.146  42.588  1.00  0.00     0.188 HD
HETATM   11  N6  UNL     1      21.960  26.116  43.356  1.00  0.00    -0.172 N 
ATOM     12  H6  UNL     1      22.061  26.860  44.047  1.00  0.00     0.186 HD
HETATM   13  C12 UNL     1      21.891  24.864  43.762  1.00  0.00     0.699 A 
HETATM   14  N8  UNL     1      21.760  23.871  42.867  1.00  0.00    -0.091 N 
ENDROOT
BRANCH   1  15
HETATM   15  N2  UNL     1      21.517  24.883  37.604  1.00  0.00    -0.375 N 
ATOM     16  H2  UNL     1      20.759  24.408  37.114  1.00  0.00     0.161 HD
BRANCH  15  17
HETATM   17  C5  UNL     1      22.334  25.694  36.778  1.00  0.00     0.141 C 
BRANCH  17  18
HETATM   18  C4  UNL     1      23.816  25.296  36.868  1.00  0.00     0.141 C 
BRANCH  18  19
HETATM   19  N1  UNL     1      24.603  26.453  36.737  1.00  0.00    -0.394 N 
HETATM   20  C1  UNL     1      25.962  26.345  36.411  1.00  0.00     0.148 C 
BRANCH  19  21
HETATM   21  C2  UNL     1      23.963  27.699  36.588  1.00  0.00     0.083 C 
BRANCH  21  22
HETATM   22  C3  UNL     1      24.418  28.495  35.387  1.00  0.00     0.208 C 
BRANCH  22  23
HETATM   23  O1  UNL     1      23.792  29.752  35.413  1.00  0.00    -0.396 OA
ATOM     24  H1  UNL     1      24.343  30.359  35.893  1.00  0.00     0.209 HD
ENDBRANCH  22  23
ENDBRANCH  21  22
ENDBRANCH  19  21
ENDBRANCH  18  19
ENDBRANCH  17  18
ENDBRANCH  15  17
ENDBRANCH   1  15
BRANCH  14  25
HETATM   25  N9  UNL     1      21.687  22.549  43.282  1.00  0.00    -0.324 N 
ATOM     26  H92 UNL     1      21.709  21.787  42.603  1.00  0.00     0.178 HD
ATOM     27  H91 UNL     1      21.610  22.372  44.284  1.00  0.00     0.178 HD
ENDBRANCH  14  25
BRANCH   9  28
HETATM   28  N5  UNL     1      21.992  28.498  40.747  1.00  0.00    -0.344 N 
ATOM     29  H52 UNL     1      21.064  28.922  40.752  1.00  0.00     0.176 HD
ATOM     30  H51 UNL     1      22.546  28.920  40.001  1.00  0.00     0.176 HD
ENDBRANCH   9  28
BRANCH  13  31
HETATM   31  N7  UNL     1      21.949  24.575  45.035  1.00  0.00    -0.233 N 
ATOM     32  H72 UNL     1      22.495  25.170  45.658  1.00  0.00     0.174 HD
ATOM     33  H71 UNL     1      21.454  23.764  45.405  1.00  0.00     0.174 HD
ENDBRANCH  13  31
TORSDOF 10
ENDMDL
MODEL 5
REMARK VINA RESULT: -7.548488070      4.122      4.640
REMARK  10 active torsions:
REMARK  status: ('A' for Active; 'I' for Inactive)
REMARK    1  A    between atoms: N1_2  and  C2_3 
REMARK    2  A    between atoms: N1_2  and  C4_7 
REMARK    3  A    between atoms: C2_3  and  C3_4 
REMARK    4  A    between atoms: C3_4  and  O1_5 
REMARK    5  A    between atoms: C4_7  and  C5_8 
REMARK    6  A    between atoms: C5_8  and  N2_9 
REMARK    7  A    between atoms: N2_9  and  C6_11 
REMARK    8  A    between atoms: N4_19  and  N5_21 
REMARK    9  A    between atoms: C12_26  and  N7_27 
REMARK   10  A    between atoms: N8_30  and  N9_31 
ROOT
HETATM    1  C6  UNL     1      22.586  24.238  39.206  1.00  0.00     0.101 A 
HETATM    2  C7  UNL     1      23.340  25.288  39.744  1.00  0.00     0.050 A 
HETATM    3  C8  UNL     1      23.125  25.662  41.051  1.00  0.00     0.038 A 
HETATM    4  C9  UNL     1      22.171  25.002  41.817  1.00  0.00     0.104 A 
HETATM    5  C10 UNL     1      21.429  23.964  41.276  1.00  0.00     0.110 A 
HETATM    6  N3  UNL     1      21.687  23.642  39.983  1.00  0.00    -0.338 N 
ATOM      7  H3  UNL     1      21.147  22.879  39.573  1.00  0.00     0.167 HD
HETATM    8  C11 UNL     1      20.489  23.326  42.051  1.00  0.00     0.164 A 
HETATM    9  N4  UNL     1      19.781  22.409  41.668  1.00  0.00    -0.290 N 
ATOM     10  H4  UNL     1      19.188  22.139  42.453  1.00  0.00     0.188 HD
HETATM   11  N6  UNL     1      20.320  23.754  43.364  1.00  0.00    -0.172 N 
ATOM     12  H6  UNL     1      19.627  23.293  43.954  1.00  0.00     0.186 HD
HETATM   13  C12 UNL     1      21.035  24.743  43.861  1.00  0.00     0.699 A 
HETATM   14  N8  UNL     1      21.951  25.363  43.100  1.00  0.00    -0.091 N 
ENDROOT
BRANCH   1  15
HETATM   15  N2  UNL     1      22.780  23.901  38.005  1.00  0.00    -0.375 N 
ATOM     16  H2  UNL     1      22.402  22.987  37.755  1.00  0.00     0.161 HD
BRANCH  15  17
HETATM   17  C5  UNL     1      23.433  24.578  36.945  1.00  0.00     0.141 C 
BRANCH  17  18
HETATM   18  C4  UNL     1      22.530  25.642  36.301  1.00  0.00     0.141 C 
BRANCH  18  19
HETATM   19  N1  UNL     1      23.297  26.792  36.049  1.00  0.00    -0.394 N 
HETATM   20  C1  UNL     1      24.555  26.942  36.649  1.00  0.00     0.148 C 
BRANCH  19  21
HETATM   21  C2  UNL     1      22.967  27.605  34.947  1.00  0.00     0.083 C 
BRANCH  21  22
HETATM   22  C3  UNL     1      24.084  28.506  34.478  1.00  0.00     0.208 C 
BRANCH  22  23
HETATM   23  O1  UNL     1      23.739  29.839  34.757  1.00  0.00    -0.396 OA
ATOM     24  H1  UNL     1      23.980  30.036  35.654  1.00  0.00     0.209 HD
ENDBRANCH  22  23
ENDBRANCH  21  22
ENDBRANCH  19  21
ENDBRANCH  18  19
ENDBRANCH  17  18
ENDBRANCH  15  17
ENDBRANCH   1  15
BRANCH  14  25
HETATM   25  N9  UNL     1      22.710  26.406  43.612  1.00  0.00    -0.324 N 
ATOM     26  H92 UNL     1      22.272  27.290  43.872  1.00  0.00     0.178 HD
ATOM     27  H91 UNL     1      23.714  26.253  43.714  1.00  0.00     0.178 HD
ENDBRANCH  14  25
BRANCH   9  28
HETATM   28  N5  UNL     1      19.473  21.633  40.669  1.00  0.00    -0.344 N 
ATOM     29  H52 UNL     1      20.365  21.344  40.267  1.00  0.00     0.176 HD
ATOM     30  H51 UNL     1      18.715  21.207  40.136  1.00  0.00     0.176 HD
ENDBRANCH   9  28
BRANCH  13  31
HETATM   31  N7  UNL     1      20.862  25.131  45.098  1.00  0.00    -0.233 N 
ATOM     32  H72 UNL     1      21.524  25.786  45.513  1.00  0.00     0.174 HD
ATOM     33  H71 UNL     1      20.073  24.783  45.644  1.00  0.00     0.174 HD
ENDBRANCH  13  31
TORSDOF 10
ENDMDL
