MODEL 1
REMARK VINA RESULT: -8.059796480      0.000      0.000
REMARK  7 active torsions:
REMARK  status: ('A' for Active; 'I' for Inactive)
REMARK    1  A    between atoms: N1_1  and  C1_4 
REMARK    2  A    between atoms: N4_16  and  C6_17 
REMARK    3  A    between atoms: C6_17  and  C7_18 
REMARK    4  A    between atoms: C7_18  and  C8_19 
REMARK    5  A    between atoms: C8_19  and  C9_20 
REMARK    6  A    between atoms: C9_20  and  N5_21 
REMARK    7  A    between atoms: C9_20  and  C10_25 
ROOT
HETATM    1  C1  UNL     1      22.997  24.709  38.055  1.00  0.00     0.680 A 
HETATM    2  N2  UNL     1      23.391  25.966  37.764  1.00  0.00    -0.155 N 
ATOM      3  H2  UNL     1      23.892  26.154  36.895  1.00  0.00     0.187 HD
HETATM    4  C2  UNL     1      23.126  26.970  38.616  1.00  0.00     0.279 A 
HETATM    5  O1  UNL     1      23.491  28.162  38.357  1.00  0.00    -0.266 OA
HETATM    6  C3  UNL     1      22.446  26.664  39.780  1.00  0.00     0.145 A 
HETATM    7  C4  UNL     1      22.157  27.668  40.677  1.00  0.00     0.269 A 
HETATM    8  O2  UNL     1      22.521  28.857  40.421  1.00  0.00    -0.267 OA
HETATM    9  N3  UNL     1      21.501  27.353  41.798  1.00  0.00    -0.274 N 
ATOM     10  H3  UNL     1      21.279  28.083  42.475  1.00  0.00     0.173 HD
HETATM   11  C5  UNL     1      21.131  26.090  42.040  1.00  0.00     0.331 A 
HETATM   12  O3  UNL     1      20.510  25.827  43.111  1.00  0.00    -0.246 OA
HETATM   13  N4  UNL     1      21.386  25.053  41.191  1.00  0.00    -0.284 N 
HETATM   14  C11 UNL     1      22.049  25.367  40.061  1.00  0.00     0.148 A 
HETATM   15  N7  UNL     1      22.334  24.386  39.181  1.00  0.00    -0.175 N 
ATOM     16  H7  UNL     1      22.053  23.423  39.364  1.00  0.00     0.186 HD
ENDROOT
BRANCH  13  17
HETATM   17  C6  UNL     1      20.959  23.708  41.515  1.00  0.00     0.135 C 
BRANCH  17  18
HETATM   18  C7  UNL     1      22.037  22.928  42.255  1.00  0.00     0.023 C 
BRANCH  18  19
HETATM   19  C8  UNL     1      22.053  21.527  41.707  1.00  0.00     0.043 C 
BRANCH  19  20
HETATM   20  C9  UNL     1      23.253  21.187  40.892  1.00  0.00     0.271 C 
BRANCH  20  21
HETATM   21  N5  UNL     1      23.810  19.961  41.495  1.00  0.00    -0.067 N 
ATOM     22  H53 UNL     1      24.828  19.966  41.567  1.00  0.00     0.275 HD
ATOM     23  H52 UNL     1      23.620  19.873  42.493  1.00  0.00     0.275 HD
ATOM     24  H51 UNL     1      23.443  19.188  40.939  1.00  0.00     0.275 HD
ENDBRANCH  20  21
BRANCH  20  25
HETATM   25  C10 UNL     1      22.990  20.856  39.488  1.00  0.00     0.261 C 
HETATM   26  N6  UNL     1      23.752  19.943  38.728  1.00  0.00    -0.060 NA
HETATM   27  O4  UNL     1      22.027  21.409  38.899  1.00  0.00    -0.275 OA
ENDBRANCH  20  25
ENDBRANCH  19  20
ENDBRANCH  18  19
ENDBRANCH  17  18
ENDBRANCH  13  17
BRANCH   1  28
HETATM   28  N1  UNL     1      23.250  23.726  37.235  1.00  0.00    -0.234 N 
ATOM     29  H12 UNL     1      22.817  23.788  36.313  1.00  0.00     0.174 HD
ATOM     30  H11 UNL     1      23.848  22.952  37.522  1.00  0.00     0.174 HD
ENDBRANCH   1  28
TORSDOF 7
ENDMDL
MODEL 2
REMARK VINA RESULT: -7.979708700      2.864      5.375
REMARK  7 active torsions:
REMARK  status: ('A' for Active; 'I' for Inactive)
REMARK    1  A    between atoms: N1_1  and  C1_4 
REMARK    2  A    between atoms: N4_16  and  C6_17 
REMARK    3  A    between atoms: C6_17  and  C7_18 
REMARK    4  A    between atoms: C7_18  and  C8_19 
REMARK    5  A    between atoms: C8_19  and  C9_20 
REMARK    6  A    between atoms: C9_20  and  N5_21 
REMARK    7  A    between atoms: C9_20  and  C10_25 
ROOT
HETATM    1  C1  UNL     1      20.122  24.757  39.170  1.00  0.00     0.680 A 
HETATM    2  N2  UNL     1      19.327  23.719  38.836  1.00  0.00    -0.155 N 
ATOM      3  H2  UNL     1      18.464  23.884  38.317  1.00  0.00     0.187 HD
HETATM    4  C2  UNL     1      19.670  22.468  39.187  1.00  0.00     0.279 A 
HETATM    5  O1  UNL     1      18.931  21.478  38.880  1.00  0.00    -0.266 OA
HETATM    6  C3  UNL     1      20.847  22.296  39.890  1.00  0.00     0.145 A 
HETATM    7  C4  UNL     1      21.229  21.028  40.267  1.00  0.00     0.269 A 
HETATM    8  O2  UNL     1      20.494  20.038  39.962  1.00  0.00    -0.267 OA
HETATM    9  N3  UNL     1      22.370  20.880  40.947  1.00  0.00    -0.274 N 
ATOM     10  H3  UNL     1      22.669  19.949  41.236  1.00  0.00     0.173 HD
HETATM   11  C5  UNL     1      23.123  21.943  41.254  1.00  0.00     0.331 A 
HETATM   12  O3  UNL     1      24.198  21.768  41.899  1.00  0.00    -0.246 OA
HETATM   13  N4  UNL     1      22.800  23.223  40.908  1.00  0.00    -0.284 N 
HETATM   14  C11 UNL     1      21.650  23.375  40.222  1.00  0.00     0.148 A 
HETATM   15  N7  UNL     1      21.272  24.615  39.853  1.00  0.00    -0.175 N 
ATOM     16  H7  UNL     1      21.845  25.426  40.086  1.00  0.00     0.186 HD
ENDROOT
BRANCH  13  17
HETATM   17  C6  UNL     1      23.660  24.329  41.273  1.00  0.00     0.135 C 
BRANCH  17  18
HETATM   18  C7  UNL     1      23.752  24.509  42.781  1.00  0.00     0.023 C 
BRANCH  18  19
HETATM   19  C8  UNL     1      22.664  25.460  43.201  1.00  0.00     0.043 C 
BRANCH  19  20
HETATM   20  C9  UNL     1      21.567  24.845  44.001  1.00  0.00     0.271 C 
BRANCH  20  21
HETATM   21  N5  UNL     1      21.186  25.862  45.002  1.00  0.00    -0.067 N 
ATOM     22  H53 UNL     1      21.947  26.123  45.629  1.00  0.00     0.275 HD
ATOM     23  H52 UNL     1      21.033  26.789  44.605  1.00  0.00     0.275 HD
ATOM     24  H51 UNL     1      20.370  25.483  45.483  1.00  0.00     0.275 HD
ENDBRANCH  20  21
BRANCH  20  25
HETATM   25  C10 UNL     1      20.341  24.536  43.260  1.00  0.00     0.261 C 
HETATM   26  N6  UNL     1      19.733  23.263  43.222  1.00  0.00    -0.060 NA
HETATM   27  O4  UNL     1      19.775  25.448  42.607  1.00  0.00    -0.275 OA
ENDBRANCH  20  25
ENDBRANCH  19  20
ENDBRANCH  18  19
ENDBRANCH  17  18
ENDBRANCH  13  17
BRANCH   1  28
HETATM   28  N1  UNL     1      19.799  25.976  38.835  1.00  0.00    -0.234 N 
ATOM     29  H12 UNL     1      18.833  26.120  38.539  1.00  0.00     0.174 HD
ATOM     30  H11 UNL     1      20.489  26.726  38.875  1.00  0.00     0.174 HD
ENDBRANCH   1  28
TORSDOF 7
ENDMDL
MODEL 3
REMARK VINA RESULT: -7.881185621      2.580      6.311
REMARK  7 active torsions:
REMARK  status: ('A' for Active; 'I' for Inactive)
REMARK    1  A    between atoms: N1_1  and  C1_4 
REMARK    2  A    between atoms: N4_16  and  C6_17 
REMARK    3  A    between atoms: C6_17  and  C7_18 
REMARK    4  A    between atoms: C7_18  and  C8_19 
REMARK    5  A    between atoms: C8_19  and  C9_20 
REMARK    6  A    between atoms: C9_20  and  N5_21 
REMARK    7  A    between atoms: C9_20  and  C10_25 
ROOT
HETATM    1  C1  UNL     1      22.337  25.168  43.248  1.00  0.00     0.680 A 
HETATM    2  N2  UNL     1      21.689  24.057  43.655  1.00  0.00    -0.155 N 
ATOM      3  H2  UNL     1      21.398  23.965  44.629  1.00  0.00     0.187 HD
HETATM    4  C2  UNL     1      21.426  23.071  42.781  1.00  0.00     0.279 A 
HETATM    5  O1  UNL     1      20.815  22.017  43.149  1.00  0.00    -0.266 OA
HETATM    6  C3  UNL     1      21.841  23.243  41.474  1.00  0.00     0.145 A 
HETATM    7  C4  UNL     1      21.589  22.253  40.550  1.00  0.00     0.269 A 
HETATM    8  O2  UNL     1      20.981  21.199  40.914  1.00  0.00    -0.267 OA
HETATM    9  N3  UNL     1      21.999  22.435  39.291  1.00  0.00    -0.274 N 
ATOM     10  H3  UNL     1      21.823  21.712  38.593  1.00  0.00     0.173 HD
HETATM   11  C5  UNL     1      22.638  23.556  38.937  1.00  0.00     0.331 A 
HETATM   12  O3  UNL     1      23.013  23.697  37.737  1.00  0.00    -0.246 OA
HETATM   13  N4  UNL     1      22.916  24.572  39.805  1.00  0.00    -0.284 N 
HETATM   14  C11 UNL     1      22.504  24.392  41.075  1.00  0.00     0.148 A 
HETATM   15  N7  UNL     1      22.750  25.358  41.981  1.00  0.00    -0.175 N 
ATOM     16  H7  UNL     1      23.237  26.214  41.714  1.00  0.00     0.186 HD
ENDROOT
BRANCH  13  17
HETATM   17  C6  UNL     1      23.613  25.760  39.356  1.00  0.00     0.135 C 
BRANCH  17  18
HETATM   18  C7  UNL     1      22.679  26.746  38.669  1.00  0.00     0.023 C 
BRANCH  18  19
HETATM   19  C8  UNL     1      23.416  27.341  37.500  1.00  0.00     0.043 C 
BRANCH  19  20
HETATM   20  C9  UNL     1      23.055  26.767  36.173  1.00  0.00     0.271 C 
BRANCH  20  21
HETATM   21  N5  UNL     1      21.739  26.127  36.360  1.00  0.00    -0.067 N 
ATOM     22  H53 UNL     1      21.768  25.108  36.307  1.00  0.00     0.275 HD
ATOM     23  H52 UNL     1      21.386  26.188  37.315  1.00  0.00     0.275 HD
ATOM     24  H51 UNL     1      21.123  26.555  35.668  1.00  0.00     0.275 HD
ENDBRANCH  20  21
BRANCH  20  25
HETATM   25  C10 UNL     1      22.875  27.740  35.092  1.00  0.00     0.261 C 
HETATM   26  N6  UNL     1      23.588  28.954  34.985  1.00  0.00    -0.060 NA
HETATM   27  O4  UNL     1      22.035  27.502  34.188  1.00  0.00    -0.275 OA
ENDBRANCH  20  25
ENDBRANCH  19  20
ENDBRANCH  18  19
ENDBRANCH  17  18
ENDBRANCH  13  17
BRANCH   1  28
HETATM   28  N1  UNL     1      22.598  26.131  44.088  1.00  0.00    -0.234 N 
ATOM     29  H12 UNL     1      22.316  25.972  45.056  1.00  0.00     0.174 HD
ATOM     30  H11 UNL     1      23.057  26.985  43.773  1.00  0.00     0.174 HD
ENDBRANCH   1  28
TORSDOF 7
ENDMDL
MODEL 4
REMARK VINA RESULT: -7.830611736      2.547      5.476
REMARK  7 active torsions:
REMARK  status: ('A' for Active; 'I' for Inactive)
REMARK    1  A    between atoms: N1_1  and  C1_4 
REMARK    2  A    between atoms: N4_16  and  C6_17 
REMARK    3  A    between atoms: C6_17  and  C7_18 
REMARK    4  A    between atoms: C7_18  and  C8_19 
REMARK    5  A    between atoms: C8_19  and  C9_20 
REMARK    6  A    between atoms: C9_20  and  N5_21 
REMARK    7  A    between atoms: C9_20  and  C10_25 
ROOT
HETATM    1  C1  UNL     1      19.932  22.249  39.791  1.00  0.00     0.680 A 
HETATM    2  N2  UNL     1      20.117  21.806  41.052  1.00  0.00    -0.155 N 
ATOM      3  H2  UNL     1      19.980  20.819  41.271  1.00  0.00     0.187 HD
HETATM    4  C2  UNL     1      20.484  22.662  42.020  1.00  0.00     0.279 A 
HETATM    5  O1  UNL     1      20.664  22.261  43.215  1.00  0.00    -0.266 OA
HETATM    6  C3  UNL     1      20.657  23.989  41.674  1.00  0.00     0.145 A 
HETATM    7  C4  UNL     1      21.031  24.896  42.641  1.00  0.00     0.269 A 
HETATM    8  O2  UNL     1      21.211  24.498  43.834  1.00  0.00    -0.267 OA
HETATM    9  N3  UNL     1      21.193  26.175  42.289  1.00  0.00    -0.274 N 
ATOM     10  H3  UNL     1      21.469  26.861  42.991  1.00  0.00     0.173 HD
HETATM   11  C5  UNL     1      20.996  26.564  41.024  1.00  0.00     0.331 A 
HETATM   12  O3  UNL     1      21.158  27.782  40.724  1.00  0.00    -0.246 OA
HETATM   13  N4  UNL     1      20.626  25.714  40.022  1.00  0.00    -0.284 N 
HETATM   14  C11 UNL     1      20.462  24.424  40.374  1.00  0.00     0.148 A 
HETATM   15  N7  UNL     1      20.095  23.535  39.430  1.00  0.00    -0.175 N 
ATOM     16  H7  UNL     1      19.944  23.829  38.465  1.00  0.00     0.186 HD
ENDROOT
BRANCH  13  17
HETATM   17  C6  UNL     1      20.428  26.201  38.673  1.00  0.00     0.135 C 
BRANCH  17  18
HETATM   18  C7  UNL     1      21.461  25.642  37.705  1.00  0.00     0.023 C 
BRANCH  18  19
HETATM   19  C8  UNL     1      22.656  26.556  37.726  1.00  0.00     0.043 C 
BRANCH  19  20
HETATM   20  C9  UNL     1      23.537  26.465  36.527  1.00  0.00     0.271 C 
BRANCH  20  21
HETATM   21  N5  UNL     1      22.711  26.917  35.391  1.00  0.00    -0.067 N 
ATOM     22  H53 UNL     1      21.976  26.259  35.132  1.00  0.00     0.275 HD
ATOM     23  H52 UNL     1      22.098  27.700  35.616  1.00  0.00     0.275 HD
ATOM     24  H51 UNL     1      23.367  27.116  34.635  1.00  0.00     0.275 HD
ENDBRANCH  20  21
BRANCH  20  25
HETATM   25  C10 UNL     1      24.712  27.341  36.539  1.00  0.00     0.261 C 
HETATM   26  N6  UNL     1      26.023  26.920  36.231  1.00  0.00    -0.060 NA
HETATM   27  O4  UNL     1      24.569  28.552  36.842  1.00  0.00    -0.275 OA
ENDBRANCH  20  25
ENDBRANCH  19  20
ENDBRANCH  18  19
ENDBRANCH  17  18
ENDBRANCH  13  17
BRANCH   1  28
HETATM   28  N1  UNL     1      19.575  21.426  38.844  1.00  0.00    -0.234 N 
ATOM     29  H12 UNL     1      18.598  21.132  38.847  1.00  0.00     0.174 HD
ATOM     30  H11 UNL     1      20.252  21.108  38.151  1.00  0.00     0.174 HD
ENDBRANCH   1  28
TORSDOF 7
ENDMDL
MODEL 5
REMARK VINA RESULT: -7.770553500      3.242      6.303
REMARK  7 active torsions:
REMARK  status: ('A' for Active; 'I' for Inactive)
REMARK    1  A    between atoms: N1_1  and  C1_4 
REMARK    2  A    between atoms: N4_16  and  C6_17 
REMARK    3  A    between atoms: C6_17  and  C7_18 
REMARK    4  A    between atoms: C7_18  and  C8_19 
REMARK    5  A    between atoms: C8_19  and  C9_20 
REMARK    6  A    between atoms: C9_20  and  N5_21 
REMARK    7  A    between atoms: C9_20  and  C10_25 
ROOT
HETATM    1  C1  UNL     1      21.504  26.603  41.740  1.00  0.00     0.680 A 
HETATM    2  N2  UNL     1      21.638  26.046  42.961  1.00  0.00    -0.155 N 
ATOM      3  H2  UNL     1      21.971  26.609  43.745  1.00  0.00     0.187 HD
HETATM    4  C2  UNL     1      21.334  24.750  43.148  1.00  0.00     0.279 A 
HETATM    5  O1  UNL     1      21.454  24.209  44.294  1.00  0.00    -0.266 OA
HETATM    6  C3  UNL     1      20.887  24.030  42.057  1.00  0.00     0.145 A 
HETATM    7  C4  UNL     1      20.567  22.700  42.210  1.00  0.00     0.269 A 
HETATM    8  O2  UNL     1      20.687  22.157  43.352  1.00  0.00    -0.267 OA
HETATM    9  N3  UNL     1      20.139  22.018  41.143  1.00  0.00    -0.274 N 
ATOM     10  H3  UNL     1      19.897  21.032  41.238  1.00  0.00     0.173 HD
HETATM   11  C5  UNL     1      20.023  22.618  39.953  1.00  0.00     0.331 A 
HETATM   12  O3  UNL     1      19.614  21.944  38.963  1.00  0.00    -0.246 OA
HETATM   13  N4  UNL     1      20.323  23.931  39.737  1.00  0.00    -0.284 N 
HETATM   14  C11 UNL     1      20.756  24.621  40.810  1.00  0.00     0.148 A 
HETATM   15  N7  UNL     1      21.071  25.923  40.663  1.00  0.00    -0.175 N 
ATOM     16  H7  UNL     1      20.984  26.382  39.756  1.00  0.00     0.186 HD
ENDROOT
BRANCH  13  17
HETATM   17  C6  UNL     1      20.177  24.518  38.421  1.00  0.00     0.135 C 
BRANCH  17  18
HETATM   18  C7  UNL     1      18.716  24.721  38.045  1.00  0.00     0.023 C 
BRANCH  18  19
HETATM   19  C8  UNL     1      18.571  26.111  37.487  1.00  0.00     0.043 C 
BRANCH  19  20
HETATM   20  C9  UNL     1      17.408  26.879  38.014  1.00  0.00     0.271 C 
BRANCH  20  21
HETATM   21  N5  UNL     1      16.232  26.009  37.816  1.00  0.00    -0.067 N 
ATOM     22  H53 UNL     1      15.457  26.220  38.445  1.00  0.00     0.275 HD
ATOM     23  H52 UNL     1      15.733  26.188  36.945  1.00  0.00     0.275 HD
ATOM     24  H51 UNL     1      16.580  25.053  37.900  1.00  0.00     0.275 HD
ENDBRANCH  20  21
BRANCH  20  25
HETATM   25  C10 UNL     1      17.446  27.178  39.449  1.00  0.00     0.261 C 
HETATM   26  N6  UNL     1      16.303  27.296  40.269  1.00  0.00    -0.060 NA
HETATM   27  O4  UNL     1      18.558  27.345  40.010  1.00  0.00    -0.275 OA
ENDBRANCH  20  25
ENDBRANCH  19  20
ENDBRANCH  18  19
ENDBRANCH  17  18
ENDBRANCH  13  17
BRANCH   1  28
HETATM   28  N1  UNL     1      21.797  27.860  41.547  1.00  0.00    -0.234 N 
ATOM     29  H12 UNL     1      22.786  28.077  41.426  1.00  0.00     0.174 HD
ATOM     30  H11 UNL     1      21.063  28.566  41.523  1.00  0.00     0.174 HD
ENDBRANCH   1  28
TORSDOF 7
ENDMDL
