MODEL 1
REMARK VINA RESULT: -7.892400077      0.000      0.000
REMARK  9 active torsions:
REMARK  status: ('A' for Active; 'I' for Inactive)
REMARK    1  A    between atoms: N1_1  and  N2_4 
REMARK    2  A    between atoms: N3_7  and  N4_8 
REMARK    3  A    between atoms: C3_15  and  C4_16 
REMARK       I    between atoms: C4_16  and  N7_18 
REMARK    4  A    between atoms: N7_18  and  N8_20 
REMARK    5  A    between atoms: C5_22  and  C6_23 
REMARK    6  A    between atoms: C9_28  and  N10_29 
REMARK    7  A    between atoms: N11_36  and  N12_37 
REMARK    8  A    between atoms: N12_37  and  C13_38 
REMARK    9  A    between atoms: C13_38  and  C14_39 
ROOT
HETATM    1  N2  UNL     1      -1.387 -40.606  24.321  1.00  0.00    -0.133 N 
ATOM      2  H2  UNL     1      -0.866 -40.760  23.457  1.00  0.00     0.205 HD
HETATM    3  C1  UNL     1      -2.416 -41.310  24.325  1.00  0.00     0.765 A 
HETATM    4  N3  UNL     1      -2.641 -42.125  23.192  1.00  0.00    -0.021 N 
HETATM    5  N5  UNL     1      -3.726 -42.955  23.118  1.00  0.00    -0.250 N 
ATOM      6  H5  UNL     1      -3.878 -43.538  22.295  1.00  0.00     0.191 HD
HETATM    7  C2  UNL     1      -4.660 -42.991  24.235  1.00  0.00     0.169 A 
HETATM    8  N6  UNL     1      -5.760 -43.876  24.057  1.00  0.00    -0.079 NA
HETATM    9  C3  UNL     1      -4.526 -42.271  25.314  1.00  0.00     0.199 A 
HETATM   10  N11 UNL     1      -3.375 -41.368  25.436  1.00  0.00    -0.006 N 
ENDROOT
BRANCH   9  11
HETATM   11  C4  UNL     1      -5.444 -42.291  26.454  1.00  0.00     0.293 C 
HETATM   12  O1  UNL     1      -6.605 -41.755  26.311  1.00  0.00    -0.264 OA
HETATM   13  N7  UNL     1      -5.217 -42.830  27.714  1.00  0.00    -0.265 N 
ATOM     14  H7  UNL     1      -4.321 -43.277  27.909  1.00  0.00     0.190 HD
BRANCH  13  15
HETATM   15  N8  UNL     1      -6.188 -42.774  28.725  1.00  0.00    -0.305 N 
HETATM   16  C5  UNL     1      -6.180 -43.506  29.750  1.00  0.00     0.163 C 
ATOM     17  H8  UNL     1      -6.946 -42.098  28.624  1.00  0.00     0.186 HD
BRANCH  16  18
HETATM   18  C6  UNL     1      -7.283 -43.322  30.739  1.00  0.00     0.165 A 
HETATM   19  N9  UNL     1      -7.091 -43.003  32.028  1.00  0.00    -0.333 N 
HETATM   20  C7  UNL     1      -8.328 -42.926  32.597  1.00  0.00     0.070 A 
ATOM     21  H9  UNL     1      -6.195 -42.850  32.492  1.00  0.00     0.168 HD
HETATM   22  C8  UNL     1      -8.794 -42.645  33.866  1.00  0.00     0.068 A 
HETATM   23  C12 UNL     1      -9.238 -43.207  31.615  1.00  0.00     0.104 A 
HETATM   24  C9  UNL     1     -10.139 -42.641  34.157  1.00  0.00     0.105 A 
HETATM   25  C10 UNL     1     -11.035 -42.924  33.159  1.00  0.00     0.039 A 
HETATM   26  C11 UNL     1     -10.581 -43.212  31.866  1.00  0.00     0.042 A 
HETATM   27  O4  UNL     1      -8.563 -43.434  30.531  1.00  0.00    -0.290 OA
BRANCH  24  28
HETATM   28  N10 UNL     1     -10.588 -42.345  35.486  1.00  0.00    -0.116 N 
HETATM   29  O2  UNL     1      -9.803 -42.195  36.437  1.00  0.00    -0.532 OA
HETATM   30  O3  UNL     1     -11.923 -42.211  35.765  1.00  0.00    -0.532 OA
ENDBRANCH  24  28
ENDBRANCH  16  18
ENDBRANCH  13  15
ENDBRANCH   9  11
BRANCH  10  31
HETATM   31  N12 UNL     1      -3.085 -40.636  26.475  1.00  0.00    -0.309 NA
BRANCH  31  32
HETATM   32  C13 UNL     1      -2.816 -39.980  27.427  1.00  0.00     0.294 C 
BRANCH  32  33
HETATM   33  C14 UNL     1      -3.742 -39.260  28.346  1.00  0.00     0.231 C 
HETATM   34  O5  UNL     1      -3.656 -38.023  28.555  1.00  0.00    -0.643 OA
HETATM   35  O6  UNL     1      -4.723 -39.976  28.980  1.00  0.00    -0.643 OA
ENDBRANCH  32  33
ENDBRANCH  31  32
ENDBRANCH  10  31
BRANCH   4  36
HETATM   36  N4  UNL     1      -1.736 -42.075  22.129  1.00  0.00    -0.309 N 
ATOM     37  H42 UNL     1      -1.341 -42.941  21.762  1.00  0.00     0.179 HD
ATOM     38  H41 UNL     1      -1.485 -41.169  21.734  1.00  0.00     0.179 HD
ENDBRANCH   4  36
BRANCH   1  39
HETATM   39  N1  UNL     1      -0.746 -39.716  25.082  1.00  0.00    -0.331 N 
ATOM     40  H12 UNL     1      -1.221 -39.667  25.984  1.00  0.00     0.177 HD
ATOM     41  H11 UNL     1       0.052 -39.082  25.048  1.00  0.00     0.177 HD
ENDBRANCH   1  39
TORSDOF 9
ENDMDL
MODEL 2
REMARK VINA RESULT: -7.860956589      1.692      3.526
REMARK  9 active torsions:
REMARK  status: ('A' for Active; 'I' for Inactive)
REMARK    1  A    between atoms: N1_1  and  N2_4 
REMARK    2  A    between atoms: N3_7  and  N4_8 
REMARK    3  A    between atoms: C3_15  and  C4_16 
REMARK       I    between atoms: C4_16  and  N7_18 
REMARK    4  A    between atoms: N7_18  and  N8_20 
REMARK    5  A    between atoms: C5_22  and  C6_23 
REMARK    6  A    between atoms: C9_28  and  N10_29 
REMARK    7  A    between atoms: N11_36  and  N12_37 
REMARK    8  A    between atoms: N12_37  and  C13_38 
REMARK    9  A    between atoms: C13_38  and  C14_39 
ROOT
HETATM    1  N2  UNL     1      -4.226 -43.194  23.006  1.00  0.00    -0.133 N 
ATOM      2  H2  UNL     1      -3.599 -42.920  22.250  1.00  0.00     0.205 HD
HETATM    3  C1  UNL     1      -4.132 -42.383  23.948  1.00  0.00     0.765 A 
HETATM    4  N3  UNL     1      -3.221 -41.314  23.786  1.00  0.00    -0.021 N 
HETATM    5  N5  UNL     1      -3.071 -40.357  24.752  1.00  0.00    -0.250 N 
ATOM      6  H5  UNL     1      -2.409 -39.591  24.624  1.00  0.00     0.191 HD
HETATM    7  C2  UNL     1      -3.871 -40.450  25.965  1.00  0.00     0.169 A 
HETATM    8  N6  UNL     1      -3.634 -39.415  26.912  1.00  0.00    -0.079 NA
HETATM    9  C3  UNL     1      -4.732 -41.404  26.192  1.00  0.00     0.199 A 
HETATM   10  N11 UNL     1      -4.926 -42.451  25.182  1.00  0.00    -0.006 N 
ENDROOT
BRANCH   9  11
HETATM   11  C4  UNL     1      -5.553 -41.520  27.398  1.00  0.00     0.293 C 
HETATM   12  O1  UNL     1      -6.524 -40.691  27.557  1.00  0.00    -0.264 OA
HETATM   13  N7  UNL     1      -5.414 -42.439  28.431  1.00  0.00    -0.265 N 
ATOM     14  H7  UNL     1      -4.670 -43.134  28.381  1.00  0.00     0.190 HD
BRANCH  13  15
HETATM   15  N8  UNL     1      -6.272 -42.434  29.541  1.00  0.00    -0.305 N 
HETATM   16  C5  UNL     1      -6.150 -43.208  30.528  1.00  0.00     0.163 C 
ATOM     17  H8  UNL     1      -7.040 -41.764  29.550  1.00  0.00     0.186 HD
BRANCH  16  18
HETATM   18  C6  UNL     1      -7.143 -43.076  31.635  1.00  0.00     0.165 A 
HETATM   19  N9  UNL     1      -8.473 -43.108  31.459  1.00  0.00    -0.333 N 
HETATM   20  C7  UNL     1      -9.032 -42.957  32.693  1.00  0.00     0.070 A 
ATOM     21  H9  UNL     1      -8.969 -43.223  30.574  1.00  0.00     0.168 HD
HETATM   22  C8  UNL     1     -10.327 -42.905  33.171  1.00  0.00     0.068 A 
HETATM   23  C12 UNL     1      -8.002 -42.835  33.586  1.00  0.00     0.104 A 
HETATM   24  C9  UNL     1     -10.597 -42.737  34.509  1.00  0.00     0.105 A 
HETATM   25  C10 UNL     1      -9.551 -42.617  35.388  1.00  0.00     0.039 A 
HETATM   26  C11 UNL     1      -8.232 -42.666  34.922  1.00  0.00     0.042 A 
HETATM   27  O4  UNL     1      -6.902 -42.913  32.903  1.00  0.00    -0.290 OA
BRANCH  24  28
HETATM   28  N10 UNL     1     -11.953 -42.688  34.970  1.00  0.00    -0.116 N 
HETATM   29  O2  UNL     1     -12.272 -42.158  36.048  1.00  0.00    -0.532 OA
HETATM   30  O3  UNL     1     -12.969 -43.230  34.228  1.00  0.00    -0.532 OA
ENDBRANCH  24  28
ENDBRANCH  16  18
ENDBRANCH  13  15
ENDBRANCH   9  11
BRANCH  10  31
HETATM   31  N12 UNL     1      -5.788 -43.427  25.249  1.00  0.00    -0.309 NA
BRANCH  31  32
HETATM   32  C13 UNL     1      -6.563 -44.324  25.306  1.00  0.00     0.294 C 
BRANCH  32  33
HETATM   33  C14 UNL     1      -7.689 -44.514  26.262  1.00  0.00     0.231 C 
HETATM   34  O5  UNL     1      -7.558 -44.341  27.501  1.00  0.00    -0.643 OA
HETATM   35  O6  UNL     1      -8.912 -44.885  25.769  1.00  0.00    -0.643 OA
ENDBRANCH  32  33
ENDBRANCH  31  32
ENDBRANCH  10  31
BRANCH   4  36
HETATM   36  N4  UNL     1      -2.460 -41.241  22.618  1.00  0.00    -0.309 N 
ATOM     37  H42 UNL     1      -1.441 -41.248  22.678  1.00  0.00     0.179 HD
ATOM     38  H41 UNL     1      -2.937 -41.185  21.719  1.00  0.00     0.179 HD
ENDBRANCH   4  36
BRANCH   1  39
HETATM   39  N1  UNL     1      -4.883 -44.306  22.667  1.00  0.00    -0.331 N 
ATOM     40  H12 UNL     1      -5.638 -44.447  23.339  1.00  0.00     0.177 HD
ATOM     41  H11 UNL     1      -4.870 -45.043  21.963  1.00  0.00     0.177 HD
ENDBRANCH   1  39
TORSDOF 9
ENDMDL
MODEL 3
REMARK VINA RESULT: -7.844379041      2.640      3.596
REMARK  9 active torsions:
REMARK  status: ('A' for Active; 'I' for Inactive)
REMARK    1  A    between atoms: N1_1  and  N2_4 
REMARK    2  A    between atoms: N3_7  and  N4_8 
REMARK    3  A    between atoms: C3_15  and  C4_16 
REMARK       I    between atoms: C4_16  and  N7_18 
REMARK    4  A    between atoms: N7_18  and  N8_20 
REMARK    5  A    between atoms: C5_22  and  C6_23 
REMARK    6  A    between atoms: C9_28  and  N10_29 
REMARK    7  A    between atoms: N11_36  and  N12_37 
REMARK    8  A    between atoms: N12_37  and  C13_38 
REMARK    9  A    between atoms: C13_38  and  C14_39 
ROOT
HETATM    1  N2  UNL     1      -5.803 -42.904  22.803  1.00  0.00    -0.133 N 
ATOM      2  H2  UNL     1      -5.700 -43.284  21.862  1.00  0.00     0.205 HD
HETATM    3  C1  UNL     1      -6.500 -43.673  23.494  1.00  0.00     0.765 A 
HETATM    4  N3  UNL     1      -6.984 -44.843  22.864  1.00  0.00    -0.021 N 
HETATM    5  N5  UNL     1      -7.730 -45.761  23.549  1.00  0.00    -0.250 N 
ATOM      6  H5  UNL     1      -8.075 -46.601  23.083  1.00  0.00     0.191 HD
HETATM    7  C2  UNL     1      -8.026 -45.520  24.954  1.00  0.00     0.169 A 
HETATM    8  N6  UNL     1      -8.818 -46.527  25.573  1.00  0.00    -0.079 NA
HETATM    9  C3  UNL     1      -7.620 -44.468  25.608  1.00  0.00     0.199 A 
HETATM   10  N11 UNL     1      -6.814 -43.457  24.913  1.00  0.00    -0.006 N 
ENDROOT
BRANCH   9  11
HETATM   11  C4  UNL     1      -7.896 -44.201  27.021  1.00  0.00     0.293 C 
HETATM   12  O1  UNL     1      -7.244 -44.870  27.907  1.00  0.00    -0.264 OA
HETATM   13  N7  UNL     1      -8.804 -43.292  27.549  1.00  0.00    -0.265 N 
ATOM     14  H7  UNL     1      -9.360 -42.720  26.913  1.00  0.00     0.190 HD
BRANCH  13  15
HETATM   15  N8  UNL     1      -8.977 -43.142  28.933  1.00  0.00    -0.305 N 
HETATM   16  C5  UNL     1     -10.002 -43.521  29.560  1.00  0.00     0.163 C 
ATOM     17  H8  UNL     1      -8.227 -42.700  29.464  1.00  0.00     0.186 HD
BRANCH  16  18
HETATM   18  C6  UNL     1     -10.032 -43.293  31.035  1.00  0.00     0.165 A 
HETATM   19  N9  UNL     1      -8.950 -43.351  31.826  1.00  0.00    -0.333 N 
HETATM   20  C7  UNL     1      -9.381 -43.089  33.093  1.00  0.00     0.070 A 
ATOM     21  H9  UNL     1      -7.992 -43.551  31.536  1.00  0.00     0.168 HD
HETATM   22  C8  UNL     1      -8.766 -43.005  34.327  1.00  0.00     0.068 A 
HETATM   23  C12 UNL     1     -10.731 -42.881  33.021  1.00  0.00     0.104 A 
HETATM   24  C9  UNL     1      -9.477 -42.718  35.469  1.00  0.00     0.105 A 
HETATM   25  C10 UNL     1     -10.829 -42.512  35.376  1.00  0.00     0.039 A 
HETATM   26  C11 UNL     1     -11.470 -42.594  34.134  1.00  0.00     0.042 A 
HETATM   27  O4  UNL     1     -11.066 -43.014  31.774  1.00  0.00    -0.290 OA
BRANCH  24  28
HETATM   28  N10 UNL     1      -8.807 -42.638  36.734  1.00  0.00    -0.116 N 
HETATM   29  O2  UNL     1      -8.470 -41.555  37.242  1.00  0.00    -0.532 OA
HETATM   30  O3  UNL     1      -8.507 -43.770  37.445  1.00  0.00    -0.532 OA
ENDBRANCH  24  28
ENDBRANCH  16  18
ENDBRANCH  13  15
ENDBRANCH   9  11
BRANCH  10  31
HETATM   31  N12 UNL     1      -6.294 -42.389  25.452  1.00  0.00    -0.309 NA
BRANCH  31  32
HETATM   32  C13 UNL     1      -5.810 -41.424  25.944  1.00  0.00     0.294 C 
BRANCH  32  33
HETATM   33  C14 UNL     1      -6.258 -40.676  27.152  1.00  0.00     0.231 C 
HETATM   34  O5  UNL     1      -7.459 -40.660  27.526  1.00  0.00    -0.643 OA
HETATM   35  O6  UNL     1      -5.325 -39.987  27.880  1.00  0.00    -0.643 OA
ENDBRANCH  32  33
ENDBRANCH  31  32
ENDBRANCH  10  31
BRANCH   4  36
HETATM   36  N4  UNL     1      -6.692 -45.057  21.515  1.00  0.00    -0.309 N 
ATOM     37  H42 UNL     1      -5.983 -44.485  21.055  1.00  0.00     0.179 HD
ATOM     38  H41 UNL     1      -7.195 -45.786  21.009  1.00  0.00     0.179 HD
ENDBRANCH   4  36
BRANCH   1  39
HETATM   39  N1  UNL     1      -5.147 -41.745  22.898  1.00  0.00    -0.331 N 
ATOM     40  H12 UNL     1      -5.638 -41.054  22.331  1.00  0.00     0.177 HD
ATOM     41  H11 UNL     1      -4.327 -41.341  23.350  1.00  0.00     0.177 HD
ENDBRANCH   1  39
TORSDOF 9
ENDMDL
MODEL 4
REMARK VINA RESULT: -7.834791964      1.666      2.212
REMARK  9 active torsions:
REMARK  status: ('A' for Active; 'I' for Inactive)
REMARK    1  A    between atoms: N1_1  and  N2_4 
REMARK    2  A    between atoms: N3_7  and  N4_8 
REMARK    3  A    between atoms: C3_15  and  C4_16 
REMARK       I    between atoms: C4_16  and  N7_18 
REMARK    4  A    between atoms: N7_18  and  N8_20 
REMARK    5  A    between atoms: C5_22  and  C6_23 
REMARK    6  A    between atoms: C9_28  and  N10_29 
REMARK    7  A    between atoms: N11_36  and  N12_37 
REMARK    8  A    between atoms: N12_37  and  C13_38 
REMARK    9  A    between atoms: C13_38  and  C14_39 
ROOT
HETATM    1  N2  UNL     1      -2.552 -42.637  22.640  1.00  0.00    -0.133 N 
ATOM      2  H2  UNL     1      -1.965 -43.014  21.896  1.00  0.00     0.205 HD
HETATM    3  C1  UNL     1      -3.108 -43.570  23.253  1.00  0.00     0.765 A 
HETATM    4  N3  UNL     1      -2.832 -44.884  22.810  1.00  0.00    -0.021 N 
HETATM    5  N5  UNL     1      -3.370 -45.973  23.439  1.00  0.00    -0.250 N 
ATOM      6  H5  UNL     1      -3.164 -46.917  23.110  1.00  0.00     0.191 HD
HETATM    7  C2  UNL     1      -4.242 -45.762  24.586  1.00  0.00     0.169 A 
HETATM    8  N6  UNL     1      -4.760 -46.956  25.162  1.00  0.00    -0.079 NA
HETATM    9  C3  UNL     1      -4.548 -44.585  25.056  1.00  0.00     0.199 A 
HETATM   10  N11 UNL     1      -3.992 -43.389  24.413  1.00  0.00    -0.006 N 
ENDROOT
BRANCH   9  11
HETATM   11  C4  UNL     1      -5.417 -44.343  26.209  1.00  0.00     0.293 C 
HETATM   12  O1  UNL     1      -6.680 -44.549  26.075  1.00  0.00    -0.264 OA
HETATM   13  N7  UNL     1      -5.042 -43.901  27.472  1.00  0.00    -0.265 N 
ATOM     14  H7  UNL     1      -4.058 -43.717  27.662  1.00  0.00     0.190 HD
BRANCH  13  15
HETATM   15  N8  UNL     1      -5.985 -43.702  28.492  1.00  0.00    -0.305 N 
HETATM   16  C5  UNL     1      -5.709 -43.734  29.721  1.00  0.00     0.163 C 
ATOM     17  H8  UNL     1      -6.952 -43.520  28.222  1.00  0.00     0.186 HD
BRANCH  16  18
HETATM   18  C6  UNL     1      -6.825 -43.498  30.684  1.00  0.00     0.165 A 
HETATM   19  N9  UNL     1      -6.650 -43.092  31.951  1.00  0.00    -0.333 N 
HETATM   20  C7  UNL     1      -7.893 -42.992  32.502  1.00  0.00     0.070 A 
ATOM     21  H9  UNL     1      -5.761 -42.898  32.412  1.00  0.00     0.168 HD
HETATM   22  C8  UNL     1      -8.376 -42.634  33.746  1.00  0.00     0.068 A 
HETATM   23  C12 UNL     1      -8.790 -43.349  31.533  1.00  0.00     0.104 A 
HETATM   24  C9  UNL     1      -9.724 -42.626  34.023  1.00  0.00     0.105 A 
HETATM   25  C10 UNL     1     -10.606 -42.986  33.037  1.00  0.00     0.039 A 
HETATM   26  C11 UNL     1     -10.136 -43.354  31.771  1.00  0.00     0.042 A 
HETATM   27  O4  UNL     1      -8.101 -43.639  30.472  1.00  0.00    -0.290 OA
BRANCH  24  28
HETATM   28  N10 UNL     1     -10.190 -42.248  35.325  1.00  0.00    -0.116 N 
HETATM   29  O2  UNL     1      -9.418 -41.905  36.235  1.00  0.00    -0.532 OA
HETATM   30  O3  UNL     1     -11.527 -42.249  35.621  1.00  0.00    -0.532 OA
ENDBRANCH  24  28
ENDBRANCH  16  18
ENDBRANCH  13  15
ENDBRANCH   9  11
BRANCH  10  31
HETATM   31  N12 UNL     1      -4.164 -42.158  24.807  1.00  0.00    -0.309 NA
BRANCH  31  32
HETATM   32  C13 UNL     1      -4.319 -41.042  25.178  1.00  0.00     0.294 C 
BRANCH  32  33
HETATM   33  C14 UNL     1      -5.452 -40.476  25.964  1.00  0.00     0.231 C 
HETATM   34  O5  UNL     1      -6.273 -41.203  26.580  1.00  0.00    -0.643 OA
HETATM   35  O6  UNL     1      -5.596 -39.116  26.018  1.00  0.00    -0.643 OA
ENDBRANCH  32  33
ENDBRANCH  31  32
ENDBRANCH  10  31
BRANCH   4  36
HETATM   36  N4  UNL     1      -1.995 -45.067  21.707  1.00  0.00    -0.309 N 
ATOM     37  H42 UNL     1      -2.054 -44.425  20.917  1.00  0.00     0.179 HD
ATOM     38  H41 UNL     1      -1.333 -45.843  21.711  1.00  0.00     0.179 HD
ENDBRANCH   4  36
BRANCH   1  39
HETATM   39  N1  UNL     1      -2.477 -41.305  22.644  1.00  0.00    -0.331 N 
ATOM     40  H12 UNL     1      -3.132 -40.947  21.949  1.00  0.00     0.177 HD
ATOM     41  H11 UNL     1      -1.982 -40.547  23.113  1.00  0.00     0.177 HD
ENDBRANCH   1  39
TORSDOF 9
ENDMDL
MODEL 5
REMARK VINA RESULT: -7.785439508      1.633      2.107
REMARK  9 active torsions:
REMARK  status: ('A' for Active; 'I' for Inactive)
REMARK    1  A    between atoms: N1_1  and  N2_4 
REMARK    2  A    between atoms: N3_7  and  N4_8 
REMARK    3  A    between atoms: C3_15  and  C4_16 
REMARK       I    between atoms: C4_16  and  N7_18 
REMARK    4  A    between atoms: N7_18  and  N8_20 
REMARK    5  A    between atoms: C5_22  and  C6_23 
REMARK    6  A    between atoms: C9_28  and  N10_29 
REMARK    7  A    between atoms: N11_36  and  N12_37 
REMARK    8  A    between atoms: N12_37  and  C13_38 
REMARK    9  A    between atoms: C13_38  and  C14_39 
ROOT
HETATM    1  N2  UNL     1      -3.287 -41.687  23.038  1.00  0.00    -0.133 N 
ATOM      2  H2  UNL     1      -2.704 -42.008  22.265  1.00  0.00     0.205 HD
HETATM    3  C1  UNL     1      -3.686 -42.664  23.700  1.00  0.00     0.765 A 
HETATM    4  N3  UNL     1      -3.279 -43.946  23.264  1.00  0.00    -0.021 N 
HETATM    5  N5  UNL     1      -3.641 -45.076  23.944  1.00  0.00    -0.250 N 
ATOM      6  H5  UNL     1      -3.341 -45.996  23.619  1.00  0.00     0.191 HD
HETATM    7  C2  UNL     1      -4.462 -44.945  25.140  1.00  0.00     0.169 A 
HETATM    8  N6  UNL     1      -4.794 -46.178  25.768  1.00  0.00    -0.079 NA
HETATM    9  C3  UNL     1      -4.881 -43.802  25.607  1.00  0.00     0.199 A 
HETATM   10  N11 UNL     1      -4.514 -42.563  24.910  1.00  0.00    -0.006 N 
ENDROOT
BRANCH   9  11
HETATM   11  C4  UNL     1      -5.701 -43.639  26.809  1.00  0.00     0.293 C 
HETATM   12  O1  UNL     1      -6.915 -44.066  26.781  1.00  0.00    -0.264 OA
HETATM   13  N7  UNL     1      -5.329 -43.059  28.015  1.00  0.00    -0.265 N 
ATOM     14  H7  UNL     1      -4.381 -42.697  28.120  1.00  0.00     0.190 HD
BRANCH  13  15
HETATM   15  N8  UNL     1      -6.223 -42.959  29.091  1.00  0.00    -0.305 N 
HETATM   16  C5  UNL     1      -6.039 -43.502  30.213  1.00  0.00     0.163 C 
ATOM     17  H8  UNL     1      -7.074 -42.412  28.957  1.00  0.00     0.186 HD
BRANCH  16  18
HETATM   18  C6  UNL     1      -7.084 -43.297  31.259  1.00  0.00     0.165 A 
HETATM   19  N9  UNL     1      -8.402 -43.424  31.039  1.00  0.00    -0.333 N 
HETATM   20  C7  UNL     1      -9.020 -43.161  32.226  1.00  0.00     0.070 A 
ATOM     21  H9  UNL     1      -8.852 -43.669  30.157  1.00  0.00     0.168 HD
HETATM   22  C8  UNL     1     -10.335 -43.126  32.645  1.00  0.00     0.068 A 
HETATM   23  C12 UNL     1      -8.038 -42.878  33.134  1.00  0.00     0.104 A 
HETATM   24  C9  UNL     1     -10.671 -42.817  33.944  1.00  0.00     0.105 A 
HETATM   25  C10 UNL     1      -9.671 -42.538  34.839  1.00  0.00     0.039 A 
HETATM   26  C11 UNL     1      -8.332 -42.567  34.432  1.00  0.00     0.042 A 
HETATM   27  O4  UNL     1      -6.906 -42.974  32.507  1.00  0.00    -0.290 OA
BRANCH  24  28
HETATM   28  N10 UNL     1     -12.047 -42.791  34.345  1.00  0.00    -0.116 N 
HETATM   29  O2  UNL     1     -12.963 -43.202  33.614  1.00  0.00    -0.532 OA
HETATM   30  O3  UNL     1     -12.412 -42.304  35.573  1.00  0.00    -0.532 OA
ENDBRANCH  24  28
ENDBRANCH  16  18
ENDBRANCH  13  15
ENDBRANCH   9  11
BRANCH  10  31
HETATM   31  N12 UNL     1      -4.812 -41.353  25.294  1.00  0.00    -0.309 NA
BRANCH  31  32
HETATM   32  C13 UNL     1      -5.090 -40.256  25.652  1.00  0.00     0.294 C 
BRANCH  32  33
HETATM   33  C14 UNL     1      -4.753 -39.590  26.941  1.00  0.00     0.231 C 
HETATM   34  O5  UNL     1      -4.020 -38.570  27.000  1.00  0.00    -0.643 OA
HETATM   35  O6  UNL     1      -5.265 -40.109  28.100  1.00  0.00    -0.643 OA
ENDBRANCH  32  33
ENDBRANCH  31  32
ENDBRANCH  10  31
BRANCH   4  36
HETATM   36  N4  UNL     1      -2.494 -44.053  22.114  1.00  0.00    -0.309 N 
ATOM     37  H42 UNL     1      -1.953 -43.249  21.795  1.00  0.00     0.179 HD
ATOM     38  H41 UNL     1      -2.472 -44.940  21.610  1.00  0.00     0.179 HD
ENDBRANCH   4  36
BRANCH   1  39
HETATM   39  N1  UNL     1      -3.376 -40.355  23.014  1.00  0.00    -0.331 N 
ATOM     40  H12 UNL     1      -4.136 -40.097  22.385  1.00  0.00     0.177 HD
ATOM     41  H11 UNL     1      -2.933 -39.530  23.419  1.00  0.00     0.177 HD
ENDBRANCH   1  39
TORSDOF 9
ENDMDL
