MODEL 1
REMARK VINA RESULT: -7.905327251      0.000      0.000
REMARK  10 active torsions:
REMARK  status: ('A' for Active; 'I' for Inactive)
REMARK    1  A    between atoms: O1_2  and  C2_3 
REMARK       I    between atoms: C2_3  and  N1_5 
REMARK    2  A    between atoms: N1_5  and  C3_7 
REMARK    3  A    between atoms: C3_7  and  C4_8 
REMARK    4  A    between atoms: N4_12  and  C5_13 
REMARK    5  A    between atoms: C6_16  and  N6_17 
REMARK    6  A    between atoms: C8_22  and  N8_23 
REMARK    7  A    between atoms: C9_25  and  C11_28 
REMARK    8  A    between atoms: C11_28  and  C12_29 
REMARK    9  A    between atoms: C13_34  and  N12_35 
REMARK   10  A    between atoms: C14_40  and  O3_41 
ROOT
HETATM    1  N8  UNL     1      -2.757 -44.637  25.406  1.00  0.00    -0.334 N 
ATOM      2  H8  UNL     1      -3.111 -45.392  25.994  1.00  0.00     0.168 HD
HETATM    3  C9  UNL     1      -1.477 -44.539  25.293  1.00  0.00     0.099 C 
HETATM    4  C10 UNL     1      -0.640 -45.478  25.984  1.00  0.00     0.113 C 
HETATM    5  N9  UNL     1       0.027 -46.250  26.558  1.00  0.00    -0.190 NA
ENDROOT
BRANCH   3   6
HETATM    6  C11 UNL     1      -0.827 -43.491  24.474  1.00  0.00     0.147 C 
BRANCH   6   7
HETATM    7  C12 UNL     1      -0.657 -43.905  23.059  1.00  0.00     0.118 A 
HETATM    8  N10 UNL     1       0.230 -44.802  22.595  1.00  0.00    -0.274 N 
HETATM    9  N11 UNL     1       0.081 -44.906  21.286  1.00  0.00    -0.131 N 
ATOM     10  H10 UNL     1       0.906 -45.317  23.160  1.00  0.00     0.189 HD
HETATM   11  C13 UNL     1      -0.906 -44.079  20.872  1.00  0.00     0.691 A 
ATOM     12  H11 UNL     1       0.628 -45.518  20.680  1.00  0.00     0.205 HD
HETATM   13  N13 UNL     1      -1.356 -43.459  22.001  1.00  0.00    -0.178 N 
ATOM     14  H13 UNL     1      -2.105 -42.768  22.036  1.00  0.00     0.185 HD
BRANCH  11  15
HETATM   15  N12 UNL     1      -1.327 -43.915  19.661  1.00  0.00    -0.233 N 
ATOM     16 2H12 UNL     1      -1.054 -43.189  19.000  1.00  0.00     0.174 HD
ATOM     17 1H12 UNL     1      -2.005 -44.492  19.164  1.00  0.00     0.174 HD
ENDBRANCH  11  15
ENDBRANCH   6   7
ENDBRANCH   3   6
BRANCH   1  18
HETATM   18  C8  UNL     1      -3.709 -43.808  24.802  1.00  0.00     0.161 A 
HETATM   19  N7  UNL     1      -4.441 -44.289  23.781  1.00  0.00    -0.170 N 
HETATM   20  C6  UNL     1      -5.343 -43.456  23.231  1.00  0.00     0.681 A 
HETATM   21  C7  UNL     1      -4.271 -45.661  23.281  1.00  0.00     0.177 C 
HETATM   22  N5  UNL     1      -5.543 -42.191  23.647  1.00  0.00    -0.171 N 
HETATM   23  C5  UNL     1      -4.831 -41.669  24.667  1.00  0.00     0.195 A 
ATOM     24  H5  UNL     1      -6.245 -41.617  23.181  1.00  0.00     0.186 HD
HETATM   25  C14 UNL     1      -3.897 -42.503  25.249  1.00  0.00     0.159 A 
BRANCH  20  26
HETATM   26  N6  UNL     1      -6.045 -43.941  22.240  1.00  0.00    -0.234 N 
ATOM     27  H62 UNL     1      -6.811 -44.564  22.494  1.00  0.00     0.174 HD
ATOM     28  H61 UNL     1      -5.814 -43.690  21.278  1.00  0.00     0.174 HD
ENDBRANCH  20  26
BRANCH  23  29
HETATM   29  N4  UNL     1      -5.042 -40.329  25.109  1.00  0.00    -0.158 N 
HETATM   30  N3  UNL     1      -5.654 -39.928  26.210  1.00  0.00     0.004 NA
HETATM   31  N2  UNL     1      -5.657 -38.596  26.281  1.00  0.00    -0.269 N 
HETATM   32  C4  UNL     1      -5.025 -38.134  25.186  1.00  0.00     0.128 A 
ATOM     33  H2  UNL     1      -6.063 -38.033  27.028  1.00  0.00     0.185 HD
HETATM   34  N14 UNL     1      -4.663 -39.212  24.494  1.00  0.00    -0.265 N 
ATOM     35  H14 UNL     1      -4.161 -39.185  23.607  1.00  0.00     0.190 HD
BRANCH  32  36
HETATM   36  C3  UNL     1      -4.790 -36.686  24.839  1.00  0.00     0.203 C 
BRANCH  36  37
HETATM   37  N1  UNL     1      -3.531 -36.531  24.161  1.00  0.00    -0.330 N 
HETATM   38  C2  UNL     1      -2.801 -35.334  24.278  1.00  0.00     0.360 C 
HETATM   39  O2  UNL     1      -3.223 -34.382  24.968  1.00  0.00    -0.239 OA
ATOM     40  H1  UNL     1      -3.166 -37.294  23.592  1.00  0.00     0.165 HD
BRANCH  38  41
HETATM   41  O1  UNL     1      -1.595 -35.203  23.622  1.00  0.00    -0.309 OA
HETATM   42  C1  UNL     1      -0.438 -34.701  24.286  1.00  0.00     0.215 C 
ENDBRANCH  38  41
ENDBRANCH  36  37
ENDBRANCH  32  36
ENDBRANCH  23  29
BRANCH  25  43
HETATM   43  O3  UNL     1      -3.155 -41.979  26.301  1.00  0.00    -0.354 OA
ATOM     44  H3  UNL     1      -2.210 -41.979  26.203  1.00  0.00     0.218 HD
ENDBRANCH  25  43
ENDBRANCH   1  18
TORSDOF 10
ENDMDL
MODEL 2
REMARK VINA RESULT: -7.836285218      2.911      4.434
REMARK  10 active torsions:
REMARK  status: ('A' for Active; 'I' for Inactive)
REMARK    1  A    between atoms: O1_2  and  C2_3 
REMARK       I    between atoms: C2_3  and  N1_5 
REMARK    2  A    between atoms: N1_5  and  C3_7 
REMARK    3  A    between atoms: C3_7  and  C4_8 
REMARK    4  A    between atoms: N4_12  and  C5_13 
REMARK    5  A    between atoms: C6_16  and  N6_17 
REMARK    6  A    between atoms: C8_22  and  N8_23 
REMARK    7  A    between atoms: C9_25  and  C11_28 
REMARK    8  A    between atoms: C11_28  and  C12_29 
REMARK    9  A    between atoms: C13_34  and  N12_35 
REMARK   10  A    between atoms: C14_40  and  O3_41 
ROOT
HETATM    1  N8  UNL     1       0.934 -43.468  24.143  1.00  0.00    -0.334 N 
ATOM      2  H8  UNL     1       1.209 -44.274  24.703  1.00  0.00     0.168 HD
HETATM    3  C9  UNL     1       1.793 -42.513  24.037  1.00  0.00     0.099 C 
HETATM    4  C10 UNL     1       3.061 -42.636  24.699  1.00  0.00     0.113 C 
HETATM    5  N9  UNL     1       4.087 -42.752  25.249  1.00  0.00    -0.190 NA
ENDROOT
BRANCH   3   6
HETATM    6  C11 UNL     1       1.527 -41.283  23.255  1.00  0.00     0.147 C 
BRANCH   6   7
HETATM    7  C12 UNL     1       1.270 -40.108  24.123  1.00  0.00     0.118 A 
HETATM    8  N10 UNL     1       2.051 -39.020  24.238  1.00  0.00    -0.274 N 
HETATM    9  N11 UNL     1       1.496 -38.189  25.103  1.00  0.00    -0.131 N 
ATOM     10  H10 UNL     1       2.928 -38.862  23.740  1.00  0.00     0.189 HD
HETATM   11  C13 UNL     1       0.341 -38.720  25.568  1.00  0.00     0.691 A 
ATOM     12  H11 UNL     1       1.879 -37.285  25.378  1.00  0.00     0.205 HD
HETATM   13  N13 UNL     1       0.218 -39.925  24.940  1.00  0.00    -0.178 N 
ATOM     14  H13 UNL     1      -0.550 -40.582  25.070  1.00  0.00     0.185 HD
BRANCH  11  15
HETATM   15  N12 UNL     1      -0.468 -38.191  26.426  1.00  0.00    -0.233 N 
ATOM     16 2H12 UNL     1      -0.453 -37.239  26.790  1.00  0.00     0.174 HD
ATOM     17 1H12 UNL     1      -1.259 -38.643  26.882  1.00  0.00     0.174 HD
ENDBRANCH  11  15
ENDBRANCH   6   7
ENDBRANCH   3   6
BRANCH   1  18
HETATM   18  C8  UNL     1      -0.339 -43.506  23.564  1.00  0.00     0.161 A 
HETATM   19  N7  UNL     1      -0.499 -44.117  22.376  1.00  0.00    -0.170 N 
HETATM   20  C6  UNL     1      -1.741 -44.129  21.858  1.00  0.00     0.681 A 
HETATM   21  C7  UNL     1       0.624 -44.749  21.669  1.00  0.00     0.177 C 
HETATM   22  N5  UNL     1      -2.807 -43.569  22.460  1.00  0.00    -0.171 N 
HETATM   23  C5  UNL     1      -2.691 -42.945  23.650  1.00  0.00     0.195 A 
ATOM     24  H5  UNL     1      -3.719 -43.616  22.006  1.00  0.00     0.186 HD
HETATM   25  C14 UNL     1      -1.427 -42.918  24.205  1.00  0.00     0.159 A 
BRANCH  20  26
HETATM   26  N6  UNL     1      -1.877 -44.728  20.703  1.00  0.00    -0.234 N 
ATOM     27  H62 UNL     1      -2.598 -44.353  20.085  1.00  0.00     0.174 HD
ATOM     28  H61 UNL     1      -1.283 -45.521  20.464  1.00  0.00     0.174 HD
ENDBRANCH  20  26
BRANCH  23  29
HETATM   29  N4  UNL     1      -3.820 -42.352  24.290  1.00  0.00    -0.158 N 
HETATM   30  N3  UNL     1      -5.063 -42.803  24.320  1.00  0.00     0.004 NA
HETATM   31  N2  UNL     1      -5.841 -41.975  25.016  1.00  0.00    -0.269 N 
HETATM   32  C4  UNL     1      -5.067 -40.959  25.443  1.00  0.00     0.128 A 
ATOM     33  H2  UNL     1      -6.839 -42.089  25.191  1.00  0.00     0.185 HD
HETATM   34  N14 UNL     1      -3.844 -41.218  24.986  1.00  0.00    -0.265 N 
ATOM     35  H14 UNL     1      -3.031 -40.624  25.147  1.00  0.00     0.190 HD
BRANCH  32  36
HETATM   36  C3  UNL     1      -5.520 -39.782  26.268  1.00  0.00     0.203 C 
BRANCH  36  37
HETATM   37  N1  UNL     1      -5.456 -38.572  25.492  1.00  0.00    -0.330 N 
HETATM   38  C2  UNL     1      -4.458 -37.613  25.748  1.00  0.00     0.360 C 
HETATM   39  O2  UNL     1      -3.609 -37.785  26.648  1.00  0.00    -0.239 OA
ATOM     40  H1  UNL     1      -6.138 -38.408  24.753  1.00  0.00     0.165 HD
BRANCH  38  41
HETATM   41  O1  UNL     1      -4.411 -36.459  24.994  1.00  0.00    -0.309 OA
HETATM   42  C1  UNL     1      -3.217 -36.052  24.332  1.00  0.00     0.215 C 
ENDBRANCH  38  41
ENDBRANCH  36  37
ENDBRANCH  32  36
ENDBRANCH  23  29
BRANCH  25  43
HETATM   43  O3  UNL     1      -1.291 -42.279  25.431  1.00  0.00    -0.354 OA
ATOM     44  H3  UNL     1      -0.408 -42.063  25.709  1.00  0.00     0.218 HD
ENDBRANCH  25  43
ENDBRANCH   1  18
TORSDOF 10
ENDMDL
MODEL 3
REMARK VINA RESULT: -7.785373618      5.528      8.464
REMARK  10 active torsions:
REMARK  status: ('A' for Active; 'I' for Inactive)
REMARK    1  A    between atoms: O1_2  and  C2_3 
REMARK       I    between atoms: C2_3  and  N1_5 
REMARK    2  A    between atoms: N1_5  and  C3_7 
REMARK    3  A    between atoms: C3_7  and  C4_8 
REMARK    4  A    between atoms: N4_12  and  C5_13 
REMARK    5  A    between atoms: C6_16  and  N6_17 
REMARK    6  A    between atoms: C8_22  and  N8_23 
REMARK    7  A    between atoms: C9_25  and  C11_28 
REMARK    8  A    between atoms: C11_28  and  C12_29 
REMARK    9  A    between atoms: C13_34  and  N12_35 
REMARK   10  A    between atoms: C14_40  and  O3_41 
ROOT
HETATM    1  N8  UNL     1      -4.111 -39.007  26.411  1.00  0.00    -0.334 N 
ATOM      2  H8  UNL     1      -4.442 -38.062  26.608  1.00  0.00     0.168 HD
HETATM    3  C9  UNL     1      -4.057 -39.357  25.172  1.00  0.00     0.099 C 
HETATM    4  C10 UNL     1      -4.457 -38.419  24.162  1.00  0.00     0.113 C 
HETATM    5  N9  UNL     1      -4.792 -37.643  23.352  1.00  0.00    -0.190 NA
ENDROOT
BRANCH   3   6
HETATM    6  C11 UNL     1      -3.597 -40.697  24.741  1.00  0.00     0.147 C 
BRANCH   6   7
HETATM    7  C12 UNL     1      -4.716 -41.562  24.294  1.00  0.00     0.118 A 
HETATM    8  N10 UNL     1      -5.897 -41.718  24.918  1.00  0.00    -0.274 N 
HETATM    9  N11 UNL     1      -6.635 -42.564  24.221  1.00  0.00    -0.131 N 
ATOM     10  H10 UNL     1      -6.177 -41.259  25.785  1.00  0.00     0.189 HD
HETATM   11  C13 UNL     1      -5.949 -42.975  23.129  1.00  0.00     0.691 A 
ATOM     12  H11 UNL     1      -7.579 -42.862  24.468  1.00  0.00     0.205 HD
HETATM   13  N13 UNL     1      -4.747 -42.334  23.194  1.00  0.00    -0.178 N 
ATOM     14  H13 UNL     1      -3.991 -42.426  22.516  1.00  0.00     0.185 HD
BRANCH  11  15
HETATM   15  N12 UNL     1      -6.355 -43.801  22.222  1.00  0.00    -0.233 N 
ATOM     16 2H12 UNL     1      -6.853 -44.681  22.358  1.00  0.00     0.174 HD
ATOM     17 1H12 UNL     1      -6.243 -43.708  21.213  1.00  0.00     0.174 HD
ENDBRANCH  11  15
ENDBRANCH   6   7
ENDBRANCH   3   6
BRANCH   1  18
HETATM   18  C8  UNL     1      -3.759 -39.795  27.512  1.00  0.00     0.161 A 
HETATM   19  N7  UNL     1      -2.472 -39.835  27.903  1.00  0.00    -0.170 N 
HETATM   20  C6  UNL     1      -2.182 -40.607  28.966  1.00  0.00     0.681 A 
HETATM   21  C7  UNL     1      -1.425 -39.073  27.208  1.00  0.00     0.177 C 
HETATM   22  N5  UNL     1      -3.098 -41.325  29.641  1.00  0.00    -0.171 N 
HETATM   23  C5  UNL     1      -4.398 -41.315  29.282  1.00  0.00     0.195 A 
ATOM     24  H5  UNL     1      -2.803 -41.889  30.438  1.00  0.00     0.186 HD
HETATM   25  C14 UNL     1      -4.725 -40.530  28.194  1.00  0.00     0.159 A 
BRANCH  20  26
HETATM   26  N6  UNL     1      -0.926 -40.633  29.331  1.00  0.00    -0.234 N 
ATOM     27  H62 UNL     1      -0.751 -40.753  30.329  1.00  0.00     0.174 HD
ATOM     28  H61 UNL     1      -0.187 -40.537  28.635  1.00  0.00     0.174 HD
ENDBRANCH  20  26
BRANCH  23  29
HETATM   29  N4  UNL     1      -5.371 -42.075  29.998  1.00  0.00    -0.158 N 
HETATM   30  N3  UNL     1      -6.286 -42.890  29.501  1.00  0.00     0.004 NA
HETATM   31  N2  UNL     1      -7.016 -43.422  30.482  1.00  0.00    -0.269 N 
HETATM   32  C4  UNL     1      -6.549 -42.927  31.644  1.00  0.00     0.128 A 
ATOM     33  H2  UNL     1      -7.785 -44.082  30.371  1.00  0.00     0.185 HD
HETATM   34  N14 UNL     1      -5.549 -42.112  31.316  1.00  0.00    -0.265 N 
ATOM     35  H14 UNL     1      -4.992 -41.584  31.987  1.00  0.00     0.190 HD
BRANCH  32  36
HETATM   36  C3  UNL     1      -7.072 -43.247  33.020  1.00  0.00     0.203 C 
BRANCH  36  37
HETATM   37  N1  UNL     1      -8.255 -42.477  33.299  1.00  0.00    -0.330 N 
HETATM   38  C2  UNL     1      -8.724 -42.342  34.619  1.00  0.00     0.360 C 
HETATM   39  O2  UNL     1      -8.131 -42.884  35.576  1.00  0.00    -0.239 OA
ATOM     40  H1  UNL     1      -8.756 -42.025  32.535  1.00  0.00     0.165 HD
BRANCH  38  41
HETATM   41  O1  UNL     1      -9.858 -41.599  34.868  1.00  0.00    -0.309 OA
HETATM   42  C1  UNL     1     -11.146 -42.206  34.931  1.00  0.00     0.215 C 
ENDBRANCH  38  41
ENDBRANCH  36  37
ENDBRANCH  32  36
ENDBRANCH  23  29
BRANCH  25  43
HETATM   43  O3  UNL     1      -6.061 -40.509  27.812  1.00  0.00    -0.354 OA
ATOM     44  H3  UNL     1      -6.316 -39.852  27.175  1.00  0.00     0.218 HD
ENDBRANCH  25  43
ENDBRANCH   1  18
TORSDOF 10
ENDMDL
MODEL 4
REMARK VINA RESULT: -7.490501170      2.472      4.717
REMARK  10 active torsions:
REMARK  status: ('A' for Active; 'I' for Inactive)
REMARK    1  A    between atoms: O1_2  and  C2_3 
REMARK       I    between atoms: C2_3  and  N1_5 
REMARK    2  A    between atoms: N1_5  and  C3_7 
REMARK    3  A    between atoms: C3_7  and  C4_8 
REMARK    4  A    between atoms: N4_12  and  C5_13 
REMARK    5  A    between atoms: C6_16  and  N6_17 
REMARK    6  A    between atoms: C8_22  and  N8_23 
REMARK    7  A    between atoms: C9_25  and  C11_28 
REMARK    8  A    between atoms: C11_28  and  C12_29 
REMARK    9  A    between atoms: C13_34  and  N12_35 
REMARK   10  A    between atoms: C14_40  and  O3_41 
ROOT
HETATM    1  N8  UNL     1      -5.195 -41.105  24.630  1.00  0.00    -0.334 N 
ATOM      2  H8  UNL     1      -6.196 -41.014  24.458  1.00  0.00     0.168 HD
HETATM    3  C9  UNL     1      -4.612 -42.140  24.130  1.00  0.00     0.099 C 
HETATM    4  C10 UNL     1      -5.387 -43.084  23.376  1.00  0.00     0.113 C 
HETATM    5  N9  UNL     1      -6.036 -43.845  22.769  1.00  0.00    -0.190 NA
ENDROOT
BRANCH   3   6
HETATM    6  C11 UNL     1      -3.164 -42.400  24.302  1.00  0.00     0.147 C 
BRANCH   6   7
HETATM    7  C12 UNL     1      -2.418 -42.304  23.023  1.00  0.00     0.118 A 
HETATM    8  N10 UNL     1      -2.118 -41.173  22.362  1.00  0.00    -0.274 N 
HETATM    9  N11 UNL     1      -1.448 -41.488  21.267  1.00  0.00    -0.131 N 
ATOM     10  H10 UNL     1      -2.367 -40.228  22.656  1.00  0.00     0.189 HD
HETATM   11  C13 UNL     1      -1.297 -42.830  21.195  1.00  0.00     0.691 A 
ATOM     12  H11 UNL     1      -1.096 -40.820  20.581  1.00  0.00     0.205 HD
HETATM   13  N13 UNL     1      -1.914 -43.324  22.307  1.00  0.00    -0.178 N 
ATOM     14  H13 UNL     1      -1.981 -44.311  22.555  1.00  0.00     0.185 HD
BRANCH  11  15
HETATM   15  N12 UNL     1      -0.696 -43.496  20.264  1.00  0.00    -0.233 N 
ATOM     16 2H12 UNL     1      -1.082 -43.809  19.374  1.00  0.00     0.174 HD
ATOM     17 1H12 UNL     1       0.271 -43.820  20.269  1.00  0.00     0.174 HD
ENDBRANCH  11  15
ENDBRANCH   6   7
ENDBRANCH   3   6
BRANCH   1  18
HETATM   18  C8  UNL     1      -4.588 -40.096  25.385  1.00  0.00     0.161 A 
HETATM   19  N7  UNL     1      -4.592 -40.192  26.727  1.00  0.00    -0.170 N 
HETATM   20  C6  UNL     1      -3.997 -39.198  27.411  1.00  0.00     0.681 A 
HETATM   21  C7  UNL     1      -5.214 -41.327  27.424  1.00  0.00     0.177 C 
HETATM   22  N5  UNL     1      -3.412 -38.135  26.829  1.00  0.00    -0.171 N 
HETATM   23  C5  UNL     1      -3.386 -37.999  25.487  1.00  0.00     0.195 A 
ATOM     24  H5  UNL     1      -2.980 -37.419  27.413  1.00  0.00     0.186 HD
HETATM   25  C14 UNL     1      -3.990 -39.006  24.760  1.00  0.00     0.159 A 
BRANCH  20  26
HETATM   26  N6  UNL     1      -4.011 -39.308  28.715  1.00  0.00    -0.234 N 
ATOM     27  H62 UNL     1      -3.151 -39.647  29.146  1.00  0.00     0.174 HD
ATOM     28  H61 UNL     1      -4.849 -39.061  29.241  1.00  0.00     0.174 HD
ENDBRANCH  20  26
BRANCH  23  29
HETATM   29  N4  UNL     1      -2.765 -36.874  24.867  1.00  0.00    -0.158 N 
HETATM   30  N3  UNL     1      -3.316 -35.995  24.047  1.00  0.00     0.004 NA
HETATM   31  N2  UNL     1      -2.419 -35.083  23.672  1.00  0.00    -0.269 N 
HETATM   32  C4  UNL     1      -1.255 -35.393  24.275  1.00  0.00     0.128 A 
ATOM     33  H2  UNL     1      -2.584 -34.296  23.045  1.00  0.00     0.185 HD
HETATM   34  N14 UNL     1      -1.498 -36.486  24.994  1.00  0.00    -0.265 N 
ATOM     35  H14 UNL     1      -0.805 -36.964  25.568  1.00  0.00     0.190 HD
BRANCH  32  36
HETATM   36  C3  UNL     1       0.043 -34.639  24.142  1.00  0.00     0.203 C 
BRANCH  36  37
HETATM   37  N1  UNL     1       1.011 -35.138  25.083  1.00  0.00    -0.330 N 
HETATM   38  C2  UNL     1       1.133 -34.555  26.357  1.00  0.00     0.360 C 
HETATM   39  O2  UNL     1       0.411 -33.596  26.704  1.00  0.00    -0.239 OA
ATOM     40  H1  UNL     1       1.612 -35.920  24.824  1.00  0.00     0.165 HD
BRANCH  38  41
HETATM   41  O1  UNL     1       2.065 -35.047  27.247  1.00  0.00    -0.309 OA
HETATM   42  C1  UNL     1       3.111 -34.225  27.759  1.00  0.00     0.215 C 
ENDBRANCH  38  41
ENDBRANCH  36  37
ENDBRANCH  32  36
ENDBRANCH  23  29
BRANCH  25  43
HETATM   43  O3  UNL     1      -3.971 -38.880  23.376  1.00  0.00    -0.354 OA
ATOM     44  H3  UNL     1      -3.458 -38.167  23.015  1.00  0.00     0.218 HD
ENDBRANCH  25  43
ENDBRANCH   1  18
TORSDOF 10
ENDMDL
MODEL 5
REMARK VINA RESULT: -7.463661502      2.355      3.420
REMARK  10 active torsions:
REMARK  status: ('A' for Active; 'I' for Inactive)
REMARK    1  A    between atoms: O1_2  and  C2_3 
REMARK       I    between atoms: C2_3  and  N1_5 
REMARK    2  A    between atoms: N1_5  and  C3_7 
REMARK    3  A    between atoms: C3_7  and  C4_8 
REMARK    4  A    between atoms: N4_12  and  C5_13 
REMARK    5  A    between atoms: C6_16  and  N6_17 
REMARK    6  A    between atoms: C8_22  and  N8_23 
REMARK    7  A    between atoms: C9_25  and  C11_28 
REMARK    8  A    between atoms: C11_28  and  C12_29 
REMARK    9  A    between atoms: C13_34  and  N12_35 
REMARK   10  A    between atoms: C14_40  and  O3_41 
ROOT
HETATM    1  N8  UNL     1      -3.741 -42.895  23.092  1.00  0.00    -0.334 N 
ATOM      2  H8  UNL     1      -4.270 -43.118  22.249  1.00  0.00     0.168 HD
HETATM    3  C9  UNL     1      -2.651 -43.556  23.286  1.00  0.00     0.099 C 
HETATM    4  C10 UNL     1      -2.254 -44.546  22.326  1.00  0.00     0.113 C 
HETATM    5  N9  UNL     1      -1.948 -45.353  21.536  1.00  0.00    -0.190 NA
ENDROOT
BRANCH   3   6
HETATM    6  C11 UNL     1      -1.785 -43.335  24.467  1.00  0.00     0.147 C 
BRANCH   6   7
HETATM    7  C12 UNL     1      -0.460 -42.778  24.098  1.00  0.00     0.118 A 
HETATM    8  N10 UNL     1       0.713 -43.433  24.131  1.00  0.00    -0.274 N 
HETATM    9  N11 UNL     1       1.668 -42.610  23.733  1.00  0.00    -0.131 N 
ATOM     10  H10 UNL     1       0.845 -44.403  24.416  1.00  0.00     0.189 HD
HETATM   11  C13 UNL     1       1.134 -41.403  23.433  1.00  0.00     0.691 A 
ATOM     12  H11 UNL     1       2.657 -42.848  23.662  1.00  0.00     0.205 HD
HETATM   13  N13 UNL     1      -0.203 -41.530  23.669  1.00  0.00    -0.178 N 
ATOM     14  H13 UNL     1      -0.898 -40.795  23.540  1.00  0.00     0.185 HD
BRANCH  11  15
HETATM   15  N12 UNL     1       1.765 -40.357  23.012  1.00  0.00    -0.233 N 
ATOM     16 2H12 UNL     1       1.991 -39.513  23.538  1.00  0.00     0.174 HD
ATOM     17 1H12 UNL     1       2.144 -40.203  22.078  1.00  0.00     0.174 HD
ENDBRANCH  11  15
ENDBRANCH   6   7
ENDBRANCH   3   6
BRANCH   1  18
HETATM   18  C8  UNL     1      -4.267 -41.901  23.924  1.00  0.00     0.161 A 
HETATM   19  N7  UNL     1      -5.213 -42.233  24.821  1.00  0.00    -0.170 N 
HETATM   20  C6  UNL     1      -5.690 -41.245  25.599  1.00  0.00     0.681 A 
HETATM   21  C7  UNL     1      -5.709 -43.610  24.954  1.00  0.00     0.177 C 
HETATM   22  N5  UNL     1      -5.274 -39.967  25.524  1.00  0.00    -0.171 N 
HETATM   23  C5  UNL     1      -4.328 -39.590  24.639  1.00  0.00     0.195 A 
ATOM     24  H5  UNL     1      -5.682 -39.271  26.147  1.00  0.00     0.186 HD
HETATM   25  C14 UNL     1      -3.821 -40.586  23.827  1.00  0.00     0.159 A 
BRANCH  20  26
HETATM   26  N6  UNL     1      -6.609 -41.587  26.465  1.00  0.00    -0.234 N 
ATOM     27  H62 UNL     1      -7.552 -41.709  26.095  1.00  0.00     0.174 HD
ATOM     28  H61 UNL     1      -6.365 -41.716  27.447  1.00  0.00     0.174 HD
ENDBRANCH  20  26
BRANCH  23  29
HETATM   29  N4  UNL     1      -3.885 -38.237  24.558  1.00  0.00    -0.158 N 
HETATM   30  N3  UNL     1      -4.628 -37.144  24.496  1.00  0.00     0.004 NA
HETATM   31  N2  UNL     1      -3.855 -36.060  24.430  1.00  0.00    -0.269 N 
HETATM   32  C4  UNL     1      -2.575 -36.477  24.450  1.00  0.00     0.128 A 
ATOM     33  H2  UNL     1      -4.175 -35.094  24.374  1.00  0.00     0.185 HD
HETATM   34  N14 UNL     1      -2.627 -37.805  24.528  1.00  0.00    -0.265 N 
ATOM     35  H14 UNL     1      -1.808 -38.412  24.561  1.00  0.00     0.190 HD
BRANCH  32  36
HETATM   36  C3  UNL     1      -1.352 -35.598  24.392  1.00  0.00     0.203 C 
BRANCH  36  37
HETATM   37  N1  UNL     1      -0.447 -35.928  25.460  1.00  0.00    -0.330 N 
HETATM   38  C2  UNL     1      -0.052 -34.948  26.389  1.00  0.00     0.360 C 
HETATM   39  O2  UNL     1      -0.474 -33.774  26.312  1.00  0.00    -0.239 OA
ATOM     40  H1  UNL     1      -0.088 -36.879  25.544  1.00  0.00     0.165 HD
BRANCH  38  41
HETATM   41  O1  UNL     1       0.815 -35.281  27.408  1.00  0.00    -0.309 OA
HETATM   42  C1  UNL     1       0.854 -36.598  27.951  1.00  0.00     0.215 C 
ENDBRANCH  38  41
ENDBRANCH  36  37
ENDBRANCH  32  36
ENDBRANCH  23  29
BRANCH  25  43
HETATM   43  O3  UNL     1      -2.846 -40.213  22.909  1.00  0.00    -0.354 OA
ATOM     44  H3  UNL     1      -2.507 -40.895  22.341  1.00  0.00     0.218 HD
ENDBRANCH  25  43
ENDBRANCH   1  18
TORSDOF 10
ENDMDL
