MODEL 1
REMARK VINA RESULT: -7.410459159      0.000      0.000
REMARK  8 active torsions:
REMARK  status: ('A' for Active; 'I' for Inactive)
REMARK    1  A    between atoms: N1_1  and  C1_4 
REMARK    2  A    between atoms: N3_9  and  C3_10 
REMARK    3  A    between atoms: C4_13  and  C5_14 
REMARK    4  A    between atoms: N11_30  and  C12_31 
REMARK    5  A    between atoms: C12_31  and  O3_32 
REMARK    6  A    between atoms: O3_32  and  C13_33 
REMARK    7  A    between atoms: C13_33  and  C14_34 
REMARK    8  A    between atoms: C14_34  and  O4_35 
ROOT
HETATM    1  C3  UNL     1      -5.339 -43.767  31.283  1.00  0.00     0.705 A 
HETATM    2  N4  UNL     1      -6.414 -43.808  32.028  1.00  0.00    -0.183 N 
ATOM      3  H4  UNL     1      -6.393 -44.034  33.022  1.00  0.00     0.184 HD
HETATM    4  C4  UNL     1      -7.535 -43.527  31.374  1.00  0.00     0.137 A 
HETATM    5  C11 UNL     1      -7.085 -43.286  30.064  1.00  0.00     0.167 A 
HETATM    6  N10 UNL     1      -7.876 -42.940  28.940  1.00  0.00    -0.079 NA
HETATM    7  N11 UNL     1      -5.735 -43.443  30.049  1.00  0.00    -0.145 N 
ENDROOT
BRANCH   4   8
HETATM    8  C5  UNL     1      -8.943 -43.435  31.708  1.00  0.00     0.161 A 
HETATM    9  N5  UNL     1      -9.942 -43.698  30.800  1.00  0.00    -0.281 N 
HETATM   10  N6  UNL     1     -11.120 -43.559  31.296  1.00  0.00    -0.283 N 
ATOM     11  H5  UNL     1      -9.767 -43.975  29.835  1.00  0.00     0.188 HD
HETATM   12  C6  UNL     1     -10.944 -43.189  32.583  1.00  0.00     0.133 A 
ATOM     13  H6  UNL     1     -12.008 -43.699  30.815  1.00  0.00     0.188 HD
HETATM   14  C7  UNL     1     -11.815 -42.900  33.596  1.00  0.00     0.107 A 
HETATM   15  N9  UNL     1      -9.607 -43.116  32.825  1.00  0.00    -0.265 N 
HETATM   16  C8  UNL     1     -11.410 -42.535  34.861  1.00  0.00     0.203 A 
HETATM   17  O2  UNL     1     -12.258 -42.280  35.761  1.00  0.00    -0.286 OA
HETATM   18  C9  UNL     1     -10.063 -42.466  35.093  1.00  0.00     0.138 A 
HETATM   19  N7  UNL     1      -9.581 -42.101  36.358  1.00  0.00    -0.095 NA
HETATM   20  C10 UNL     1      -9.186 -42.766  34.039  1.00  0.00     0.154 A 
HETATM   21  N8  UNL     1      -7.821 -42.665  34.383  1.00  0.00    -0.080 NA
ENDBRANCH   4   8
BRANCH   1  22
HETATM   22  N3  UNL     1      -3.996 -44.023  31.708  1.00  0.00    -0.059 N 
HETATM   23  C2  UNL     1      -3.174 -43.208  32.374  1.00  0.00     0.353 A 
HETATM   24  N2  UNL     1      -1.967 -43.637  32.672  1.00  0.00    -0.286 N 
HETATM   25  O1  UNL     1      -3.561 -42.019  32.720  1.00  0.00    -0.245 OA
HETATM   26  C1  UNL     1      -1.636 -44.870  32.286  1.00  0.00     0.163 A 
ATOM     27  H2  UNL     1      -1.308 -43.047  33.180  1.00  0.00     0.172 HD
HETATM   28  S1  UNL     1      -3.047 -45.405  31.504  1.00  0.00     0.051 SA
BRANCH  26  29
HETATM   29  N1  UNL     1      -0.498 -45.491  32.476  1.00  0.00    -0.378 N 
ATOM     30  H12 UNL     1      -0.319 -46.423  32.851  1.00  0.00     0.158 HD
ATOM     31  H11 UNL     1       0.442 -45.146  32.280  1.00  0.00     0.158 HD
ENDBRANCH  26  29
ENDBRANCH   1  22
BRANCH   7  32
HETATM   32  C12 UNL     1      -4.924 -43.265  28.852  1.00  0.00     0.318 C 
BRANCH  32  33
HETATM   33  O3  UNL     1      -4.070 -42.197  28.966  1.00  0.00    -0.369 OA
BRANCH  33  34
HETATM   34  C13 UNL     1      -4.609 -41.007  28.658  1.00  0.00     0.196 C 
BRANCH  34  35
HETATM   35  C14 UNL     1      -5.337 -40.822  27.379  1.00  0.00     0.190 C 
BRANCH  35  36
HETATM   36  O4  UNL     1      -6.678 -40.511  27.472  1.00  0.00    -0.399 OA
ATOM     37  H4  UNL     1      -7.068 -40.084  26.718  1.00  0.00     0.209 HD
ENDBRANCH  35  36
ENDBRANCH  34  35
ENDBRANCH  33  34
ENDBRANCH  32  33
ENDBRANCH   7  32
TORSDOF 8
ENDMDL
MODEL 2
REMARK VINA RESULT: -7.019243472      2.261      3.115
REMARK  8 active torsions:
REMARK  status: ('A' for Active; 'I' for Inactive)
REMARK    1  A    between atoms: N1_1  and  C1_4 
REMARK    2  A    between atoms: N3_9  and  C3_10 
REMARK    3  A    between atoms: C4_13  and  C5_14 
REMARK    4  A    between atoms: N11_30  and  C12_31 
REMARK    5  A    between atoms: C12_31  and  O3_32 
REMARK    6  A    between atoms: O3_32  and  C13_33 
REMARK    7  A    between atoms: C13_33  and  C14_34 
REMARK    8  A    between atoms: C14_34  and  O4_35 
ROOT
HETATM    1  C3  UNL     1      -5.730 -43.489  30.664  1.00  0.00     0.705 A 
HETATM    2  N4  UNL     1      -6.755 -42.926  31.249  1.00  0.00    -0.183 N 
ATOM      3  H4  UNL     1      -6.701 -42.019  31.712  1.00  0.00     0.184 HD
HETATM    4  C4  UNL     1      -7.872 -43.640  31.187  1.00  0.00     0.137 A 
HETATM    5  C11 UNL     1      -7.476 -44.785  30.473  1.00  0.00     0.167 A 
HETATM    6  N10 UNL     1      -8.287 -45.893  30.118  1.00  0.00    -0.079 NA
HETATM    7  N11 UNL     1      -6.158 -44.655  30.171  1.00  0.00    -0.145 N 
ENDROOT
BRANCH   4   8
HETATM    8  C5  UNL     1      -9.238 -43.487  31.651  1.00  0.00     0.161 A 
HETATM    9  N5  UNL     1     -10.329 -43.712  30.845  1.00  0.00    -0.281 N 
HETATM   10  N6  UNL     1     -11.447 -43.520  31.449  1.00  0.00    -0.283 N 
ATOM     11  H5  UNL     1     -10.257 -44.001  29.870  1.00  0.00     0.188 HD
HETATM   12  C6  UNL     1     -11.134 -43.152  32.710  1.00  0.00     0.133 A 
ATOM     13  H6  UNL     1     -12.382 -43.625  31.055  1.00  0.00     0.188 HD
HETATM   14  C7  UNL     1     -11.892 -42.821  33.798  1.00  0.00     0.107 A 
HETATM   15  N9  UNL     1      -9.778 -43.134  32.824  1.00  0.00    -0.265 N 
HETATM   16  C8  UNL     1     -11.354 -42.467  35.016  1.00  0.00     0.203 A 
HETATM   17  O2  UNL     1     -12.101 -42.171  35.989  1.00  0.00    -0.286 OA
HETATM   18  C9  UNL     1      -9.989 -42.453  35.118  1.00  0.00     0.138 A 
HETATM   19  N7  UNL     1      -9.374 -42.103  36.329  1.00  0.00    -0.095 NA
HETATM   20  C10 UNL     1      -9.229 -42.796  33.989  1.00  0.00     0.154 A 
HETATM   21  N8  UNL     1      -7.835 -42.751  34.201  1.00  0.00    -0.080 NA
ENDBRANCH   4   8
BRANCH   1  22
HETATM   22  N3  UNL     1      -4.403 -42.960  30.570  1.00  0.00    -0.059 N 
HETATM   23  C2  UNL     1      -3.364 -43.197  31.375  1.00  0.00     0.353 A 
HETATM   24  N2  UNL     1      -2.218 -42.607  31.114  1.00  0.00    -0.286 N 
HETATM   25  O1  UNL     1      -3.485 -43.994  32.391  1.00  0.00    -0.245 OA
HETATM   26  C1  UNL     1      -2.165 -41.801  30.053  1.00  0.00     0.163 A 
ATOM     27  H2  UNL     1      -1.399 -42.760  31.704  1.00  0.00     0.172 HD
HETATM   28  S1  UNL     1      -3.746 -41.892  29.438  1.00  0.00     0.051 SA
BRANCH  26  29
HETATM   29  N1  UNL     1      -1.135 -41.119  29.615  1.00  0.00    -0.378 N 
ATOM     30  H12 UNL     1      -0.334 -41.430  29.065  1.00  0.00     0.158 HD
ATOM     31  H11 UNL     1      -0.940 -40.126  29.749  1.00  0.00     0.158 HD
ENDBRANCH  26  29
ENDBRANCH   1  22
BRANCH   7  32
HETATM   32  C12 UNL     1      -5.407 -45.658  29.426  1.00  0.00     0.318 C 
BRANCH  32  33
HETATM   33  O3  UNL     1      -4.523 -46.336  30.227  1.00  0.00    -0.369 OA
BRANCH  33  34
HETATM   34  C13 UNL     1      -5.074 -47.285  31.000  1.00  0.00     0.196 C 
BRANCH  34  35
HETATM   35  C14 UNL     1      -4.927 -47.230  32.475  1.00  0.00     0.190 C 
BRANCH  35  36
HETATM   36  O4  UNL     1      -5.556 -46.185  33.120  1.00  0.00    -0.399 OA
ATOM     37  H4  UNL     1      -6.312 -46.406  33.650  1.00  0.00     0.209 HD
ENDBRANCH  35  36
ENDBRANCH  34  35
ENDBRANCH  33  34
ENDBRANCH  32  33
ENDBRANCH   7  32
TORSDOF 8
ENDMDL
MODEL 3
REMARK VINA RESULT: -7.005730930      1.485      1.690
REMARK  8 active torsions:
REMARK  status: ('A' for Active; 'I' for Inactive)
REMARK    1  A    between atoms: N1_1  and  C1_4 
REMARK    2  A    between atoms: N3_9  and  C3_10 
REMARK    3  A    between atoms: C4_13  and  C5_14 
REMARK    4  A    between atoms: N11_30  and  C12_31 
REMARK    5  A    between atoms: C12_31  and  O3_32 
REMARK    6  A    between atoms: O3_32  and  C13_33 
REMARK    7  A    between atoms: C13_33  and  C14_34 
REMARK    8  A    between atoms: C14_34  and  O4_35 
ROOT
HETATM    1  C3  UNL     1      -6.055 -43.342  30.587  1.00  0.00     0.705 A 
HETATM    2  N4  UNL     1      -6.963 -42.972  31.453  1.00  0.00    -0.183 N 
ATOM      3  H4  UNL     1      -6.752 -42.397  32.268  1.00  0.00     0.184 HD
HETATM    4  C4  UNL     1      -8.185 -43.411  31.175  1.00  0.00     0.137 A 
HETATM    5  C11 UNL     1      -7.996 -44.142  29.989  1.00  0.00     0.167 A 
HETATM    6  N10 UNL     1      -8.985 -44.835  29.246  1.00  0.00    -0.079 NA
HETATM    7  N11 UNL     1      -6.679 -44.077  29.662  1.00  0.00    -0.145 N 
ENDROOT
BRANCH   4   8
HETATM    8  C5  UNL     1      -9.499 -43.296  31.779  1.00  0.00     0.161 A 
HETATM    9  N5  UNL     1     -10.662 -43.496  31.074  1.00  0.00    -0.281 N 
HETATM   10  N6  UNL     1     -11.717 -43.347  31.794  1.00  0.00    -0.283 N 
ATOM     11  H5  UNL     1     -10.686 -43.738  30.084  1.00  0.00     0.188 HD
HETATM   12  C6  UNL     1     -11.283 -43.035  33.034  1.00  0.00     0.133 A 
ATOM     13  H6  UNL     1     -12.685 -43.444  31.490  1.00  0.00     0.188 HD
HETATM   14  C7  UNL     1     -11.932 -42.766  34.206  1.00  0.00     0.107 A 
HETATM   15  N9  UNL     1      -9.923 -43.006  33.015  1.00  0.00    -0.265 N 
HETATM   16  C8  UNL     1     -11.279 -42.464  35.381  1.00  0.00     0.203 A 
HETATM   17  O2  UNL     1     -11.928 -42.224  36.436  1.00  0.00    -0.286 OA
HETATM   18  C9  UNL     1      -9.911 -42.439  35.349  1.00  0.00     0.138 A 
HETATM   19  N7  UNL     1      -9.181 -42.139  36.509  1.00  0.00    -0.095 NA
HETATM   20  C10 UNL     1      -9.264 -42.718  34.135  1.00  0.00     0.154 A 
HETATM   21  N8  UNL     1      -7.856 -42.666  34.210  1.00  0.00    -0.080 NA
ENDBRANCH   4   8
BRANCH   1  22
HETATM   22  N3  UNL     1      -4.660 -43.024  30.624  1.00  0.00    -0.059 N 
HETATM   23  C2  UNL     1      -4.082 -41.835  30.440  1.00  0.00     0.353 A 
HETATM   24  N2  UNL     1      -2.772 -41.752  30.516  1.00  0.00    -0.286 N 
HETATM   25  O1  UNL     1      -4.801 -40.783  30.192  1.00  0.00    -0.245 OA
HETATM   26  C1  UNL     1      -2.095 -42.872  30.774  1.00  0.00     0.163 A 
ATOM     27  H2  UNL     1      -2.290 -40.863  30.381  1.00  0.00     0.172 HD
HETATM   28  S1  UNL     1      -3.332 -44.030  30.907  1.00  0.00     0.051 SA
BRANCH  26  29
HETATM   29  N1  UNL     1      -0.798 -43.016  30.892  1.00  0.00    -0.378 N 
ATOM     30  H12 UNL     1      -0.049 -42.349  30.708  1.00  0.00     0.158 HD
ATOM     31  H11 UNL     1      -0.287 -43.845  31.197  1.00  0.00     0.158 HD
ENDBRANCH  26  29
ENDBRANCH   1  22
BRANCH   7  32
HETATM   32  C12 UNL     1      -6.117 -44.719  28.481  1.00  0.00     0.318 C 
BRANCH  32  33
HETATM   33  O3  UNL     1      -5.592 -43.806  27.602  1.00  0.00    -0.369 OA
BRANCH  33  34
HETATM   34  C13 UNL     1      -6.483 -43.250  26.765  1.00  0.00     0.196 C 
BRANCH  34  35
HETATM   35  C14 UNL     1      -6.633 -41.776  26.700  1.00  0.00     0.190 C 
BRANCH  35  36
HETATM   36  O4  UNL     1      -6.527 -41.091  27.893  1.00  0.00    -0.399 OA
ATOM     37  H4  UNL     1      -6.788 -40.178  27.883  1.00  0.00     0.209 HD
ENDBRANCH  35  36
ENDBRANCH  34  35
ENDBRANCH  33  34
ENDBRANCH  32  33
ENDBRANCH   7  32
TORSDOF 8
ENDMDL
MODEL 4
REMARK VINA RESULT: -6.994952047      1.651      2.074
REMARK  8 active torsions:
REMARK  status: ('A' for Active; 'I' for Inactive)
REMARK    1  A    between atoms: N1_1  and  C1_4 
REMARK    2  A    between atoms: N3_9  and  C3_10 
REMARK    3  A    between atoms: C4_13  and  C5_14 
REMARK    4  A    between atoms: N11_30  and  C12_31 
REMARK    5  A    between atoms: C12_31  and  O3_32 
REMARK    6  A    between atoms: O3_32  and  C13_33 
REMARK    7  A    between atoms: C13_33  and  C14_34 
REMARK    8  A    between atoms: C14_34  and  O4_35 
ROOT
HETATM    1  C3  UNL     1      -6.720 -43.135  30.686  1.00  0.00     0.705 A 
HETATM    2  N4  UNL     1      -7.844 -43.442  31.281  1.00  0.00    -0.183 N 
ATOM      3  H4  UNL     1      -7.898 -43.698  32.266  1.00  0.00     0.184 HD
HETATM    4  C4  UNL     1      -8.907 -43.389  30.488  1.00  0.00     0.137 A 
HETATM    5  C11 UNL     1      -8.361 -43.001  29.252  1.00  0.00     0.167 A 
HETATM    6  N10 UNL     1      -9.061 -42.791  28.037  1.00  0.00    -0.079 NA
HETATM    7  N11 UNL     1      -7.019 -42.855  29.414  1.00  0.00    -0.145 N 
ENDROOT
BRANCH   4   8
HETATM    8  C5  UNL     1     -10.331 -43.623  30.633  1.00  0.00     0.161 A 
HETATM    9  N5  UNL     1     -11.117 -44.095  29.608  1.00  0.00    -0.281 N 
HETATM   10  N6  UNL     1     -12.350 -44.233  29.944  1.00  0.00    -0.283 N 
ATOM     11  H5  UNL     1     -10.758 -44.314  28.679  1.00  0.00     0.188 HD
HETATM   12  C6  UNL     1     -12.432 -43.848  31.235  1.00  0.00     0.133 A 
ATOM     13  H6  UNL     1     -13.112 -44.565  29.353  1.00  0.00     0.188 HD
HETATM   14  C7  UNL     1     -13.471 -43.777  32.120  1.00  0.00     0.107 A 
HETATM   15  N9  UNL     1     -11.191 -43.476  31.649  1.00  0.00    -0.265 N 
HETATM   16  C8  UNL     1     -13.329 -43.345  33.421  1.00  0.00     0.203 A 
HETATM   17  O2  UNL     1     -14.323 -43.300  34.197  1.00  0.00    -0.286 OA
HETATM   18  C9  UNL     1     -12.076 -42.974  33.825  1.00  0.00     0.138 A 
HETATM   19  N7  UNL     1     -11.859 -42.524  35.136  1.00  0.00    -0.095 NA
HETATM   20  C10 UNL     1     -11.023 -43.054  32.900  1.00  0.00     0.154 A 
HETATM   21  N8  UNL     1      -9.774 -42.650  33.417  1.00  0.00    -0.080 NA
ENDBRANCH   4   8
BRANCH   1  22
HETATM   22  N3  UNL     1      -5.419 -43.105  31.281  1.00  0.00    -0.059 N 
HETATM   23  C2  UNL     1      -4.704 -42.038  31.646  1.00  0.00     0.353 A 
HETATM   24  N2  UNL     1      -3.518 -42.227  32.180  1.00  0.00    -0.286 N 
HETATM   25  O1  UNL     1      -5.173 -40.840  31.475  1.00  0.00    -0.245 OA
HETATM   26  C1  UNL     1      -3.098 -43.484  32.327  1.00  0.00     0.163 A 
ATOM     27  H2  UNL     1      -2.939 -41.438  32.473  1.00  0.00     0.172 HD
HETATM   28  S1  UNL     1      -4.397 -44.384  31.701  1.00  0.00     0.051 SA
BRANCH  26  29
HETATM   29  N1  UNL     1      -1.961 -43.896  32.831  1.00  0.00    -0.378 N 
ATOM     30  H12 UNL     1      -1.236 -43.370  33.320  1.00  0.00     0.158 HD
ATOM     31  H11 UNL     1      -1.583 -44.844  32.826  1.00  0.00     0.158 HD
ENDBRANCH  26  29
ENDBRANCH   1  22
BRANCH   7  32
HETATM   32  C12 UNL     1      -6.124 -42.453  28.337  1.00  0.00     0.318 C 
BRANCH  32  33
HETATM   33  O3  UNL     1      -5.990 -41.090  28.264  1.00  0.00    -0.369 OA
BRANCH  33  34
HETATM   34  C13 UNL     1      -6.440 -40.537  27.127  1.00  0.00     0.196 C 
BRANCH  34  35
HETATM   35  C14 UNL     1      -5.538 -39.715  26.284  1.00  0.00     0.190 C 
BRANCH  35  36
HETATM   36  O4  UNL     1      -5.193 -40.239  25.055  1.00  0.00    -0.399 OA
ATOM     37  H4  UNL     1      -5.144 -39.627  24.331  1.00  0.00     0.209 HD
ENDBRANCH  35  36
ENDBRANCH  34  35
ENDBRANCH  33  34
ENDBRANCH  32  33
ENDBRANCH   7  32
TORSDOF 8
ENDMDL
MODEL 5
REMARK VINA RESULT: -6.968669873      3.598      6.666
REMARK  8 active torsions:
REMARK  status: ('A' for Active; 'I' for Inactive)
REMARK    1  A    between atoms: N1_1  and  C1_4 
REMARK    2  A    between atoms: N3_9  and  C3_10 
REMARK    3  A    between atoms: C4_13  and  C5_14 
REMARK    4  A    between atoms: N11_30  and  C12_31 
REMARK    5  A    between atoms: C12_31  and  O3_32 
REMARK    6  A    between atoms: O3_32  and  C13_33 
REMARK    7  A    between atoms: C13_33  and  C14_34 
REMARK    8  A    between atoms: C14_34  and  O4_35 
ROOT
HETATM    1  C3  UNL     1      -9.584 -43.145  33.045  1.00  0.00     0.705 A 
HETATM    2  N4  UNL     1     -10.641 -43.501  32.360  1.00  0.00    -0.183 N 
ATOM      3  H4  UNL     1     -10.585 -43.942  31.443  1.00  0.00     0.184 HD
HETATM    4  C4  UNL     1     -11.792 -43.237  32.967  1.00  0.00     0.137 A 
HETATM    5  C11 UNL     1     -11.384 -42.645  34.175  1.00  0.00     0.167 A 
HETATM    6  N10 UNL     1     -12.219 -42.164  35.215  1.00  0.00    -0.079 NA
HETATM    7  N11 UNL     1     -10.026 -42.605  34.185  1.00  0.00    -0.145 N 
ENDROOT
BRANCH   4   8
HETATM    8  C5  UNL     1     -13.198 -43.419  32.663  1.00  0.00     0.161 A 
HETATM    9  N5  UNL     1     -14.185 -43.319  33.616  1.00  0.00    -0.281 N 
HETATM   10  N6  UNL     1     -15.363 -43.515  33.140  1.00  0.00    -0.283 N 
ATOM     11  H5  UNL     1     -14.001 -43.112  34.597  1.00  0.00     0.188 HD
HETATM   12  C6  UNL     1     -15.200 -43.757  31.822  1.00  0.00     0.133 A 
ATOM     13  H6  UNL     1     -16.243 -43.491  33.654  1.00  0.00     0.188 HD
HETATM   14  C7  UNL     1     -16.077 -44.031  30.810  1.00  0.00     0.107 A 
HETATM   15  N9  UNL     1     -13.870 -43.697  31.539  1.00  0.00    -0.265 N 
HETATM   16  C8  UNL     1     -15.686 -44.252  29.508  1.00  0.00     0.203 A 
HETATM   17  O2  UNL     1     -16.539 -44.500  28.612  1.00  0.00    -0.286 OA
HETATM   18  C9  UNL     1     -14.346 -44.188  29.236  1.00  0.00     0.138 A 
HETATM   19  N7  UNL     1     -13.877 -44.401  27.932  1.00  0.00    -0.095 NA
HETATM   20  C10 UNL     1     -13.462 -43.905  30.289  1.00  0.00     0.154 A 
HETATM   21  N8  UNL     1     -12.106 -43.862  29.903  1.00  0.00    -0.080 NA
ENDBRANCH   4   8
BRANCH   1  22
HETATM   22  N3  UNL     1      -8.218 -43.301  32.649  1.00  0.00    -0.059 N 
HETATM   23  C2  UNL     1      -7.711 -43.285  31.414  1.00  0.00     0.353 A 
HETATM   24  N2  UNL     1      -6.416 -43.448  31.262  1.00  0.00    -0.286 N 
HETATM   25  O1  UNL     1      -8.485 -43.111  30.386  1.00  0.00    -0.245 OA
HETATM   26  C1  UNL     1      -5.680 -43.621  32.361  1.00  0.00     0.163 A 
ATOM     27  H2  UNL     1      -5.988 -43.442  30.335  1.00  0.00     0.172 HD
HETATM   28  S1  UNL     1      -6.843 -43.549  33.599  1.00  0.00     0.051 SA
BRANCH  26  29
HETATM   29  N1  UNL     1      -4.384 -43.800  32.439  1.00  0.00    -0.378 N 
ATOM     30  H12 UNL     1      -3.695 -43.319  33.017  1.00  0.00     0.158 HD
ATOM     31  H11 UNL     1      -3.814 -44.469  31.922  1.00  0.00     0.158 HD
ENDBRANCH  26  29
ENDBRANCH   1  22
BRANCH   7  32
HETATM   32  C12 UNL     1      -9.251 -42.058  35.292  1.00  0.00     0.318 C 
BRANCH  32  33
HETATM   33  O3  UNL     1      -9.107 -42.963  36.313  1.00  0.00    -0.369 OA
BRANCH  33  34
HETATM   34  C13 UNL     1      -8.041 -42.760  37.102  1.00  0.00     0.196 C 
BRANCH  34  35
HETATM   35  C14 UNL     1      -8.067 -43.184  38.523  1.00  0.00     0.190 C 
BRANCH  35  36
HETATM   36  O4  UNL     1      -7.426 -44.368  38.827  1.00  0.00    -0.399 OA
ATOM     37  H4  UNL     1      -7.931 -45.013  39.308  1.00  0.00     0.209 HD
ENDBRANCH  35  36
ENDBRANCH  34  35
ENDBRANCH  33  34
ENDBRANCH  32  33
ENDBRANCH   7  32
TORSDOF 8
ENDMDL
