MODEL 1
REMARK VINA RESULT: -7.620853908      0.000      0.000
REMARK  8 active torsions:
REMARK  status: ('A' for Active; 'I' for Inactive)
REMARK    1  A    between atoms: C3_7  and  S1_8 
REMARK    2  A    between atoms: S1_8  and  C4_9 
REMARK    3  A    between atoms: C4_9  and  C5_10 
REMARK    4  A    between atoms: C8_19  and  N5_20 
REMARK    5  A    between atoms: N6_22  and  C9_24 
REMARK       I    between atoms: N8_28  and  C10_29 
REMARK       I    between atoms: C10_29  and  N10_33 
REMARK    6  A    between atoms: N10_33  and  N11_35 
REMARK    7  A    between atoms: C11_38  and  N12_39 
REMARK    8  A    between atoms: N13_42  and  N14_43 
ROOT
HETATM    1  C5  UNL     1      -4.873 -44.255  24.514  1.00  0.00     0.057 A 
HETATM    2  N3  UNL     1      -5.214 -45.509  24.295  1.00  0.00    -0.309 N 
ATOM      3  H3  UNL     1      -4.794 -46.247  24.859  1.00  0.00     0.170 HD
HETATM    4  C6  UNL     1      -6.110 -45.836  23.338  1.00  0.00     0.327 A 
HETATM    5  O1  UNL     1      -6.436 -47.043  23.130  1.00  0.00    -0.247 OA
HETATM    6  N4  UNL     1      -6.684 -44.892  22.574  1.00  0.00    -0.273 N 
ATOM      7  H4  UNL     1      -7.357 -45.164  21.859  1.00  0.00     0.173 HD
HETATM    8  C7  UNL     1      -6.381 -43.585  22.741  1.00  0.00     0.279 A 
HETATM    9  O2  UNL     1      -6.918 -42.684  22.023  1.00  0.00    -0.265 OA
HETATM   10  C8  UNL     1      -5.471 -43.265  23.719  1.00  0.00     0.140 A 
ENDROOT
BRANCH  10  11
HETATM   11  N5  UNL     1      -5.115 -41.937  23.976  1.00  0.00    -0.292 N 
HETATM   12  N6  UNL     1      -4.446 -41.280  23.124  1.00  0.00    -0.280 N 
ATOM     13  H6  UNL     1      -4.147 -41.684  22.237  1.00  0.00     0.188 HD
ATOM     14  H5  UNL     1      -5.394 -41.497  24.853  1.00  0.00     0.187 HD
BRANCH  12  15
HETATM   15  C9  UNL     1      -4.140 -39.932  23.490  1.00  0.00     0.189 A 
HETATM   16  N7  UNL     1      -4.704 -38.828  22.984  1.00  0.00    -0.220 N 
HETATM   17  O3  UNL     1      -4.153 -37.819  23.563  1.00  0.00    -0.131 OA
ATOM     18  H7  UNL     1      -5.433 -38.793  22.272  1.00  0.00     0.198 HD
HETATM   19  N8  UNL     1      -3.260 -38.202  24.419  1.00  0.00    -0.005 N 
HETATM   20  C10 UNL     1      -2.466 -37.318  25.220  1.00  0.00     0.720 C 
HETATM   21  C11 UNL     1      -3.209 -39.535  24.417  1.00  0.00     0.195 A 
HETATM   22  N9  UNL     1      -2.219 -37.492  26.458  1.00  0.00    -0.231 N 
HETATM   23  N10 UNL     1      -1.942 -36.181  24.545  1.00  0.00    -0.137 N 
ATOM     24  H92 UNL     1      -2.595 -38.307  26.942  1.00  0.00     0.174 HD
ATOM     25  H91 UNL     1      -1.654 -36.863  27.028  1.00  0.00     0.174 HD
ATOM     26  H10 UNL     1      -0.940 -35.991  24.551  1.00  0.00     0.205 HD
BRANCH  23  27
HETATM   27  N11 UNL     1      -2.821 -35.333  23.875  1.00  0.00    -0.331 N 
ATOM     28 2H11 UNL     1      -2.868 -35.358  22.855  1.00  0.00     0.177 HD
ATOM     29 1H11 UNL     1      -3.404 -34.698  24.420  1.00  0.00     0.177 HD
ENDBRANCH  23  27
BRANCH  21  30
HETATM   30  N12 UNL     1      -2.433 -40.273  25.151  1.00  0.00    -0.380 N 
ATOM     31 2H12 UNL     1      -2.452 -41.291  25.213  1.00  0.00     0.158 HD
ATOM     32 1H12 UNL     1      -1.684 -39.980  25.779  1.00  0.00     0.158 HD
ENDBRANCH  21  30
ENDBRANCH  12  15
ENDBRANCH  10  11
BRANCH   1  33
HETATM   33  C4  UNL     1      -3.874 -43.806  25.467  1.00  0.00     0.142 C 
BRANCH  33  34
HETATM   34  S1  UNL     1      -2.159 -44.023  25.071  1.00  0.00    -0.085 SA
BRANCH  34  35
HETATM   35  C3  UNL     1      -1.852 -44.201  23.299  1.00  0.00     0.182 A 
HETATM   36  N2  UNL     1      -2.064 -45.400  22.641  1.00  0.00    -0.277 N 
HETATM   37  N1  UNL     1      -1.738 -45.259  21.382  1.00  0.00    -0.286 N 
ATOM     38  H2  UNL     1      -2.417 -46.257  23.068  1.00  0.00     0.189 HD
HETATM   39  C2  UNL     1      -1.314 -44.013  21.168  1.00  0.00     0.116 A 
ATOM     40  H1  UNL     1      -1.799 -45.989  20.673  1.00  0.00     0.188 HD
HETATM   41  C1  UNL     1      -0.840 -43.368  19.891  1.00  0.00     0.092 C 
HETATM   42  N13 UNL     1      -1.396 -43.380  22.378  1.00  0.00    -0.226 N 
BRANCH  42  43
HETATM   43  N14 UNL     1      -0.989 -42.051  22.569  1.00  0.00    -0.335 N 
ATOM     44 2H14 UNL     1      -0.790 -41.365  21.840  1.00  0.00     0.177 HD
ATOM     45 1H14 UNL     1      -0.889 -41.631  23.493  1.00  0.00     0.177 HD
ENDBRANCH  42  43
ENDBRANCH  34  35
ENDBRANCH  33  34
ENDBRANCH   1  33
TORSDOF 8
ENDMDL
MODEL 2
REMARK VINA RESULT: -7.458131119     10.258     12.553
REMARK  8 active torsions:
REMARK  status: ('A' for Active; 'I' for Inactive)
REMARK    1  A    between atoms: C3_7  and  S1_8 
REMARK    2  A    between atoms: S1_8  and  C4_9 
REMARK    3  A    between atoms: C4_9  and  C5_10 
REMARK    4  A    between atoms: C8_19  and  N5_20 
REMARK    5  A    between atoms: N6_22  and  C9_24 
REMARK       I    between atoms: N8_28  and  C10_29 
REMARK       I    between atoms: C10_29  and  N10_33 
REMARK    6  A    between atoms: N10_33  and  N11_35 
REMARK    7  A    between atoms: C11_38  and  N12_39 
REMARK    8  A    between atoms: N13_42  and  N14_43 
ROOT
HETATM    1  C5  UNL     1     -10.158 -42.551  34.854  1.00  0.00     0.057 A 
HETATM    2  N3  UNL     1     -10.034 -42.619  36.165  1.00  0.00    -0.309 N 
ATOM      3  H3  UNL     1     -10.851 -42.460  36.754  1.00  0.00     0.170 HD
HETATM    4  C6  UNL     1      -8.845 -42.897  36.743  1.00  0.00     0.327 A 
HETATM    5  O1  UNL     1      -8.729 -42.963  38.004  1.00  0.00    -0.247 OA
HETATM    6  N4  UNL     1      -7.747 -43.112  36.001  1.00  0.00    -0.273 N 
ATOM      7  H4  UNL     1      -6.861 -43.320  36.461  1.00  0.00     0.173 HD
HETATM    8  C7  UNL     1      -7.799 -43.056  34.651  1.00  0.00     0.279 A 
HETATM    9  O2  UNL     1      -6.765 -43.257  33.939  1.00  0.00    -0.265 OA
HETATM   10  C8  UNL     1      -9.013 -42.775  34.075  1.00  0.00     0.140 A 
ENDROOT
BRANCH  10  11
HETATM   11  N5  UNL     1      -9.165 -42.719  32.685  1.00  0.00    -0.292 N 
HETATM   12  N6  UNL     1      -8.909 -43.735  31.975  1.00  0.00    -0.280 N 
ATOM     13  H6  UNL     1      -8.587 -44.615  32.379  1.00  0.00     0.188 HD
ATOM     14  H5  UNL     1      -9.484 -41.856  32.243  1.00  0.00     0.187 HD
BRANCH  12  15
HETATM   15  C9  UNL     1      -9.100 -43.567  30.568  1.00  0.00     0.189 A 
HETATM   16  N7  UNL     1     -10.262 -43.672  29.910  1.00  0.00    -0.220 N 
HETATM   17  O3  UNL     1     -10.016 -43.460  28.665  1.00  0.00    -0.131 OA
ATOM     18  H7  UNL     1     -11.173 -43.881  30.320  1.00  0.00     0.198 HD
HETATM   19  N8  UNL     1      -8.758 -43.224  28.471  1.00  0.00    -0.005 N 
HETATM   20  C10 UNL     1      -8.164 -42.958  27.194  1.00  0.00     0.720 C 
HETATM   21  C11 UNL     1      -8.126 -43.277  29.646  1.00  0.00     0.195 A 
HETATM   22  N9  UNL     1      -7.298 -42.049  26.977  1.00  0.00    -0.231 N 
HETATM   23  N10 UNL     1      -8.606 -43.788  26.128  1.00  0.00    -0.137 N 
ATOM     24  H92 UNL     1      -6.982 -41.453  27.741  1.00  0.00     0.174 HD
ATOM     25  H91 UNL     1      -6.876 -41.860  26.068  1.00  0.00     0.174 HD
ATOM     26  H10 UNL     1      -7.935 -44.317  25.571  1.00  0.00     0.205 HD
BRANCH  23  27
HETATM   27  N11 UNL     1      -9.970 -43.867  25.857  1.00  0.00    -0.331 N 
ATOM     28 2H11 UNL     1     -10.566 -44.457  26.438  1.00  0.00     0.177 HD
ATOM     29 1H11 UNL     1     -10.349 -43.330  25.077  1.00  0.00     0.177 HD
ENDBRANCH  23  27
BRANCH  21  30
HETATM   30  N12 UNL     1      -6.857 -43.087  29.843  1.00  0.00    -0.380 N 
ATOM     31 2H12 UNL     1      -6.096 -43.496  29.301  1.00  0.00     0.158 HD
ATOM     32 1H12 UNL     1      -6.403 -42.510  30.551  1.00  0.00     0.158 HD
ENDBRANCH  21  30
ENDBRANCH  12  15
ENDBRANCH  10  11
BRANCH   1  33
HETATM   33  C4  UNL     1     -11.371 -42.192  34.140  1.00  0.00     0.142 C 
BRANCH  33  34
HETATM   34  S1  UNL     1     -12.772 -43.273  34.240  1.00  0.00    -0.085 SA
BRANCH  34  35
HETATM   35  C3  UNL     1     -13.645 -43.459  32.669  1.00  0.00     0.182 A 
HETATM   36  N2  UNL     1     -13.138 -44.238  31.643  1.00  0.00    -0.277 N 
HETATM   37  N1  UNL     1     -13.949 -44.175  30.619  1.00  0.00    -0.286 N 
ATOM     38  H2  UNL     1     -12.271 -44.774  31.679  1.00  0.00     0.189 HD
HETATM   39  C2  UNL     1     -14.981 -43.383  30.915  1.00  0.00     0.116 A 
ATOM     40  H1  UNL     1     -13.814 -44.657  29.730  1.00  0.00     0.188 HD
HETATM   41  C1  UNL     1     -16.172 -43.006  30.073  1.00  0.00     0.092 C 
HETATM   42  N13 UNL     1     -14.762 -42.953  32.195  1.00  0.00    -0.226 N 
BRANCH  42  43
HETATM   43  N14 UNL     1     -15.619 -42.056  32.851  1.00  0.00    -0.335 N 
ATOM     44 2H14 UNL     1     -16.639 -42.064  32.830  1.00  0.00     0.177 HD
ATOM     45 1H14 UNL     1     -15.279 -41.311  33.458  1.00  0.00     0.177 HD
ENDBRANCH  42  43
ENDBRANCH  34  35
ENDBRANCH  33  34
ENDBRANCH   1  33
TORSDOF 8
ENDMDL
MODEL 3
REMARK VINA RESULT: -7.267350950      3.496      8.706
REMARK  8 active torsions:
REMARK  status: ('A' for Active; 'I' for Inactive)
REMARK    1  A    between atoms: C3_7  and  S1_8 
REMARK    2  A    between atoms: S1_8  and  C4_9 
REMARK    3  A    between atoms: C4_9  and  C5_10 
REMARK    4  A    between atoms: C8_19  and  N5_20 
REMARK    5  A    between atoms: N6_22  and  C9_24 
REMARK       I    between atoms: N8_28  and  C10_29 
REMARK       I    between atoms: C10_29  and  N10_33 
REMARK    6  A    between atoms: N10_33  and  N11_35 
REMARK    7  A    between atoms: C11_38  and  N12_39 
REMARK    8  A    between atoms: N13_42  and  N14_43 
ROOT
HETATM    1  C5  UNL     1      -1.426 -36.956  25.302  1.00  0.00     0.057 A 
HETATM    2  N3  UNL     1      -1.326 -35.642  25.316  1.00  0.00    -0.309 N 
ATOM      3  H3  UNL     1      -0.497 -35.207  25.721  1.00  0.00     0.170 HD
HETATM    4  C6  UNL     1      -2.300 -34.859  24.803  1.00  0.00     0.327 A 
HETATM    5  O1  UNL     1      -2.202 -33.596  24.817  1.00  0.00    -0.247 OA
HETATM    6  N4  UNL     1      -3.406 -35.395  24.262  1.00  0.00    -0.273 N 
ATOM      7  H4  UNL     1      -4.127 -34.783  23.880  1.00  0.00     0.173 HD
HETATM    8  C7  UNL     1      -3.577 -36.735  24.215  1.00  0.00     0.279 A 
HETATM    9  O2  UNL     1      -4.621 -37.253  23.705  1.00  0.00    -0.265 OA
HETATM   10  C8  UNL     1      -2.579 -37.520  24.738  1.00  0.00     0.140 A 
ENDROOT
BRANCH  10  11
HETATM   11  N5  UNL     1      -2.661 -38.917  24.712  1.00  0.00    -0.292 N 
HETATM   12  N6  UNL     1      -2.989 -39.517  23.646  1.00  0.00    -0.280 N 
ATOM     13  H6  UNL     1      -3.203 -39.016  22.783  1.00  0.00     0.188 HD
ATOM     14  H5  UNL     1      -2.456 -39.453  25.555  1.00  0.00     0.187 HD
BRANCH  12  15
HETATM   15  C9  UNL     1      -3.039 -40.943  23.733  1.00  0.00     0.189 A 
HETATM   16  N7  UNL     1      -3.736 -41.656  24.628  1.00  0.00    -0.220 N 
HETATM   17  O3  UNL     1      -3.514 -42.899  24.381  1.00  0.00    -0.131 OA
ATOM     18  H7  UNL     1      -4.331 -41.283  25.368  1.00  0.00     0.198 HD
HETATM   19  N8  UNL     1      -2.710 -43.039  23.375  1.00  0.00    -0.005 N 
HETATM   20  C10 UNL     1      -2.262 -44.298  22.857  1.00  0.00     0.720 C 
HETATM   21  C11 UNL     1      -2.377 -41.829  22.921  1.00  0.00     0.195 A 
HETATM   22  N9  UNL     1      -2.188 -44.582  21.617  1.00  0.00    -0.231 N 
HETATM   23  N10 UNL     1      -1.890 -45.264  23.831  1.00  0.00    -0.137 N 
ATOM     24  H92 UNL     1      -2.455 -43.889  20.918  1.00  0.00     0.174 HD
ATOM     25  H91 UNL     1      -1.869 -45.478  21.249  1.00  0.00     0.174 HD
ATOM     26  H10 UNL     1      -0.966 -45.695  23.807  1.00  0.00     0.205 HD
BRANCH  23  27
HETATM   27  N11 UNL     1      -2.809 -45.612  24.819  1.00  0.00    -0.331 N 
ATOM     28 2H11 UNL     1      -3.261 -46.527  24.787  1.00  0.00     0.177 HD
ATOM     29 1H11 UNL     1      -3.013 -44.942  25.559  1.00  0.00     0.177 HD
ENDBRANCH  23  27
BRANCH  21  30
HETATM   30  N12 UNL     1      -1.591 -41.576  21.919  1.00  0.00    -0.380 N 
ATOM     31 2H12 UNL     1      -1.794 -41.751  20.935  1.00  0.00     0.158 HD
ATOM     32 1H12 UNL     1      -0.657 -41.167  21.932  1.00  0.00     0.158 HD
ENDBRANCH  21  30
ENDBRANCH  12  15
ENDBRANCH  10  11
BRANCH   1  33
HETATM   33  C4  UNL     1      -0.470 -37.880  25.888  1.00  0.00     0.142 C 
BRANCH  33  34
HETATM   34  S1  UNL     1      -0.459 -38.095  27.647  1.00  0.00    -0.085 SA
BRANCH  34  35
HETATM   35  C3  UNL     1       0.700 -36.997  28.494  1.00  0.00     0.182 A 
HETATM   36  N2  UNL     1       1.352 -35.974  27.826  1.00  0.00    -0.277 N 
HETATM   37  N1  UNL     1       2.146 -35.357  28.663  1.00  0.00    -0.286 N 
ATOM     38  H2  UNL     1       1.233 -35.738  26.841  1.00  0.00     0.189 HD
HETATM   39  C2  UNL     1       2.056 -35.926  29.866  1.00  0.00     0.116 A 
ATOM     40  H1  UNL     1       2.743 -34.563  28.432  1.00  0.00     0.188 HD
HETATM   41  C1  UNL     1       2.763 -35.573  31.148  1.00  0.00     0.092 C 
HETATM   42  N13 UNL     1       1.151 -36.942  29.728  1.00  0.00    -0.226 N 
BRANCH  42  43
HETATM   43  N14 UNL     1       0.818 -37.810  30.779  1.00  0.00    -0.335 N 
ATOM     44 2H14 UNL     1       0.950 -38.821  30.798  1.00  0.00     0.177 HD
ATOM     45 1H14 UNL     1       0.432 -37.483  31.665  1.00  0.00     0.177 HD
ENDBRANCH  42  43
ENDBRANCH  34  35
ENDBRANCH  33  34
ENDBRANCH   1  33
TORSDOF 8
ENDMDL
MODEL 4
REMARK VINA RESULT: -7.246839326      9.489     12.456
REMARK  8 active torsions:
REMARK  status: ('A' for Active; 'I' for Inactive)
REMARK    1  A    between atoms: C3_7  and  S1_8 
REMARK    2  A    between atoms: S1_8  and  C4_9 
REMARK    3  A    between atoms: C4_9  and  C5_10 
REMARK    4  A    between atoms: C8_19  and  N5_20 
REMARK    5  A    between atoms: N6_22  and  C9_24 
REMARK       I    between atoms: N8_28  and  C10_29 
REMARK       I    between atoms: C10_29  and  N10_33 
REMARK    6  A    between atoms: N10_33  and  N11_35 
REMARK    7  A    between atoms: C11_38  and  N12_39 
REMARK    8  A    between atoms: N13_42  and  N14_43 
ROOT
HETATM    1  C5  UNL     1      -5.233 -43.395  31.004  1.00  0.00     0.057 A 
HETATM    2  N3  UNL     1      -5.441 -42.344  30.235  1.00  0.00    -0.309 N 
ATOM      3  H3  UNL     1      -6.355 -42.213  29.802  1.00  0.00     0.170 HD
HETATM    4  C6  UNL     1      -4.465 -41.437  30.009  1.00  0.00     0.327 A 
HETATM    5  O1  UNL     1      -4.667 -40.427  29.270  1.00  0.00    -0.247 OA
HETATM    6  N4  UNL     1      -3.248 -41.576  30.561  1.00  0.00    -0.273 N 
ATOM      7  H4  UNL     1      -2.529 -40.878  30.375  1.00  0.00     0.173 HD
HETATM    8  C7  UNL     1      -2.964 -42.630  31.359  1.00  0.00     0.279 A 
HETATM    9  O2  UNL     1      -1.815 -42.771  31.885  1.00  0.00    -0.265 OA
HETATM   10  C8  UNL     1      -3.964 -43.544  31.582  1.00  0.00     0.140 A 
ENDROOT
BRANCH  10  11
HETATM   11  N5  UNL     1      -3.766 -44.652  32.412  1.00  0.00    -0.292 N 
HETATM   12  N6  UNL     1      -2.831 -45.472  32.169  1.00  0.00    -0.280 N 
ATOM     13  H6  UNL     1      -2.201 -45.358  31.375  1.00  0.00     0.188 HD
ATOM     14  H5  UNL     1      -4.377 -44.801  33.215  1.00  0.00     0.187 HD
BRANCH  12  15
HETATM   15  C9  UNL     1      -2.720 -46.566  33.082  1.00  0.00     0.189 A 
HETATM   16  N7  UNL     1      -3.662 -47.484  33.334  1.00  0.00    -0.220 N 
HETATM   17  O3  UNL     1      -3.183 -48.290  34.215  1.00  0.00    -0.131 OA
ATOM     18  H7  UNL     1      -4.587 -47.535  32.907  1.00  0.00     0.198 HD
HETATM   19  N8  UNL     1      -1.980 -47.950  34.554  1.00  0.00    -0.005 N 
HETATM   20  C10 UNL     1      -1.177 -48.641  35.519  1.00  0.00     0.720 C 
HETATM   21  C11 UNL     1      -1.632 -46.862  33.865  1.00  0.00     0.195 A 
HETATM   22  N9  UNL     1       0.060 -48.907  35.371  1.00  0.00    -0.231 N 
HETATM   23  N10 UNL     1      -1.852 -49.041  36.706  1.00  0.00    -0.137 N 
ATOM     24  H92 UNL     1       0.544 -48.621  34.520  1.00  0.00     0.174 HD
ATOM     25  H91 UNL     1       0.631 -49.399  36.058  1.00  0.00     0.174 HD
ATOM     26  H10 UNL     1      -1.503 -48.758  37.621  1.00  0.00     0.205 HD
BRANCH  23  27
HETATM   27  N11 UNL     1      -2.999 -49.824  36.596  1.00  0.00    -0.331 N 
ATOM     28 2H11 UNL     1      -2.924 -50.783  36.254  1.00  0.00     0.177 HD
ATOM     29 1H11 UNL     1      -3.898 -49.421  36.860  1.00  0.00     0.177 HD
ENDBRANCH  23  27
BRANCH  21  30
HETATM   30  N12 UNL     1      -0.496 -46.238  33.939  1.00  0.00    -0.380 N 
ATOM     31 2H12 UNL     1       0.429 -46.664  33.894  1.00  0.00     0.158 HD
ATOM     32 1H12 UNL     1      -0.326 -45.238  34.051  1.00  0.00     0.158 HD
ENDBRANCH  21  30
ENDBRANCH  12  15
ENDBRANCH  10  11
BRANCH   1  33
HETATM   33  C4  UNL     1      -6.190 -44.459  31.253  1.00  0.00     0.142 C 
BRANCH  33  34
HETATM   34  S1  UNL     1      -7.921 -44.094  31.136  1.00  0.00    -0.085 SA
BRANCH  34  35
HETATM   35  C3  UNL     1      -8.611 -43.407  32.659  1.00  0.00     0.182 A 
HETATM   36  N2  UNL     1      -9.873 -42.840  32.694  1.00  0.00    -0.277 N 
HETATM   37  N1  UNL     1     -10.109 -42.399  33.903  1.00  0.00    -0.286 N 
ATOM     38  H2  UNL     1     -10.516 -42.775  31.905  1.00  0.00     0.189 HD
HETATM   39  C2  UNL     1      -9.054 -42.646  34.682  1.00  0.00     0.116 A 
ATOM     40  H1  UNL     1     -10.967 -41.938  34.205  1.00  0.00     0.188 HD
HETATM   41  C1  UNL     1      -8.848 -42.339  36.142  1.00  0.00     0.092 C 
HETATM   42  N13 UNL     1      -8.140 -43.272  33.879  1.00  0.00    -0.226 N 
BRANCH  42  43
HETATM   43  N14 UNL     1      -6.868 -43.654  34.333  1.00  0.00    -0.335 N 
ATOM     44 2H14 UNL     1      -6.652 -44.438  34.948  1.00  0.00     0.177 HD
ATOM     45 1H14 UNL     1      -6.013 -43.179  34.044  1.00  0.00     0.177 HD
ENDBRANCH  42  43
ENDBRANCH  34  35
ENDBRANCH  33  34
ENDBRANCH   1  33
TORSDOF 8
ENDMDL
MODEL 5
REMARK VINA RESULT: -7.181205706      6.170      8.112
REMARK  8 active torsions:
REMARK  status: ('A' for Active; 'I' for Inactive)
REMARK    1  A    between atoms: C3_7  and  S1_8 
REMARK    2  A    between atoms: S1_8  and  C4_9 
REMARK    3  A    between atoms: C4_9  and  C5_10 
REMARK    4  A    between atoms: C8_19  and  N5_20 
REMARK    5  A    between atoms: N6_22  and  C9_24 
REMARK       I    between atoms: N8_28  and  C10_29 
REMARK       I    between atoms: C10_29  and  N10_33 
REMARK    6  A    between atoms: N10_33  and  N11_35 
REMARK    7  A    between atoms: C11_38  and  N12_39 
REMARK    8  A    between atoms: N13_42  and  N14_43 
ROOT
HETATM    1  C5  UNL     1      -6.771 -41.804  26.461  1.00  0.00     0.057 A 
HETATM    2  N3  UNL     1      -6.353 -41.946  25.218  1.00  0.00    -0.309 N 
ATOM      3  H3  UNL     1      -5.707 -41.262  24.826  1.00  0.00     0.170 HD
HETATM    4  C6  UNL     1      -6.767 -42.981  24.454  1.00  0.00     0.327 A 
HETATM    5  O1  UNL     1      -6.364 -43.116  23.260  1.00  0.00    -0.247 OA
HETATM    6  N4  UNL     1      -7.619 -43.901  24.935  1.00  0.00    -0.273 N 
ATOM      7  H4  UNL     1      -7.915 -44.673  24.339  1.00  0.00     0.173 HD
HETATM    8  C7  UNL     1      -8.089 -43.818  26.200  1.00  0.00     0.279 A 
HETATM    9  O2  UNL     1      -8.896 -44.683  26.665  1.00  0.00    -0.265 OA
HETATM   10  C8  UNL     1      -7.660 -42.763  26.968  1.00  0.00     0.140 A 
ENDROOT
BRANCH  10  11
HETATM   11  N5  UNL     1      -8.077 -42.610  28.294  1.00  0.00    -0.292 N 
HETATM   12  N6  UNL     1      -7.915 -43.551  29.126  1.00  0.00    -0.280 N 
ATOM     13  H6  UNL     1      -7.483 -44.438  28.867  1.00  0.00     0.188 HD
ATOM     14  H5  UNL     1      -8.514 -41.737  28.592  1.00  0.00     0.187 HD
BRANCH  12  15
HETATM   15  C9  UNL     1      -8.376 -43.285  30.453  1.00  0.00     0.189 A 
HETATM   16  N7  UNL     1      -9.650 -43.107  30.826  1.00  0.00    -0.220 N 
HETATM   17  O3  UNL     1      -9.649 -42.884  32.093  1.00  0.00    -0.131 OA
ATOM     18  H7  UNL     1     -10.469 -43.142  30.219  1.00  0.00     0.198 HD
HETATM   19  N8  UNL     1      -8.445 -42.905  32.570  1.00  0.00    -0.005 N 
HETATM   20  C10 UNL     1      -8.107 -42.685  33.945  1.00  0.00     0.720 C 
HETATM   21  C11 UNL     1      -7.594 -43.157  31.573  1.00  0.00     0.195 A 
HETATM   22  N9  UNL     1      -7.260 -43.374  34.600  1.00  0.00    -0.231 N 
HETATM   23  N10 UNL     1      -8.794 -41.614  34.581  1.00  0.00    -0.137 N 
ATOM     24  H92 UNL     1      -6.768 -44.143  34.144  1.00  0.00     0.174 HD
ATOM     25  H91 UNL     1      -7.020 -43.217  35.578  1.00  0.00     0.174 HD
ATOM     26  H10 UNL     1      -8.275 -40.864  35.038  1.00  0.00     0.205 HD
BRANCH  23  27
HETATM   27  N11 UNL     1     -10.187 -41.606  34.569  1.00  0.00    -0.331 N 
ATOM     28 2H11 UNL     1     -10.682 -40.950  33.964  1.00  0.00     0.177 HD
ATOM     29 1H11 UNL     1     -10.688 -42.261  35.170  1.00  0.00     0.177 HD
ENDBRANCH  23  27
BRANCH  21  30
HETATM   30  N12 UNL     1      -6.303 -43.256  31.674  1.00  0.00    -0.380 N 
ATOM     31 2H12 UNL     1      -5.790 -44.026  32.103  1.00  0.00     0.158 HD
ATOM     32 1H12 UNL     1      -5.589 -42.604  31.352  1.00  0.00     0.158 HD
ENDBRANCH  21  30
ENDBRANCH  12  15
ENDBRANCH  10  11
BRANCH   1  33
HETATM   33  C4  UNL     1      -6.442 -40.694  27.339  1.00  0.00     0.142 C 
BRANCH  33  34
HETATM   34  S1  UNL     1      -4.804 -40.019  27.283  1.00  0.00    -0.085 SA
BRANCH  34  35
HETATM   35  C3  UNL     1      -4.635 -38.653  26.112  1.00  0.00     0.182 A 
HETATM   36  N2  UNL     1      -5.659 -38.303  25.249  1.00  0.00    -0.277 N 
HETATM   37  N1  UNL     1      -5.263 -37.308  24.497  1.00  0.00    -0.286 N 
ATOM     38  H2  UNL     1      -6.576 -38.749  25.205  1.00  0.00     0.189 HD
HETATM   39  C2  UNL     1      -4.012 -36.976  24.819  1.00  0.00     0.116 A 
ATOM     40  H1  UNL     1      -5.824 -36.855  23.776  1.00  0.00     0.188 HD
HETATM   41  C1  UNL     1      -3.130 -35.898  24.247  1.00  0.00     0.092 C 
HETATM   42  N13 UNL     1      -3.649 -37.830  25.824  1.00  0.00    -0.226 N 
BRANCH  42  43
HETATM   43  N14 UNL     1      -2.371 -37.821  26.403  1.00  0.00    -0.335 N 
ATOM     44 2H14 UNL     1      -2.022 -38.460  27.117  1.00  0.00     0.177 HD
ATOM     45 1H14 UNL     1      -1.641 -37.167  26.120  1.00  0.00     0.177 HD
ENDBRANCH  42  43
ENDBRANCH  34  35
ENDBRANCH  33  34
ENDBRANCH   1  33
TORSDOF 8
ENDMDL
