MODEL 1
REMARK VINA RESULT: -8.189301470      0.000      0.000
REMARK  9 active torsions:
REMARK  status: ('A' for Active; 'I' for Inactive)
REMARK    1  A    between atoms: N1_1  and  C1_4 
REMARK    2  A    between atoms: C2_10  and  N4_11 
REMARK    3  A    between atoms: C5_17  and  O3_18 
REMARK    4  A    between atoms: C6_20  and  O4_21 
REMARK    5  A    between atoms: C7_23  and  O5_24 
REMARK    6  A    between atoms: C8_26  and  C9_27 
REMARK    7  A    between atoms: C9_27  and  S1_28 
REMARK    8  A    between atoms: S1_28  and  C10_29 
REMARK    9  A    between atoms: C10_29  and  C11_30 
REMARK       I    between atoms: C11_30  and  N6_32 
ROOT
HETATM    1  N4  UNL     1      -3.606 -38.731  24.567  1.00  0.00    -0.242 N 
HETATM    2  C3  UNL     1      -4.063 -37.613  23.900  1.00  0.00     0.333 A 
HETATM    3  O2  UNL     1      -4.998 -37.663  23.070  1.00  0.00    -0.246 OA
HETATM    4  N5  UNL     1      -3.402 -36.540  24.247  1.00  0.00    -0.304 N 
ATOM      5  H5  UNL     1      -3.548 -35.592  23.900  1.00  0.00     0.171 HD
HETATM    6  C4  UNL     1      -2.485 -36.941  25.161  1.00  0.00     0.101 A 
HETATM    7  C5  UNL     1      -1.526 -36.217  25.829  1.00  0.00     0.131 A 
HETATM    8  C6  UNL     1      -0.697 -36.880  26.701  1.00  0.00     0.135 A 
HETATM    9  C7  UNL     1      -0.803 -38.224  26.916  1.00  0.00     0.111 A 
HETATM   10  C8  UNL     1      -1.789 -38.980  26.233  1.00  0.00     0.017 A 
HETATM   11  C13 UNL     1      -2.612 -38.324  25.366  1.00  0.00     0.085 A 
ENDROOT
BRANCH  10  12
HETATM   12  C9  UNL     1      -1.826 -40.438  26.513  1.00  0.00     0.118 C 
BRANCH  12  13
HETATM   13  S1  UNL     1      -0.539 -41.112  25.327  1.00  0.00    -0.155 SA
BRANCH  13  14
HETATM   14  C10 UNL     1      -0.930 -42.844  24.931  1.00  0.00     0.179 C 
BRANCH  14  15
HETATM   15  C11 UNL     1       0.107 -43.509  24.156  1.00  0.00     0.257 C 
HETATM   16  O6  UNL     1       1.283 -43.498  24.645  1.00  0.00    -0.270 OA
HETATM   17  N6  UNL     1      -0.070 -44.166  22.914  1.00  0.00    -0.154 N 
HETATM   18  N7  UNL     1       0.887 -44.766  22.192  1.00  0.00    -0.214 N 
HETATM   19  C12 UNL     1      -1.229 -44.304  22.254  1.00  0.00     0.365 A 
HETATM   20  N8  UNL     1       0.362 -45.271  21.110  1.00  0.00    -0.224 N 
ATOM     21  H7  UNL     1       1.872 -44.821  22.450  1.00  0.00     0.210 HD
HETATM   22  N9  UNL     1      -0.947 -44.991  21.136  1.00  0.00    -0.234 N 
ATOM     23  H8  UNL     1       0.857 -45.783  20.380  1.00  0.00     0.210 HD
ATOM     24  H9  UNL     1      -1.622 -45.257  20.420  1.00  0.00     0.193 HD
HETATM   25  O7  UNL     1      -2.395 -43.911  22.536  1.00  0.00    -0.243 OA
ENDBRANCH  14  15
ENDBRANCH  13  14
ENDBRANCH  12  13
ENDBRANCH  10  12
BRANCH   9  26
HETATM   26  O5  UNL     1       0.013 -38.936  27.786  1.00  0.00    -0.357 OA
ATOM     27  H5  UNL     1      -0.107 -39.856  27.992  1.00  0.00     0.217 HD
ENDBRANCH   9  26
BRANCH   8  28
HETATM   28  O4  UNL     1       0.271 -36.145  27.375  1.00  0.00    -0.356 OA
ATOM     29  H4  UNL     1       0.924 -36.617  27.877  1.00  0.00     0.218 HD
ENDBRANCH   8  28
BRANCH   1  30
HETATM   30  C2  UNL     1      -4.135 -40.022  24.364  1.00  0.00     0.184 A 
HETATM   31  C1  UNL     1      -3.732 -40.916  23.387  1.00  0.00     0.168 A 
HETATM   32  N2  UNL     1      -4.438 -42.061  23.545  1.00  0.00    -0.222 N 
HETATM   33  O1  UNL     1      -5.227 -41.880  24.558  1.00  0.00    -0.153 OA
ATOM     34  H2  UNL     1      -4.364 -42.904  22.975  1.00  0.00     0.198 HD
HETATM   35  N3  UNL     1      -5.066 -40.671  25.068  1.00  0.00    -0.221 N 
ATOM     36  H3  UNL     1      -5.573 -40.293  25.868  1.00  0.00     0.198 HD
BRANCH  31  37
HETATM   37  N1  UNL     1      -2.850 -40.723  22.475  1.00  0.00    -0.381 N 
ATOM     38  H12 UNL     1      -2.244 -41.421  22.046  1.00  0.00     0.157 HD
ATOM     39  H11 UNL     1      -2.640 -39.817  22.056  1.00  0.00     0.157 HD
ENDBRANCH  31  37
ENDBRANCH   1  30
BRANCH   7  40
HETATM   40  O3  UNL     1      -1.403 -34.852  25.627  1.00  0.00    -0.356 OA
ATOM     41  H3  UNL     1      -0.633 -34.385  25.929  1.00  0.00     0.218 HD
ENDBRANCH   7  40
TORSDOF 9
ENDMDL
MODEL 2
REMARK VINA RESULT: -7.878287593      0.825      1.296
REMARK  9 active torsions:
REMARK  status: ('A' for Active; 'I' for Inactive)
REMARK    1  A    between atoms: N1_1  and  C1_4 
REMARK    2  A    between atoms: C2_10  and  N4_11 
REMARK    3  A    between atoms: C5_17  and  O3_18 
REMARK    4  A    between atoms: C6_20  and  O4_21 
REMARK    5  A    between atoms: C7_23  and  O5_24 
REMARK    6  A    between atoms: C8_26  and  C9_27 
REMARK    7  A    between atoms: C9_27  and  S1_28 
REMARK    8  A    between atoms: S1_28  and  C10_29 
REMARK    9  A    between atoms: C10_29  and  C11_30 
REMARK       I    between atoms: C11_30  and  N6_32 
ROOT
HETATM    1  N4  UNL     1      -3.567 -38.662  24.634  1.00  0.00    -0.242 N 
HETATM    2  C3  UNL     1      -4.018 -37.467  24.113  1.00  0.00     0.333 A 
HETATM    3  O2  UNL     1      -5.016 -37.396  23.361  1.00  0.00    -0.246 OA
HETATM    4  N5  UNL     1      -3.279 -36.461  24.503  1.00  0.00    -0.304 N 
ATOM      5  H5  UNL     1      -3.403 -35.479  24.259  1.00  0.00     0.171 HD
HETATM    6  C4  UNL     1      -2.316 -36.988  25.299  1.00  0.00     0.101 A 
HETATM    7  C5  UNL     1      -1.273 -36.374  25.951  1.00  0.00     0.131 A 
HETATM    8  C6  UNL     1      -0.414 -37.152  26.687  1.00  0.00     0.135 A 
HETATM    9  C7  UNL     1      -0.571 -38.506  26.784  1.00  0.00     0.111 A 
HETATM   10  C8  UNL     1      -1.643 -39.149  26.116  1.00  0.00     0.017 A 
HETATM   11  C13 UNL     1      -2.497 -38.378  25.383  1.00  0.00     0.085 A 
ENDROOT
BRANCH  10  12
HETATM   12  C9  UNL     1      -1.731 -40.624  26.261  1.00  0.00     0.118 C 
BRANCH  12  13
HETATM   13  S1  UNL     1      -0.589 -41.234  24.904  1.00  0.00    -0.155 SA
BRANCH  13  14
HETATM   14  C10 UNL     1      -0.519 -43.053  24.945  1.00  0.00     0.179 C 
BRANCH  14  15
HETATM   15  C11 UNL     1      -1.548 -43.690  24.137  1.00  0.00     0.257 C 
HETATM   16  O6  UNL     1      -2.726 -43.708  24.621  1.00  0.00    -0.270 OA
HETATM   17  N6  UNL     1      -1.362 -44.289  22.868  1.00  0.00    -0.154 N 
HETATM   18  N7  UNL     1      -2.306 -44.889  22.129  1.00  0.00    -0.214 N 
HETATM   19  C12 UNL     1      -0.208 -44.349  22.186  1.00  0.00     0.365 A 
HETATM   20  N8  UNL     1      -1.779 -45.319  21.016  1.00  0.00    -0.224 N 
ATOM     21  H7  UNL     1      -3.284 -44.993  22.396  1.00  0.00     0.210 HD
HETATM   22  N9  UNL     1      -0.481 -44.991  21.040  1.00  0.00    -0.234 N 
ATOM     23  H8  UNL     1      -2.264 -45.812  20.267  1.00  0.00     0.210 HD
ATOM     24  H9  UNL     1       0.194 -45.197  20.303  1.00  0.00     0.193 HD
HETATM   25  O7  UNL     1       0.945 -43.923  22.472  1.00  0.00    -0.243 OA
ENDBRANCH  14  15
ENDBRANCH  13  14
ENDBRANCH  12  13
ENDBRANCH  10  12
BRANCH   9  26
HETATM   26  O5  UNL     1       0.273 -39.333  27.514  1.00  0.00    -0.357 OA
ATOM     27  H5  UNL     1       1.101 -39.667  27.188  1.00  0.00     0.217 HD
ENDBRANCH   9  26
BRANCH   8  28
HETATM   28  O4  UNL     1       0.638 -36.528  27.345  1.00  0.00    -0.356 OA
ATOM     29  H4  UNL     1       1.035 -35.768  26.938  1.00  0.00     0.218 HD
ENDBRANCH   8  28
BRANCH   1  30
HETATM   30  C2  UNL     1      -4.175 -39.904  24.355  1.00  0.00     0.184 A 
HETATM   31  C1  UNL     1      -3.904 -40.708  23.262  1.00  0.00     0.168 A 
HETATM   32  N2  UNL     1      -4.649 -41.835  23.371  1.00  0.00    -0.222 N 
HETATM   33  O1  UNL     1      -5.335 -41.728  24.467  1.00  0.00    -0.153 OA
ATOM     34  H2  UNL     1      -4.667 -42.617  22.717  1.00  0.00     0.198 HD
HETATM   35  N3  UNL     1      -5.071 -40.584  25.075  1.00  0.00    -0.221 N 
ATOM     36  H3  UNL     1      -5.485 -40.271  25.953  1.00  0.00     0.198 HD
BRANCH  31  37
HETATM   37  N1  UNL     1      -3.099 -40.458  22.295  1.00  0.00    -0.381 N 
ATOM     38  H12 UNL     1      -2.818 -41.092  21.547  1.00  0.00     0.157 HD
ATOM     39  H11 UNL     1      -2.624 -39.567  22.153  1.00  0.00     0.157 HD
ENDBRANCH  31  37
ENDBRANCH   1  30
BRANCH   7  40
HETATM   40  O3  UNL     1      -1.098 -35.002  25.867  1.00  0.00    -0.356 OA
ATOM     41  H3  UNL     1      -1.751 -34.408  26.218  1.00  0.00     0.218 HD
ENDBRANCH   7  40
TORSDOF 9
ENDMDL
MODEL 3
REMARK VINA RESULT: -7.549643705      2.323      2.872
REMARK  9 active torsions:
REMARK  status: ('A' for Active; 'I' for Inactive)
REMARK    1  A    between atoms: N1_1  and  C1_4 
REMARK    2  A    between atoms: C2_10  and  N4_11 
REMARK    3  A    between atoms: C5_17  and  O3_18 
REMARK    4  A    between atoms: C6_20  and  O4_21 
REMARK    5  A    between atoms: C7_23  and  O5_24 
REMARK    6  A    between atoms: C8_26  and  C9_27 
REMARK    7  A    between atoms: C9_27  and  S1_28 
REMARK    8  A    between atoms: S1_28  and  C10_29 
REMARK    9  A    between atoms: C10_29  and  C11_30 
REMARK       I    between atoms: C11_30  and  N6_32 
ROOT
HETATM    1  N4  UNL     1      -4.005 -41.487  25.892  1.00  0.00    -0.242 N 
HETATM    2  C3  UNL     1      -4.995 -41.315  26.838  1.00  0.00     0.333 A 
HETATM    3  O2  UNL     1      -5.974 -42.088  26.933  1.00  0.00    -0.246 OA
HETATM    4  N5  UNL     1      -4.768 -40.268  27.588  1.00  0.00    -0.304 N 
ATOM      5  H5  UNL     1      -5.347 -39.928  28.355  1.00  0.00     0.171 HD
HETATM    6  C4  UNL     1      -3.609 -39.727  27.140  1.00  0.00     0.101 A 
HETATM    7  C5  UNL     1      -2.933 -38.607  27.563  1.00  0.00     0.131 A 
HETATM    8  C6  UNL     1      -1.773 -38.260  26.914  1.00  0.00     0.135 A 
HETATM    9  C7  UNL     1      -1.283 -38.994  25.871  1.00  0.00     0.111 A 
HETATM   10  C8  UNL     1      -1.972 -40.150  25.428  1.00  0.00     0.017 A 
HETATM   11  C13 UNL     1      -3.125 -40.496  26.069  1.00  0.00     0.085 A 
ENDROOT
BRANCH  10  12
HETATM   12  C9  UNL     1      -1.379 -40.880  24.278  1.00  0.00     0.118 C 
BRANCH  12  13
HETATM   13  S1  UNL     1      -0.152 -42.026  25.113  1.00  0.00    -0.155 SA
BRANCH  13  14
HETATM   14  C10 UNL     1       0.597 -43.123  23.868  1.00  0.00     0.179 C 
BRANCH  14  15
HETATM   15  C11 UNL     1      -0.282 -44.201  23.443  1.00  0.00     0.257 C 
HETATM   16  O6  UNL     1      -0.564 -45.088  24.313  1.00  0.00    -0.270 OA
HETATM   17  N6  UNL     1      -0.852 -44.357  22.156  1.00  0.00    -0.154 N 
HETATM   18  N7  UNL     1      -1.649 -45.357  21.759  1.00  0.00    -0.214 N 
HETATM   19  C12 UNL     1      -0.694 -43.521  21.119  1.00  0.00     0.365 A 
HETATM   20  N8  UNL     1      -1.991 -45.173  20.514  1.00  0.00    -0.224 N 
ATOM     21  H7  UNL     1      -1.944 -46.141  22.340  1.00  0.00     0.210 HD
HETATM   22  N9  UNL     1      -1.406 -44.039  20.106  1.00  0.00    -0.234 N 
ATOM     23  H8  UNL     1      -2.593 -45.778  19.955  1.00  0.00     0.210 HD
ATOM     24  H9  UNL     1      -1.488 -43.634  19.174  1.00  0.00     0.193 HD
HETATM   25  O7  UNL     1      -0.038 -42.448  21.012  1.00  0.00    -0.243 OA
ENDBRANCH  14  15
ENDBRANCH  13  14
ENDBRANCH  12  13
ENDBRANCH  10  12
BRANCH   9  26
HETATM   26  O5  UNL     1      -0.117 -38.681  25.185  1.00  0.00    -0.357 OA
ATOM     27  H5  UNL     1       0.474 -39.329  24.820  1.00  0.00     0.217 HD
ENDBRANCH   9  26
BRANCH   8  28
HETATM   28  O4  UNL     1      -1.092 -37.129  27.345  1.00  0.00    -0.356 OA
ATOM     29  H4  UNL     1      -1.582 -36.322  27.450  1.00  0.00     0.218 HD
ENDBRANCH   8  28
BRANCH   1  30
HETATM   30  C2  UNL     1      -4.016 -42.531  24.944  1.00  0.00     0.184 A 
HETATM   31  C1  UNL     1      -4.473 -42.435  23.642  1.00  0.00     0.168 A 
HETATM   32  N2  UNL     1      -4.274 -43.630  23.034  1.00  0.00    -0.222 N 
HETATM   33  O1  UNL     1      -3.727 -44.412  23.913  1.00  0.00    -0.153 OA
ATOM     34  H2  UNL     1      -4.509 -43.868  22.071  1.00  0.00     0.198 HD
HETATM   35  N3  UNL     1      -3.561 -43.781  25.063  1.00  0.00    -0.221 N 
ATOM     36  H3  UNL     1      -3.152 -44.185  25.905  1.00  0.00     0.198 HD
BRANCH  31  37
HETATM   37  N1  UNL     1      -5.001 -41.410  23.078  1.00  0.00    -0.381 N 
ATOM     38  H12 UNL     1      -5.923 -41.351  22.646  1.00  0.00     0.157 HD
ATOM     39  H11 UNL     1      -4.548 -40.501  22.988  1.00  0.00     0.157 HD
ENDBRANCH  31  37
ENDBRANCH   1  30
BRANCH   7  40
HETATM   40  O3  UNL     1      -3.412 -37.851  28.620  1.00  0.00    -0.356 OA
ATOM     41  H3  UNL     1      -4.095 -37.205  28.482  1.00  0.00     0.218 HD
ENDBRANCH   7  40
TORSDOF 9
ENDMDL
MODEL 4
REMARK VINA RESULT: -7.546477726      2.451      4.151
REMARK  9 active torsions:
REMARK  status: ('A' for Active; 'I' for Inactive)
REMARK    1  A    between atoms: N1_1  and  C1_4 
REMARK    2  A    between atoms: C2_10  and  N4_11 
REMARK    3  A    between atoms: C5_17  and  O3_18 
REMARK    4  A    between atoms: C6_20  and  O4_21 
REMARK    5  A    between atoms: C7_23  and  O5_24 
REMARK    6  A    between atoms: C8_26  and  C9_27 
REMARK    7  A    between atoms: C9_27  and  S1_28 
REMARK    8  A    between atoms: S1_28  and  C10_29 
REMARK    9  A    between atoms: C10_29  and  C11_30 
REMARK       I    between atoms: C11_30  and  N6_32 
ROOT
HETATM    1  N4  UNL     1      -2.765 -39.627  26.899  1.00  0.00    -0.242 N 
HETATM    2  C3  UNL     1      -3.391 -38.445  27.237  1.00  0.00     0.333 A 
HETATM    3  O2  UNL     1      -3.319 -37.953  28.386  1.00  0.00    -0.246 OA
HETATM    4  N5  UNL     1      -4.042 -37.936  26.225  1.00  0.00    -0.304 N 
ATOM      5  H5  UNL     1      -4.582 -37.071  26.216  1.00  0.00     0.171 HD
HETATM    6  C4  UNL     1      -3.853 -38.789  25.188  1.00  0.00     0.101 A 
HETATM    7  C5  UNL     1      -4.334 -38.739  23.901  1.00  0.00     0.131 A 
HETATM    8  C6  UNL     1      -4.005 -39.758  23.041  1.00  0.00     0.135 A 
HETATM    9  C7  UNL     1      -3.222 -40.806  23.430  1.00  0.00     0.111 A 
HETATM   10  C8  UNL     1      -2.720 -40.868  24.755  1.00  0.00     0.017 A 
HETATM   11  C13 UNL     1      -3.046 -39.858  25.611  1.00  0.00     0.085 A 
ENDROOT
BRANCH  10  12
HETATM   12  C9  UNL     1      -1.890 -42.049  25.100  1.00  0.00     0.118 C 
BRANCH  12  13
HETATM   13  S1  UNL     1      -0.170 -41.499  24.595  1.00  0.00    -0.155 SA
BRANCH  13  14
HETATM   14  C10 UNL     1       0.729 -42.908  23.873  1.00  0.00     0.179 C 
BRANCH  14  15
HETATM   15  C11 UNL     1      -0.131 -44.033  23.538  1.00  0.00     0.257 C 
HETATM   16  O6  UNL     1      -0.347 -44.884  24.460  1.00  0.00    -0.270 OA
HETATM   17  N6  UNL     1      -0.748 -44.268  22.285  1.00  0.00    -0.154 N 
HETATM   18  N7  UNL     1      -1.528 -45.311  21.970  1.00  0.00    -0.214 N 
HETATM   19  C12 UNL     1      -0.661 -43.479  21.203  1.00  0.00     0.365 A 
HETATM   20  N8  UNL     1      -1.927 -45.197  20.733  1.00  0.00    -0.224 N 
ATOM     21  H7  UNL     1      -1.773 -46.074  22.600  1.00  0.00     0.210 HD
HETATM   22  N9  UNL     1      -1.396 -44.068  20.248  1.00  0.00    -0.234 N 
ATOM     23  H8  UNL     1      -2.531 -45.847  20.230  1.00  0.00     0.210 HD
ATOM     24  H9  UNL     1      -1.530 -43.711  19.302  1.00  0.00     0.193 HD
HETATM   25  O7  UNL     1      -0.045 -42.393  21.018  1.00  0.00    -0.243 OA
ENDBRANCH  14  15
ENDBRANCH  13  14
ENDBRANCH  12  13
ENDBRANCH  10  12
BRANCH   9  26
HETATM   26  O5  UNL     1      -2.865 -41.859  22.597  1.00  0.00    -0.357 OA
ATOM     27  H5  UNL     1      -3.486 -42.477  22.229  1.00  0.00     0.217 HD
ENDBRANCH   9  26
BRANCH   8  28
HETATM   28  O4  UNL     1      -4.492 -39.703  21.741  1.00  0.00    -0.356 OA
ATOM     29  H4  UNL     1      -3.973 -40.095  21.049  1.00  0.00     0.218 HD
ENDBRANCH   8  28
BRANCH   1  30
HETATM   30  C2  UNL     1      -2.010 -40.391  27.812  1.00  0.00     0.184 A 
HETATM   31  C1  UNL     1      -0.675 -40.194  28.121  1.00  0.00     0.168 A 
HETATM   32  N2  UNL     1      -0.324 -41.093  29.072  1.00  0.00    -0.222 N 
HETATM   33  O1  UNL     1      -1.381 -41.798  29.332  1.00  0.00    -0.153 OA
ATOM     34  H2  UNL     1       0.596 -41.195  29.501  1.00  0.00     0.198 HD
HETATM   35  N3  UNL     1      -2.403 -41.400  28.593  1.00  0.00    -0.221 N 
ATOM     36  H3  UNL     1      -3.341 -41.800  28.616  1.00  0.00     0.198 HD
BRANCH  31  37
HETATM   37  N1  UNL     1       0.119 -39.325  27.610  1.00  0.00    -0.381 N 
ATOM     38  H12 UNL     1       1.125 -39.416  27.471  1.00  0.00     0.157 HD
ATOM     39  H11 UNL     1      -0.167 -38.406  27.274  1.00  0.00     0.157 HD
ENDBRANCH  31  37
ENDBRANCH   1  30
BRANCH   7  40
HETATM   40  O3  UNL     1      -5.129 -37.683  23.485  1.00  0.00    -0.356 OA
ATOM     41  H3  UNL     1      -5.987 -37.543  23.868  1.00  0.00     0.218 HD
ENDBRANCH   7  40
TORSDOF 9
ENDMDL
MODEL 5
REMARK VINA RESULT: -7.362763574      2.116      4.274
REMARK  9 active torsions:
REMARK  status: ('A' for Active; 'I' for Inactive)
REMARK    1  A    between atoms: N1_1  and  C1_4 
REMARK    2  A    between atoms: C2_10  and  N4_11 
REMARK    3  A    between atoms: C5_17  and  O3_18 
REMARK    4  A    between atoms: C6_20  and  O4_21 
REMARK    5  A    between atoms: C7_23  and  O5_24 
REMARK    6  A    between atoms: C8_26  and  C9_27 
REMARK    7  A    between atoms: C9_27  and  S1_28 
REMARK    8  A    between atoms: S1_28  and  C10_29 
REMARK    9  A    between atoms: C10_29  and  C11_30 
REMARK       I    between atoms: C11_30  and  N6_32 
ROOT
HETATM    1  N4  UNL     1      -1.686 -37.613  25.670  1.00  0.00    -0.242 N 
HETATM    2  C3  UNL     1      -2.251 -36.446  25.197  1.00  0.00     0.333 A 
HETATM    3  O2  UNL     1      -1.868 -35.315  25.572  1.00  0.00    -0.246 OA
HETATM    4  N5  UNL     1      -3.203 -36.687  24.335  1.00  0.00    -0.304 N 
ATOM      5  H5  UNL     1      -3.772 -35.998  23.843  1.00  0.00     0.171 HD
HETATM    6  C4  UNL     1      -3.283 -38.035  24.227  1.00  0.00     0.101 A 
HETATM    7  C5  UNL     1      -4.128 -38.815  23.473  1.00  0.00     0.131 A 
HETATM    8  C6  UNL     1      -4.013 -40.181  23.564  1.00  0.00     0.135 A 
HETATM    9  C7  UNL     1      -3.088 -40.773  24.376  1.00  0.00     0.111 A 
HETATM   10  C8  UNL     1      -2.211 -39.979  25.156  1.00  0.00     0.017 A 
HETATM   11  C13 UNL     1      -2.325 -38.623  25.069  1.00  0.00     0.085 A 
ENDROOT
BRANCH  10  12
HETATM   12  C9  UNL     1      -1.247 -40.703  26.023  1.00  0.00     0.118 C 
BRANCH  12  13
HETATM   13  S1  UNL     1       0.245 -40.893  24.903  1.00  0.00    -0.155 SA
BRANCH  13  14
HETATM   14  C10 UNL     1       0.209 -42.536  24.120  1.00  0.00     0.179 C 
BRANCH  14  15
HETATM   15  C11 UNL     1       0.143 -42.484  22.667  1.00  0.00     0.257 C 
HETATM   16  O6  UNL     1       0.825 -41.573  22.095  1.00  0.00    -0.270 OA
HETATM   17  N6  UNL     1      -0.608 -43.348  21.834  1.00  0.00    -0.154 N 
HETATM   18  N7  UNL     1      -0.681 -43.293  20.497  1.00  0.00    -0.214 N 
HETATM   19  C12 UNL     1      -1.365 -44.376  22.244  1.00  0.00     0.365 A 
HETATM   20  N8  UNL     1      -1.457 -44.248  20.064  1.00  0.00    -0.224 N 
ATOM     21  H7  UNL     1      -0.204 -42.610  19.909  1.00  0.00     0.210 HD
HETATM   22  N9  UNL     1      -1.887 -44.925  21.137  1.00  0.00    -0.234 N 
ATOM     23  H8  UNL     1      -1.692 -44.443  19.091  1.00  0.00     0.210 HD
ATOM     24  H9  UNL     1      -2.512 -45.731  21.115  1.00  0.00     0.193 HD
HETATM   25  O7  UNL     1      -1.604 -44.819  23.402  1.00  0.00    -0.243 OA
ENDBRANCH  14  15
ENDBRANCH  13  14
ENDBRANCH  12  13
ENDBRANCH  10  12
BRANCH   9  26
HETATM   26  O5  UNL     1      -2.936 -42.148  24.501  1.00  0.00    -0.357 OA
ATOM     27  H5  UNL     1      -3.259 -42.652  25.239  1.00  0.00     0.217 HD
ENDBRANCH   9  26
BRANCH   8  28
HETATM   28  O4  UNL     1      -4.868 -40.965  22.801  1.00  0.00    -0.356 OA
ATOM     29  H4  UNL     1      -4.734 -41.905  22.798  1.00  0.00     0.218 HD
ENDBRANCH   8  28
BRANCH   1  30
HETATM   30  C2  UNL     1      -0.648 -37.638  26.625  1.00  0.00     0.184 A 
HETATM   31  C1  UNL     1       0.702 -37.502  26.354  1.00  0.00     0.168 A 
HETATM   32  N2  UNL     1       1.373 -37.529  27.531  1.00  0.00    -0.222 N 
HETATM   33  O1  UNL     1       0.487 -37.673  28.467  1.00  0.00    -0.153 OA
ATOM     34  H2  UNL     1       2.383 -37.452  27.656  1.00  0.00     0.198 HD
HETATM   35  N3  UNL     1      -0.729 -37.741  27.954  1.00  0.00    -0.221 N 
ATOM     36  H3  UNL     1      -1.591 -37.853  28.488  1.00  0.00     0.198 HD
BRANCH  31  37
HETATM   37  N1  UNL     1       1.254 -37.374  25.203  1.00  0.00    -0.381 N 
ATOM     38  H12 UNL     1       1.559 -38.121  24.580  1.00  0.00     0.157 HD
ATOM     39  H11 UNL     1       1.464 -36.481  24.758  1.00  0.00     0.157 HD
ENDBRANCH  31  37
ENDBRANCH   1  30
BRANCH   7  40
HETATM   40  O3  UNL     1      -5.072 -38.233  22.642  1.00  0.00    -0.356 OA
ATOM     41  H3  UNL     1      -5.250 -38.597  21.783  1.00  0.00     0.218 HD
ENDBRANCH   7  40
TORSDOF 9
ENDMDL
