MODEL 1
REMARK VINA RESULT: -7.274544597      0.000      0.000
REMARK  12 active torsions:
REMARK  status: ('A' for Active; 'I' for Inactive)
REMARK    1  A    between atoms: O1_2  and  C2_3 
REMARK       I    between atoms: C2_3  and  N1_5 
REMARK    2  A    between atoms: N1_5  and  C3_7 
REMARK    3  A    between atoms: C4_8  and  N2_9 
REMARK    4  A    between atoms: N2_9  and  C5_11 
REMARK    5  A    between atoms: N4_18  and  C9_19 
REMARK    6  A    between atoms: C9_19  and  O3_20 
REMARK    7  A    between atoms: C9_19  and  O4_22 
REMARK    8  A    between atoms: C10_24  and  N5_25 
REMARK    9  A    between atoms: N5_25  and  N6_27 
REMARK   10  A    between atoms: C11_29  and  C12_30 
REMARK   11  A    between atoms: C13_36  and  N9_37 
REMARK   12  A    between atoms: C14_42  and  N11_43 
ROOT
HETATM    1  C3  UNL     1      -4.850 -41.719  26.209  1.00  0.00     0.126 A 
HETATM    2  C4  UNL     1      -3.899 -41.158  25.393  1.00  0.00     0.155 A 
HETATM    3  N4  UNL     1      -3.602 -41.868  24.262  1.00  0.00    -0.114 N 
HETATM    4  C10 UNL     1      -4.179 -43.030  23.941  1.00  0.00     0.706 A 
HETATM    5  N10 UNL     1      -5.103 -43.597  24.707  1.00  0.00    -0.173 N 
ATOM      6  H10 UNL     1      -5.539 -44.484  24.454  1.00  0.00     0.186 HD
HETATM    7  C14 UNL     1      -5.432 -42.948  25.828  1.00  0.00     0.145 A 
ENDROOT
BRANCH   4   8
HETATM    8  N5  UNL     1      -3.838 -43.666  22.844  1.00  0.00    -0.132 N 
ATOM      9  H5  UNL     1      -3.771 -43.138  21.974  1.00  0.00     0.205 HD
BRANCH   8  10
HETATM   10  N6  UNL     1      -3.569 -45.005  22.822  1.00  0.00    -0.295 N 
HETATM   11  C11 UNL     1      -2.592 -45.540  22.197  1.00  0.00     0.143 C 
ATOM     12  H6  UNL     1      -4.194 -45.621  23.342  1.00  0.00     0.186 HD
BRANCH  11  13
HETATM   13  C12 UNL     1      -1.660 -44.723  21.433  1.00  0.00     0.126 A 
HETATM   14  N7  UNL     1      -1.747 -44.500  20.095  1.00  0.00    -0.275 N 
HETATM   15  N8  UNL     1      -0.756 -43.728  19.742  1.00  0.00    -0.199 N 
ATOM     16  H7  UNL     1      -2.466 -44.872  19.473  1.00  0.00     0.189 HD
HETATM   17  O5  UNL     1      -0.035 -43.437  20.757  1.00  0.00    -0.196 OA
ATOM     18  H8  UNL     1      -0.580 -43.402  18.792  1.00  0.00     0.216 HD
HETATM   19  C13 UNL     1      -0.556 -44.032  21.836  1.00  0.00     0.266 A 
BRANCH  19  20
HETATM   20  N9  UNL     1      -0.043 -43.950  23.150  1.00  0.00    -0.086 N 
HETATM   21  O6  UNL     1      -0.748 -44.006  24.137  1.00  0.00    -0.530 OA
HETATM   22  O7  UNL     1       1.323 -43.801  23.306  1.00  0.00    -0.530 OA
ENDBRANCH  19  20
ENDBRANCH  11  13
ENDBRANCH   8  10
ENDBRANCH   4   8
BRANCH   3  23
HETATM   23  C9  UNL     1      -2.623 -41.354  23.328  1.00  0.00     0.391 C 
BRANCH  23  24
HETATM   24  O3  UNL     1      -1.471 -40.937  24.012  1.00  0.00    -0.354 OA
ATOM     25  H3  UNL     1      -1.709 -40.402  24.760  1.00  0.00     0.214 HD
ENDBRANCH  23  24
BRANCH  23  26
HETATM   26  O4  UNL     1      -3.130 -40.301  22.606  1.00  0.00    -0.354 OA
ATOM     27  H4  UNL     1      -2.434 -39.790  22.208  1.00  0.00     0.214 HD
ENDBRANCH  23  26
ENDBRANCH   3  23
BRANCH   2  28
HETATM   28  N2  UNL     1      -3.284 -39.911  25.616  1.00  0.00    -0.367 N 
ATOM     29  H2  UNL     1      -2.269 -39.963  25.698  1.00  0.00     0.161 HD
BRANCH  28  30
HETATM   30  C5  UNL     1      -3.797 -38.608  25.746  1.00  0.00     0.110 C 
HETATM   31  C6  UNL     1      -2.998 -37.695  24.766  1.00  0.00     0.054 C 
HETATM   32  C7  UNL     1      -3.971 -36.541  24.661  1.00  0.00     0.234 C 
HETATM   33  N3  UNL     1      -5.204 -37.217  24.401  1.00  0.00    -0.073 N 
HETATM   34  C8  UNL     1      -5.196 -38.439  25.172  1.00  0.00     0.257 C 
ATOM     35  H32 UNL     1      -6.022 -36.637  24.583  1.00  0.00     0.277 HD
ATOM     36  H31 UNL     1      -5.370 -37.374  23.408  1.00  0.00     0.277 HD
ENDBRANCH  28  30
ENDBRANCH   2  28
BRANCH   7  37
HETATM   37  N11 UNL     1      -6.327 -43.479  26.588  1.00  0.00    -0.383 N 
ATOM     38 2H11 UNL     1      -7.199 -42.967  26.724  1.00  0.00     0.157 HD
ATOM     39 1H11 UNL     1      -6.136 -44.381  27.022  1.00  0.00     0.157 HD
ENDBRANCH   7  37
BRANCH   1  40
HETATM   40  N1  UNL     1      -5.261 -41.183  27.458  1.00  0.00    -0.296 N 
HETATM   41  C2  UNL     1      -4.369 -41.161  28.560  1.00  0.00     0.364 C 
HETATM   42  O2  UNL     1      -3.201 -41.619  28.438  1.00  0.00    -0.238 OA
ATOM     43  H1  UNL     1      -6.205 -40.812  27.564  1.00  0.00     0.171 HD
BRANCH  41  44
HETATM   44  O1  UNL     1      -4.716 -40.650  29.802  1.00  0.00    -0.309 OA
HETATM   45  C1  UNL     1      -4.700 -41.438  30.980  1.00  0.00     0.215 C 
ENDBRANCH  41  44
ENDBRANCH   1  40
TORSDOF 12
ENDMDL
MODEL 2
REMARK VINA RESULT: -7.091563052      2.488      4.231
REMARK  12 active torsions:
REMARK  status: ('A' for Active; 'I' for Inactive)
REMARK    1  A    between atoms: O1_2  and  C2_3 
REMARK       I    between atoms: C2_3  and  N1_5 
REMARK    2  A    between atoms: N1_5  and  C3_7 
REMARK    3  A    between atoms: C4_8  and  N2_9 
REMARK    4  A    between atoms: N2_9  and  C5_11 
REMARK    5  A    between atoms: N4_18  and  C9_19 
REMARK    6  A    between atoms: C9_19  and  O3_20 
REMARK    7  A    between atoms: C9_19  and  O4_22 
REMARK    8  A    between atoms: C10_24  and  N5_25 
REMARK    9  A    between atoms: N5_25  and  N6_27 
REMARK   10  A    between atoms: C11_29  and  C12_30 
REMARK   11  A    between atoms: C13_36  and  N9_37 
REMARK   12  A    between atoms: C14_42  and  N11_43 
ROOT
HETATM    1  C3  UNL     1      -3.192 -39.289  24.152  1.00  0.00     0.126 A 
HETATM    2  C4  UNL     1      -2.561 -40.103  25.059  1.00  0.00     0.155 A 
HETATM    3  N4  UNL     1      -2.936 -41.418  25.029  1.00  0.00    -0.114 N 
HETATM    4  C10 UNL     1      -3.850 -41.911  24.186  1.00  0.00     0.706 A 
HETATM    5  N10 UNL     1      -4.475 -41.150  23.296  1.00  0.00    -0.173 N 
ATOM      6  H10 UNL     1      -5.170 -41.535  22.655  1.00  0.00     0.186 HD
HETATM    7  C14 UNL     1      -4.149 -39.854  23.281  1.00  0.00     0.145 A 
ENDROOT
BRANCH   4   8
HETATM    8  N5  UNL     1      -4.172 -43.183  24.218  1.00  0.00    -0.132 N 
ATOM      9  H5  UNL     1      -4.336 -43.623  25.123  1.00  0.00     0.205 HD
BRANCH   8  10
HETATM   10  N6  UNL     1      -4.295 -43.940  23.088  1.00  0.00    -0.295 N 
HETATM   11  C11 UNL     1      -3.363 -44.656  22.586  1.00  0.00     0.143 C 
ATOM     12  H6  UNL     1      -5.196 -43.934  22.610  1.00  0.00     0.186 HD
BRANCH  11  13
HETATM   13  C12 UNL     1      -2.050 -44.713  23.213  1.00  0.00     0.126 A 
HETATM   14  N7  UNL     1      -1.755 -45.446  24.321  1.00  0.00    -0.275 N 
HETATM   15  N8  UNL     1      -0.495 -45.266  24.607  1.00  0.00    -0.199 N 
ATOM     16  H7  UNL     1      -2.408 -46.035  24.838  1.00  0.00     0.189 HD
HETATM   17  O5  UNL     1       0.044 -44.471  23.764  1.00  0.00    -0.196 OA
ATOM     18  H8  UNL     1      -0.008 -45.699  25.392  1.00  0.00     0.216 HD
HETATM   19  C13 UNL     1      -0.882 -44.098  22.874  1.00  0.00     0.266 A 
BRANCH  19  20
HETATM   20  N9  UNL     1      -0.673 -43.223  21.784  1.00  0.00    -0.086 N 
HETATM   21  O6  UNL     1      -0.084 -43.556  20.777  1.00  0.00    -0.530 OA
HETATM   22  O7  UNL     1      -1.167 -41.934  21.882  1.00  0.00    -0.530 OA
ENDBRANCH  19  20
ENDBRANCH  11  13
ENDBRANCH   8  10
ENDBRANCH   4   8
BRANCH   3  23
HETATM   23  C9  UNL     1      -2.319 -42.363  25.936  1.00  0.00     0.391 C 
BRANCH  23  24
HETATM   24  O3  UNL     1      -2.590 -42.006  27.265  1.00  0.00    -0.354 OA
ATOM     25  H3  UNL     1      -3.091 -42.690  27.693  1.00  0.00     0.214 HD
ENDBRANCH  23  24
BRANCH  23  26
HETATM   26  O4  UNL     1      -0.960 -42.417  25.746  1.00  0.00    -0.354 OA
ATOM     27  H4  UNL     1      -0.517 -42.738  26.523  1.00  0.00     0.214 HD
ENDBRANCH  23  26
ENDBRANCH   3  23
BRANCH   2  28
HETATM   28  N2  UNL     1      -1.544 -39.688  25.940  1.00  0.00    -0.367 N 
ATOM     29  H2  UNL     1      -0.622 -40.055  25.705  1.00  0.00     0.161 HD
BRANCH  28  30
HETATM   30  C5  UNL     1      -1.552 -38.866  27.081  1.00  0.00     0.110 C 
HETATM   31  C6  UNL     1      -0.532 -39.470  28.095  1.00  0.00     0.054 C 
HETATM   32  C7  UNL     1      -0.300 -38.252  28.962  1.00  0.00     0.234 C 
HETATM   33  N3  UNL     1      -0.050 -37.238  27.985  1.00  0.00    -0.073 N 
HETATM   34  C8  UNL     1      -0.916 -37.502  26.859  1.00  0.00     0.257 C 
ATOM     35  H32 UNL     1      -0.155 -36.294  28.356  1.00  0.00     0.277 HD
ATOM     36  H31 UNL     1       0.933 -37.170  27.724  1.00  0.00     0.277 HD
ENDBRANCH  28  30
ENDBRANCH   2  28
BRANCH   7  37
HETATM   37  N11 UNL     1      -4.742 -39.096  22.425  1.00  0.00    -0.383 N 
ATOM     38 2H11 UNL     1      -5.733 -38.899  22.572  1.00  0.00     0.157 HD
ATOM     39 1H11 UNL     1      -4.210 -38.723  21.640  1.00  0.00     0.157 HD
ENDBRANCH   7  37
BRANCH   1  40
HETATM   40  N1  UNL     1      -2.999 -37.885  24.055  1.00  0.00    -0.296 N 
HETATM   41  C2  UNL     1      -3.726 -36.999  24.890  1.00  0.00     0.364 C 
HETATM   42  O2  UNL     1      -4.553 -37.454  25.726  1.00  0.00    -0.238 OA
ATOM     43  H1  UNL     1      -2.332 -37.511  23.380  1.00  0.00     0.171 HD
BRANCH  41  44
HETATM   44  O1  UNL     1      -3.579 -35.621  24.839  1.00  0.00    -0.309 OA
HETATM   45  C1  UNL     1      -2.633 -34.988  23.995  1.00  0.00     0.215 C 
ENDBRANCH  41  44
ENDBRANCH   1  40
TORSDOF 12
ENDMDL
MODEL 3
REMARK VINA RESULT: -6.941855187      1.393      1.668
REMARK  12 active torsions:
REMARK  status: ('A' for Active; 'I' for Inactive)
REMARK    1  A    between atoms: O1_2  and  C2_3 
REMARK       I    between atoms: C2_3  and  N1_5 
REMARK    2  A    between atoms: N1_5  and  C3_7 
REMARK    3  A    between atoms: C4_8  and  N2_9 
REMARK    4  A    between atoms: N2_9  and  C5_11 
REMARK    5  A    between atoms: N4_18  and  C9_19 
REMARK    6  A    between atoms: C9_19  and  O3_20 
REMARK    7  A    between atoms: C9_19  and  O4_22 
REMARK    8  A    between atoms: C10_24  and  N5_25 
REMARK    9  A    between atoms: N5_25  and  N6_27 
REMARK   10  A    between atoms: C11_29  and  C12_30 
REMARK   11  A    between atoms: C13_36  and  N9_37 
REMARK   12  A    between atoms: C14_42  and  N11_43 
ROOT
HETATM    1  C3  UNL     1      -3.577 -41.849  26.867  1.00  0.00     0.126 A 
HETATM    2  C4  UNL     1      -3.645 -41.009  25.783  1.00  0.00     0.155 A 
HETATM    3  N4  UNL     1      -3.597 -41.621  24.560  1.00  0.00    -0.114 N 
HETATM    4  C10 UNL     1      -3.494 -42.944  24.395  1.00  0.00     0.706 A 
HETATM    5  N10 UNL     1      -3.429 -43.782  25.423  1.00  0.00    -0.173 N 
ATOM      6  H10 UNL     1      -3.352 -44.791  25.288  1.00  0.00     0.186 HD
HETATM    7  C14 UNL     1      -3.469 -43.239  26.643  1.00  0.00     0.145 A 
ENDROOT
BRANCH   4   8
HETATM    8  N5  UNL     1      -3.442 -43.465  23.192  1.00  0.00    -0.132 N 
ATOM      9  H5  UNL     1      -3.594 -42.857  22.388  1.00  0.00     0.205 HD
BRANCH   8  10
HETATM   10  N6  UNL     1      -3.192 -44.791  22.974  1.00  0.00    -0.295 N 
HETATM   11  C11 UNL     1      -2.317 -45.241  22.159  1.00  0.00     0.143 C 
ATOM     12  H6  UNL     1      -3.744 -45.469  23.499  1.00  0.00     0.186 HD
BRANCH  11  13
HETATM   13  C12 UNL     1      -1.493 -44.333  21.374  1.00  0.00     0.126 A 
HETATM   14  N7  UNL     1      -1.647 -44.108  20.042  1.00  0.00    -0.275 N 
HETATM   15  N8  UNL     1      -0.746 -43.242  19.666  1.00  0.00    -0.199 N 
ATOM     16  H7  UNL     1      -2.348 -44.542  19.440  1.00  0.00     0.189 HD
HETATM   17  O5  UNL     1      -0.022 -42.893  20.660  1.00  0.00    -0.196 OA
ATOM     18  H8  UNL     1      -0.634 -42.894  18.714  1.00  0.00     0.216 HD
HETATM   19  C13 UNL     1      -0.447 -43.544  21.749  1.00  0.00     0.266 A 
BRANCH  19  20
HETATM   20  N9  UNL     1       0.100 -43.424  23.046  1.00  0.00    -0.086 N 
HETATM   21  O6  UNL     1      -0.536 -43.009  23.993  1.00  0.00    -0.530 OA
HETATM   22  O7  UNL     1       1.418 -43.800  23.233  1.00  0.00    -0.530 OA
ENDBRANCH  19  20
ENDBRANCH  11  13
ENDBRANCH   8  10
ENDBRANCH   4   8
BRANCH   3  23
HETATM   23  C9  UNL     1      -3.677 -40.825  23.354  1.00  0.00     0.391 C 
BRANCH  23  24
HETATM   24  O3  UNL     1      -4.859 -41.118  22.657  1.00  0.00    -0.354 OA
ATOM     25  H3  UNL     1      -4.881 -42.038  22.420  1.00  0.00     0.214 HD
ENDBRANCH  23  24
BRANCH  23  26
HETATM   26  O4  UNL     1      -2.597 -41.052  22.537  1.00  0.00    -0.354 OA
ATOM     27  H4  UNL     1      -1.797 -40.716  22.923  1.00  0.00     0.214 HD
ENDBRANCH  23  26
ENDBRANCH   3  23
BRANCH   2  28
HETATM   28  N2  UNL     1      -3.818 -39.613  25.858  1.00  0.00    -0.367 N 
ATOM     29  H2  UNL     1      -4.769 -39.306  25.656  1.00  0.00     0.161 HD
BRANCH  28  30
HETATM   30  C5  UNL     1      -2.935 -38.561  26.157  1.00  0.00     0.110 C 
HETATM   31  C6  UNL     1      -1.493 -39.058  25.831  1.00  0.00     0.054 C 
HETATM   32  C7  UNL     1      -0.794 -37.721  25.712  1.00  0.00     0.234 C 
HETATM   33  N3  UNL     1      -1.677 -37.004  24.846  1.00  0.00    -0.073 N 
HETATM   34  C8  UNL     1      -3.027 -37.389  25.190  1.00  0.00     0.257 C 
ATOM     35  H32 UNL     1      -1.532 -35.995  24.876  1.00  0.00     0.277 HD
ATOM     36  H31 UNL     1      -1.463 -37.139  23.858  1.00  0.00     0.277 HD
ENDBRANCH  28  30
ENDBRANCH   2  28
BRANCH   7  37
HETATM   37  N11 UNL     1      -3.408 -44.033  27.656  1.00  0.00    -0.383 N 
ATOM     38 2H11 UNL     1      -3.769 -43.694  28.547  1.00  0.00     0.157 HD
ATOM     39 1H11 UNL     1      -3.004 -44.961  27.533  1.00  0.00     0.157 HD
ENDBRANCH   7  37
BRANCH   1  40
HETATM   40  N1  UNL     1      -3.546 -41.420  28.220  1.00  0.00    -0.296 N 
HETATM   41  C2  UNL     1      -4.730 -40.977  28.863  1.00  0.00     0.364 C 
HETATM   42  O2  UNL     1      -5.822 -40.959  28.233  1.00  0.00    -0.238 OA
ATOM     43  H1  UNL     1      -2.665 -41.431  28.735  1.00  0.00     0.171 HD
BRANCH  41  44
HETATM   44  O1  UNL     1      -4.759 -40.548  30.181  1.00  0.00    -0.309 OA
HETATM   45  C1  UNL     1      -4.723 -41.448  31.275  1.00  0.00     0.215 C 
ENDBRANCH  41  44
ENDBRANCH   1  40
TORSDOF 12
ENDMDL
MODEL 4
REMARK VINA RESULT: -6.933694554      1.848      2.064
REMARK  12 active torsions:
REMARK  status: ('A' for Active; 'I' for Inactive)
REMARK    1  A    between atoms: O1_2  and  C2_3 
REMARK       I    between atoms: C2_3  and  N1_5 
REMARK    2  A    between atoms: N1_5  and  C3_7 
REMARK    3  A    between atoms: C4_8  and  N2_9 
REMARK    4  A    between atoms: N2_9  and  C5_11 
REMARK    5  A    between atoms: N4_18  and  C9_19 
REMARK    6  A    between atoms: C9_19  and  O3_20 
REMARK    7  A    between atoms: C9_19  and  O4_22 
REMARK    8  A    between atoms: C10_24  and  N5_25 
REMARK    9  A    between atoms: N5_25  and  N6_27 
REMARK   10  A    between atoms: C11_29  and  C12_30 
REMARK   11  A    between atoms: C13_36  and  N9_37 
REMARK   12  A    between atoms: C14_42  and  N11_43 
ROOT
HETATM    1  C3  UNL     1      -2.603 -41.502  26.727  1.00  0.00     0.126 A 
HETATM    2  C4  UNL     1      -2.681 -40.739  25.588  1.00  0.00     0.155 A 
HETATM    3  N4  UNL     1      -2.965 -41.425  24.439  1.00  0.00    -0.114 N 
HETATM    4  C10 UNL     1      -3.160 -42.747  24.392  1.00  0.00     0.706 A 
HETATM    5  N10 UNL     1      -3.093 -43.511  25.475  1.00  0.00    -0.173 N 
ATOM      6  H10 UNL     1      -3.246 -44.519  25.430  1.00  0.00     0.186 HD
HETATM    7  C14 UNL     1      -2.818 -42.894  26.628  1.00  0.00     0.145 A 
ENDROOT
BRANCH   4   8
HETATM    8  N5  UNL     1      -3.417 -43.344  23.252  1.00  0.00    -0.132 N 
ATOM      9  H5  UNL     1      -3.612 -42.770  22.432  1.00  0.00     0.205 HD
BRANCH   8  10
HETATM   10  N6  UNL     1      -3.435 -44.704  23.120  1.00  0.00    -0.295 N 
HETATM   11  C11 UNL     1      -2.656 -45.371  22.358  1.00  0.00     0.143 C 
ATOM     12  H6  UNL     1      -4.119 -45.223  23.669  1.00  0.00     0.186 HD
BRANCH  11  13
HETATM   13  C12 UNL     1      -1.655 -44.696  21.543  1.00  0.00     0.126 A 
HETATM   14  N7  UNL     1      -1.781 -44.452  20.211  1.00  0.00    -0.275 N 
HETATM   15  N8  UNL     1      -0.706 -43.835  19.804  1.00  0.00    -0.199 N 
ATOM     16  H7  UNL     1      -2.581 -44.707  19.630  1.00  0.00     0.189 HD
HETATM   17  O5  UNL     1       0.105 -43.664  20.777  1.00  0.00    -0.196 OA
ATOM     18  H8  UNL     1      -0.536 -43.531  18.845  1.00  0.00     0.216 HD
HETATM   19  C13 UNL     1      -0.439 -44.183  21.884  1.00  0.00     0.266 A 
BRANCH  19  20
HETATM   20  N9  UNL     1       0.152 -44.190  23.167  1.00  0.00    -0.086 N 
HETATM   21  O6  UNL     1      -0.426 -44.592  24.156  1.00  0.00    -0.530 OA
HETATM   22  O7  UNL     1       1.446 -43.716  23.290  1.00  0.00    -0.530 OA
ENDBRANCH  19  20
ENDBRANCH  11  13
ENDBRANCH   8  10
ENDBRANCH   4   8
BRANCH   3  23
HETATM   23  C9  UNL     1      -3.083 -40.710  23.186  1.00  0.00     0.391 C 
BRANCH  23  24
HETATM   24  O3  UNL     1      -4.403 -40.774  22.714  1.00  0.00    -0.354 OA
ATOM     25  H3  UNL     1      -4.476 -40.326  21.879  1.00  0.00     0.214 HD
ENDBRANCH  23  24
BRANCH  23  26
HETATM   26  O4  UNL     1      -2.235 -41.227  22.237  1.00  0.00    -0.354 OA
ATOM     27  H4  UNL     1      -2.394 -40.837  21.386  1.00  0.00     0.214 HD
ENDBRANCH  23  26
ENDBRANCH   3  23
BRANCH   2  28
HETATM   28  N2  UNL     1      -2.553 -39.337  25.550  1.00  0.00    -0.367 N 
ATOM     29  H2  UNL     1      -1.619 -39.017  25.297  1.00  0.00     0.161 HD
BRANCH  28  30
HETATM   30  C5  UNL     1      -3.463 -38.293  25.793  1.00  0.00     0.110 C 
HETATM   31  C6  UNL     1      -3.423 -37.345  24.555  1.00  0.00     0.054 C 
HETATM   32  C7  UNL     1      -4.748 -36.639  24.745  1.00  0.00     0.234 C 
HETATM   33  N3  UNL     1      -5.637 -37.737  24.965  1.00  0.00    -0.073 N 
HETATM   34  C8  UNL     1      -4.921 -38.725  25.739  1.00  0.00     0.257 C 
ATOM     35  H32 UNL     1      -6.518 -37.456  25.395  1.00  0.00     0.277 HD
ATOM     36  H31 UNL     1      -6.026 -38.113  24.100  1.00  0.00     0.277 HD
ENDBRANCH  28  30
ENDBRANCH   2  28
BRANCH   7  37
HETATM   37  N11 UNL     1      -2.749 -43.616  27.693  1.00  0.00    -0.383 N 
ATOM     38 2H11 UNL     1      -2.199 -43.257  28.474  1.00  0.00     0.157 HD
ATOM     39 1H11 UNL     1      -3.238 -44.509  27.718  1.00  0.00     0.157 HD
ENDBRANCH   7  37
BRANCH   1  40
HETATM   40  N1  UNL     1      -2.260 -41.004  28.012  1.00  0.00    -0.296 N 
HETATM   41  C2  UNL     1      -0.902 -40.802  28.367  1.00  0.00     0.364 C 
HETATM   42  O2  UNL     1       0.013 -41.067  27.541  1.00  0.00    -0.238 OA
ATOM     43  H1  UNL     1      -2.996 -40.789  28.685  1.00  0.00     0.171 HD
BRANCH  41  44
HETATM   44  O1  UNL     1      -0.509 -40.319  29.605  1.00  0.00    -0.309 OA
HETATM   45  C1  UNL     1       0.492 -39.326  29.752  1.00  0.00     0.215 C 
ENDBRANCH  41  44
ENDBRANCH   1  40
TORSDOF 12
ENDMDL
MODEL 5
REMARK VINA RESULT: -6.870106513      2.649      6.654
REMARK  12 active torsions:
REMARK  status: ('A' for Active; 'I' for Inactive)
REMARK    1  A    between atoms: O1_2  and  C2_3 
REMARK       I    between atoms: C2_3  and  N1_5 
REMARK    2  A    between atoms: N1_5  and  C3_7 
REMARK    3  A    between atoms: C4_8  and  N2_9 
REMARK    4  A    between atoms: N2_9  and  C5_11 
REMARK    5  A    between atoms: N4_18  and  C9_19 
REMARK    6  A    between atoms: C9_19  and  O3_20 
REMARK    7  A    between atoms: C9_19  and  O4_22 
REMARK    8  A    between atoms: C10_24  and  N5_25 
REMARK    9  A    between atoms: N5_25  and  N6_27 
REMARK   10  A    between atoms: C11_29  and  C12_30 
REMARK   11  A    between atoms: C13_36  and  N9_37 
REMARK   12  A    between atoms: C14_42  and  N11_43 
ROOT
HETATM    1  C3  UNL     1      -4.959 -44.197  24.473  1.00  0.00     0.126 A 
HETATM    2  C4  UNL     1      -4.204 -43.355  23.694  1.00  0.00     0.155 A 
HETATM    3  N4  UNL     1      -4.234 -42.036  24.054  1.00  0.00    -0.114 N 
HETATM    4  C10 UNL     1      -4.938 -41.563  25.088  1.00  0.00     0.706 A 
HETATM    5  N10 UNL     1      -5.675 -42.351  25.861  1.00  0.00    -0.173 N 
ATOM      6  H10 UNL     1      -6.208 -41.982  26.649  1.00  0.00     0.186 HD
HETATM    7  C14 UNL     1      -5.685 -43.652  25.555  1.00  0.00     0.145 A 
ENDROOT
BRANCH   4   8
HETATM    8  N5  UNL     1      -4.932 -40.282  25.371  1.00  0.00    -0.132 N 
ATOM      9  H5  UNL     1      -4.963 -39.611  24.603  1.00  0.00     0.205 HD
BRANCH   8  10
HETATM   10  N6  UNL     1      -4.884 -39.811  26.652  1.00  0.00    -0.295 N 
HETATM   11  C11 UNL     1      -4.107 -38.880  27.056  1.00  0.00     0.143 C 
ATOM     12  H6  UNL     1      -5.512 -40.233  27.335  1.00  0.00     0.186 HD
BRANCH  11  13
HETATM   13  C12 UNL     1      -3.181 -38.232  26.138  1.00  0.00     0.126 A 
HETATM   14  N7  UNL     1      -1.833 -38.410  26.148  1.00  0.00    -0.275 N 
HETATM   15  N8  UNL     1      -1.317 -37.682  25.195  1.00  0.00    -0.199 N 
ATOM     16  H7  UNL     1      -1.315 -39.010  26.790  1.00  0.00     0.189 HD
HETATM   17  O5  UNL     1      -2.235 -37.048  24.572  1.00  0.00    -0.196 OA
ATOM     18  H8  UNL     1      -0.322 -37.628  24.979  1.00  0.00     0.216 HD
HETATM   19  C13 UNL     1      -3.416 -37.356  25.120  1.00  0.00     0.266 A 
BRANCH  19  20
HETATM   20  N9  UNL     1      -4.671 -36.855  24.708  1.00  0.00    -0.086 N 
HETATM   21  O6  UNL     1      -5.261 -37.279  23.735  1.00  0.00    -0.530 OA
HETATM   22  O7  UNL     1      -5.242 -35.840  25.453  1.00  0.00    -0.530 OA
ENDBRANCH  19  20
ENDBRANCH  11  13
ENDBRANCH   8  10
ENDBRANCH   4   8
BRANCH   3  23
HETATM   23  C9  UNL     1      -3.459 -41.069  23.305  1.00  0.00     0.391 C 
BRANCH  23  24
HETATM   24  O3  UNL     1      -2.441 -40.535  24.109  1.00  0.00    -0.354 OA
ATOM     25  H3  UNL     1      -2.077 -41.210  24.670  1.00  0.00     0.214 HD
ENDBRANCH  23  24
BRANCH  23  26
HETATM   26  O4  UNL     1      -4.254 -40.050  22.840  1.00  0.00    -0.354 OA
ATOM     27  H4  UNL     1      -3.797 -39.217  22.869  1.00  0.00     0.214 HD
ENDBRANCH  23  26
ENDBRANCH   3  23
BRANCH   2  28
HETATM   28  N2  UNL     1      -3.383 -43.769  22.627  1.00  0.00    -0.367 N 
ATOM     29  H2  UNL     1      -3.723 -43.479  21.711  1.00  0.00     0.161 HD
BRANCH  28  30
HETATM   30  C5  UNL     1      -2.185 -44.504  22.579  1.00  0.00     0.110 C 
HETATM   31  C6  UNL     1      -1.254 -43.805  21.541  1.00  0.00     0.054 C 
HETATM   32  C7  UNL     1       0.077 -44.372  21.987  1.00  0.00     0.234 C 
HETATM   33  N3  UNL     1       0.035 -44.148  23.398  1.00  0.00    -0.073 N 
HETATM   34  C8  UNL     1      -1.328 -44.362  23.829  1.00  0.00     0.257 C 
ATOM     35  H32 UNL     1       0.709 -44.715  23.912  1.00  0.00     0.277 HD
ATOM     36  H31 UNL     1       0.398 -43.234  23.667  1.00  0.00     0.277 HD
ENDBRANCH  28  30
ENDBRANCH   2  28
BRANCH   7  37
HETATM   37  N11 UNL     1      -6.393 -44.436  26.292  1.00  0.00    -0.383 N 
ATOM     38 2H11 UNL     1      -6.430 -44.243  27.292  1.00  0.00     0.157 HD
ATOM     39 1H11 UNL     1      -6.886 -45.214  25.855  1.00  0.00     0.157 HD
ENDBRANCH   7  37
BRANCH   1  40
HETATM   40  N1  UNL     1      -5.119 -45.588  24.239  1.00  0.00    -0.296 N 
HETATM   41  C2  UNL     1      -6.066 -46.055  23.293  1.00  0.00     0.364 C 
HETATM   42  O2  UNL     1      -6.775 -45.235  22.651  1.00  0.00    -0.238 OA
ATOM     43  H1  UNL     1      -4.548 -46.257  24.757  1.00  0.00     0.171 HD
BRANCH  41  44
HETATM   44  O1  UNL     1      -6.264 -47.401  23.024  1.00  0.00    -0.309 OA
HETATM   45  C1  UNL     1      -5.869 -48.423  23.923  1.00  0.00     0.215 C 
ENDBRANCH  41  44
ENDBRANCH   1  40
TORSDOF 12
ENDMDL
