MODEL 1
REMARK VINA RESULT: -6.915058411      0.000      0.000
REMARK  8 active torsions:
REMARK  status: ('A' for Active; 'I' for Inactive)
REMARK    1  A    between atoms: C3_3  and  O1_4 
REMARK    2  A    between atoms: C3_3  and  C4_6 
REMARK    3  A    between atoms: C5_7  and  C6_8 
REMARK    4  A    between atoms: C6_8  and  O3_10 
REMARK    5  A    between atoms: O3_10  and  C7_11 
REMARK    6  A    between atoms: C7_11  and  C8_12 
REMARK    7  A    between atoms: C10_15  and  C11_16 
REMARK    8  A    between atoms: C11_16  and  O5_17 
ROOT
HETATM    1  C1  UNL     1      -6.834   0.819  17.366  1.00  0.00     0.100 C 
HETATM    2  C2  UNL     1      -5.771   1.259  16.959  1.00  0.00    -0.152 C 
HETATM    3  C3  UNL     1      -4.481   1.770  16.485  1.00  0.00     0.207 C 
ENDROOT
BRANCH   3   4
HETATM    4  O1  UNL     1      -3.620   0.717  16.249  1.00  0.00    -0.381 OA
ATOM      5  H1  UNL     1      -2.725   0.992  16.409  1.00  0.00     0.211 HD
ENDBRANCH   3   4
BRANCH   3   6
HETATM    6  C4  UNL     1      -4.663   2.605  15.251  1.00  0.00     0.022 C 
HETATM    7  C5  UNL     1      -5.726   3.379  15.154  1.00  0.00     0.081 C 
BRANCH   7   8
HETATM    8  C6  UNL     1      -5.920   4.192  13.969  1.00  0.00     0.282 C 
HETATM    9  O2  UNL     1      -6.573   5.258  14.081  1.00  0.00    -0.260 OA
BRANCH   8  10
HETATM   10  O3  UNL     1      -5.442   3.886  12.721  1.00  0.00    -0.313 OA
BRANCH  10  11
HETATM   11  C7  UNL     1      -4.296   4.377  12.119  1.00  0.00     0.239 C 
BRANCH  11  12
HETATM   12  C8  UNL     1      -3.753   3.535  11.001  1.00  0.00     0.284 C 
HETATM   13  O4  UNL     1      -2.637   2.812  11.345  1.00  0.00    -0.356 OA
HETATM   14  C9  UNL     1      -3.063   1.650  11.988  1.00  0.00     0.205 C 
HETATM   15  C10 UNL     1      -4.497   1.517  11.576  1.00  0.00     0.172 C 
HETATM   16  O6  UNL     1      -4.745   2.567  10.713  1.00  0.00    -0.350 OA
BRANCH  15  17
HETATM   17  C11 UNL     1      -4.758   0.194  10.879  1.00  0.00     0.198 C 
BRANCH  17  18
HETATM   18  O5  UNL     1      -4.736   0.383   9.501  1.00  0.00    -0.398 OA
ATOM     19  H5  UNL     1      -4.439  -0.413   9.076  1.00  0.00     0.209 HD
ENDBRANCH  17  18
ENDBRANCH  15  17
ENDBRANCH  11  12
ENDBRANCH  10  11
ENDBRANCH   8  10
ENDBRANCH   7   8
ENDBRANCH   3   6
TORSDOF 8
ENDMDL
MODEL 2
REMARK VINA RESULT: -6.822745477      2.220      3.320
REMARK  8 active torsions:
REMARK  status: ('A' for Active; 'I' for Inactive)
REMARK    1  A    between atoms: C3_3  and  O1_4 
REMARK    2  A    between atoms: C3_3  and  C4_6 
REMARK    3  A    between atoms: C5_7  and  C6_8 
REMARK    4  A    between atoms: C6_8  and  O3_10 
REMARK    5  A    between atoms: O3_10  and  C7_11 
REMARK    6  A    between atoms: C7_11  and  C8_12 
REMARK    7  A    between atoms: C10_15  and  C11_16 
REMARK    8  A    between atoms: C11_16  and  O5_17 
ROOT
HETATM    1  C1  UNL     1      -6.941   2.740  16.896  1.00  0.00     0.100 C 
HETATM    2  C2  UNL     1      -6.127   1.831  16.910  1.00  0.00    -0.152 C 
HETATM    3  C3  UNL     1      -5.158   0.731  16.948  1.00  0.00     0.207 C 
ENDROOT
BRANCH   3   4
HETATM    4  O1  UNL     1      -5.760  -0.402  17.455  1.00  0.00    -0.381 OA
ATOM      5  H1  UNL     1      -5.206  -1.158  17.297  1.00  0.00     0.211 HD
ENDBRANCH   3   4
BRANCH   3   6
HETATM    6  C4  UNL     1      -4.591   0.476  15.582  1.00  0.00     0.022 C 
HETATM    7  C5  UNL     1      -4.627   1.441  14.684  1.00  0.00     0.081 C 
BRANCH   7   8
HETATM    8  C6  UNL     1      -4.085   1.214  13.358  1.00  0.00     0.282 C 
HETATM    9  O2  UNL     1      -4.467   0.200  12.726  1.00  0.00    -0.260 OA
BRANCH   8  10
HETATM   10  O3  UNL     1      -3.176   2.028  12.733  1.00  0.00    -0.313 OA
BRANCH  10  11
HETATM   11  C7  UNL     1      -3.431   3.226  12.087  1.00  0.00     0.239 C 
BRANCH  11  12
HETATM   12  C8  UNL     1      -3.941   3.096  10.681  1.00  0.00     0.284 C 
HETATM   13  O4  UNL     1      -4.846   4.068  10.330  1.00  0.00    -0.356 OA
HETATM   14  C9  UNL     1      -4.129   5.200   9.946  1.00  0.00     0.205 C 
HETATM   15  C10 UNL     1      -2.760   4.673   9.644  1.00  0.00     0.172 C 
HETATM   16  O6  UNL     1      -2.828   3.306   9.831  1.00  0.00    -0.350 OA
BRANCH  15  17
HETATM   17  C11 UNL     1      -2.343   4.984   8.217  1.00  0.00     0.198 C 
BRANCH  17  18
HETATM   18  O5  UNL     1      -3.425   4.794   7.365  1.00  0.00    -0.398 OA
ATOM     19  H5  UNL     1      -4.129   5.384   7.610  1.00  0.00     0.209 HD
ENDBRANCH  17  18
ENDBRANCH  15  17
ENDBRANCH  11  12
ENDBRANCH  10  11
ENDBRANCH   8  10
ENDBRANCH   7   8
ENDBRANCH   3   6
TORSDOF 8
ENDMDL
MODEL 3
REMARK VINA RESULT: -6.721778117      1.767      2.912
REMARK  8 active torsions:
REMARK  status: ('A' for Active; 'I' for Inactive)
REMARK    1  A    between atoms: C3_3  and  O1_4 
REMARK    2  A    between atoms: C3_3  and  C4_6 
REMARK    3  A    between atoms: C5_7  and  C6_8 
REMARK    4  A    between atoms: C6_8  and  O3_10 
REMARK    5  A    between atoms: O3_10  and  C7_11 
REMARK    6  A    between atoms: C7_11  and  C8_12 
REMARK    7  A    between atoms: C10_15  and  C11_16 
REMARK    8  A    between atoms: C11_16  and  O5_17 
ROOT
HETATM    1  C1  UNL     1      -6.839   0.949  17.413  1.00  0.00     0.100 C 
HETATM    2  C2  UNL     1      -5.763   1.326  16.977  1.00  0.00    -0.152 C 
HETATM    3  C3  UNL     1      -4.458   1.763  16.469  1.00  0.00     0.207 C 
ENDROOT
BRANCH   3   4
HETATM    4  O1  UNL     1      -3.608   0.681  16.375  1.00  0.00    -0.381 OA
ATOM      5  H1  UNL     1      -3.090   0.610  17.169  1.00  0.00     0.211 HD
ENDBRANCH   3   4
BRANCH   3   6
HETATM    6  C4  UNL     1      -4.608   2.449  15.142  1.00  0.00     0.022 C 
HETATM    7  C5  UNL     1      -5.668   3.204  14.929  1.00  0.00     0.081 C 
BRANCH   7   8
HETATM    8  C6  UNL     1      -5.831   3.874  13.653  1.00  0.00     0.282 C 
HETATM    9  O2  UNL     1      -6.624   4.845  13.589  1.00  0.00    -0.260 OA
BRANCH   8  10
HETATM   10  O3  UNL     1      -5.181   3.527  12.496  1.00  0.00    -0.313 OA
BRANCH  10  11
HETATM   11  C7  UNL     1      -3.974   4.023  12.033  1.00  0.00     0.239 C 
BRANCH  11  12
HETATM   12  C8  UNL     1      -3.036   2.994  11.473  1.00  0.00     0.284 C 
HETATM   13  O4  UNL     1      -2.731   3.188  10.147  1.00  0.00    -0.356 OA
HETATM   14  C9  UNL     1      -1.709   4.133  10.077  1.00  0.00     0.205 C 
HETATM   15  C10 UNL     1      -1.117   4.124  11.453  1.00  0.00     0.172 C 
HETATM   16  O6  UNL     1      -1.808   3.159  12.159  1.00  0.00    -0.350 OA
BRANCH  15  17
HETATM   17  C11 UNL     1       0.364   3.790  11.422  1.00  0.00     0.198 C 
BRANCH  17  18
HETATM   18  O5  UNL     1       1.077   4.777  12.094  1.00  0.00    -0.398 OA
ATOM     19  H5  UNL     1       0.815   5.632  11.772  1.00  0.00     0.209 HD
ENDBRANCH  17  18
ENDBRANCH  15  17
ENDBRANCH  11  12
ENDBRANCH  10  11
ENDBRANCH   8  10
ENDBRANCH   7   8
ENDBRANCH   3   6
TORSDOF 8
ENDMDL
MODEL 4
REMARK VINA RESULT: -6.677398350      1.543      2.062
REMARK  8 active torsions:
REMARK  status: ('A' for Active; 'I' for Inactive)
REMARK    1  A    between atoms: C3_3  and  O1_4 
REMARK    2  A    between atoms: C3_3  and  C4_6 
REMARK    3  A    between atoms: C5_7  and  C6_8 
REMARK    4  A    between atoms: C6_8  and  O3_10 
REMARK    5  A    between atoms: O3_10  and  C7_11 
REMARK    6  A    between atoms: C7_11  and  C8_12 
REMARK    7  A    between atoms: C10_15  and  C11_16 
REMARK    8  A    between atoms: C11_16  and  O5_17 
ROOT
HETATM    1  C1  UNL     1      -7.415   1.298  17.054  1.00  0.00     0.100 C 
HETATM    2  C2  UNL     1      -6.257   1.002  16.807  1.00  0.00    -0.152 C 
HETATM    3  C3  UNL     1      -4.873   0.621  16.507  1.00  0.00     0.207 C 
ENDROOT
BRANCH   3   4
HETATM    4  O1  UNL     1      -4.855  -0.303  15.483  1.00  0.00    -0.381 OA
ATOM      5  H1  UNL     1      -4.497  -1.125  15.798  1.00  0.00     0.211 HD
ENDBRANCH   3   4
BRANCH   3   6
HETATM    6  C4  UNL     1      -4.054   1.829  16.158  1.00  0.00     0.022 C 
HETATM    7  C5  UNL     1      -4.506   2.667  15.245  1.00  0.00     0.081 C 
BRANCH   7   8
HETATM    8  C6  UNL     1      -3.729   3.840  14.894  1.00  0.00     0.282 C 
HETATM    9  O2  UNL     1      -2.534   3.896  15.273  1.00  0.00    -0.260 OA
BRANCH   8  10
HETATM   10  O3  UNL     1      -4.201   4.906  14.172  1.00  0.00    -0.313 OA
BRANCH  10  11
HETATM   11  C7  UNL     1      -3.681   5.417  12.996  1.00  0.00     0.239 C 
BRANCH  11  12
HETATM   12  C8  UNL     1      -4.468   5.098  11.758  1.00  0.00     0.284 C 
HETATM   13  O4  UNL     1      -3.717   5.107  10.608  1.00  0.00    -0.356 OA
HETATM   14  C9  UNL     1      -3.083   3.869  10.503  1.00  0.00     0.205 C 
HETATM   15  C10 UNL     1      -3.881   2.979  11.406  1.00  0.00     0.172 C 
HETATM   16  O6  UNL     1      -4.908   3.760  11.900  1.00  0.00    -0.350 OA
BRANCH  15  17
HETATM   17  C11 UNL     1      -4.445   1.784  10.658  1.00  0.00     0.198 C 
BRANCH  17  18
HETATM   18  O5  UNL     1      -5.781   1.611  11.002  1.00  0.00    -0.398 OA
ATOM     19  H5  UNL     1      -5.840   1.291  11.895  1.00  0.00     0.209 HD
ENDBRANCH  17  18
ENDBRANCH  15  17
ENDBRANCH  11  12
ENDBRANCH  10  11
ENDBRANCH   8  10
ENDBRANCH   7   8
ENDBRANCH   3   6
TORSDOF 8
ENDMDL
MODEL 5
REMARK VINA RESULT: -6.667216446      1.707      3.652
REMARK  8 active torsions:
REMARK  status: ('A' for Active; 'I' for Inactive)
REMARK    1  A    between atoms: C3_3  and  O1_4 
REMARK    2  A    between atoms: C3_3  and  C4_6 
REMARK    3  A    between atoms: C5_7  and  C6_8 
REMARK    4  A    between atoms: C6_8  and  O3_10 
REMARK    5  A    between atoms: O3_10  and  C7_11 
REMARK    6  A    between atoms: C7_11  and  C8_12 
REMARK    7  A    between atoms: C10_15  and  C11_16 
REMARK    8  A    between atoms: C11_16  and  O5_17 
ROOT
HETATM    1  C1  UNL     1      -6.479   5.454  14.027  1.00  0.00     0.100 C 
HETATM    2  C2  UNL     1      -6.246   4.637  14.904  1.00  0.00    -0.152 C 
HETATM    3  C3  UNL     1      -5.974   3.672  15.974  1.00  0.00     0.207 C 
ENDROOT
BRANCH   3   4
HETATM    4  O1  UNL     1      -6.963   3.748  16.933  1.00  0.00    -0.381 OA
ATOM      5  H1  UNL     1      -7.341   2.889  17.073  1.00  0.00     0.211 HD
ENDBRANCH   3   4
BRANCH   3   6
HETATM    6  C4  UNL     1      -5.866   2.282  15.419  1.00  0.00     0.022 C 
HETATM    7  C5  UNL     1      -4.673   1.798  15.133  1.00  0.00     0.081 C 
BRANCH   7   8
HETATM    8  C6  UNL     1      -4.547   0.457  14.595  1.00  0.00     0.282 C 
HETATM    9  O2  UNL     1      -4.453  -0.500  15.401  1.00  0.00    -0.260 OA
BRANCH   8  10
HETATM   10  O3  UNL     1      -4.524   0.147  13.260  1.00  0.00    -0.313 OA
BRANCH  10  11
HETATM   11  C7  UNL     1      -3.738   0.727  12.279  1.00  0.00     0.239 C 
BRANCH  11  12
HETATM   12  C8  UNL     1      -4.482   1.549  11.268  1.00  0.00     0.284 C 
HETATM   13  O4  UNL     1      -5.122   2.640  11.806  1.00  0.00    -0.356 OA
HETATM   14  C9  UNL     1      -4.187   3.666  11.926  1.00  0.00     0.205 C 
HETATM   15  C10 UNL     1      -3.088   3.263  10.992  1.00  0.00     0.172 C 
HETATM   16  O6  UNL     1      -3.506   2.089  10.396  1.00  0.00    -0.350 OA
BRANCH  15  17
HETATM   17  C11 UNL     1      -2.834   4.324   9.936  1.00  0.00     0.198 C 
BRANCH  17  18
HETATM   18  O5  UNL     1      -3.868   4.311   9.007  1.00  0.00    -0.398 OA
ATOM     19  H5  UNL     1      -3.536   4.580   8.158  1.00  0.00     0.209 HD
ENDBRANCH  17  18
ENDBRANCH  15  17
ENDBRANCH  11  12
ENDBRANCH  10  11
ENDBRANCH   8  10
ENDBRANCH   7   8
ENDBRANCH   3   6
TORSDOF 8
ENDMDL
