MODEL 1
REMARK VINA RESULT: -6.240252189      0.000      0.000
REMARK  6 active torsions:
REMARK  status: ('A' for Active; 'I' for Inactive)
REMARK    1  A    between atoms: O1_2  and  C2_3 
REMARK    2  A    between atoms: C2_3  and  C3_4 
REMARK    3  A    between atoms: C4_6  and  C5_7 
REMARK    4  A    between atoms: C6_8  and  C7_9 
REMARK    5  A    between atoms: C9_13  and  O5_14 
REMARK    6  A    between atoms: C10_16  and  O6_17 
ROOT
HETATM    1  C3  UNL     1      -4.189   3.230  12.239  1.00  0.00     0.177 C 
HETATM    2  O2  UNL     1      -4.673   2.467  13.313  1.00  0.00    -0.372 OA
HETATM    3  C4  UNL     1      -4.854   3.352  14.371  1.00  0.00     0.147 C 
HETATM    4  C8  UNL     1      -3.639   4.097  14.783  1.00  0.00     0.070 C 
HETATM    5  C9  UNL     1      -2.756   4.552  13.663  1.00  0.00     0.152 C 
HETATM    6  C10 UNL     1      -2.733   3.484  12.564  1.00  0.00     0.180 C 
ENDROOT
BRANCH   3   7
HETATM    7  C5  UNL     1      -5.467   2.695  15.550  1.00  0.00     0.011 C 
HETATM    8  C6  UNL     1      -5.222   1.431  15.827  1.00  0.00     0.083 C 
BRANCH   8   9
HETATM    9  C7  UNL     1      -5.792   0.734  16.964  1.00  0.00     0.198 C 
HETATM   10  O3  UNL     1      -5.173   0.497  18.021  1.00  0.00    -0.645 OA
HETATM   11  O4  UNL     1      -7.101   0.311  16.859  1.00  0.00    -0.645 OA
ENDBRANCH   8   9
ENDBRANCH   3   7
BRANCH   1  12
HETATM   12  C2  UNL     1      -4.400   2.577  10.926  1.00  0.00     0.201 C 
BRANCH  12  13
HETATM   13  O1  UNL     1      -5.317   1.544  10.988  1.00  0.00    -0.393 OA
HETATM   14  C1  UNL     1      -4.848   0.314  10.597  1.00  0.00     0.201 C 
ENDBRANCH  12  13
ENDBRANCH   1  12
BRANCH   5  15
HETATM   15  O5  UNL     1      -3.111   5.798  13.152  1.00  0.00    -0.393 OA
ATOM     16  H5  UNL     1      -3.876   5.771  12.589  1.00  0.00     0.210 HD
ENDBRANCH   5  15
BRANCH   6  17
HETATM   17  O6  UNL     1      -1.981   3.847  11.480  1.00  0.00    -0.385 OA
HETATM   18  C11 UNL     1      -0.630   3.630  11.739  1.00  0.00     0.202 C 
ENDBRANCH   6  17
TORSDOF 6
ENDMDL
MODEL 2
REMARK VINA RESULT: -6.166718414      1.465      1.691
REMARK  6 active torsions:
REMARK  status: ('A' for Active; 'I' for Inactive)
REMARK    1  A    between atoms: O1_2  and  C2_3 
REMARK    2  A    between atoms: C2_3  and  C3_4 
REMARK    3  A    between atoms: C4_6  and  C5_7 
REMARK    4  A    between atoms: C6_8  and  C7_9 
REMARK    5  A    between atoms: C9_13  and  O5_14 
REMARK    6  A    between atoms: C10_16  and  O6_17 
ROOT
HETATM    1  C3  UNL     1      -4.213   3.306  12.524  1.00  0.00     0.177 C 
HETATM    2  O2  UNL     1      -4.373   2.750  13.802  1.00  0.00    -0.372 OA
HETATM    3  C4  UNL     1      -5.575   3.248  14.298  1.00  0.00     0.147 C 
HETATM    4  C8  UNL     1      -5.659   4.726  14.373  1.00  0.00     0.070 C 
HETATM    5  C9  UNL     1      -5.044   5.462  13.223  1.00  0.00     0.152 C 
HETATM    6  C10 UNL     1      -3.774   4.733  12.770  1.00  0.00     0.180 C 
ENDROOT
BRANCH   3   7
HETATM    7  C5  UNL     1      -5.925   2.654  15.610  1.00  0.00     0.011 C 
HETATM    8  C6  UNL     1      -5.430   1.493  15.984  1.00  0.00     0.083 C 
BRANCH   8   9
HETATM    9  C7  UNL     1      -5.735   0.863  17.254  1.00  0.00     0.198 C 
HETATM   10  O3  UNL     1      -5.776  -0.372  17.432  1.00  0.00    -0.645 OA
HETATM   11  O4  UNL     1      -5.996   1.690  18.328  1.00  0.00    -0.645 OA
ENDBRANCH   8   9
ENDBRANCH   3   7
BRANCH   1  12
HETATM   12  C2  UNL     1      -3.278   2.535  11.671  1.00  0.00     0.201 C 
BRANCH  12  13
HETATM   13  O1  UNL     1      -3.915   1.915  10.611  1.00  0.00    -0.393 OA
HETATM   14  C1  UNL     1      -4.689   0.830  10.941  1.00  0.00     0.201 C 
ENDBRANCH  12  13
ENDBRANCH   1  12
BRANCH   5  15
HETATM   15  O5  UNL     1      -5.922   5.660  12.161  1.00  0.00    -0.393 OA
ATOM     16  H5  UNL     1      -6.010   6.572  11.909  1.00  0.00     0.210 HD
ENDBRANCH   5  15
BRANCH   6  17
HETATM   17  O6  UNL     1      -3.176   5.321  11.690  1.00  0.00    -0.385 OA
HETATM   18  C11 UNL     1      -2.262   6.284  12.111  1.00  0.00     0.202 C 
ENDBRANCH   6  17
TORSDOF 6
ENDMDL
MODEL 3
REMARK VINA RESULT: -6.133787758      1.162      1.277
REMARK  6 active torsions:
REMARK  status: ('A' for Active; 'I' for Inactive)
REMARK    1  A    between atoms: O1_2  and  C2_3 
REMARK    2  A    between atoms: C2_3  and  C3_4 
REMARK    3  A    between atoms: C4_6  and  C5_7 
REMARK    4  A    between atoms: C6_8  and  C7_9 
REMARK    5  A    between atoms: C9_13  and  O5_14 
REMARK    6  A    between atoms: C10_16  and  O6_17 
ROOT
HETATM    1  C3  UNL     1      -3.553   3.435  12.708  1.00  0.00     0.177 C 
HETATM    2  O2  UNL     1      -3.963   2.713  13.840  1.00  0.00    -0.372 OA
HETATM    3  C4  UNL     1      -5.044   3.407  14.375  1.00  0.00     0.147 C 
HETATM    4  C8  UNL     1      -4.766   4.816  14.745  1.00  0.00     0.070 C 
HETATM    5  C9  UNL     1      -3.884   5.566  13.795  1.00  0.00     0.152 C 
HETATM    6  C10 UNL     1      -2.799   4.627  13.256  1.00  0.00     0.180 C 
ENDROOT
BRANCH   3   7
HETATM    7  C5  UNL     1      -5.650   2.694  15.524  1.00  0.00     0.011 C 
HETATM    8  C6  UNL     1      -5.254   1.483  15.858  1.00  0.00     0.083 C 
BRANCH   8   9
HETATM    9  C7  UNL     1      -5.808   0.736  16.971  1.00  0.00     0.198 C 
HETATM   10  O3  UNL     1      -5.159   0.402  17.983  1.00  0.00    -0.645 OA
HETATM   11  O4  UNL     1      -7.138   0.376  16.895  1.00  0.00    -0.645 OA
ENDBRANCH   8   9
ENDBRANCH   3   7
BRANCH   1  12
HETATM   12  C2  UNL     1      -2.764   2.619  11.757  1.00  0.00     0.201 C 
BRANCH  12  13
HETATM   13  O1  UNL     1      -3.477   2.298  10.615  1.00  0.00    -0.393 OA
HETATM   14  C1  UNL     1      -4.546   1.458  10.804  1.00  0.00     0.201 C 
ENDBRANCH  12  13
ENDBRANCH   1  12
BRANCH   5  15
HETATM   15  O5  UNL     1      -4.584   6.179  12.759  1.00  0.00    -0.393 OA
ATOM     16  H5  UNL     1      -5.458   5.826  12.633  1.00  0.00     0.210 HD
ENDBRANCH   5  15
BRANCH   6  17
HETATM   17  O6  UNL     1      -1.976   5.228  12.343  1.00  0.00    -0.385 OA
HETATM   18  C11 UNL     1      -0.865   5.771  12.981  1.00  0.00     0.202 C 
ENDBRANCH   6  17
TORSDOF 6
ENDMDL
MODEL 4
REMARK VINA RESULT: -6.116512286      1.619      3.385
REMARK  6 active torsions:
REMARK  status: ('A' for Active; 'I' for Inactive)
REMARK    1  A    between atoms: O1_2  and  C2_3 
REMARK    2  A    between atoms: C2_3  and  C3_4 
REMARK    3  A    between atoms: C4_6  and  C5_7 
REMARK    4  A    between atoms: C6_8  and  C7_9 
REMARK    5  A    between atoms: C9_13  and  O5_14 
REMARK    6  A    between atoms: C10_16  and  O6_17 
ROOT
HETATM    1  C3  UNL     1      -2.545   2.860  11.935  1.00  0.00     0.177 C 
HETATM    2  O2  UNL     1      -3.180   2.964  13.182  1.00  0.00    -0.372 OA
HETATM    3  C4  UNL     1      -4.076   1.902  13.255  1.00  0.00     0.147 C 
HETATM    4  C8  UNL     1      -5.088   1.858  12.173  1.00  0.00     0.070 C 
HETATM    5  C9  UNL     1      -4.587   2.229  10.811  1.00  0.00     0.152 C 
HETATM    6  C10 UNL     1      -3.563   3.363  10.935  1.00  0.00     0.180 C 
ENDROOT
BRANCH   3   7
HETATM    7  C5  UNL     1      -4.745   1.827  14.575  1.00  0.00     0.011 C 
HETATM    8  C6  UNL     1      -4.504   0.831  15.403  1.00  0.00     0.083 C 
BRANCH   8   9
HETATM    9  C7  UNL     1      -5.127   0.703  16.707  1.00  0.00     0.198 C 
HETATM   10  O3  UNL     1      -5.159   1.613  17.560  1.00  0.00    -0.645 OA
HETATM   11  O4  UNL     1      -5.717  -0.507  17.013  1.00  0.00    -0.645 OA
ENDBRANCH   8   9
ENDBRANCH   3   7
BRANCH   1  12
HETATM   12  C2  UNL     1      -1.253   3.582  11.882  1.00  0.00     0.201 C 
BRANCH  12  13
HETATM   13  O1  UNL     1      -1.011   4.323  13.025  1.00  0.00    -0.393 OA
HETATM   14  C1  UNL     1      -0.882   5.677  12.834  1.00  0.00     0.201 C 
ENDBRANCH  12  13
ENDBRANCH   1  12
BRANCH   5  15
HETATM   15  O5  UNL     1      -4.064   1.150  10.102  1.00  0.00    -0.393 OA
ATOM     16  H5  UNL     1      -4.717   0.680   9.596  1.00  0.00     0.210 HD
ENDBRANCH   5  15
BRANCH   6  17
HETATM   17  O6  UNL     1      -3.022   3.729   9.733  1.00  0.00    -0.385 OA
HETATM   18  C11 UNL     1      -3.490   4.986   9.358  1.00  0.00     0.202 C 
ENDBRANCH   6  17
TORSDOF 6
ENDMDL
MODEL 5
REMARK VINA RESULT: -6.048339136      1.627      2.521
REMARK  6 active torsions:
REMARK  status: ('A' for Active; 'I' for Inactive)
REMARK    1  A    between atoms: O1_2  and  C2_3 
REMARK    2  A    between atoms: C2_3  and  C3_4 
REMARK    3  A    between atoms: C4_6  and  C5_7 
REMARK    4  A    between atoms: C6_8  and  C7_9 
REMARK    5  A    between atoms: C9_13  and  O5_14 
REMARK    6  A    between atoms: C10_16  and  O6_17 
ROOT
HETATM    1  C3  UNL     1      -3.790   3.538  12.488  1.00  0.00     0.177 C 
HETATM    2  O2  UNL     1      -3.570   2.718  13.605  1.00  0.00    -0.372 OA
HETATM    3  C4  UNL     1      -4.773   2.678  14.303  1.00  0.00     0.147 C 
HETATM    4  C8  UNL     1      -5.293   3.997  14.737  1.00  0.00     0.070 C 
HETATM    5  C9  UNL     1      -5.120   5.109  13.750  1.00  0.00     0.152 C 
HETATM    6  C10 UNL     1      -3.775   4.951  13.031  1.00  0.00     0.180 C 
ENDROOT
BRANCH   3   7
HETATM    7  C5  UNL     1      -4.716   1.752  15.460  1.00  0.00     0.011 C 
HETATM    8  C6  UNL     1      -5.723   1.656  16.303  1.00  0.00     0.083 C 
BRANCH   8   9
HETATM    9  C7  UNL     1      -5.725   0.769  17.451  1.00  0.00     0.198 C 
HETATM   10  O3  UNL     1      -5.822  -0.473  17.376  1.00  0.00    -0.645 OA
HETATM   11  O4  UNL     1      -5.615   1.346  18.700  1.00  0.00    -0.645 OA
ENDBRANCH   8   9
ENDBRANCH   3   7
BRANCH   1  12
HETATM   12  C2  UNL     1      -2.810   3.309  11.401  1.00  0.00     0.201 C 
BRANCH  12  13
HETATM   13  O1  UNL     1      -1.653   2.698  11.849  1.00  0.00    -0.393 OA
HETATM   14  C1  UNL     1      -0.527   3.483  11.833  1.00  0.00     0.201 C 
ENDBRANCH  12  13
ENDBRANCH   1  12
BRANCH   5  15
HETATM   15  O5  UNL     1      -6.171   5.211  12.842  1.00  0.00    -0.393 OA
ATOM     16  H5  UNL     1      -6.589   4.378  12.655  1.00  0.00     0.210 HD
ENDBRANCH   5  15
BRANCH   6  17
HETATM   17  O6  UNL     1      -3.562   5.907  12.077  1.00  0.00    -0.385 OA
HETATM   18  C11 UNL     1      -2.887   6.994  12.628  1.00  0.00     0.202 C 
ENDBRANCH   6  17
TORSDOF 6
ENDMDL
