MODEL 1
REMARK VINA RESULT: -6.376201858      0.000      0.000
REMARK  5 active torsions:
REMARK  status: ('A' for Active; 'I' for Inactive)
REMARK    1  A    between atoms: C5_7  and  C6_8 
REMARK    2  A    between atoms: C10_13  and  N1_14 
REMARK    3  A    between atoms: C11_21  and  C12_22 
REMARK    4  A    between atoms: C12_22  and  O1_23 
REMARK    5  A    between atoms: N3_25  and  O2_27 
ROOT
HETATM    1  C1  UNL     1      11.772   3.393 -34.625  1.00  0.00     0.029 C 
HETATM    2  C2  UNL     1      12.613   2.426 -35.420  1.00  0.00     0.038 C 
HETATM    3  C3  UNL     1      11.820   1.235 -35.887  1.00  0.00     0.029 C 
HETATM    4  S1  UNL     1      13.985   1.838 -34.379  1.00  0.00    -0.137 SA
HETATM    5  C4  UNL     1      15.499   2.686 -34.913  1.00  0.00     0.176 C 
HETATM    6  S2  UNL     1      16.919   1.585 -34.904  1.00  0.00    -0.135 SA
HETATM    7  C5  UNL     1      16.822   2.141 -36.628  1.00  0.00     0.155 C 
HETATM    8  C10 UNL     1      15.558   2.888 -36.393  1.00  0.00     0.322 C 
HETATM    9  N2  UNL     1      14.374   2.390 -37.034  1.00  0.00    -0.024 N 
ATOM     10  H21 UNL     1      14.236   1.390 -36.887  1.00  0.00     0.281 HD
ATOM     11  H22 UNL     1      14.454   2.368 -38.051  1.00  0.00     0.281 HD
HETATM   12  C11 UNL     1      13.241   3.189 -36.573  1.00  0.00     0.282 C 
ENDROOT
BRANCH  12  13
HETATM   13  C12 UNL     1      12.283   3.481 -37.652  1.00  0.00     0.168 C 
HETATM   14  N3  UNL     1      11.482   4.482 -37.560  1.00  0.00    -0.249 N 
ATOM     15  H3  UNL     1      11.514   5.076 -36.732  1.00  0.00     0.196 HD
BRANCH  13  16
HETATM   16  O1  UNL     1      12.208   2.695 -38.793  1.00  0.00    -0.346 OA
ATOM     17  H1  UNL     1      11.661   1.919 -38.829  1.00  0.00     0.219 HD
ENDBRANCH  13  16
BRANCH  14  18
HETATM   18  O2  UNL     1      10.587   4.765 -38.555  1.00  0.00    -0.288 OA
ATOM     19  H2  UNL     1      10.097   5.579 -38.559  1.00  0.00     0.244 HD
ENDBRANCH  14  18
ENDBRANCH  12  13
BRANCH   8  20
HETATM   20  N1  UNL     1      15.752   4.318 -36.683  1.00  0.00    -0.041 N 
ATOM     21  H13 UNL     1      14.876   4.841 -36.647  1.00  0.00     0.277 HD
ATOM     22  H12 UNL     1      16.241   4.802 -35.930  1.00  0.00     0.277 HD
ATOM     23  H11 UNL     1      16.226   4.420 -37.580  1.00  0.00     0.277 HD
ENDBRANCH   8  20
BRANCH   7  24
HETATM   24  C6  UNL     1      16.674   0.920 -37.508  1.00  0.00     0.001 A 
HETATM   25  C7  UNL     1      17.390   0.609 -38.629  1.00  0.00     0.016 A 
HETATM   26  C8  UNL     1      17.074  -0.552 -39.257  1.00  0.00     0.008 A 
HETATM   27  C9  UNL     1      16.072  -1.300 -38.713  1.00  0.00     0.050 A 
HETATM   28  S3  UNL     1      15.595  -0.388 -37.356  1.00  0.00    -0.105 SA
ENDBRANCH   7  24
TORSDOF 5
ENDMDL
MODEL 2
REMARK VINA RESULT: -6.103331222      1.082      1.263
REMARK  5 active torsions:
REMARK  status: ('A' for Active; 'I' for Inactive)
REMARK    1  A    between atoms: C5_7  and  C6_8 
REMARK    2  A    between atoms: C10_13  and  N1_14 
REMARK    3  A    between atoms: C11_21  and  C12_22 
REMARK    4  A    between atoms: C12_22  and  O1_23 
REMARK    5  A    between atoms: N3_25  and  O2_27 
ROOT
HETATM    1  C1  UNL     1      11.532   1.431 -35.082  1.00  0.00     0.029 C 
HETATM    2  C2  UNL     1      12.744   1.104 -35.917  1.00  0.00     0.038 C 
HETATM    3  C3  UNL     1      12.441   0.089 -36.986  1.00  0.00     0.029 C 
HETATM    4  S1  UNL     1      14.046   0.436 -34.835  1.00  0.00    -0.137 SA
HETATM    5  C4  UNL     1      15.292   1.733 -34.587  1.00  0.00     0.176 C 
HETATM    6  S2  UNL     1      16.961   1.068 -34.599  1.00  0.00    -0.135 SA
HETATM    7  C5  UNL     1      16.973   2.274 -35.954  1.00  0.00     0.155 C 
HETATM    8  C10 UNL     1      15.521   2.558 -35.812  1.00  0.00     0.322 C 
HETATM    9  N2  UNL     1      14.664   2.142 -36.887  1.00  0.00    -0.024 N 
ATOM     10  H21 UNL     1      14.819   1.172 -37.162  1.00  0.00     0.281 HD
ATOM     11  H22 UNL     1      14.908   2.576 -37.778  1.00  0.00     0.281 HD
HETATM   12  C11 UNL     1      13.283   2.403 -36.491  1.00  0.00     0.282 C 
ENDROOT
BRANCH  12  13
HETATM   13  C12 UNL     1      12.466   2.916 -37.602  1.00  0.00     0.168 C 
HETATM   14  N3  UNL     1      11.793   4.003 -37.470  1.00  0.00    -0.249 N 
ATOM     15  H3  UNL     1      11.828   4.511 -36.586  1.00  0.00     0.196 HD
BRANCH  13  16
HETATM   16  O1  UNL     1      12.392   2.253 -38.819  1.00  0.00    -0.346 OA
ATOM     17  H1  UNL     1      11.575   1.889 -39.140  1.00  0.00     0.219 HD
ENDBRANCH  13  16
BRANCH  14  18
HETATM   18  O2  UNL     1      11.030   4.492 -38.496  1.00  0.00    -0.288 OA
ATOM     19  H2  UNL     1      11.383   5.120 -39.114  1.00  0.00     0.244 HD
ENDBRANCH  14  18
ENDBRANCH  12  13
BRANCH   8  20
HETATM   20  N1  UNL     1      15.310   3.978 -35.491  1.00  0.00    -0.041 N 
ATOM     21  H13 UNL     1      15.638   4.215 -34.554  1.00  0.00     0.277 HD
ATOM     22  H12 UNL     1      15.931   4.591 -36.021  1.00  0.00     0.277 HD
ATOM     23  H11 UNL     1      14.327   4.214 -35.628  1.00  0.00     0.277 HD
ENDBRANCH   8  20
BRANCH   7  24
HETATM   24  C6  UNL     1      17.349   1.548 -37.226  1.00  0.00     0.001 A 
HETATM   25  C7  UNL     1      18.198   1.973 -38.209  1.00  0.00     0.016 A 
HETATM   26  C8  UNL     1      18.380   1.142 -39.265  1.00  0.00     0.008 A 
HETATM   27  C9  UNL     1      17.701  -0.041 -39.249  1.00  0.00     0.050 A 
HETATM   28  S3  UNL     1      16.833   0.025 -37.786  1.00  0.00    -0.105 SA
ENDBRANCH   7  24
TORSDOF 5
ENDMDL
MODEL 3
REMARK VINA RESULT: -6.092539660      2.589      3.189
REMARK  5 active torsions:
REMARK  status: ('A' for Active; 'I' for Inactive)
REMARK    1  A    between atoms: C5_7  and  C6_8 
REMARK    2  A    between atoms: C10_13  and  N1_14 
REMARK    3  A    between atoms: C11_21  and  C12_22 
REMARK    4  A    between atoms: C12_22  and  O1_23 
REMARK    5  A    between atoms: N3_25  and  O2_27 
ROOT
HETATM    1  C1  UNL     1      11.417   3.157 -37.130  1.00  0.00     0.029 C 
HETATM    2  C2  UNL     1      12.303   2.248 -36.317  1.00  0.00     0.038 C 
HETATM    3  C3  UNL     1      11.537   1.104 -35.707  1.00  0.00     0.029 C 
HETATM    4  S1  UNL     1      13.071   3.211 -34.977  1.00  0.00    -0.137 SA
HETATM    5  C4  UNL     1      14.800   3.525 -35.431  1.00  0.00     0.176 C 
HETATM    6  S2  UNL     1      15.899   3.386 -34.016  1.00  0.00    -0.135 SA
HETATM    7  C5  UNL     1      16.539   2.147 -35.176  1.00  0.00     0.155 C 
HETATM    8  C10 UNL     1      15.432   2.372 -36.142  1.00  0.00     0.322 C 
HETATM    9  N2  UNL     1      14.495   1.299 -36.326  1.00  0.00    -0.024 N 
ATOM     10  H21 UNL     1      14.138   0.931 -35.444  1.00  0.00     0.281 HD
ATOM     11  H22 UNL     1      14.936   0.442 -36.662  1.00  0.00     0.281 HD
HETATM   12  C11 UNL     1      13.434   1.773 -37.212  1.00  0.00     0.282 C 
ENDROOT
BRANCH  12  13
HETATM   13  C12 UNL     1      13.006   0.746 -38.175  1.00  0.00     0.168 C 
HETATM   14  N3  UNL     1      12.161   1.032 -39.101  1.00  0.00    -0.249 N 
ATOM     15  H3  UNL     1      11.789   1.979 -39.165  1.00  0.00     0.196 HD
BRANCH  13  16
HETATM   16  O1  UNL     1      13.489  -0.553 -38.119  1.00  0.00    -0.346 OA
ATOM     17  H1  UNL     1      14.022  -0.918 -38.816  1.00  0.00     0.219 HD
ENDBRANCH  13  16
BRANCH  14  18
HETATM   18  O2  UNL     1      11.754   0.088 -40.003  1.00  0.00    -0.288 OA
ATOM     19  H2  UNL     1      11.581  -0.807 -39.734  1.00  0.00     0.244 HD
ENDBRANCH  14  18
ENDBRANCH  12  13
BRANCH   8  20
HETATM   20  N1  UNL     1      15.969   2.829 -37.433  1.00  0.00    -0.041 N 
ATOM     21  H13 UNL     1      16.946   2.563 -37.560  1.00  0.00     0.277 HD
ATOM     22  H12 UNL     1      15.575   2.312 -38.220  1.00  0.00     0.277 HD
ATOM     23  H11 UNL     1      15.828   3.835 -37.522  1.00  0.00     0.277 HD
ENDBRANCH   8  20
BRANCH   7  24
HETATM   24  C6  UNL     1      16.507   0.800 -34.488  1.00  0.00     0.001 A 
HETATM   25  C7  UNL     1      15.878   0.476 -33.319  1.00  0.00     0.016 A 
HETATM   26  C8  UNL     1      15.993  -0.808 -32.896  1.00  0.00     0.008 A 
HETATM   27  C9  UNL     1      16.724  -1.656 -33.675  1.00  0.00     0.050 A 
HETATM   28  S3  UNL     1      17.232  -0.666 -34.963  1.00  0.00    -0.105 SA
ENDBRANCH   7  24
TORSDOF 5
ENDMDL
MODEL 4
REMARK VINA RESULT: -6.084299855      1.286      1.538
REMARK  5 active torsions:
REMARK  status: ('A' for Active; 'I' for Inactive)
REMARK    1  A    between atoms: C5_7  and  C6_8 
REMARK    2  A    between atoms: C10_13  and  N1_14 
REMARK    3  A    between atoms: C11_21  and  C12_22 
REMARK    4  A    between atoms: C12_22  and  O1_23 
REMARK    5  A    between atoms: N3_25  and  O2_27 
ROOT
HETATM    1  C1  UNL     1      12.275   3.776 -34.990  1.00  0.00     0.029 C 
HETATM    2  C2  UNL     1      13.176   2.625 -35.356  1.00  0.00     0.038 C 
HETATM    3  C3  UNL     1      12.480   1.295 -35.228  1.00  0.00     0.029 C 
HETATM    4  S1  UNL     1      14.624   2.630 -34.253  1.00  0.00    -0.137 SA
HETATM    5  C4  UNL     1      16.040   3.274 -35.189  1.00  0.00     0.176 C 
HETATM    6  S2  UNL     1      17.553   2.382 -34.808  1.00  0.00    -0.135 SA
HETATM    7  C5  UNL     1      17.358   2.146 -36.596  1.00  0.00     0.155 C 
HETATM    8  C10 UNL     1      16.040   2.833 -36.617  1.00  0.00     0.322 C 
HETATM    9  N2  UNL     1      14.887   2.029 -36.913  1.00  0.00    -0.024 N 
ATOM     10  H21 UNL     1      14.844   1.179 -36.351  1.00  0.00     0.281 HD
ATOM     11  H22 UNL     1      14.941   1.583 -37.829  1.00  0.00     0.281 HD
HETATM   12  C11 UNL     1      13.701   2.868 -36.761  1.00  0.00     0.282 C 
ENDROOT
BRANCH  12  13
HETATM   13  C12 UNL     1      12.691   2.607 -37.799  1.00  0.00     0.168 C 
HETATM   14  N3  UNL     1      12.600   1.446 -38.344  1.00  0.00    -0.249 N 
ATOM     15  H3  UNL     1      13.235   0.703 -38.051  1.00  0.00     0.196 HD
BRANCH  13  16
HETATM   16  O1  UNL     1      11.811   3.592 -38.224  1.00  0.00    -0.346 OA
ATOM     17  H1  UNL     1      10.923   3.645 -37.891  1.00  0.00     0.219 HD
ENDBRANCH  13  16
BRANCH  14  18
HETATM   18  O2  UNL     1      11.666   1.189 -39.310  1.00  0.00    -0.288 OA
ATOM     19  H2  UNL     1      11.667   0.369 -39.788  1.00  0.00     0.244 HD
ENDBRANCH  14  18
ENDBRANCH  12  13
BRANCH   8  20
HETATM   20  N1  UNL     1      16.097   4.014 -37.493  1.00  0.00    -0.041 N 
ATOM     21  H13 UNL     1      15.274   4.089 -38.092  1.00  0.00     0.277 HD
ATOM     22  H12 UNL     1      15.979   4.885 -36.975  1.00  0.00     0.277 HD
ATOM     23  H11 UNL     1      16.965   3.997 -38.028  1.00  0.00     0.277 HD
ENDBRANCH   8  20
BRANCH   7  24
HETATM   24  C6  UNL     1      17.296   0.660 -36.868  1.00  0.00     0.001 A 
HETATM   25  C7  UNL     1      17.540   0.019 -38.050  1.00  0.00     0.016 A 
HETATM   26  C8  UNL     1      17.420  -1.333 -38.052  1.00  0.00     0.008 A 
HETATM   27  C9  UNL     1      17.066  -1.926 -36.876  1.00  0.00     0.050 A 
HETATM   28  S3  UNL     1      16.909  -0.612 -35.805  1.00  0.00    -0.105 SA
ENDBRANCH   7  24
TORSDOF 5
ENDMDL
MODEL 5
REMARK VINA RESULT: -6.009262810      2.963      5.559
REMARK  5 active torsions:
REMARK  status: ('A' for Active; 'I' for Inactive)
REMARK    1  A    between atoms: C5_7  and  C6_8 
REMARK    2  A    between atoms: C10_13  and  N1_14 
REMARK    3  A    between atoms: C11_21  and  C12_22 
REMARK    4  A    between atoms: C12_22  and  O1_23 
REMARK    5  A    between atoms: N3_25  and  O2_27 
ROOT
HETATM    1  C1  UNL     1      16.764   1.386 -34.934  1.00  0.00     0.029 C 
HETATM    2  C2  UNL     1      15.535   2.258 -34.886  1.00  0.00     0.038 C 
HETATM    3  C3  UNL     1      15.707   3.433 -33.961  1.00  0.00     0.029 C 
HETATM    4  S1  UNL     1      14.125   1.265 -34.305  1.00  0.00    -0.137 SA
HETATM    5  C4  UNL     1      13.081   0.879 -35.739  1.00  0.00     0.176 C 
HETATM    6  S2  UNL     1      11.332   0.973 -35.338  1.00  0.00    -0.135 SA
HETATM    7  C5  UNL     1      11.528   2.184 -36.674  1.00  0.00     0.155 C 
HETATM    8  C10 UNL     1      13.003   2.004 -36.720  1.00  0.00     0.322 C 
HETATM    9  N2  UNL     1      13.812   3.115 -36.301  1.00  0.00    -0.024 N 
ATOM     10  H21 UNL     1      13.521   3.498 -35.402  1.00  0.00     0.281 HD
ATOM     11  H22 UNL     1      13.654   3.952 -36.862  1.00  0.00     0.281 HD
HETATM   12  C11 UNL     1      15.208   2.685 -36.307  1.00  0.00     0.282 C 
ENDROOT
BRANCH  12  13
HETATM   13  C12 UNL     1      16.115   3.728 -36.811  1.00  0.00     0.168 C 
HETATM   14  N3  UNL     1      16.354   4.780 -36.111  1.00  0.00    -0.249 N 
ATOM     15  H3  UNL     1      15.908   4.888 -35.200  1.00  0.00     0.196 HD
BRANCH  13  16
HETATM   16  O1  UNL     1      16.738   3.618 -38.046  1.00  0.00    -0.346 OA
ATOM     17  H1  UNL     1      16.938   4.382 -38.574  1.00  0.00     0.219 HD
ENDBRANCH  13  16
BRANCH  14  18
HETATM   18  O2  UNL     1      17.195   5.757 -36.567  1.00  0.00    -0.288 OA
ATOM     19  H2  UNL     1      16.859   6.531 -37.002  1.00  0.00     0.244 HD
ENDBRANCH  14  18
ENDBRANCH  12  13
BRANCH   8  20
HETATM   20  N1  UNL     1      13.416   1.524 -38.048  1.00  0.00    -0.041 N 
ATOM     21  H13 UNL     1      14.133   0.800 -37.991  1.00  0.00     0.277 HD
ATOM     22  H12 UNL     1      12.688   0.972 -38.502  1.00  0.00     0.277 HD
ATOM     23  H11 UNL     1      13.712   2.317 -38.618  1.00  0.00     0.277 HD
ENDBRANCH   8  20
BRANCH   7  24
HETATM   24  C6  UNL     1      11.076   3.531 -36.158  1.00  0.00     0.001 A 
HETATM   25  C7  UNL     1      10.332   4.469 -36.816  1.00  0.00     0.016 A 
HETATM   26  C8  UNL     1      10.049   5.612 -36.143  1.00  0.00     0.008 A 
HETATM   27  C9  UNL     1      10.532   5.719 -34.871  1.00  0.00     0.050 A 
HETATM   28  S3  UNL     1      11.359   4.250 -34.641  1.00  0.00    -0.105 SA
ENDBRANCH   7  24
TORSDOF 5
ENDMDL
