MODEL 1
REMARK VINA RESULT: -6.825639447      0.000      0.000
REMARK  4 active torsions:
REMARK  status: ('A' for Active; 'I' for Inactive)
REMARK    1  A    between atoms: C2_2  and  C3_3 
REMARK    2  A    between atoms: C6_9  and  C7_10 
REMARK    3  A    between atoms: C8_16  and  N4_17 
REMARK    4  A    between atoms: C12_25  and  N6_26 
ROOT
HETATM    1  C3  UNL     1      18.266   2.411 -35.882  1.00  0.00    -0.037 A 
HETATM    2  C4  UNL     1      18.872   3.617 -35.621  1.00  0.00     0.060 A 
HETATM    3  S1  UNL     1      17.665   4.760 -35.898  1.00  0.00    -0.083 SA
HETATM    4  C5  UNL     1      16.385   3.683 -36.351  1.00  0.00     0.087 A 
HETATM    5  N1  UNL     1      15.123   3.884 -36.705  1.00  0.00    -0.347 N 
ATOM      6  H1  UNL     1      14.780   4.845 -36.736  1.00  0.00     0.167 HD
HETATM    7  C6  UNL     1      14.237   2.862 -37.037  1.00  0.00     0.080 A 
HETATM    8  C9  UNL     1      14.763   1.625 -36.989  1.00  0.00     0.044 A 
HETATM    9  C10 UNL     1      14.011   0.531 -37.394  1.00  0.00     0.037 A 
HETATM   10  C11 UNL     1      12.713   0.640 -38.069  1.00  0.00     0.070 C 
HETATM   11  N5  UNL     1      14.605  -0.688 -37.366  1.00  0.00    -0.195 N 
ATOM     12  H5  UNL     1      14.048  -1.492 -37.656  1.00  0.00     0.184 HD
HETATM   13  C12 UNL     1      15.891  -0.915 -36.979  1.00  0.00     0.676 A 
HETATM   14  N7  UNL     1      16.603   0.158 -36.609  1.00  0.00    -0.190 N 
ATOM     15  H7  UNL     1      17.571   0.024 -36.318  1.00  0.00     0.184 HD
HETATM   16  C13 UNL     1      16.104   1.386 -36.606  1.00  0.00     0.077 A 
HETATM   17  C14 UNL     1      16.970   2.458 -36.263  1.00  0.00     0.033 A 
ENDROOT
BRANCH   7  18
HETATM   18  C7  UNL     1      12.889   3.302 -37.256  1.00  0.00     0.129 A 
HETATM   19  N2  UNL     1      12.154   3.722 -38.220  1.00  0.00    -0.236 N 
HETATM   20  O1  UNL     1      10.996   4.087 -37.880  1.00  0.00    -0.155 OA
ATOM     21  H2  UNL     1      12.482   3.758 -39.186  1.00  0.00     0.197 HD
HETATM   22  N3  UNL     1      10.845   3.941 -36.615  1.00  0.00    -0.224 N 
HETATM   23  C8  UNL     1      12.030   3.436 -36.128  1.00  0.00     0.152 A 
ATOM     24  H3  UNL     1      10.008   4.158 -36.074  1.00  0.00     0.198 HD
BRANCH  23  25
HETATM   25  N4  UNL     1      12.222   3.210 -34.899  1.00  0.00    -0.382 N 
ATOM     26  H42 UNL     1      12.237   2.268 -34.508  1.00  0.00     0.157 HD
ATOM     27  H41 UNL     1      12.355   3.842 -34.110  1.00  0.00     0.157 HD
ENDBRANCH  23  25
ENDBRANCH   7  18
BRANCH   1  28
HETATM   28  C2  UNL     1      19.098   1.149 -35.708  1.00  0.00     0.035 C 
HETATM   29  C1  UNL     1      19.335   0.827 -34.258  1.00  0.00     0.010 C 
ENDBRANCH   1  28
BRANCH  13  30
HETATM   30  N6  UNL     1      16.369  -2.039 -36.967  1.00  0.00    -0.234 N 
ATOM     31  H62 UNL     1      16.485  -2.583 -37.822  1.00  0.00     0.174 HD
ATOM     32  H61 UNL     1      16.674  -2.482 -36.101  1.00  0.00     0.174 HD
ENDBRANCH  13  30
TORSDOF 4
ENDMDL
MODEL 2
REMARK VINA RESULT: -6.652119605      3.331      6.102
REMARK  4 active torsions:
REMARK  status: ('A' for Active; 'I' for Inactive)
REMARK    1  A    between atoms: C2_2  and  C3_3 
REMARK    2  A    between atoms: C6_9  and  C7_10 
REMARK    3  A    between atoms: C8_16  and  N4_17 
REMARK    4  A    between atoms: C12_25  and  N6_26 
ROOT
HETATM    1  C3  UNL     1      13.203   2.262 -35.703  1.00  0.00    -0.037 A 
HETATM    2  C4  UNL     1      12.053   1.510 -35.670  1.00  0.00     0.060 A 
HETATM    3  S1  UNL     1      12.395   0.182 -36.650  1.00  0.00    -0.083 SA
HETATM    4  C5  UNL     1      14.015   0.599 -37.100  1.00  0.00     0.087 A 
HETATM    5  N1  UNL     1      14.919   0.002 -37.864  1.00  0.00    -0.347 N 
ATOM      6  H1  UNL     1      14.666  -0.885 -38.302  1.00  0.00     0.167 HD
HETATM    7  C6  UNL     1      16.192   0.511 -38.104  1.00  0.00     0.080 A 
HETATM    8  C9  UNL     1      16.449   1.688 -37.506  1.00  0.00     0.044 A 
HETATM    9  C10 UNL     1      17.646   2.347 -37.747  1.00  0.00     0.037 A 
HETATM   10  C11 UNL     1      18.604   1.943 -38.781  1.00  0.00     0.070 C 
HETATM   11  N5  UNL     1      17.834   3.551 -37.153  1.00  0.00    -0.195 N 
ATOM     12  H5  UNL     1      18.718   4.031 -37.325  1.00  0.00     0.184 HD
HETATM   13  C12 UNL     1      16.927   4.166 -36.343  1.00  0.00     0.676 A 
HETATM   14  N7  UNL     1      15.772   3.520 -36.139  1.00  0.00    -0.190 N 
ATOM     15  H7  UNL     1      15.069   3.954 -35.541  1.00  0.00     0.184 HD
HETATM   16  C13 UNL     1      15.503   2.340 -36.680  1.00  0.00     0.077 A 
HETATM   17  C14 UNL     1      14.218   1.778 -36.452  1.00  0.00     0.033 A 
ENDROOT
BRANCH   7  18
HETATM   18  C7  UNL     1      17.046  -0.370 -38.849  1.00  0.00     0.129 A 
HETATM   19  N2  UNL     1      17.301  -0.662 -40.071  1.00  0.00    -0.236 N 
HETATM   20  O1  UNL     1      18.112  -1.615 -40.228  1.00  0.00    -0.155 OA
ATOM     21  H2  UNL     1      16.880  -0.162 -40.856  1.00  0.00     0.197 HD
HETATM   22  N3  UNL     1      18.485  -2.064 -39.086  1.00  0.00    -0.224 N 
HETATM   23  C8  UNL     1      17.838  -1.311 -38.131  1.00  0.00     0.152 A 
ATOM     24  H3  UNL     1      19.135  -2.831 -38.918  1.00  0.00     0.198 HD
BRANCH  23  25
HETATM   25  N4  UNL     1      17.964  -1.525 -36.892  1.00  0.00    -0.382 N 
ATOM     26  H42 UNL     1      17.180  -1.786 -36.295  1.00  0.00     0.157 HD
ATOM     27  H41 UNL     1      18.774  -1.459 -36.276  1.00  0.00     0.157 HD
ENDBRANCH  23  25
ENDBRANCH   7  18
BRANCH   1  28
HETATM   28  C2  UNL     1      13.230   3.549 -34.891  1.00  0.00     0.035 C 
HETATM   29  C1  UNL     1      11.847   4.081 -34.633  1.00  0.00     0.010 C 
ENDBRANCH   1  28
BRANCH  13  30
HETATM   30  N6  UNL     1      17.157   5.250 -35.829  1.00  0.00    -0.234 N 
ATOM     31  H62 UNL     1      18.109   5.593 -35.700  1.00  0.00     0.174 HD
ATOM     32  H61 UNL     1      16.407   5.861 -35.507  1.00  0.00     0.174 HD
ENDBRANCH  13  30
TORSDOF 4
ENDMDL
MODEL 3
REMARK VINA RESULT: -6.569035050      2.984      3.434
REMARK  4 active torsions:
REMARK  status: ('A' for Active; 'I' for Inactive)
REMARK    1  A    between atoms: C2_2  and  C3_3 
REMARK    2  A    between atoms: C6_9  and  C7_10 
REMARK    3  A    between atoms: C8_16  and  N4_17 
REMARK    4  A    between atoms: C12_25  and  N6_26 
ROOT
HETATM    1  C3  UNL     1      16.989  -1.712 -34.519  1.00  0.00    -0.037 A 
HETATM    2  C4  UNL     1      17.388  -1.667 -33.204  1.00  0.00     0.060 A 
HETATM    3  S1  UNL     1      16.296  -0.613 -32.472  1.00  0.00    -0.083 SA
HETATM    4  C5  UNL     1      15.329  -0.233 -33.859  1.00  0.00     0.087 A 
HETATM    5  N1  UNL     1      14.269   0.544 -34.032  1.00  0.00    -0.347 N 
ATOM      6  H1  UNL     1      13.904   1.045 -33.221  1.00  0.00     0.167 HD
HETATM    7  C6  UNL     1      13.624   0.718 -35.254  1.00  0.00     0.080 A 
HETATM    8  C9  UNL     1      14.169   0.039 -36.279  1.00  0.00     0.044 A 
HETATM    9  C10 UNL     1      13.679   0.206 -37.566  1.00  0.00     0.037 A 
HETATM   10  C11 UNL     1      12.706   1.239 -37.939  1.00  0.00     0.070 C 
HETATM   11  N5  UNL     1      14.294  -0.468 -38.568  1.00  0.00    -0.195 N 
ATOM     12  H5  UNL     1      13.927  -0.351 -39.514  1.00  0.00     0.184 HD
HETATM   13  C12 UNL     1      15.367  -1.292 -38.404  1.00  0.00     0.676 A 
HETATM   14  N7  UNL     1      15.834  -1.425 -37.156  1.00  0.00    -0.190 N 
ATOM     15  H7  UNL     1      16.639  -2.030 -36.999  1.00  0.00     0.184 HD
HETATM   16  C13 UNL     1      15.295  -0.802 -36.117  1.00  0.00     0.077 A 
HETATM   17  C14 UNL     1      15.915  -0.960 -34.849  1.00  0.00     0.033 A 
ENDROOT
BRANCH   7  18
HETATM   18  C7  UNL     1      12.420   1.495 -35.176  1.00  0.00     0.129 A 
HETATM   19  N2  UNL     1      11.151   1.317 -35.223  1.00  0.00    -0.236 N 
HETATM   20  O1  UNL     1      10.468   2.377 -35.193  1.00  0.00    -0.155 OA
ATOM     21  H2  UNL     1      10.727   0.390 -35.281  1.00  0.00     0.197 HD
HETATM   22  N3  UNL     1      11.244   3.395 -35.123  1.00  0.00    -0.224 N 
HETATM   23  C8  UNL     1      12.534   2.913 -35.107  1.00  0.00     0.152 A 
ATOM     24  H3  UNL     1      10.960   4.374 -35.085  1.00  0.00     0.198 HD
BRANCH  23  25
HETATM   25  N4  UNL     1      13.546   3.670 -35.077  1.00  0.00    -0.382 N 
ATOM     26  H42 UNL     1      14.332   3.564 -35.717  1.00  0.00     0.157 HD
ATOM     27  H41 UNL     1      13.791   4.443 -34.458  1.00  0.00     0.157 HD
ENDBRANCH  23  25
ENDBRANCH   7  18
BRANCH   1  28
HETATM   28  C2  UNL     1      17.776  -2.606 -35.467  1.00  0.00     0.035 C 
HETATM   29  C1  UNL     1      17.459  -4.062 -35.261  1.00  0.00     0.010 C 
ENDBRANCH   1  28
BRANCH  13  30
HETATM   30  N6  UNL     1      15.874  -1.881 -39.347  1.00  0.00    -0.234 N 
ATOM     31  H62 UNL     1      16.138  -2.864 -39.287  1.00  0.00     0.174 HD
ATOM     32  H61 UNL     1      16.052  -1.415 -40.236  1.00  0.00     0.174 HD
ENDBRANCH  13  30
TORSDOF 4
ENDMDL
MODEL 4
REMARK VINA RESULT: -6.503328189      3.161      5.953
REMARK  4 active torsions:
REMARK  status: ('A' for Active; 'I' for Inactive)
REMARK    1  A    between atoms: C2_2  and  C3_3 
REMARK    2  A    between atoms: C6_9  and  C7_10 
REMARK    3  A    between atoms: C8_16  and  N4_17 
REMARK    4  A    between atoms: C12_25  and  N6_26 
ROOT
HETATM    1  C3  UNL     1      10.742   4.164 -36.626  1.00  0.00    -0.037 A 
HETATM    2  C4  UNL     1      10.301   5.153 -35.778  1.00  0.00     0.060 A 
HETATM    3  S1  UNL     1      11.224   4.949 -34.383  1.00  0.00    -0.083 SA
HETATM    4  C5  UNL     1      12.173   3.591 -34.893  1.00  0.00     0.087 A 
HETATM    5  N1  UNL     1      13.126   2.886 -34.300  1.00  0.00    -0.347 N 
ATOM      6  H1  UNL     1      13.398   3.149 -33.352  1.00  0.00     0.167 HD
HETATM    7  C6  UNL     1      13.779   1.809 -34.894  1.00  0.00     0.080 A 
HETATM    8  C9  UNL     1      13.358   1.512 -36.136  1.00  0.00     0.044 A 
HETATM    9  C10 UNL     1      13.860   0.400 -36.796  1.00  0.00     0.037 A 
HETATM   10  C11 UNL     1      14.700  -0.618 -36.154  1.00  0.00     0.070 C 
HETATM   11  N5  UNL     1      13.369   0.122 -38.029  1.00  0.00    -0.195 N 
ATOM     12  H5  UNL     1      13.745  -0.692 -38.516  1.00  0.00     0.184 HD
HETATM   13  C12 UNL     1      12.409   0.852 -38.663  1.00  0.00     0.676 A 
HETATM   14  N7  UNL     1      11.927   1.911 -38.000  1.00  0.00    -0.190 N 
ATOM     15  H7  UNL     1      11.204   2.476 -38.445  1.00  0.00     0.184 HD
HETATM   16  C13 UNL     1      12.348   2.255 -36.792  1.00  0.00     0.077 A 
HETATM   17  C14 UNL     1      11.717   3.356 -36.153  1.00  0.00     0.033 A 
ENDROOT
BRANCH   7  18
HETATM   18  C7  UNL     1      14.867   1.284 -34.120  1.00  0.00     0.129 A 
HETATM   19  N2  UNL     1      15.074   0.380 -33.234  1.00  0.00    -0.236 N 
HETATM   20  O1  UNL     1      16.246   0.355 -32.769  1.00  0.00    -0.155 OA
ATOM     21  H2  UNL     1      14.347  -0.268 -32.929  1.00  0.00     0.197 HD
HETATM   22  N3  UNL     1      16.954   1.272 -33.319  1.00  0.00    -0.224 N 
HETATM   23  C8  UNL     1      16.135   1.926 -34.212  1.00  0.00     0.152 A 
ATOM     24  H3  UNL     1      17.935   1.477 -33.131  1.00  0.00     0.198 HD
BRANCH  23  25
HETATM   25  N4  UNL     1      16.523   2.914 -34.898  1.00  0.00    -0.382 N 
ATOM     26  H42 UNL     1      16.564   2.896 -35.917  1.00  0.00     0.157 HD
ATOM     27  H41 UNL     1      16.875   3.831 -34.621  1.00  0.00     0.157 HD
ENDBRANCH  23  25
ENDBRANCH   7  18
BRANCH   1  28
HETATM   28  C2  UNL     1      10.107   4.081 -38.006  1.00  0.00     0.035 C 
HETATM   29  C1  UNL     1       8.986   5.070 -38.171  1.00  0.00     0.010 C 
ENDBRANCH   1  28
BRANCH  13  30
HETATM   30  N6  UNL     1      12.012   0.556 -39.780  1.00  0.00    -0.234 N 
ATOM     31  H62 UNL     1      12.644   0.207 -40.500  1.00  0.00     0.174 HD
ATOM     32  H61 UNL     1      11.030   0.644 -40.040  1.00  0.00     0.174 HD
ENDBRANCH  13  30
TORSDOF 4
ENDMDL
MODEL 5
REMARK VINA RESULT: -6.446890621      3.372      6.353
REMARK  4 active torsions:
REMARK  status: ('A' for Active; 'I' for Inactive)
REMARK    1  A    between atoms: C2_2  and  C3_3 
REMARK    2  A    between atoms: C6_9  and  C7_10 
REMARK    3  A    between atoms: C8_16  and  N4_17 
REMARK    4  A    between atoms: C12_25  and  N6_26 
ROOT
HETATM    1  C3  UNL     1      13.058   2.345 -36.485  1.00  0.00    -0.037 A 
HETATM    2  C4  UNL     1      11.948   1.534 -36.473  1.00  0.00     0.060 A 
HETATM    3  S1  UNL     1      12.518   0.039 -37.002  1.00  0.00    -0.083 SA
HETATM    4  C5  UNL     1      14.182   0.462 -37.238  1.00  0.00     0.087 A 
HETATM    5  N1  UNL     1      15.237  -0.230 -37.645  1.00  0.00    -0.347 N 
ATOM      6  H1  UNL     1      15.104  -1.213 -37.881  1.00  0.00     0.167 HD
HETATM    7  C6  UNL     1      16.516   0.306 -37.769  1.00  0.00     0.080 A 
HETATM    8  C9  UNL     1      16.612   1.610 -37.454  1.00  0.00     0.044 A 
HETATM    9  C10 UNL     1      17.812   2.285 -37.631  1.00  0.00     0.037 A 
HETATM   10  C11 UNL     1      18.969   1.718 -38.334  1.00  0.00     0.070 C 
HETATM   11  N5  UNL     1      17.842   3.608 -37.340  1.00  0.00    -0.195 N 
ATOM     12  H5  UNL     1      18.727   4.101 -37.463  1.00  0.00     0.184 HD
HETATM   13  C12 UNL     1      16.773   4.328 -36.895  1.00  0.00     0.676 A 
HETATM   14  N7  UNL     1      15.622   3.660 -36.748  1.00  0.00    -0.190 N 
ATOM     15  H7  UNL     1      14.801   4.169 -36.420  1.00  0.00     0.184 HD
HETATM   16  C13 UNL     1      15.502   2.366 -37.010  1.00  0.00     0.077 A 
HETATM   17  C14 UNL     1      14.216   1.775 -36.886  1.00  0.00     0.033 A 
ENDROOT
BRANCH   7  18
HETATM   18  C7  UNL     1      17.528  -0.659 -38.095  1.00  0.00     0.129 A 
HETATM   19  N2  UNL     1      18.456  -1.320 -37.506  1.00  0.00    -0.236 N 
HETATM   20  O1  UNL     1      19.175  -2.016 -38.274  1.00  0.00    -0.155 OA
ATOM     21  H2  UNL     1      18.602  -1.286 -36.497  1.00  0.00     0.197 HD
HETATM   22  N3  UNL     1      18.782  -1.878 -39.487  1.00  0.00    -0.224 N 
HETATM   23  C8  UNL     1      17.712  -1.010 -39.462  1.00  0.00     0.152 A 
ATOM     24  H3  UNL     1      19.183  -2.325 -40.311  1.00  0.00     0.198 HD
BRANCH  23  25
HETATM   25  N4  UNL     1      17.112  -0.635 -40.510  1.00  0.00    -0.382 N 
ATOM     26  H42 UNL     1      16.186  -0.208 -40.491  1.00  0.00     0.157 HD
ATOM     27  H41 UNL     1      17.371  -0.699 -41.494  1.00  0.00     0.157 HD
ENDBRANCH  23  25
ENDBRANCH   7  18
BRANCH   1  28
HETATM   28  C2  UNL     1      12.883   3.789 -36.037  1.00  0.00     0.035 C 
HETATM   29  C1  UNL     1      12.208   3.885 -34.696  1.00  0.00     0.010 C 
ENDBRANCH   1  28
BRANCH  13  30
HETATM   30  N6  UNL     1      16.863   5.519 -36.640  1.00  0.00    -0.234 N 
ATOM     31  H62 UNL     1      17.138   6.201 -37.347  1.00  0.00     0.174 HD
ATOM     32  H61 UNL     1      16.665   5.884 -35.709  1.00  0.00     0.174 HD
ENDBRANCH  13  30
TORSDOF 4
ENDMDL
