MODEL 1
REMARK VINA RESULT: -7.454378078      0.000      0.000
REMARK  4 active torsions:
REMARK  status: ('A' for Active; 'I' for Inactive)
REMARK    1  A    between atoms: N1_1  and  C1_5 
REMARK    2  A    between atoms: C3_9  and  N3_10 
REMARK    3  A    between atoms: N3_10  and  O1_12 
REMARK    4  A    between atoms: C4_14  and  N4_15 
ROOT
HETATM    1  C1  UNL     1      16.380  -1.318 -38.997  1.00  0.00     0.387 C 
HETATM    2  N2  UNL     1      14.931  -1.191 -38.946  1.00  0.00    -0.343 N 
ATOM      3  H2  UNL     1      14.257  -1.733 -39.486  1.00  0.00     0.163 HD
HETATM    4  C2  UNL     1      14.629  -0.167 -37.996  1.00  0.00     0.091 A 
HETATM    5  C3  UNL     1      13.456   0.497 -37.733  1.00  0.00     0.110 A 
HETATM    6  C4  UNL     1      13.348   1.480 -36.756  1.00  0.00     0.070 A 
HETATM    7  C9  UNL     1      14.482   1.761 -36.057  1.00  0.00     0.007 A 
HETATM    8  C10 UNL     1      15.686   1.112 -36.294  1.00  0.00     0.106 A 
HETATM    9  C11 UNL     1      15.741   0.152 -37.267  1.00  0.00     0.094 A 
HETATM   10  N5  UNL     1      16.780  -0.687 -37.759  1.00  0.00    -0.343 N 
ATOM     11  H5  UNL     1      17.682  -0.823 -37.302  1.00  0.00     0.163 HD
HETATM   12  O2  UNL     1      16.955   1.195 -35.752  1.00  0.00    -0.348 OA
HETATM   13  C12 UNL     1      17.556   1.623 -34.579  1.00  0.00     0.176 C 
HETATM   14  C13 UNL     1      17.612   3.127 -34.446  1.00  0.00     0.027 C 
HETATM   15  C14 UNL     1      16.325   3.780 -34.923  1.00  0.00     0.002 C 
HETATM   16  C15 UNL     1      15.212   3.160 -34.136  1.00  0.00     0.005 C 
HETATM   17  C16 UNL     1      14.097   2.814 -35.111  1.00  0.00     0.044 C 
ENDROOT
BRANCH   6  18
HETATM   18  N4  UNL     1      12.135   2.133 -36.522  1.00  0.00    -0.378 N 
HETATM   19  C5  UNL     1      11.147   1.740 -35.505  1.00  0.00     0.123 C 
HETATM   20  C6  UNL     1      10.731   3.090 -34.897  1.00  0.00     0.021 C 
HETATM   21  C7  UNL     1      11.035   4.124 -35.928  1.00  0.00     0.021 C 
HETATM   22  C8  UNL     1      11.517   3.310 -37.128  1.00  0.00     0.123 C 
ENDBRANCH   6  18
BRANCH   5  23
HETATM   23  N3  UNL     1      12.273   0.193 -38.472  1.00  0.00    -0.265 N 
ATOM     24  H3  UNL     1      11.405  -0.056 -37.998  1.00  0.00     0.194 HD
BRANCH  23  25
HETATM   25  O1  UNL     1      12.335   0.243 -39.710  1.00  0.00    -0.289 OA
ATOM     26  H1  UNL     1      11.864   0.941 -40.150  1.00  0.00     0.244 HD
ENDBRANCH  23  25
ENDBRANCH   5  23
BRANCH   1  27
HETATM   27  N1  UNL     1      16.819  -2.678 -39.115  1.00  0.00    -0.041 N 
ATOM     28  H13 UNL     1      16.268  -3.292 -38.516  1.00  0.00     0.279 HD
ATOM     29  H12 UNL     1      16.567  -3.065 -40.025  1.00  0.00     0.279 HD
ATOM     30  H11 UNL     1      17.816  -2.791 -38.934  1.00  0.00     0.279 HD
ENDBRANCH   1  27
TORSDOF 4
ENDMDL
MODEL 2
REMARK VINA RESULT: -7.398800837      1.957      2.339
REMARK  4 active torsions:
REMARK  status: ('A' for Active; 'I' for Inactive)
REMARK    1  A    between atoms: N1_1  and  C1_5 
REMARK    2  A    between atoms: C3_9  and  N3_10 
REMARK    3  A    between atoms: N3_10  and  O1_12 
REMARK    4  A    between atoms: C4_14  and  N4_15 
ROOT
HETATM    1  C1  UNL     1      16.313  -1.681 -38.969  1.00  0.00     0.387 C 
HETATM    2  N2  UNL     1      15.048  -0.963 -38.970  1.00  0.00    -0.343 N 
ATOM      3  H2  UNL     1      14.445  -0.798 -39.776  1.00  0.00     0.163 HD
HETATM    4  C2  UNL     1      14.806  -0.531 -37.629  1.00  0.00     0.091 A 
HETATM    5  C3  UNL     1      13.891   0.360 -37.123  1.00  0.00     0.110 A 
HETATM    6  C4  UNL     1      13.800   0.661 -35.769  1.00  0.00     0.070 A 
HETATM    7  C9  UNL     1      14.677   0.018 -34.949  1.00  0.00     0.007 A 
HETATM    8  C10 UNL     1      15.614  -0.889 -35.423  1.00  0.00     0.106 A 
HETATM    9  C11 UNL     1      15.665  -1.151 -36.764  1.00  0.00     0.094 A 
HETATM   10  N5  UNL     1      16.477  -1.999 -37.568  1.00  0.00    -0.343 N 
ATOM     11  H5  UNL     1      17.089  -2.731 -37.206  1.00  0.00     0.163 HD
HETATM   12  O2  UNL     1      16.598  -1.663 -34.835  1.00  0.00    -0.348 OA
HETATM   13  C12 UNL     1      16.895  -2.191 -33.588  1.00  0.00     0.176 C 
HETATM   14  C13 UNL     1      17.388  -1.160 -32.600  1.00  0.00     0.027 C 
HETATM   15  C14 UNL     1      16.607   0.139 -32.709  1.00  0.00     0.002 C 
HETATM   16  C15 UNL     1      15.162  -0.212 -32.522  1.00  0.00     0.005 C 
HETATM   17  C16 UNL     1      14.370   0.510 -33.601  1.00  0.00     0.044 C 
ENDROOT
BRANCH   6  18
HETATM   18  N4  UNL     1      12.855   1.576 -35.297  1.00  0.00    -0.378 N 
HETATM   19  C5  UNL     1      13.142   2.972 -34.930  1.00  0.00     0.123 C 
HETATM   20  C6  UNL     1      11.956   3.734 -35.543  1.00  0.00     0.021 C 
HETATM   21  C7  UNL     1      10.852   2.742 -35.691  1.00  0.00     0.021 C 
HETATM   22  C8  UNL     1      11.418   1.472 -35.057  1.00  0.00     0.123 C 
ENDBRANCH   6  18
BRANCH   5  23
HETATM   23  N3  UNL     1      12.977   1.029 -37.993  1.00  0.00    -0.265 N 
ATOM     24  H3  UNL     1      12.842   2.038 -37.940  1.00  0.00     0.194 HD
BRANCH  23  25
HETATM   25  O1  UNL     1      12.352   0.341 -38.814  1.00  0.00    -0.289 OA
ATOM     26  H1  UNL     1      11.730   0.783 -39.380  1.00  0.00     0.244 HD
ENDBRANCH  23  25
ENDBRANCH   5  23
BRANCH   1  27
HETATM   27  N1  UNL     1      16.302  -2.834 -39.822  1.00  0.00    -0.041 N 
ATOM     28  H13 UNL     1      15.701  -2.683 -40.631  1.00  0.00     0.279 HD
ATOM     29  H12 UNL     1      17.198  -2.945 -40.297  1.00  0.00     0.279 HD
ATOM     30  H11 UNL     1      16.042  -3.690 -39.330  1.00  0.00     0.279 HD
ENDBRANCH   1  27
TORSDOF 4
ENDMDL
MODEL 3
REMARK VINA RESULT: -7.030780067      1.051      1.402
REMARK  4 active torsions:
REMARK  status: ('A' for Active; 'I' for Inactive)
REMARK    1  A    between atoms: N1_1  and  C1_5 
REMARK    2  A    between atoms: C3_9  and  N3_10 
REMARK    3  A    between atoms: N3_10  and  O1_12 
REMARK    4  A    between atoms: C4_14  and  N4_15 
ROOT
HETATM    1  C1  UNL     1      16.356  -1.600 -39.313  1.00  0.00     0.387 C 
HETATM    2  N2  UNL     1      14.985  -1.328 -38.907  1.00  0.00    -0.343 N 
ATOM      3  H2  UNL     1      14.158  -1.862 -39.172  1.00  0.00     0.163 HD
HETATM    4  C2  UNL     1      15.014  -0.172 -38.067  1.00  0.00     0.091 A 
HETATM    5  C3  UNL     1      13.998   0.630 -37.606  1.00  0.00     0.110 A 
HETATM    6  C4  UNL     1      14.218   1.729 -36.784  1.00  0.00     0.070 A 
HETATM    7  C9  UNL     1      15.514   1.980 -36.449  1.00  0.00     0.007 A 
HETATM    8  C10 UNL     1      16.567   1.193 -36.895  1.00  0.00     0.106 A 
HETATM    9  C11 UNL     1      16.299   0.123 -37.703  1.00  0.00     0.094 A 
HETATM   10  N5  UNL     1      17.113  -0.866 -38.323  1.00  0.00    -0.343 N 
ATOM     11  H5  UNL     1      18.094  -1.034 -38.100  1.00  0.00     0.163 HD
HETATM   12  O2  UNL     1      17.938   1.217 -36.717  1.00  0.00    -0.348 OA
HETATM   13  C12 UNL     1      18.858   1.722 -35.812  1.00  0.00     0.176 C 
HETATM   14  C13 UNL     1      19.041   3.219 -35.912  1.00  0.00     0.027 C 
HETATM   15  C14 UNL     1      17.716   3.931 -36.128  1.00  0.00     0.002 C 
HETATM   16  C15 UNL     1      16.819   3.522 -35.000  1.00  0.00     0.005 C 
HETATM   17  C16 UNL     1      15.464   3.172 -35.595  1.00  0.00     0.044 C 
ENDROOT
BRANCH   6  18
HETATM   18  N4  UNL     1      13.156   2.520 -36.340  1.00  0.00    -0.378 N 
HETATM   19  C5  UNL     1      12.514   3.590 -37.120  1.00  0.00     0.123 C 
HETATM   20  C6  UNL     1      11.019   3.359 -36.847  1.00  0.00     0.021 C 
HETATM   21  C7  UNL     1      10.939   2.610 -35.560  1.00  0.00     0.021 C 
HETATM   22  C8  UNL     1      12.392   2.533 -35.094  1.00  0.00     0.123 C 
ENDBRANCH   6  18
BRANCH   5  23
HETATM   23  N3  UNL     1      12.643   0.356 -37.964  1.00  0.00    -0.265 N 
ATOM     24  H3  UNL     1      11.914   0.290 -37.254  1.00  0.00     0.194 HD
BRANCH  23  25
HETATM   25  O1  UNL     1      12.382   0.202 -39.166  1.00  0.00    -0.289 OA
ATOM     26  H1  UNL     1      11.960  -0.608 -39.428  1.00  0.00     0.244 HD
ENDBRANCH  23  25
ENDBRANCH   5  23
BRANCH   1  27
HETATM   27  N1  UNL     1      16.661  -3.001 -39.346  1.00  0.00    -0.041 N 
ATOM     28  H13 UNL     1      16.945  -3.334 -38.425  1.00  0.00     0.279 HD
ATOM     29  H12 UNL     1      15.814  -3.556 -39.470  1.00  0.00     0.279 HD
ATOM     30  H11 UNL     1      17.359  -3.239 -40.051  1.00  0.00     0.279 HD
ENDBRANCH   1  27
TORSDOF 4
ENDMDL
MODEL 4
REMARK VINA RESULT: -6.816458940      1.917      5.151
REMARK  4 active torsions:
REMARK  status: ('A' for Active; 'I' for Inactive)
REMARK    1  A    between atoms: N1_1  and  C1_5 
REMARK    2  A    between atoms: C3_9  and  N3_10 
REMARK    3  A    between atoms: N3_10  and  O1_12 
REMARK    4  A    between atoms: C4_14  and  N4_15 
ROOT
HETATM    1  C1  UNL     1      12.372   2.793 -37.155  1.00  0.00     0.387 C 
HETATM    2  N2  UNL     1      12.859   1.530 -37.689  1.00  0.00    -0.343 N 
ATOM      3  H2  UNL     1      12.300   0.813 -38.153  1.00  0.00     0.163 HD
HETATM    4  C2  UNL     1      14.265   1.481 -37.444  1.00  0.00     0.091 A 
HETATM    5  C3  UNL     1      15.159   0.442 -37.537  1.00  0.00     0.110 A 
HETATM    6  C4  UNL     1      16.512   0.582 -37.256  1.00  0.00     0.070 A 
HETATM    7  C9  UNL     1      16.922   1.824 -36.875  1.00  0.00     0.007 A 
HETATM    8  C10 UNL     1      16.051   2.898 -36.769  1.00  0.00     0.106 A 
HETATM    9  C11 UNL     1      14.727   2.709 -37.057  1.00  0.00     0.094 A 
HETATM   10  N5  UNL     1      13.590   3.565 -37.054  1.00  0.00    -0.343 N 
ATOM     11  H5  UNL     1      13.629   4.582 -36.989  1.00  0.00     0.163 HD
HETATM   12  O2  UNL     1      16.189   4.228 -36.416  1.00  0.00    -0.348 OA
HETATM   13  C12 UNL     1      17.187   5.188 -36.360  1.00  0.00     0.176 C 
HETATM   14  C13 UNL     1      18.154   4.985 -35.217  1.00  0.00     0.027 C 
HETATM   15  C14 UNL     1      18.499   3.517 -35.030  1.00  0.00     0.002 C 
HETATM   16  C15 UNL     1      19.030   3.030 -36.344  1.00  0.00     0.005 C 
HETATM   17  C16 UNL     1      18.365   1.695 -36.641  1.00  0.00     0.044 C 
ENDROOT
BRANCH   6  18
HETATM   18  N4  UNL     1      17.387  -0.503 -37.361  1.00  0.00    -0.378 N 
HETATM   19  C5  UNL     1      17.703  -1.442 -36.274  1.00  0.00     0.123 C 
HETATM   20  C6  UNL     1      17.672  -2.805 -36.982  1.00  0.00     0.021 C 
HETATM   21  C7  UNL     1      17.913  -2.531 -38.429  1.00  0.00     0.021 C 
HETATM   22  C8  UNL     1      18.176  -1.027 -38.474  1.00  0.00     0.123 C 
ENDBRANCH   6  18
BRANCH   5  23
HETATM   23  N3  UNL     1      14.717  -0.856 -37.938  1.00  0.00    -0.265 N 
ATOM     24  H3  UNL     1      14.689  -1.631 -37.276  1.00  0.00     0.194 HD
BRANCH  23  25
HETATM   25  O1  UNL     1      14.369  -1.010 -39.118  1.00  0.00    -0.289 OA
ATOM     26  H1  UNL     1      14.083  -1.875 -39.387  1.00  0.00     0.244 HD
ENDBRANCH  23  25
ENDBRANCH   5  23
BRANCH   1  27
HETATM   27  N1  UNL     1      11.373   3.403 -37.984  1.00  0.00    -0.041 N 
ATOM     28  H13 UNL     1      10.769   2.698 -38.405  1.00  0.00     0.279 HD
ATOM     29  H12 UNL     1      10.683   3.898 -37.419  1.00  0.00     0.279 HD
ATOM     30  H11 UNL     1      11.769   4.017 -38.696  1.00  0.00     0.279 HD
ENDBRANCH   1  27
TORSDOF 4
ENDMDL
MODEL 5
REMARK VINA RESULT: -6.679397828      2.007      2.512
REMARK  4 active torsions:
REMARK  status: ('A' for Active; 'I' for Inactive)
REMARK    1  A    between atoms: N1_1  and  C1_5 
REMARK    2  A    between atoms: C3_9  and  N3_10 
REMARK    3  A    between atoms: N3_10  and  O1_12 
REMARK    4  A    between atoms: C4_14  and  N4_15 
ROOT
HETATM    1  C1  UNL     1      19.243  -0.480 -39.616  1.00  0.00     0.387 C 
HETATM    2  N2  UNL     1      17.902  -1.026 -39.475  1.00  0.00    -0.343 N 
ATOM      3  H2  UNL     1      17.544  -1.875 -39.915  1.00  0.00     0.163 HD
HETATM    4  C2  UNL     1      17.178  -0.154 -38.605  1.00  0.00     0.091 A 
HETATM    5  C3  UNL     1      15.836  -0.076 -38.322  1.00  0.00     0.110 A 
HETATM    6  C4  UNL     1      15.304   0.852 -37.435  1.00  0.00     0.070 A 
HETATM    7  C9  UNL     1      16.193   1.700 -36.846  1.00  0.00     0.007 A 
HETATM    8  C10 UNL     1      17.556   1.652 -37.106  1.00  0.00     0.106 A 
HETATM    9  C11 UNL     1      18.030   0.720 -37.988  1.00  0.00     0.094 A 
HETATM   10  N5  UNL     1      19.329   0.401 -38.473  1.00  0.00    -0.343 N 
ATOM     11  H5  UNL     1      20.201   0.746 -38.070  1.00  0.00     0.163 HD
HETATM   12  O2  UNL     1      18.652   2.369 -36.665  1.00  0.00    -0.348 OA
HETATM   13  C12 UNL     1      19.009   3.155 -35.581  1.00  0.00     0.176 C 
HETATM   14  C13 UNL     1      18.366   4.522 -35.591  1.00  0.00     0.027 C 
HETATM   15  C14 UNL     1      16.914   4.453 -36.034  1.00  0.00     0.002 C 
HETATM   16  C15 UNL     1      16.230   3.486 -35.117  1.00  0.00     0.005 C 
HETATM   17  C16 UNL     1      15.382   2.559 -35.976  1.00  0.00     0.044 C 
ENDROOT
BRANCH   6  18
HETATM   18  N4  UNL     1      13.932   0.898 -37.177  1.00  0.00    -0.378 N 
HETATM   19  C5  UNL     1      13.250   0.167 -36.098  1.00  0.00     0.123 C 
HETATM   20  C6  UNL     1      12.278   1.218 -35.538  1.00  0.00     0.021 C 
HETATM   21  C7  UNL     1      12.059   2.209 -36.631  1.00  0.00     0.021 C 
HETATM   22  C8  UNL     1      12.835   1.627 -37.810  1.00  0.00     0.123 C 
ENDBRANCH   6  18
BRANCH   5  23
HETATM   23  N3  UNL     1      14.914  -0.970 -38.946  1.00  0.00    -0.265 N 
ATOM     24  H3  UNL     1      13.934  -0.716 -39.067  1.00  0.00     0.194 HD
BRANCH  23  25
HETATM   25  O1  UNL     1      15.344  -2.067 -39.334  1.00  0.00    -0.289 OA
ATOM     26  H1  UNL     1      14.743  -2.802 -39.337  1.00  0.00     0.244 HD
ENDBRANCH  23  25
ENDBRANCH   5  23
BRANCH   1  27
HETATM   27  N1  UNL     1      20.259  -1.491 -39.639  1.00  0.00    -0.041 N 
ATOM     28  H13 UNL     1      19.848  -2.419 -39.738  1.00  0.00     0.279 HD
ATOM     29  H12 UNL     1      20.793  -1.453 -40.508  1.00  0.00     0.279 HD
ATOM     30  H11 UNL     1      20.878  -1.451 -38.829  1.00  0.00     0.279 HD
ENDBRANCH   1  27
TORSDOF 4
ENDMDL
