MODEL 1
REMARK VINA RESULT: -8.254297835      0.000      0.000
REMARK  3 active torsions:
REMARK  status: ('A' for Active; 'I' for Inactive)
REMARK    1  A    between atoms: C3_5  and  C4_6 
REMARK    2  A    between atoms: C6_10  and  N3_11 
REMARK    3  A    between atoms: N6_20  and  C9_21 
ROOT
HETATM    1  C4  UNL     1      13.101   1.977 -37.055  1.00  0.00     0.141 A 
HETATM    2  N2  UNL     1      12.183   2.709 -37.743  1.00  0.00    -0.334 N 
ATOM      3  H2  UNL     1      11.984   2.603 -38.738  1.00  0.00     0.168 HD
HETATM    4  C5  UNL     1      11.587   3.573 -36.950  1.00  0.00     0.122 A 
HETATM    5  C6  UNL     1      10.597   4.532 -37.158  1.00  0.00     0.131 A 
HETATM    6  N4  UNL     1      10.172   5.292 -36.138  1.00  0.00    -0.337 N 
ATOM      7  H4  UNL     1       9.448   5.997 -36.281  1.00  0.00     0.168 HD
HETATM    8  C7  UNL     1      10.723   5.106 -34.909  1.00  0.00     0.183 A 
HETATM    9  N5  UNL     1      11.693   4.165 -34.711  1.00  0.00    -0.336 N 
ATOM     10  H5  UNL     1      12.087   4.048 -33.778  1.00  0.00     0.168 HD
HETATM   11  C8  UNL     1      12.137   3.395 -35.701  1.00  0.00     0.141 A 
HETATM   12  N6  UNL     1      13.073   2.400 -35.791  1.00  0.00    -0.310 N 
ENDROOT
BRANCH   1  13
HETATM   13  C3  UNL     1      13.921   0.944 -37.655  1.00  0.00     0.120 A 
HETATM   14  N1  UNL     1      15.191   0.666 -37.399  1.00  0.00    -0.340 N 
HETATM   15  C2  UNL     1      15.598  -0.366 -38.164  1.00  0.00     0.079 A 
ATOM     16  H1  UNL     1      15.774   1.160 -36.723  1.00  0.00     0.167 HD
HETATM   17  C1  UNL     1      16.969  -0.915 -38.111  1.00  0.00     0.089 C 
HETATM   18  N8  UNL     1      14.548  -0.732 -38.910  1.00  0.00    -0.333 N 
HETATM   19  C15 UNL     1      13.486   0.046 -38.635  1.00  0.00     0.148 A 
ATOM     20  H8  UNL     1      14.554  -1.492 -39.590  1.00  0.00     0.168 HD
HETATM   21  N7  UNL     1      12.184  -0.006 -39.200  1.00  0.00    -0.080 NA
ENDBRANCH   1  13
BRANCH  12  22
HETATM   22  C9  UNL     1      13.818   1.983 -34.656  1.00  0.00     0.093 C 
HETATM   23  C10 UNL     1      15.188   2.634 -34.582  1.00  0.00     0.026 C 
HETATM   24  C11 UNL     1      16.262   1.594 -34.360  1.00  0.00     0.002 C 
HETATM   25  C12 UNL     1      15.880   0.812 -33.110  1.00  0.00     0.000 C 
HETATM   26  C13 UNL     1      14.556   0.113 -33.283  1.00  0.00     0.002 C 
HETATM   27  C14 UNL     1      14.028   0.458 -34.646  1.00  0.00     0.026 C 
ENDBRANCH  12  22
BRANCH   5  28
HETATM   28  N3  UNL     1      10.131   4.642 -38.347  1.00  0.00    -0.383 N 
ATOM     29  H32 UNL     1      10.597   4.241 -39.162  1.00  0.00     0.157 HD
ATOM     30  H31 UNL     1       9.257   5.156 -38.458  1.00  0.00     0.157 HD
ENDBRANCH   5  28
TORSDOF 3
ENDMDL
MODEL 2
REMARK VINA RESULT: -8.089934639      1.910      2.498
REMARK  3 active torsions:
REMARK  status: ('A' for Active; 'I' for Inactive)
REMARK    1  A    between atoms: C3_5  and  C4_6 
REMARK    2  A    between atoms: C6_10  and  N3_11 
REMARK    3  A    between atoms: N6_20  and  C9_21 
ROOT
HETATM    1  C4  UNL     1      14.576   2.781 -36.742  1.00  0.00     0.141 A 
HETATM    2  N2  UNL     1      13.599   3.335 -37.511  1.00  0.00    -0.334 N 
ATOM      3  H2  UNL     1      13.720   3.624 -38.482  1.00  0.00     0.168 HD
HETATM    4  C5  UNL     1      12.478   3.447 -36.832  1.00  0.00     0.122 A 
HETATM    5  C6  UNL     1      11.215   3.940 -37.154  1.00  0.00     0.131 A 
HETATM    6  N4  UNL     1      10.235   3.931 -36.237  1.00  0.00    -0.337 N 
ATOM      7  H4  UNL     1       9.308   4.290 -36.464  1.00  0.00     0.168 HD
HETATM    8  C7  UNL     1      10.502   3.434 -35.000  1.00  0.00     0.183 A 
HETATM    9  N5  UNL     1      11.742   2.952 -34.690  1.00  0.00    -0.336 N 
ATOM     10  H5  UNL     1      11.912   2.586 -33.754  1.00  0.00     0.168 HD
HETATM   11  C8  UNL     1      12.735   2.948 -35.576  1.00  0.00     0.141 A 
HETATM   12  N6  UNL     1      14.042   2.540 -35.543  1.00  0.00    -0.310 N 
ENDROOT
BRANCH   1  13
HETATM   13  C3  UNL     1      15.924   2.531 -37.208  1.00  0.00     0.120 A 
HETATM   14  N1  UNL     1      16.435   1.385 -37.635  1.00  0.00    -0.340 N 
HETATM   15  C2  UNL     1      17.726   1.560 -37.982  1.00  0.00     0.079 A 
ATOM     16  H1  UNL     1      15.928   0.502 -37.692  1.00  0.00     0.167 HD
HETATM   17  C1  UNL     1      18.575   0.466 -38.498  1.00  0.00     0.089 C 
HETATM   18  N8  UNL     1      18.015   2.849 -37.762  1.00  0.00    -0.333 N 
HETATM   19  C15 UNL     1      16.936   3.494 -37.283  1.00  0.00     0.148 A 
ATOM     20  H8  UNL     1      18.923   3.280 -37.934  1.00  0.00     0.168 HD
HETATM   21  N7  UNL     1      16.814   4.862 -36.922  1.00  0.00    -0.080 NA
ENDBRANCH   1  13
BRANCH  12  22
HETATM   22  C9  UNL     1      14.609   1.973 -34.372  1.00  0.00     0.093 C 
HETATM   23  C10 UNL     1      15.944   2.598 -34.004  1.00  0.00     0.026 C 
HETATM   24  C11 UNL     1      16.983   1.530 -33.757  1.00  0.00     0.002 C 
HETATM   25  C12 UNL     1      16.425   0.595 -32.693  1.00  0.00     0.000 C 
HETATM   26  C13 UNL     1      15.151  -0.066 -33.157  1.00  0.00     0.002 C 
HETATM   27  C14 UNL     1      14.834   0.458 -34.528  1.00  0.00     0.026 C 
ENDBRANCH  12  22
BRANCH   5  28
HETATM   28  N3  UNL     1      11.049   4.390 -38.343  1.00  0.00    -0.383 N 
ATOM     29  H32 UNL     1      11.610   4.077 -39.135  1.00  0.00     0.157 HD
ATOM     30  H31 UNL     1      10.319   5.090 -38.477  1.00  0.00     0.157 HD
ENDBRANCH   5  28
TORSDOF 3
ENDMDL
MODEL 3
REMARK VINA RESULT: -7.649494648      0.954      1.022
REMARK  3 active torsions:
REMARK  status: ('A' for Active; 'I' for Inactive)
REMARK    1  A    between atoms: C3_5  and  C4_6 
REMARK    2  A    between atoms: C6_10  and  N3_11 
REMARK    3  A    between atoms: N6_20  and  C9_21 
ROOT
HETATM    1  C4  UNL     1      13.977   2.114 -36.858  1.00  0.00     0.141 A 
HETATM    2  N2  UNL     1      13.058   2.791 -37.600  1.00  0.00    -0.334 N 
ATOM      3  H2  UNL     1      13.022   2.791 -38.619  1.00  0.00     0.168 HD
HETATM    4  C5  UNL     1      12.223   3.447 -36.822  1.00  0.00     0.122 A 
HETATM    5  C6  UNL     1      11.130   4.272 -37.081  1.00  0.00     0.131 A 
HETATM    6  N4  UNL     1      10.446   4.821 -36.065  1.00  0.00    -0.337 N 
ATOM      7  H4  UNL     1       9.645   5.426 -36.245  1.00  0.00     0.168 HD
HETATM    8  C7  UNL     1      10.842   4.555 -34.791  1.00  0.00     0.183 A 
HETATM    9  N5  UNL     1      11.914   3.745 -34.544  1.00  0.00    -0.336 N 
ATOM     10  H5  UNL     1      12.186   3.564 -33.578  1.00  0.00     0.168 HD
HETATM   11  C8  UNL     1      12.613   3.186 -35.529  1.00  0.00     0.141 A 
HETATM   12  N6  UNL     1      13.702   2.357 -35.575  1.00  0.00    -0.310 N 
ENDROOT
BRANCH   1  13
HETATM   13  C3  UNL     1      15.030   1.300 -37.427  1.00  0.00     0.120 A 
HETATM   14  N1  UNL     1      16.340   1.480 -37.326  1.00  0.00    -0.340 N 
HETATM   15  C2  UNL     1      16.990   0.508 -37.997  1.00  0.00     0.079 A 
ATOM     16  H1  UNL     1      16.789   2.241 -36.817  1.00  0.00     0.167 HD
HETATM   17  C1  UNL     1      18.463   0.432 -38.073  1.00  0.00     0.089 C 
HETATM   18  N8  UNL     1      16.053  -0.291 -38.524  1.00  0.00    -0.333 N 
HETATM   19  C15 UNL     1      14.825   0.154 -38.203  1.00  0.00     0.148 A 
ATOM     20  H8  UNL     1      16.244  -1.118 -39.088  1.00  0.00     0.168 HD
HETATM   21  N7  UNL     1      13.566  -0.399 -38.557  1.00  0.00    -0.080 NA
ENDBRANCH   1  13
BRANCH  12  22
HETATM   22  C9  UNL     1      14.336   1.906 -34.388  1.00  0.00     0.093 C 
HETATM   23  C10 UNL     1      15.676   2.580 -34.146  1.00  0.00     0.026 C 
HETATM   24  C11 UNL     1      16.746   1.553 -33.858  1.00  0.00     0.002 C 
HETATM   25  C12 UNL     1      16.258   0.709 -32.688  1.00  0.00     0.000 C 
HETATM   26  C13 UNL     1      14.975  -0.009 -33.026  1.00  0.00     0.002 C 
HETATM   27  C14 UNL     1      14.581   0.386 -34.421  1.00  0.00     0.026 C 
ENDBRANCH  12  22
BRANCH   5  28
HETATM   28  N3  UNL     1      10.825   4.471 -38.310  1.00  0.00    -0.383 N 
ATOM     29  H32 UNL     1      11.253   3.950 -39.076  1.00  0.00     0.157 HD
ATOM     30  H31 UNL     1      10.123   5.184 -38.505  1.00  0.00     0.157 HD
ENDBRANCH   5  28
TORSDOF 3
ENDMDL
MODEL 4
REMARK VINA RESULT: -7.551191829      2.304      6.227
REMARK  3 active torsions:
REMARK  status: ('A' for Active; 'I' for Inactive)
REMARK    1  A    between atoms: C3_5  and  C4_6 
REMARK    2  A    between atoms: C6_10  and  N3_11 
REMARK    3  A    between atoms: N6_20  and  C9_21 
ROOT
HETATM    1  C4  UNL     1      15.102   0.140 -37.804  1.00  0.00     0.141 A 
HETATM    2  N2  UNL     1      15.107  -1.038 -38.485  1.00  0.00    -0.334 N 
ATOM      3  H2  UNL     1      14.270  -1.549 -38.766  1.00  0.00     0.168 HD
HETATM    4  C5  UNL     1      16.340  -1.427 -38.732  1.00  0.00     0.122 A 
HETATM    5  C6  UNL     1      16.875  -2.538 -39.382  1.00  0.00     0.131 A 
HETATM    6  N4  UNL     1      18.206  -2.679 -39.487  1.00  0.00    -0.337 N 
ATOM      7  H4  UNL     1      18.606  -3.489 -39.960  1.00  0.00     0.168 HD
HETATM    8  C7  UNL     1      19.009  -1.723 -38.949  1.00  0.00     0.183 A 
HETATM    9  N5  UNL     1      18.479  -0.637 -38.314  1.00  0.00    -0.336 N 
ATOM     10  H5  UNL     1      19.107   0.064 -37.921  1.00  0.00     0.168 HD
HETATM   11  C8  UNL     1      17.165  -0.467 -38.192  1.00  0.00     0.141 A 
HETATM   12  N6  UNL     1      16.375   0.495 -37.623  1.00  0.00    -0.310 N 
ENDROOT
BRANCH   1  13
HETATM   13  C3  UNL     1      13.895   0.823 -37.386  1.00  0.00     0.120 A 
HETATM   14  N1  UNL     1      13.717   1.567 -36.303  1.00  0.00    -0.340 N 
HETATM   15  C2  UNL     1      12.451   2.030 -36.267  1.00  0.00     0.079 A 
ATOM     16  H1  UNL     1      14.432   1.761 -35.602  1.00  0.00     0.167 HD
HETATM   17  C1  UNL     1      11.941   2.891 -35.180  1.00  0.00     0.089 C 
HETATM   18  N8  UNL     1      11.835   1.556 -37.357  1.00  0.00    -0.333 N 
HETATM   19  C15 UNL     1      12.683   0.804 -38.083  1.00  0.00     0.148 A 
ATOM     20  H8  UNL     1      10.863   1.740 -37.603  1.00  0.00     0.168 HD
HETATM   21  N7  UNL     1      12.433   0.122 -39.304  1.00  0.00    -0.080 NA
ENDBRANCH   1  13
BRANCH  12  22
HETATM   22  C9  UNL     1      16.940   1.628 -36.980  1.00  0.00     0.093 C 
HETATM   23  C10 UNL     1      17.969   2.340 -37.842  1.00  0.00     0.026 C 
HETATM   24  C11 UNL     1      19.244   2.575 -37.067  1.00  0.00     0.002 C 
HETATM   25  C12 UNL     1      18.869   3.332 -35.800  1.00  0.00     0.000 C 
HETATM   26  C13 UNL     1      17.921   2.532 -34.943  1.00  0.00     0.002 C 
HETATM   27  C14 UNL     1      17.629   1.244 -35.658  1.00  0.00     0.026 C 
ENDBRANCH  12  22
BRANCH   5  28
HETATM   28  N3  UNL     1      16.047  -3.391 -39.860  1.00  0.00    -0.383 N 
ATOM     29  H32 UNL     1      16.308  -4.354 -40.076  1.00  0.00     0.157 HD
ATOM     30  H31 UNL     1      15.092  -3.071 -40.023  1.00  0.00     0.157 HD
ENDBRANCH   5  28
TORSDOF 3
ENDMDL
MODEL 5
REMARK VINA RESULT: -7.375929114      2.544      6.381
REMARK  3 active torsions:
REMARK  status: ('A' for Active; 'I' for Inactive)
REMARK    1  A    between atoms: C3_5  and  C4_6 
REMARK    2  A    between atoms: C6_10  and  N3_11 
REMARK    3  A    between atoms: N6_20  and  C9_21 
ROOT
HETATM    1  C4  UNL     1      15.477   0.083 -37.280  1.00  0.00     0.141 A 
HETATM    2  N2  UNL     1      15.443  -1.081 -37.985  1.00  0.00    -0.334 N 
ATOM      3  H2  UNL     1      14.706  -1.782 -37.911  1.00  0.00     0.168 HD
HETATM    4  C5  UNL     1      16.492  -1.178 -38.774  1.00  0.00     0.122 A 
HETATM    5  C6  UNL     1      16.918  -2.151 -39.676  1.00  0.00     0.131 A 
HETATM    6  N4  UNL     1      18.059  -1.980 -40.361  1.00  0.00    -0.337 N 
ATOM      7  H4  UNL     1      18.379  -2.687 -41.023  1.00  0.00     0.168 HD
HETATM    8  C7  UNL     1      18.781  -0.846 -40.156  1.00  0.00     0.183 A 
HETATM    9  N5  UNL     1      18.359   0.104 -39.270  1.00  0.00    -0.336 N 
ATOM     10  H5  UNL     1      18.922   0.944 -39.138  1.00  0.00     0.168 HD
HETATM   11  C8  UNL     1      17.233  -0.035 -38.575  1.00  0.00     0.141 A 
HETATM   12  N6  UNL     1      16.584   0.732 -37.645  1.00  0.00    -0.310 N 
ENDROOT
BRANCH   1  13
HETATM   13  C3  UNL     1      14.461   0.477 -36.326  1.00  0.00     0.120 A 
HETATM   14  N1  UNL     1      13.329   1.123 -36.566  1.00  0.00    -0.340 N 
HETATM   15  C2  UNL     1      12.651   1.304 -35.415  1.00  0.00     0.079 A 
ATOM     16  H1  UNL     1      13.017   1.438 -37.485  1.00  0.00     0.167 HD
HETATM   17  C1  UNL     1      11.346   1.995 -35.350  1.00  0.00     0.089 C 
HETATM   18  N8  UNL     1      13.387   0.752 -34.441  1.00  0.00    -0.333 N 
HETATM   19  C15 UNL     1      14.516   0.227 -34.951  1.00  0.00     0.148 A 
ATOM     20  H8  UNL     1      13.128   0.733 -33.455  1.00  0.00     0.168 HD
HETATM   21  N7  UNL     1      15.563  -0.445 -34.266  1.00  0.00    -0.080 NA
ENDBRANCH   1  13
BRANCH  12  22
HETATM   22  C9  UNL     1      17.106   1.985 -37.228  1.00  0.00     0.093 C 
HETATM   23  C10 UNL     1      17.657   1.948 -35.813  1.00  0.00     0.026 C 
HETATM   24  C11 UNL     1      17.103   3.092 -34.996  1.00  0.00     0.002 C 
HETATM   25  C12 UNL     1      17.417   4.378 -35.748  1.00  0.00     0.000 C 
HETATM   26  C13 UNL     1      16.763   4.392 -37.107  1.00  0.00     0.002 C 
HETATM   27  C14 UNL     1      16.035   3.090 -37.281  1.00  0.00     0.026 C 
ENDBRANCH  12  22
BRANCH   5  28
HETATM   28  N3  UNL     1      16.177  -3.189 -39.809  1.00  0.00    -0.383 N 
ATOM     29  H32 UNL     1      15.422  -3.415 -39.161  1.00  0.00     0.157 HD
ATOM     30  H31 UNL     1      16.370  -3.798 -40.604  1.00  0.00     0.157 HD
ENDBRANCH   5  28
TORSDOF 3
ENDMDL
