MODEL 1
REMARK VINA RESULT: -9.903884293      0.000      0.000
REMARK  6 active torsions:
REMARK  status: ('A' for Active; 'I' for Inactive)
REMARK    1  A    between atoms: C2_2  and  N1_3 
REMARK    2  A    between atoms: N1_3  and  C3_5 
REMARK    3  A    between atoms: N2_8  and  C6_9 
REMARK    4  A    between atoms: C6_9  and  C7_10 
REMARK    5  A    between atoms: C7_10  and  N3_11 
REMARK    6  A    between atoms: C10_17  and  C11_18 
ROOT
HETATM    1  N3  UNL     1      14.640   8.718   1.821  1.00  0.00    -0.282 N 
HETATM    2  C8  UNL     1      13.436   8.919   2.346  1.00  0.00     0.328 A 
HETATM    3  O1  UNL     1      12.298   9.030   1.804  1.00  0.00    -0.246 OA
HETATM    4  N4  UNL     1      13.543   9.007   3.708  1.00  0.00    -0.303 N 
ATOM      5  H4  UNL     1      12.785   9.161   4.374  1.00  0.00     0.171 HD
HETATM    6  C9  UNL     1      14.841   8.852   3.990  1.00  0.00     0.104 A 
HETATM    7  C10 UNL     1      15.522   8.846   5.216  1.00  0.00     0.050 A 
HETATM    8  N5  UNL     1      16.851   8.652   5.129  1.00  0.00    -0.353 N 
ATOM      9  H5  UNL     1      17.373   8.642   6.005  1.00  0.00     0.166 HD
HETATM   10  C20 UNL     1      17.552   8.473   4.006  1.00  0.00     0.182 A 
HETATM   11  N6  UNL     1      16.897   8.481   2.834  1.00  0.00    -0.336 N 
ATOM     12  H6  UNL     1      17.400   8.348   1.957  1.00  0.00     0.168 HD
HETATM   13  C21 UNL     1      15.568   8.668   2.839  1.00  0.00     0.141 A 
ENDROOT
BRANCH   1  14
HETATM   14  C7  UNL     1      15.014   8.568   0.428  1.00  0.00     0.166 C 
BRANCH  14  15
HETATM   15  C6  UNL     1      15.870   9.699  -0.014  1.00  0.00     0.292 C 
BRANCH  15  16
HETATM   16  N2  UNL     1      15.375  10.492  -1.104  1.00  0.00     0.090 N 
HETATM   17  C5  UNL     1      13.967  10.207  -1.370  1.00  0.00     0.274 C 
HETATM   18  C4  UNL     1      13.544  10.966  -2.594  1.00  0.00     0.055 C 
HETATM   19  C3  UNL     1      14.132  10.306  -3.798  1.00  0.00     0.079 C 
HETATM   20  C23 UNL     1      15.364   9.519  -3.373  1.00  0.00     0.055 C 
HETATM   21  C22 UNL     1      16.129  10.224  -2.287  1.00  0.00     0.274 C 
BRANCH  19  22
HETATM   22  N1  UNL     1      13.267   9.368  -4.461  1.00  0.00    -0.417 N 
ATOM     23  H1  UNL     1      13.447   8.364  -4.462  1.00  0.00     0.153 HD
BRANCH  22  24
HETATM   24  C2  UNL     1      12.133   9.948  -5.123  1.00  0.00     0.110 C 
HETATM   25  C1  UNL     1      10.817   9.373  -4.636  1.00  0.00     0.026 C 
ENDBRANCH  22  24
ENDBRANCH  19  22
ENDBRANCH  15  16
ENDBRANCH  14  15
ENDBRANCH   1  14
BRANCH   7  26
HETATM   26  C11 UNL     1      14.884   9.044   6.512  1.00  0.00     0.009 C 
HETATM   27  C12 UNL     1      15.982   8.997   7.584  1.00  0.00     0.021 C 
HETATM   28  C13 UNL     1      15.134   8.603   8.794  1.00  0.00    -0.013 C 
HETATM   29  C14 UNL     1      14.208   9.729   9.119  1.00  0.00     0.009 C 
HETATM   30  C18 UNL     1      14.410   7.395   8.192  1.00  0.00     0.010 C 
HETATM   31  C15 UNL     1      13.390  10.137   7.926  1.00  0.00    -0.013 C 
HETATM   32  C16 UNL     1      12.658   8.872   7.476  1.00  0.00     0.010 C 
HETATM   33  C19 UNL     1      14.254  10.398   6.703  1.00  0.00     0.021 C 
HETATM   34  C17 UNL     1      13.849   8.066   6.925  1.00  0.00     0.001 C 
ENDBRANCH   7  26
TORSDOF 6
ENDMDL
MODEL 2
REMARK VINA RESULT: -9.738459294      0.977      1.030
REMARK  6 active torsions:
REMARK  status: ('A' for Active; 'I' for Inactive)
REMARK    1  A    between atoms: C2_2  and  N1_3 
REMARK    2  A    between atoms: N1_3  and  C3_5 
REMARK    3  A    between atoms: N2_8  and  C6_9 
REMARK    4  A    between atoms: C6_9  and  C7_10 
REMARK    5  A    between atoms: C7_10  and  N3_11 
REMARK    6  A    between atoms: C10_17  and  C11_18 
ROOT
HETATM    1  N3  UNL     1      15.927  10.065   2.003  1.00  0.00    -0.282 N 
HETATM    2  C8  UNL     1      14.730  10.499   2.383  1.00  0.00     0.328 A 
HETATM    3  O1  UNL     1      13.829  11.121   1.748  1.00  0.00    -0.246 OA
HETATM    4  N4  UNL     1      14.524  10.174   3.696  1.00  0.00    -0.303 N 
ATOM      5  H4  UNL     1      13.697  10.380   4.256  1.00  0.00     0.171 HD
HETATM    6  C9  UNL     1      15.626   9.531   4.098  1.00  0.00     0.104 A 
HETATM    7  C10 UNL     1      15.964   8.968   5.337  1.00  0.00     0.050 A 
HETATM    8  N5  UNL     1      17.173   8.380   5.386  1.00  0.00    -0.353 N 
ATOM      9  H5  UNL     1      17.445   7.960   6.274  1.00  0.00     0.166 HD
HETATM   10  C20 UNL     1      18.051   8.293   4.383  1.00  0.00     0.182 A 
HETATM   11  N6  UNL     1      17.726   8.834   3.198  1.00  0.00    -0.336 N 
ATOM     12  H6  UNL     1      18.372   8.787   2.410  1.00  0.00     0.168 HD
HETATM   13  C21 UNL     1      16.534   9.438   3.070  1.00  0.00     0.141 A 
ENDROOT
BRANCH   1  14
HETATM   14  C7  UNL     1      16.573  10.185   0.711  1.00  0.00     0.166 C 
BRANCH  14  15
HETATM   15  C6  UNL     1      15.798   9.471  -0.337  1.00  0.00     0.292 C 
BRANCH  15  16
HETATM   16  N2  UNL     1      15.151  10.288  -1.326  1.00  0.00     0.090 N 
HETATM   17  C5  UNL     1      13.767   9.869  -1.537  1.00  0.00     0.274 C 
HETATM   18  C4  UNL     1      13.187  10.670  -2.665  1.00  0.00     0.055 C 
HETATM   19  C3  UNL     1      13.763  10.179  -3.952  1.00  0.00     0.079 C 
HETATM   20  C23 UNL     1      15.098   9.504  -3.666  1.00  0.00     0.055 C 
HETATM   21  C22 UNL     1      15.851  10.201  -2.567  1.00  0.00     0.274 C 
BRANCH  19  22
HETATM   22  N1  UNL     1      12.963   9.205  -4.644  1.00  0.00    -0.417 N 
ATOM     23  H1  UNL     1      13.355   8.566  -5.335  1.00  0.00     0.153 HD
BRANCH  22  24
HETATM   24  C2  UNL     1      11.571   9.199  -4.293  1.00  0.00     0.110 C 
HETATM   25  C1  UNL     1      10.718   9.981  -5.274  1.00  0.00     0.026 C 
ENDBRANCH  22  24
ENDBRANCH  19  22
ENDBRANCH  15  16
ENDBRANCH  14  15
ENDBRANCH   1  14
BRANCH   7  26
HETATM   26  C11 UNL     1      15.108   9.004   6.516  1.00  0.00     0.009 C 
HETATM   27  C12 UNL     1      15.962   8.598   7.726  1.00  0.00     0.021 C 
HETATM   28  C13 UNL     1      14.857   8.105   8.660  1.00  0.00    -0.013 C 
HETATM   29  C14 UNL     1      14.007   9.269   9.055  1.00  0.00     0.009 C 
HETATM   30  C18 UNL     1      14.143   7.149   7.699  1.00  0.00     0.010 C 
HETATM   31  C15 UNL     1      13.487  10.009   7.854  1.00  0.00    -0.013 C 
HETATM   32  C16 UNL     1      12.729   8.970   7.026  1.00  0.00     0.010 C 
HETATM   33  C19 UNL     1      14.597  10.373   6.882  1.00  0.00     0.021 C 
HETATM   34  C17 UNL     1      13.915   8.123   6.528  1.00  0.00     0.001 C 
ENDBRANCH   7  26
TORSDOF 6
ENDMDL
MODEL 3
REMARK VINA RESULT: -9.550624478      1.722      2.447
REMARK  6 active torsions:
REMARK  status: ('A' for Active; 'I' for Inactive)
REMARK    1  A    between atoms: C2_2  and  N1_3 
REMARK    2  A    between atoms: N1_3  and  C3_5 
REMARK    3  A    between atoms: N2_8  and  C6_9 
REMARK    4  A    between atoms: C6_9  and  C7_10 
REMARK    5  A    between atoms: C7_10  and  N3_11 
REMARK    6  A    between atoms: C10_17  and  C11_18 
ROOT
HETATM    1  N3  UNL     1      16.025  10.764   2.044  1.00  0.00    -0.282 N 
HETATM    2  C8  UNL     1      16.876  10.995   3.038  1.00  0.00     0.328 A 
HETATM    3  O1  UNL     1      18.029  11.517   3.043  1.00  0.00    -0.246 OA
HETATM    4  N4  UNL     1      16.328  10.563   4.215  1.00  0.00    -0.303 N 
ATOM      5  H4  UNL     1      16.752  10.609   5.141  1.00  0.00     0.171 HD
HETATM    6  C9  UNL     1      15.125  10.068   3.906  1.00  0.00     0.104 A 
HETATM    7  C10 UNL     1      14.129   9.500   4.712  1.00  0.00     0.050 A 
HETATM    8  N5  UNL     1      13.020   9.109   4.059  1.00  0.00    -0.353 N 
ATOM      9  H5  UNL     1      12.277   8.692   4.620  1.00  0.00     0.166 HD
HETATM   10  C20 UNL     1      12.798   9.213   2.746  1.00  0.00     0.182 A 
HETATM   11  N6  UNL     1      13.754   9.756   1.976  1.00  0.00    -0.336 N 
ATOM     12  H6  UNL     1      13.619   9.851   0.969  1.00  0.00     0.168 HD
HETATM   13  C21 UNL     1      14.890  10.172   2.556  1.00  0.00     0.141 A 
ENDROOT
BRANCH   1  14
HETATM   14  C7  UNL     1      16.176  11.046   0.629  1.00  0.00     0.166 C 
BRANCH  14  15
HETATM   15  C6  UNL     1      17.091  10.066  -0.011  1.00  0.00     0.292 C 
BRANCH  15  16
HETATM   16  N2  UNL     1      16.617   9.431  -1.209  1.00  0.00     0.090 N 
HETATM   17  C5  UNL     1      16.311  10.415  -2.245  1.00  0.00     0.274 C 
HETATM   18  C4  UNL     1      15.701   9.705  -3.419  1.00  0.00     0.055 C 
HETATM   19  C3  UNL     1      14.304   9.312  -3.072  1.00  0.00     0.079 C 
HETATM   20  C23 UNL     1      14.182   9.219  -1.557  1.00  0.00     0.055 C 
HETATM   21  C22 UNL     1      15.437   8.678  -0.929  1.00  0.00     0.274 C 
BRANCH  19  22
HETATM   22  N1  UNL     1      13.287  10.235  -3.499  1.00  0.00    -0.417 N 
ATOM     23  H1  UNL     1      12.999  11.032  -2.932  1.00  0.00     0.153 HD
BRANCH  22  24
HETATM   24  C2  UNL     1      12.707   9.952  -4.782  1.00  0.00     0.110 C 
HETATM   25  C1  UNL     1      11.250   9.544  -4.685  1.00  0.00     0.026 C 
ENDBRANCH  22  24
ENDBRANCH  19  22
ENDBRANCH  15  16
ENDBRANCH  14  15
ENDBRANCH   1  14
BRANCH   7  26
HETATM   26  C11 UNL     1      14.245   9.312   6.154  1.00  0.00     0.009 C 
HETATM   27  C12 UNL     1      15.610   8.665   6.431  1.00  0.00     0.021 C 
HETATM   28  C13 UNL     1      15.307   8.011   7.779  1.00  0.00    -0.013 C 
HETATM   29  C14 UNL     1      15.082   9.084   8.794  1.00  0.00     0.009 C 
HETATM   30  C18 UNL     1      14.019   7.272   7.401  1.00  0.00     0.010 C 
HETATM   31  C15 UNL     1      14.022  10.053   8.351  1.00  0.00    -0.013 C 
HETATM   32  C16 UNL     1      12.775   9.207   8.088  1.00  0.00     0.010 C 
HETATM   33  C19 UNL     1      14.285  10.588   6.953  1.00  0.00     0.021 C 
HETATM   34  C17 UNL     1      13.231   8.461   6.821  1.00  0.00     0.001 C 
ENDBRANCH   7  26
TORSDOF 6
ENDMDL
MODEL 4
REMARK VINA RESULT: -9.410914906      1.906      3.708
REMARK  6 active torsions:
REMARK  status: ('A' for Active; 'I' for Inactive)
REMARK    1  A    between atoms: C2_2  and  N1_3 
REMARK    2  A    between atoms: N1_3  and  C3_5 
REMARK    3  A    between atoms: N2_8  and  C6_9 
REMARK    4  A    between atoms: C6_9  and  C7_10 
REMARK    5  A    between atoms: C7_10  and  N3_11 
REMARK    6  A    between atoms: C10_17  and  C11_18 
ROOT
HETATM    1  N3  UNL     1      14.430   8.640   1.655  1.00  0.00    -0.282 N 
HETATM    2  C8  UNL     1      13.249   8.813   2.239  1.00  0.00     0.328 A 
HETATM    3  O1  UNL     1      12.080   8.869   1.756  1.00  0.00    -0.246 OA
HETATM    4  N4  UNL     1      13.425   8.944   3.590  1.00  0.00    -0.303 N 
ATOM      5  H4  UNL     1      12.699   9.089   4.291  1.00  0.00     0.171 HD
HETATM    6  C9  UNL     1      14.741   8.843   3.805  1.00  0.00     0.104 A 
HETATM    7  C10 UNL     1      15.486   8.896   4.992  1.00  0.00     0.050 A 
HETATM    8  N5  UNL     1      16.815   8.747   4.838  1.00  0.00    -0.353 N 
ATOM      9  H5  UNL     1      17.382   8.779   5.685  1.00  0.00     0.166 HD
HETATM   10  C20 UNL     1      17.461   8.560   3.685  1.00  0.00     0.182 A 
HETATM   11  N6  UNL     1      16.745   8.512   2.550  1.00  0.00    -0.336 N 
ATOM     12  H6  UNL     1      17.206   8.372   1.650  1.00  0.00     0.168 HD
HETATM   13  C21 UNL     1      15.413   8.652   2.621  1.00  0.00     0.141 A 
ENDROOT
BRANCH   1  14
HETATM   14  C7  UNL     1      14.735   8.464   0.248  1.00  0.00     0.166 C 
BRANCH  14  15
HETATM   15  C6  UNL     1      14.507   9.725  -0.504  1.00  0.00     0.292 C 
BRANCH  15  16
HETATM   16  N2  UNL     1      15.677  10.413  -0.975  1.00  0.00     0.090 N 
HETATM   17  C5  UNL     1      16.795   9.492  -1.162  1.00  0.00     0.274 C 
HETATM   18  C4  UNL     1      18.017  10.283  -1.527  1.00  0.00     0.055 C 
HETATM   19  C3  UNL     1      18.516  10.988  -0.310  1.00  0.00     0.079 C 
HETATM   20  C23 UNL     1      17.363  11.152   0.670  1.00  0.00     0.055 C 
HETATM   21  C22 UNL     1      16.063  11.419  -0.037  1.00  0.00     0.274 C 
BRANCH  19  22
HETATM   22  N1  UNL     1      19.557  10.302   0.407  1.00  0.00    -0.417 N 
ATOM     23  H1  UNL     1      19.911   9.391   0.119  1.00  0.00     0.153 HD
BRANCH  22  24
HETATM   24  C2  UNL     1      20.061  10.995   1.559  1.00  0.00     0.110 C 
HETATM   25  C1  UNL     1      20.968  12.154   1.192  1.00  0.00     0.026 C 
ENDBRANCH  22  24
ENDBRANCH  19  22
ENDBRANCH  15  16
ENDBRANCH  14  15
ENDBRANCH   1  14
BRANCH   7  26
HETATM   26  C11 UNL     1      14.911   9.108   6.315  1.00  0.00     0.009 C 
HETATM   27  C12 UNL     1      16.053   9.026   7.338  1.00  0.00     0.021 C 
HETATM   28  C13 UNL     1      15.248   8.653   8.583  1.00  0.00    -0.013 C 
HETATM   29  C14 UNL     1      14.369   9.804   8.950  1.00  0.00     0.009 C 
HETATM   30  C18 UNL     1      14.464   7.467   8.011  1.00  0.00     0.010 C 
HETATM   31  C15 UNL     1      13.512  10.238   7.795  1.00  0.00    -0.013 C 
HETATM   32  C16 UNL     1      12.725   8.995   7.375  1.00  0.00     0.010 C 
HETATM   33  C19 UNL     1      14.329  10.479   6.535  1.00  0.00     0.021 C 
HETATM   34  C17 UNL     1      13.868   8.158   6.772  1.00  0.00     0.001 C 
ENDBRANCH   7  26
TORSDOF 6
ENDMDL
MODEL 5
REMARK VINA RESULT: -9.369125578      2.071      2.623
REMARK  6 active torsions:
REMARK  status: ('A' for Active; 'I' for Inactive)
REMARK    1  A    between atoms: C2_2  and  N1_3 
REMARK    2  A    between atoms: N1_3  and  C3_5 
REMARK    3  A    between atoms: N2_8  and  C6_9 
REMARK    4  A    between atoms: C6_9  and  C7_10 
REMARK    5  A    between atoms: C7_10  and  N3_11 
REMARK    6  A    between atoms: C10_17  and  C11_18 
ROOT
HETATM    1  N3  UNL     1      17.284  11.506   2.879  1.00  0.00    -0.282 N 
HETATM    2  C8  UNL     1      16.455  12.304   3.543  1.00  0.00     0.328 A 
HETATM    3  O1  UNL     1      16.148  13.520   3.368  1.00  0.00    -0.246 OA
HETATM    4  N4  UNL     1      15.882  11.609   4.573  1.00  0.00    -0.303 N 
ATOM      5  H4  UNL     1      15.208  11.962   5.251  1.00  0.00     0.171 HD
HETATM    6  C9  UNL     1      16.385  10.371   4.511  1.00  0.00     0.104 A 
HETATM    7  C10 UNL     1      16.150   9.241   5.307  1.00  0.00     0.050 A 
HETATM    8  N5  UNL     1      16.833   8.138   4.949  1.00  0.00    -0.353 N 
ATOM      9  H5  UNL     1      16.681   7.300   5.509  1.00  0.00     0.166 HD
HETATM   10  C20 UNL     1      17.691   8.036   3.930  1.00  0.00     0.182 A 
HETATM   11  N6  UNL     1      17.915   9.120   3.171  1.00  0.00    -0.336 N 
ATOM     12  H6  UNL     1      18.564   9.079   2.385  1.00  0.00     0.168 HD
HETATM   13  C21 UNL     1      17.269  10.259   3.465  1.00  0.00     0.141 A 
ENDROOT
BRANCH   1  14
HETATM   14  C7  UNL     1      18.111  11.806   1.726  1.00  0.00     0.166 C 
BRANCH  14  15
HETATM   15  C6  UNL     1      17.295  11.837   0.484  1.00  0.00     0.292 C 
BRANCH  15  16
HETATM   16  N2  UNL     1      16.674  10.602   0.092  1.00  0.00     0.090 N 
HETATM   17  C5  UNL     1      16.815  10.369  -1.343  1.00  0.00     0.274 C 
HETATM   18  C4  UNL     1      16.040   9.138  -1.710  1.00  0.00     0.055 C 
HETATM   19  C3  UNL     1      14.583   9.460  -1.684  1.00  0.00     0.079 C 
HETATM   20  C23 UNL     1      14.361  10.656  -0.768  1.00  0.00     0.055 C 
HETATM   21  C22 UNL     1      15.284  10.629   0.419  1.00  0.00     0.274 C 
BRANCH  19  22
HETATM   22  N1  UNL     1      14.015   9.818  -2.955  1.00  0.00    -0.417 N 
ATOM     23  H1  UNL     1      13.217  10.447  -3.040  1.00  0.00     0.153 HD
BRANCH  22  24
HETATM   24  C2  UNL     1      14.653   9.226  -4.097  1.00  0.00     0.110 C 
HETATM   25  C1  UNL     1      15.071  10.255  -5.130  1.00  0.00     0.026 C 
ENDBRANCH  22  24
ENDBRANCH  19  22
ENDBRANCH  15  16
ENDBRANCH  14  15
ENDBRANCH   1  14
BRANCH   7  26
HETATM   26  C11 UNL     1      15.252   9.217   6.456  1.00  0.00     0.009 C 
HETATM   27  C12 UNL     1      16.096   8.908   7.701  1.00  0.00     0.021 C 
HETATM   28  C13 UNL     1      15.006   8.331   8.605  1.00  0.00    -0.013 C 
HETATM   29  C14 UNL     1      14.042   9.419   8.950  1.00  0.00     0.009 C 
HETATM   30  C18 UNL     1      14.416   7.300   7.638  1.00  0.00     0.010 C 
HETATM   31  C15 UNL     1      13.501  10.091   7.719  1.00  0.00    -0.013 C 
HETATM   32  C16 UNL     1      12.870   8.976   6.885  1.00  0.00     0.010 C 
HETATM   33  C19 UNL     1      14.608  10.539   6.779  1.00  0.00     0.021 C 
HETATM   34  C17 UNL     1      14.144   8.232   6.443  1.00  0.00     0.001 C 
ENDBRANCH   7  26
TORSDOF 6
ENDMDL
