MODEL 1
REMARK VINA RESULT: -6.759406875      0.000      0.000
REMARK  3 active torsions:
REMARK  status: ('A' for Active; 'I' for Inactive)
REMARK    1  A    between atoms: C2_5  and  C3_6 
REMARK    2  A    between atoms: C2_5  and  C9_12 
REMARK    3  A    between atoms: C15_18  and  C16_19 
ROOT
HETATM    1  N1  UNL     1      20.292  35.363  23.944  1.00  0.00    -0.063 NA
HETATM    2  C1  UNL     1      21.573  35.687  23.371  1.00  0.00     0.190 A 
HETATM    3  N2  UNL     1      22.197  36.666  23.845  1.00  0.00    -0.345 N 
ATOM      4  H2  UNL     1      21.740  37.162  24.609  1.00  0.00     0.163 HD
HETATM    5  C2  UNL     1      23.504  37.184  23.432  1.00  0.00     0.103 A 
HETATM    6  C15 UNL     1      24.103  36.402  22.321  1.00  0.00     0.145 A 
HETATM    7  C20 UNL     1      23.247  35.253  21.847  1.00  0.00     0.109 A 
HETATM    8  N3  UNL     1      23.803  34.500  20.785  1.00  0.00    -0.087 NA
HETATM    9  N4  UNL     1      22.122  34.938  22.316  1.00  0.00    -0.322 N 
ATOM     10  H4  UNL     1      21.612  34.142  21.933  1.00  0.00     0.169 HD
ENDROOT
BRANCH   5  11
HETATM   11  C3  UNL     1      23.272  38.613  23.154  1.00  0.00    -0.024 A 
HETATM   12  C4  UNL     1      22.023  39.076  22.824  1.00  0.00     0.010 A 
HETATM   13  C5  UNL     1      21.817  40.416  22.573  1.00  0.00     0.001 A 
HETATM   14  C6  UNL     1      22.842  41.332  22.642  1.00  0.00     0.000 A 
HETATM   15  C7  UNL     1      24.094  40.879  22.971  1.00  0.00     0.001 A 
HETATM   16  C8  UNL     1      24.290  39.515  23.224  1.00  0.00     0.010 A 
ENDBRANCH   5  11
BRANCH   5  17
HETATM   17  C9  UNL     1      24.327  37.087  24.697  1.00  0.00    -0.024 A 
HETATM   18  C10 UNL     1      23.735  37.121  25.926  1.00  0.00     0.010 A 
HETATM   19  C11 UNL     1      24.539  37.026  27.066  1.00  0.00     0.001 A 
HETATM   20  C12 UNL     1      25.902  36.900  26.960  1.00  0.00     0.000 A 
HETATM   21  C13 UNL     1      26.523  36.863  25.732  1.00  0.00     0.001 A 
HETATM   22  C14 UNL     1      25.720  36.958  24.619  1.00  0.00     0.010 A 
ENDBRANCH   5  17
BRANCH   6  23
HETATM   23  C16 UNL     1      24.578  37.185  21.164  1.00  0.00     0.066 A 
HETATM   24  C17 UNL     1      25.865  37.563  20.890  1.00  0.00     0.035 A 
HETATM   25  C18 UNL     1      25.844  38.281  19.710  1.00  0.00     0.027 A 
HETATM   26  C19 UNL     1      24.523  38.303  19.323  1.00  0.00     0.142 A 
HETATM   27  O1  UNL     1      23.841  37.654  20.201  1.00  0.00    -0.326 OA
ENDBRANCH   6  23
TORSDOF 3
ENDMDL
MODEL 2
REMARK VINA RESULT: -6.674324950      1.859      4.812
REMARK  3 active torsions:
REMARK  status: ('A' for Active; 'I' for Inactive)
REMARK    1  A    between atoms: C2_5  and  C3_6 
REMARK    2  A    between atoms: C2_5  and  C9_12 
REMARK    3  A    between atoms: C15_18  and  C16_19 
ROOT
HETATM    1  N1  UNL     1      19.790  35.739  24.849  1.00  0.00    -0.063 NA
HETATM    2  C1  UNL     1      20.680  36.778  24.399  1.00  0.00     0.190 A 
HETATM    3  N2  UNL     1      21.876  36.472  24.177  1.00  0.00    -0.345 N 
ATOM      4  H2  UNL     1      22.125  35.496  24.336  1.00  0.00     0.163 HD
HETATM    5  C2  UNL     1      22.957  37.346  23.717  1.00  0.00     0.103 A 
HETATM    6  C15 UNL     1      22.508  38.746  23.502  1.00  0.00     0.145 A 
HETATM    7  C20 UNL     1      21.049  38.975  23.808  1.00  0.00     0.109 A 
HETATM    8  N3  UNL     1      20.607  40.306  23.612  1.00  0.00    -0.087 NA
HETATM    9  N4  UNL     1      20.238  38.099  24.206  1.00  0.00    -0.322 N 
ATOM     10  H4  UNL     1      19.265  38.345  24.387  1.00  0.00     0.169 HD
ENDROOT
BRANCH   5  11
HETATM   11  C3  UNL     1      24.034  37.166  24.708  1.00  0.00    -0.024 A 
HETATM   12  C4  UNL     1      25.352  37.166  24.328  1.00  0.00     0.010 A 
HETATM   13  C5  UNL     1      26.350  37.004  25.265  1.00  0.00     0.001 A 
HETATM   14  C6  UNL     1      26.069  36.837  26.602  1.00  0.00     0.000 A 
HETATM   15  C7  UNL     1      24.754  36.836  26.991  1.00  0.00     0.001 A 
HETATM   16  C8  UNL     1      23.750  37.001  26.030  1.00  0.00     0.010 A 
ENDBRANCH   5  11
BRANCH   5  17
HETATM   17  C9  UNL     1      23.402  36.693  22.427  1.00  0.00    -0.024 A 
HETATM   18  C10 UNL     1      23.212  35.359  22.212  1.00  0.00     0.010 A 
HETATM   19  C11 UNL     1      23.639  34.803  21.003  1.00  0.00     0.001 A 
HETATM   20  C12 UNL     1      24.239  35.579  20.041  1.00  0.00     0.000 A 
HETATM   21  C13 UNL     1      24.441  36.926  20.234  1.00  0.00     0.001 A 
HETATM   22  C14 UNL     1      24.017  37.461  21.429  1.00  0.00     0.010 A 
ENDBRANCH   5  17
BRANCH   6  23
HETATM   23  C16 UNL     1      23.327  39.790  24.146  1.00  0.00     0.066 A 
HETATM   24  C17 UNL     1      24.337  40.520  23.580  1.00  0.00     0.035 A 
HETATM   25  C18 UNL     1      24.823  41.378  24.546  1.00  0.00     0.027 A 
HETATM   26  C19 UNL     1      24.070  41.122  25.670  1.00  0.00     0.142 A 
HETATM   27  O1  UNL     1      23.223  40.196  25.377  1.00  0.00    -0.326 OA
ENDBRANCH   6  23
TORSDOF 3
ENDMDL
MODEL 3
REMARK VINA RESULT: -6.633283237      1.859      4.797
REMARK  3 active torsions:
REMARK  status: ('A' for Active; 'I' for Inactive)
REMARK    1  A    between atoms: C2_5  and  C3_6 
REMARK    2  A    between atoms: C2_5  and  C9_12 
REMARK    3  A    between atoms: C15_18  and  C16_19 
ROOT
HETATM    1  N1  UNL     1      19.783  35.788  24.774  1.00  0.00    -0.063 NA
HETATM    2  C1  UNL     1      20.685  36.822  24.336  1.00  0.00     0.190 A 
HETATM    3  N2  UNL     1      21.880  36.507  24.124  1.00  0.00    -0.345 N 
ATOM      4  H2  UNL     1      22.121  35.529  24.281  1.00  0.00     0.163 HD
HETATM    5  C2  UNL     1      22.972  37.375  23.678  1.00  0.00     0.103 A 
HETATM    6  C15 UNL     1      22.536  38.779  23.464  1.00  0.00     0.145 A 
HETATM    7  C20 UNL     1      21.075  39.018  23.757  1.00  0.00     0.109 A 
HETATM    8  N3  UNL     1      20.645  40.353  23.562  1.00  0.00    -0.087 NA
HETATM    9  N4  UNL     1      20.254  38.146  24.144  1.00  0.00    -0.322 N 
ATOM     10  H4  UNL     1      19.282  38.399  24.317  1.00  0.00     0.169 HD
ENDROOT
BRANCH   5  11
HETATM   11  C3  UNL     1      24.038  37.183  24.677  1.00  0.00    -0.024 A 
HETATM   12  C4  UNL     1      23.739  36.988  26.002  1.00  0.00     0.010 A 
HETATM   13  C5  UNL     1      24.744  36.802  26.927  1.00  0.00     0.001 A 
HETATM   14  C6  UNL     1      26.072  36.805  26.564  1.00  0.00     0.000 A 
HETATM   15  C7  UNL     1      26.381  37.000  25.242  1.00  0.00     0.001 A 
HETATM   16  C8  UNL     1      25.351  37.187  24.313  1.00  0.00     0.010 A 
ENDBRANCH   5  11
BRANCH   5  17
HETATM   17  C9  UNL     1      23.424  36.724  22.389  1.00  0.00    -0.024 A 
HETATM   18  C10 UNL     1      24.029  37.453  21.407  1.00  0.00     0.010 A 
HETATM   19  C11 UNL     1      24.429  36.806  20.235  1.00  0.00     0.001 A 
HETATM   20  C12 UNL     1      24.221  35.459  20.065  1.00  0.00     0.000 A 
HETATM   21  C13 UNL     1      23.613  34.702  21.041  1.00  0.00     0.001 A 
HETATM   22  C14 UNL     1      23.223  35.352  22.190  1.00  0.00     0.010 A 
ENDBRANCH   5  17
BRANCH   6  23
HETATM   23  C16 UNL     1      23.356  39.815  24.120  1.00  0.00     0.066 A 
HETATM   24  C17 UNL     1      24.369  40.548  23.561  1.00  0.00     0.035 A 
HETATM   25  C18 UNL     1      24.855  41.395  24.537  1.00  0.00     0.027 A 
HETATM   26  C19 UNL     1      24.101  41.129  25.657  1.00  0.00     0.142 A 
HETATM   27  O1  UNL     1      23.252  40.208  25.354  1.00  0.00    -0.326 OA
ENDBRANCH   6  23
TORSDOF 3
ENDMDL
MODEL 4
REMARK VINA RESULT: -6.477528568      1.917      2.532
REMARK  3 active torsions:
REMARK  status: ('A' for Active; 'I' for Inactive)
REMARK    1  A    between atoms: C2_5  and  C3_6 
REMARK    2  A    between atoms: C2_5  and  C9_12 
REMARK    3  A    between atoms: C15_18  and  C16_19 
ROOT
HETATM    1  N1  UNL     1      21.921  35.463  22.018  1.00  0.00    -0.063 NA
HETATM    2  C1  UNL     1      22.894  36.513  21.859  1.00  0.00     0.190 A 
HETATM    3  N2  UNL     1      22.980  37.375  22.766  1.00  0.00    -0.345 N 
ATOM      4  H2  UNL     1      22.344  37.261  23.555  1.00  0.00     0.163 HD
HETATM    5  C2  UNL     1      23.883  38.527  22.829  1.00  0.00     0.103 A 
HETATM    6  C15 UNL     1      24.780  38.615  21.648  1.00  0.00     0.145 A 
HETATM    7  C20 UNL     1      24.569  37.516  20.635  1.00  0.00     0.109 A 
HETATM    8  N3  UNL     1      25.413  37.590  19.501  1.00  0.00    -0.087 NA
HETATM    9  N4  UNL     1      23.730  36.583  20.732  1.00  0.00    -0.322 N 
ATOM     10  H4  UNL     1      23.657  35.881  19.996  1.00  0.00     0.169 HD
ENDROOT
BRANCH   5  11
HETATM   11  C3  UNL     1      23.001  39.686  23.049  1.00  0.00    -0.024 A 
HETATM   12  C4  UNL     1      23.501  40.880  23.504  1.00  0.00     0.010 A 
HETATM   13  C5  UNL     1      22.667  41.960  23.698  1.00  0.00     0.001 A 
HETATM   14  C6  UNL     1      21.315  41.886  23.448  1.00  0.00     0.000 A 
HETATM   15  C7  UNL     1      20.806  40.697  22.993  1.00  0.00     0.001 A 
HETATM   16  C8  UNL     1      21.664  39.607  22.799  1.00  0.00     0.010 A 
ENDBRANCH   5  11
BRANCH   5  17
HETATM   17  C9  UNL     1      24.658  38.286  24.106  1.00  0.00    -0.024 A 
HETATM   18  C10 UNL     1      24.497  39.098  25.191  1.00  0.00     0.010 A 
HETATM   19  C11 UNL     1      25.234  38.834  26.348  1.00  0.00     0.001 A 
HETATM   20  C12 UNL     1      26.109  37.776  26.402  1.00  0.00     0.000 A 
HETATM   21  C13 UNL     1      26.288  36.942  25.322  1.00  0.00     0.001 A 
HETATM   22  C14 UNL     1      25.557  37.214  24.189  1.00  0.00     0.010 A 
ENDBRANCH   5  17
BRANCH   6  23
HETATM   23  C16 UNL     1      24.823  39.923  20.969  1.00  0.00     0.066 A 
HETATM   24  C17 UNL     1      23.949  40.400  20.028  1.00  0.00     0.035 A 
HETATM   25  C18 UNL     1      24.374  41.663  19.669  1.00  0.00     0.027 A 
HETATM   26  C19 UNL     1      25.503  41.894  20.421  1.00  0.00     0.142 A 
HETATM   27  O1  UNL     1      25.712  40.854  21.152  1.00  0.00    -0.326 OA
ENDBRANCH   6  23
TORSDOF 3
ENDMDL
MODEL 5
REMARK VINA RESULT: -6.401043927      1.937      5.062
REMARK  3 active torsions:
REMARK  status: ('A' for Active; 'I' for Inactive)
REMARK    1  A    between atoms: C2_5  and  C3_6 
REMARK    2  A    between atoms: C2_5  and  C9_12 
REMARK    3  A    between atoms: C15_18  and  C16_19 
ROOT
HETATM    1  N1  UNL     1      24.308  35.476  20.476  1.00  0.00    -0.063 NA
HETATM    2  C1  UNL     1      23.515  35.941  21.585  1.00  0.00     0.190 A 
HETATM    3  N2  UNL     1      23.916  36.951  22.211  1.00  0.00    -0.345 N 
ATOM      4  H2  UNL     1      24.785  37.369  21.879  1.00  0.00     0.163 HD
HETATM    5  C2  UNL     1      23.287  37.604  23.361  1.00  0.00     0.103 A 
HETATM    6  C15 UNL     1      22.024  36.940  23.775  1.00  0.00     0.145 A 
HETATM    7  C20 UNL     1      21.661  35.737  22.938  1.00  0.00     0.109 A 
HETATM    8  N3  UNL     1      20.462  35.091  23.323  1.00  0.00    -0.087 NA
HETATM    9  N4  UNL     1      22.325  35.296  21.965  1.00  0.00    -0.322 N 
ATOM     10  H4  UNL     1      22.002  34.475  21.454  1.00  0.00     0.169 HD
ENDROOT
BRANCH   5  11
HETATM   11  C3  UNL     1      24.344  37.660  24.386  1.00  0.00    -0.024 A 
HETATM   12  C4  UNL     1      24.318  38.610  25.377  1.00  0.00     0.010 A 
HETATM   13  C5  UNL     1      25.309  38.648  26.335  1.00  0.00     0.001 A 
HETATM   14  C6  UNL     1      26.351  37.748  26.337  1.00  0.00     0.000 A 
HETATM   15  C7  UNL     1      26.384  36.795  25.351  1.00  0.00     0.001 A 
HETATM   16  C8  UNL     1      25.372  36.767  24.384  1.00  0.00     0.010 A 
ENDBRANCH   5  11
BRANCH   5  17
HETATM   17  C9  UNL     1      23.045  39.013  22.866  1.00  0.00    -0.024 A 
HETATM   18  C10 UNL     1      21.834  39.620  23.034  1.00  0.00     0.010 A 
HETATM   19  C11 UNL     1      21.661  40.923  22.561  1.00  0.00     0.001 A 
HETATM   20  C12 UNL     1      22.686  41.590  21.936  1.00  0.00     0.000 A 
HETATM   21  C13 UNL     1      23.916  41.000  21.756  1.00  0.00     0.001 A 
HETATM   22  C14 UNL     1      24.073  39.717  22.226  1.00  0.00     0.010 A 
ENDBRANCH   5  17
BRANCH   6  23
HETATM   23  C16 UNL     1      21.911  36.607  25.207  1.00  0.00     0.066 A 
HETATM   24  C17 UNL     1      21.230  37.304  26.170  1.00  0.00     0.035 A 
HETATM   25  C18 UNL     1      21.396  36.633  27.365  1.00  0.00     0.027 A 
HETATM   26  C19 UNL     1      22.184  35.545  27.063  1.00  0.00     0.142 A 
HETATM   27  O1  UNL     1      22.448  35.584  25.803  1.00  0.00    -0.326 OA
ENDBRANCH   6  23
TORSDOF 3
ENDMDL
