MODEL 1
REMARK VINA RESULT: -7.193127420      0.000      0.000
REMARK  5 active torsions:
REMARK  status: ('A' for Active; 'I' for Inactive)
REMARK    1  A    between atoms: O1_1  and  N1_3 
REMARK    2  A    between atoms: C1_5  and  O2_6 
REMARK    3  A    between atoms: C1_5  and  C2_8 
REMARK    4  A    between atoms: C5_11  and  N2_12 
REMARK    5  A    between atoms: C6_14  and  N3_15 
ROOT
HETATM    1  N2  UNL     1      24.954  37.579  23.245  1.00  0.00    -0.352 N 
ATOM      2  H2  UNL     1      25.550  37.006  23.842  1.00  0.00     0.166 HD
HETATM    3  C6  UNL     1      24.494  38.658  23.734  1.00  0.00     0.179 C 
ENDROOT
BRANCH   1   4
HETATM    4  C5  UNL     1      24.701  37.109  21.925  1.00  0.00     0.032 A 
HETATM    5  C4  UNL     1      23.987  35.969  21.667  1.00  0.00     0.030 A 
HETATM    6  C3  UNL     1      23.761  35.546  20.376  1.00  0.00     0.018 A 
HETATM    7  C2  UNL     1      24.236  36.239  19.292  1.00  0.00     0.017 A 
HETATM    8  C18 UNL     1      24.966  37.404  19.550  1.00  0.00     0.018 A 
HETATM    9  C17 UNL     1      25.174  37.798  20.834  1.00  0.00     0.030 A 
BRANCH   7  10
HETATM   10  C1  UNL     1      24.018  35.824  17.932  1.00  0.00     0.170 C 
HETATM   11  N1  UNL     1      22.937  35.550  17.366  1.00  0.00    -0.247 N 
ATOM     12  H1  UNL     1      23.068  35.282  16.391  1.00  0.00     0.196 HD
BRANCH  11  13
HETATM   13  O1  UNL     1      21.665  35.525  17.728  1.00  0.00    -0.288 OA
ATOM     14  H1  UNL     1      20.946  36.146  17.715  1.00  0.00     0.244 HD
ENDBRANCH  11  13
BRANCH  10  15
HETATM   15  O2  UNL     1      25.173  35.702  17.104  1.00  0.00    -0.344 OA
ATOM     16  H2  UNL     1      25.871  36.315  17.303  1.00  0.00     0.219 HD
ENDBRANCH  10  15
ENDBRANCH   7  10
ENDBRANCH   1   4
BRANCH   3  17
HETATM   17  N3  UNL     1      23.649  39.573  23.039  1.00  0.00    -0.372 N 
HETATM   18  C7  UNL     1      24.238  40.671  22.330  1.00  0.00     0.124 C 
HETATM   19  C8  UNL     1      23.424  41.935  22.384  1.00  0.00     0.029 C 
HETATM   20  C9  UNL     1      21.976  41.705  22.687  1.00  0.00     0.024 C 
HETATM   21  C10 UNL     1      21.484  40.351  22.284  1.00  0.00     0.035 C 
HETATM   22  C16 UNL     1      21.686  41.893  24.139  1.00  0.00    -0.023 A 
HETATM   23  C11 UNL     1      22.224  39.320  23.101  1.00  0.00     0.090 C 
HETATM   24  C12 UNL     1      21.788  39.412  24.524  1.00  0.00     0.066 C 
HETATM   25  C13 UNL     1      21.605  40.816  24.974  1.00  0.00    -0.025 A 
HETATM   26  C14 UNL     1      21.332  41.283  26.240  1.00  0.00     0.149 A 
HETATM   27  O3  UNL     1      21.255  42.588  26.162  1.00  0.00    -0.334 OA
HETATM   28  C15 UNL     1      21.457  43.002  24.939  1.00  0.00     0.149 A 
ENDBRANCH   3  17
TORSDOF 5
ENDMDL
MODEL 2
REMARK VINA RESULT: -6.895379920      3.990      5.570
REMARK  5 active torsions:
REMARK  status: ('A' for Active; 'I' for Inactive)
REMARK    1  A    between atoms: O1_1  and  N1_3 
REMARK    2  A    between atoms: C1_5  and  O2_6 
REMARK    3  A    between atoms: C1_5  and  C2_8 
REMARK    4  A    between atoms: C5_11  and  N2_12 
REMARK    5  A    between atoms: C6_14  and  N3_15 
ROOT
HETATM    1  N2  UNL     1      22.990  36.986  22.784  1.00  0.00    -0.352 N 
ATOM      2  H2  UNL     1      22.226  36.474  22.341  1.00  0.00     0.166 HD
HETATM    3  C6  UNL     1      23.317  36.648  23.964  1.00  0.00     0.179 C 
ENDROOT
BRANCH   1   4
HETATM    4  C5  UNL     1      23.607  38.025  22.032  1.00  0.00     0.032 A 
HETATM    5  C4  UNL     1      24.450  37.781  20.980  1.00  0.00     0.030 A 
HETATM    6  C3  UNL     1      25.029  38.812  20.275  1.00  0.00     0.018 A 
HETATM    7  C2  UNL     1      24.793  40.127  20.588  1.00  0.00     0.017 A 
HETATM    8  C18 UNL     1      23.933  40.382  21.662  1.00  0.00     0.018 A 
HETATM    9  C17 UNL     1      23.376  39.345  22.339  1.00  0.00     0.030 A 
BRANCH   7  10
HETATM   10  C1  UNL     1      25.382  41.227  19.872  1.00  0.00     0.170 C 
HETATM   11  N1  UNL     1      26.530  41.312  19.386  1.00  0.00    -0.247 N 
ATOM     12  H1  UNL     1      26.690  42.209  18.928  1.00  0.00     0.196 HD
BRANCH  11  13
HETATM   13  O1  UNL     1      27.587  40.520  19.322  1.00  0.00    -0.288 OA
ATOM     14  H1  UNL     1      28.413  40.531  18.851  1.00  0.00     0.244 HD
ENDBRANCH  11  13
BRANCH  10  15
HETATM   15  O2  UNL     1      24.566  42.381  19.683  1.00  0.00    -0.344 OA
ATOM     16  H2  UNL     1      23.979  42.335  18.936  1.00  0.00     0.219 HD
ENDBRANCH  10  15
ENDBRANCH   7  10
ENDBRANCH   1   4
BRANCH   3  17
HETATM   17  N3  UNL     1      24.358  37.257  24.726  1.00  0.00    -0.372 N 
HETATM   18  C7  UNL     1      25.725  36.995  24.381  1.00  0.00     0.124 C 
HETATM   19  C8  UNL     1      26.645  36.904  25.568  1.00  0.00     0.029 C 
HETATM   20  C9  UNL     1      26.119  37.591  26.789  1.00  0.00     0.024 C 
HETATM   21  C10 UNL     1      25.166  38.705  26.492  1.00  0.00     0.035 C 
HETATM   22  C16 UNL     1      25.441  36.628  27.707  1.00  0.00    -0.023 A 
HETATM   23  C11 UNL     1      23.949  38.114  25.820  1.00  0.00     0.090 C 
HETATM   24  C12 UNL     1      23.191  37.293  26.808  1.00  0.00     0.066 C 
HETATM   25  C13 UNL     1      24.082  36.505  27.698  1.00  0.00    -0.025 A 
HETATM   26  C14 UNL     1      23.738  35.556  28.634  1.00  0.00     0.149 A 
HETATM   27  O3  UNL     1      24.850  35.130  29.178  1.00  0.00    -0.334 OA
HETATM   28  C15 UNL     1      25.889  35.732  28.665  1.00  0.00     0.149 A 
ENDBRANCH   3  17
TORSDOF 5
ENDMDL
MODEL 3
REMARK VINA RESULT: -6.792617818      0.471      1.470
REMARK  5 active torsions:
REMARK  status: ('A' for Active; 'I' for Inactive)
REMARK    1  A    between atoms: O1_1  and  N1_3 
REMARK    2  A    between atoms: C1_5  and  O2_6 
REMARK    3  A    between atoms: C1_5  and  C2_8 
REMARK    4  A    between atoms: C5_11  and  N2_12 
REMARK    5  A    between atoms: C6_14  and  N3_15 
ROOT
HETATM    1  N2  UNL     1      24.878  37.818  23.426  1.00  0.00    -0.352 N 
ATOM      2  H2  UNL     1      25.494  37.248  24.007  1.00  0.00     0.166 HD
HETATM    3  C6  UNL     1      24.473  38.923  23.906  1.00  0.00     0.179 C 
ENDROOT
BRANCH   1   4
HETATM    4  C5  UNL     1      24.536  37.314  22.139  1.00  0.00     0.032 A 
HETATM    5  C4  UNL     1      25.092  37.791  20.982  1.00  0.00     0.030 A 
HETATM    6  C3  UNL     1      24.738  37.277  19.755  1.00  0.00     0.018 A 
HETATM    7  C2  UNL     1      23.815  36.270  19.630  1.00  0.00     0.017 A 
HETATM    8  C18 UNL     1      23.243  35.778  20.808  1.00  0.00     0.018 A 
HETATM    9  C17 UNL     1      23.613  36.303  22.006  1.00  0.00     0.030 A 
BRANCH   7  10
HETATM   10  C1  UNL     1      23.423  35.711  18.363  1.00  0.00     0.170 C 
HETATM   11  N1  UNL     1      24.123  35.528  17.344  1.00  0.00    -0.247 N 
ATOM     12  H1  UNL     1      23.591  35.114  16.579  1.00  0.00     0.196 HD
BRANCH  11  13
HETATM   13  O1  UNL     1      25.387  35.740  17.019  1.00  0.00    -0.288 OA
ATOM     14  H1  UNL     1      25.927  35.571  16.256  1.00  0.00     0.244 HD
ENDBRANCH  11  13
BRANCH  10  15
HETATM   15  O2  UNL     1      22.061  35.309  18.232  1.00  0.00    -0.344 OA
ATOM     16  H2  UNL     1      21.447  35.805  18.763  1.00  0.00     0.219 HD
ENDBRANCH  10  15
ENDBRANCH   7  10
ENDBRANCH   1   4
BRANCH   3  17
HETATM   17  N3  UNL     1      23.610  39.837  23.231  1.00  0.00    -0.372 N 
HETATM   18  C7  UNL     1      24.176  40.970  22.560  1.00  0.00     0.124 C 
HETATM   19  C8  UNL     1      23.330  42.211  22.645  1.00  0.00     0.029 C 
HETATM   20  C9  UNL     1      21.886  41.936  22.930  1.00  0.00     0.024 C 
HETATM   21  C10 UNL     1      21.431  40.583  22.482  1.00  0.00     0.035 C 
HETATM   22  C16 UNL     1      21.582  42.074  24.384  1.00  0.00    -0.023 A 
HETATM   23  C11 UNL     1      22.192  39.546  23.275  1.00  0.00     0.090 C 
HETATM   24  C12 UNL     1      21.743  39.586  24.696  1.00  0.00     0.066 C 
HETATM   25  C13 UNL     1      21.521  40.970  25.186  1.00  0.00    -0.025 A 
HETATM   26  C14 UNL     1      21.227  41.393  26.463  1.00  0.00     0.149 A 
HETATM   27  O3  UNL     1      21.118  42.697  26.423  1.00  0.00    -0.334 OA
HETATM   28  C15 UNL     1      21.319  43.152  25.215  1.00  0.00     0.149 A 
ENDBRANCH   3  17
TORSDOF 5
ENDMDL
MODEL 4
REMARK VINA RESULT: -6.755328332      0.528      1.095
REMARK  5 active torsions:
REMARK  status: ('A' for Active; 'I' for Inactive)
REMARK    1  A    between atoms: O1_1  and  N1_3 
REMARK    2  A    between atoms: C1_5  and  O2_6 
REMARK    3  A    between atoms: C1_5  and  C2_8 
REMARK    4  A    between atoms: C5_11  and  N2_12 
REMARK    5  A    between atoms: C6_14  and  N3_15 
ROOT
HETATM    1  N2  UNL     1      24.991  37.783  23.311  1.00  0.00    -0.352 N 
ATOM      2  H2  UNL     1      25.706  37.290  23.848  1.00  0.00     0.166 HD
HETATM    3  C6  UNL     1      24.351  38.712  23.898  1.00  0.00     0.179 C 
ENDROOT
BRANCH   1   4
HETATM    4  C5  UNL     1      24.787  37.379  21.962  1.00  0.00     0.032 A 
HETATM    5  C4  UNL     1      25.322  38.053  20.896  1.00  0.00     0.030 A 
HETATM    6  C3  UNL     1      25.104  37.631  19.604  1.00  0.00     0.018 A 
HETATM    7  C2  UNL     1      24.344  36.524  19.320  1.00  0.00     0.017 A 
HETATM    8  C18 UNL     1      23.795  35.833  20.405  1.00  0.00     0.018 A 
HETATM    9  C17 UNL     1      24.028  36.271  21.670  1.00  0.00     0.030 A 
BRANCH   7  10
HETATM   10  C1  UNL     1      24.097  36.058  17.982  1.00  0.00     0.170 C 
HETATM   11  N1  UNL     1      23.000  35.817  17.433  1.00  0.00    -0.247 N 
ATOM     12  H1  UNL     1      23.111  35.496  16.471  1.00  0.00     0.196 HD
BRANCH  11  13
HETATM   13  O1  UNL     1      21.731  35.878  17.798  1.00  0.00    -0.288 OA
ATOM     14  H1  UNL     1      21.263  36.163  18.575  1.00  0.00     0.244 HD
ENDBRANCH  11  13
BRANCH  10  15
HETATM   15  O2  UNL     1      25.239  35.835  17.157  1.00  0.00    -0.344 OA
ATOM     16  H2  UNL     1      26.068  35.826  17.621  1.00  0.00     0.219 HD
ENDBRANCH  10  15
ENDBRANCH   7  10
ENDBRANCH   1   4
BRANCH   3  17
HETATM   17  N3  UNL     1      23.324  39.498  23.298  1.00  0.00    -0.372 N 
HETATM   18  C7  UNL     1      23.683  40.663  22.544  1.00  0.00     0.124 C 
HETATM   19  C8  UNL     1      22.714  41.804  22.689  1.00  0.00     0.029 C 
HETATM   20  C9  UNL     1      21.348  41.379  23.132  1.00  0.00     0.024 C 
HETATM   21  C10 UNL     1      21.008  39.969  22.768  1.00  0.00     0.035 C 
HETATM   22  C16 UNL     1      21.181  41.534  24.607  1.00  0.00    -0.023 A 
HETATM   23  C11 UNL     1      21.960  39.053  23.499  1.00  0.00     0.090 C 
HETATM   24  C12 UNL     1      21.659  39.092  24.959  1.00  0.00     0.066 C 
HETATM   25  C13 UNL     1      21.331  40.460  25.437  1.00  0.00    -0.025 A 
HETATM   26  C14 UNL     1      21.123  40.892  26.727  1.00  0.00     0.149 A 
HETATM   27  O3  UNL     1      20.861  42.173  26.668  1.00  0.00    -0.334 OA
HETATM   28  C15 UNL     1      20.883  42.605  25.436  1.00  0.00     0.149 A 
ENDBRANCH   3  17
TORSDOF 5
ENDMDL
MODEL 5
REMARK VINA RESULT: -6.725210048      1.837      3.203
REMARK  5 active torsions:
REMARK  status: ('A' for Active; 'I' for Inactive)
REMARK    1  A    between atoms: O1_1  and  N1_3 
REMARK    2  A    between atoms: C1_5  and  O2_6 
REMARK    3  A    between atoms: C1_5  and  C2_8 
REMARK    4  A    between atoms: C5_11  and  N2_12 
REMARK    5  A    between atoms: C6_14  and  N3_15 
ROOT
HETATM    1  N2  UNL     1      25.295  37.095  23.703  1.00  0.00    -0.352 N 
ATOM      2  H2  UNL     1      26.078  36.545  24.059  1.00  0.00     0.166 HD
HETATM    3  C6  UNL     1      24.766  37.941  24.490  1.00  0.00     0.179 C 
ENDROOT
BRANCH   1   4
HETATM    4  C5  UNL     1      24.880  36.857  22.363  1.00  0.00     0.032 A 
HETATM    5  C4  UNL     1      25.213  37.684  21.323  1.00  0.00     0.030 A 
HETATM    6  C3  UNL     1      24.793  37.420  20.039  1.00  0.00     0.018 A 
HETATM    7  C2  UNL     1      24.025  36.324  19.738  1.00  0.00     0.017 A 
HETATM    8  C18 UNL     1      23.682  35.475  20.796  1.00  0.00     0.018 A 
HETATM    9  C17 UNL     1      24.110  35.760  22.053  1.00  0.00     0.030 A 
BRANCH   7  10
HETATM   10  C1  UNL     1      23.570  36.020  18.407  1.00  0.00     0.170 C 
HETATM   11  N1  UNL     1      24.251  35.829  17.377  1.00  0.00    -0.247 N 
ATOM     12  H1  UNL     1      23.672  35.631  16.562  1.00  0.00     0.196 HD
BRANCH  11  13
HETATM   13  O1  UNL     1      25.542  35.823  17.090  1.00  0.00    -0.288 OA
ATOM     14  H1  UNL     1      26.062  35.976  16.309  1.00  0.00     0.244 HD
ENDBRANCH  11  13
BRANCH  10  15
HETATM   15  O2  UNL     1      22.160  35.919  18.217  1.00  0.00    -0.344 OA
ATOM     16  H2  UNL     1      21.660  36.654  18.553  1.00  0.00     0.219 HD
ENDBRANCH  10  15
ENDBRANCH   7  10
ENDBRANCH   1   4
BRANCH   3  17
HETATM   17  N3  UNL     1      23.668  38.788  24.156  1.00  0.00    -0.372 N 
HETATM   18  C7  UNL     1      22.483  38.211  23.591  1.00  0.00     0.124 C 
HETATM   19  C8  UNL     1      21.822  39.075  22.553  1.00  0.00     0.029 C 
HETATM   20  C9  UNL     1      22.176  40.526  22.664  1.00  0.00     0.024 C 
HETATM   21  C10 UNL     1      22.572  40.945  24.044  1.00  0.00     0.035 C 
HETATM   22  C16 UNL     1      23.281  40.890  21.730  1.00  0.00    -0.023 A 
HETATM   23  C11 UNL     1      23.834  40.204  24.416  1.00  0.00     0.090 C 
HETATM   24  C12 UNL     1      24.965  40.709  23.587  1.00  0.00     0.066 C 
HETATM   25  C13 UNL     1      24.568  40.968  22.179  1.00  0.00    -0.025 A 
HETATM   26  C14 UNL     1      25.366  41.318  21.112  1.00  0.00     0.149 A 
HETATM   27  O3  UNL     1      24.584  41.443  20.070  1.00  0.00    -0.334 OA
HETATM   28  C15 UNL     1      23.338  41.200  20.380  1.00  0.00     0.149 A 
ENDBRANCH   3  17
TORSDOF 5
ENDMDL
