MODEL 1
REMARK VINA RESULT: -5.809542710      0.000      0.000
REMARK  4 active torsions:
REMARK  status: ('A' for Active; 'I' for Inactive)
REMARK    1  A    between atoms: C5_7  and  N2_8 
REMARK    2  A    between atoms: N2_8  and  C6_10 
REMARK    3  A    between atoms: C12_17  and  N4_18 
REMARK    4  A    between atoms: N4_18  and  C13_20 
ROOT
HETATM    1  N1  UNL     1      24.997  41.754  20.052  1.00  0.00    -0.191 NA
HETATM    2  C1  UNL     1      24.474  41.965  21.082  1.00  0.00     0.102 C 
HETATM    3  C2  UNL     1      23.804  42.199  22.379  1.00  0.00     0.078 A 
HETATM    4  C3  UNL     1      23.085  43.314  22.595  1.00  0.00     0.033 A 
HETATM    5  C4  UNL     1      22.476  43.434  23.826  1.00  0.00     0.053 A 
HETATM    6  S1  UNL     1      22.933  41.998  24.618  1.00  0.00    -0.083 SA
HETATM    7  C5  UNL     1      23.873  41.282  23.396  1.00  0.00     0.091 A 
ENDROOT
BRANCH   7   8
HETATM    8  N2  UNL     1      24.598  40.053  23.430  1.00  0.00    -0.376 N 
ATOM      9  H2  UNL     1      25.596  40.027  23.217  1.00  0.00     0.160 HD
BRANCH   8  10
HETATM   10  C6  UNL     1      23.871  38.830  23.779  1.00  0.00     0.115 C 
HETATM   11  C7  UNL     1      24.828  37.671  23.909  1.00  0.00     0.300 C 
HETATM   12  N3  UNL     1      24.710  36.718  22.815  1.00  0.00     0.113 N 
HETATM   13  C8  UNL     1      24.943  37.471  21.616  1.00  0.00     0.275 C 
HETATM   14  C12 UNL     1      23.397  36.111  22.786  1.00  0.00     0.318 C 
HETATM   15  C9  UNL     1      23.834  38.488  21.353  1.00  0.00     0.037 C 
HETATM   16  C10 UNL     1      22.979  38.529  22.596  1.00  0.00     0.015 C 
HETATM   17  C11 UNL     1      22.335  37.149  22.842  1.00  0.00     0.064 C 
BRANCH  14  18
HETATM   18  N4  UNL     1      23.284  35.201  21.751  1.00  0.00    -0.389 N 
ATOM     19  H4  UNL     1      24.022  34.500  21.689  1.00  0.00     0.155 HD
BRANCH  18  20
HETATM   20  C13 UNL     1      22.293  35.125  20.789  1.00  0.00     0.078 C 
HETATM   21  C14 UNL     1      21.341  33.987  20.923  1.00  0.00     0.024 C 
HETATM   22  C15 UNL     1      20.201  34.087  19.902  1.00  0.00     0.002 C 
HETATM   23  C16 UNL     1      20.809  33.914  18.550  1.00  0.00     0.000 C 
HETATM   24  C17 UNL     1      22.335  33.996  18.567  1.00  0.00     0.002 C 
HETATM   25  C18 UNL     1      22.759  35.212  19.355  1.00  0.00     0.024 C 
ENDBRANCH  18  20
ENDBRANCH  14  18
ENDBRANCH   8  10
ENDBRANCH   7   8
TORSDOF 4
ENDMDL
MODEL 2
REMARK VINA RESULT: -5.655342354      3.615      8.305
REMARK  4 active torsions:
REMARK  status: ('A' for Active; 'I' for Inactive)
REMARK    1  A    between atoms: C5_7  and  N2_8 
REMARK    2  A    between atoms: N2_8  and  C6_10 
REMARK    3  A    between atoms: C12_17  and  N4_18 
REMARK    4  A    between atoms: N4_18  and  C13_20 
ROOT
HETATM    1  N1  UNL     1      22.950  29.971  19.217  1.00  0.00    -0.191 NA
HETATM    2  C1  UNL     1      22.236  30.631  18.558  1.00  0.00     0.102 C 
HETATM    3  C2  UNL     1      21.313  31.456  17.750  1.00  0.00     0.078 A 
HETATM    4  C3  UNL     1      21.190  31.265  16.425  1.00  0.00     0.033 A 
HETATM    5  C4  UNL     1      20.288  32.065  15.760  1.00  0.00     0.053 A 
HETATM    6  S1  UNL     1      19.657  33.042  17.003  1.00  0.00    -0.083 SA
HETATM    7  C5  UNL     1      20.535  32.429  18.324  1.00  0.00     0.091 A 
ENDROOT
BRANCH   7   8
HETATM    8  N2  UNL     1      20.510  32.852  19.687  1.00  0.00    -0.376 N 
ATOM      9  H2  UNL     1      20.208  32.217  20.426  1.00  0.00     0.160 HD
BRANCH   8  10
HETATM   10  C6  UNL     1      20.930  34.221  19.995  1.00  0.00     0.115 C 
HETATM   11  C7  UNL     1      22.167  34.578  19.208  1.00  0.00     0.300 C 
HETATM   12  N3  UNL     1      23.360  34.660  20.038  1.00  0.00     0.113 N 
HETATM   13  C8  UNL     1      23.482  33.379  20.671  1.00  0.00     0.275 C 
HETATM   14  C12 UNL     1      23.238  35.708  21.030  1.00  0.00     0.318 C 
HETATM   15  C9  UNL     1      22.349  33.118  21.662  1.00  0.00     0.037 C 
HETATM   16  C10 UNL     1      21.330  34.212  21.454  1.00  0.00     0.015 C 
HETATM   17  C11 UNL     1      21.955  35.586  21.770  1.00  0.00     0.064 C 
BRANCH  14  18
HETATM   18  N4  UNL     1      24.372  35.792  21.817  1.00  0.00    -0.389 N 
ATOM     19  H4  UNL     1      24.941  34.947  21.874  1.00  0.00     0.155 HD
BRANCH  18  20
HETATM   20  C13 UNL     1      24.829  36.880  22.537  1.00  0.00     0.078 C 
HETATM   21  C14 UNL     1      24.670  36.796  24.016  1.00  0.00     0.024 C 
HETATM   22  C15 UNL     1      25.345  37.979  24.720  1.00  0.00     0.002 C 
HETATM   23  C16 UNL     1      24.593  39.208  24.329  1.00  0.00     0.000 C 
HETATM   24  C17 UNL     1      23.627  38.972  23.167  1.00  0.00     0.002 C 
HETATM   25  C18 UNL     1      24.347  38.232  22.065  1.00  0.00     0.024 C 
ENDBRANCH  18  20
ENDBRANCH  14  18
ENDBRANCH   8  10
ENDBRANCH   7   8
TORSDOF 4
ENDMDL
MODEL 3
REMARK VINA RESULT: -5.652870774      2.591      8.004
REMARK  4 active torsions:
REMARK  status: ('A' for Active; 'I' for Inactive)
REMARK    1  A    between atoms: C5_7  and  N2_8 
REMARK    2  A    between atoms: N2_8  and  C6_10 
REMARK    3  A    between atoms: C12_17  and  N4_18 
REMARK    4  A    between atoms: N4_18  and  C13_20 
ROOT
HETATM    1  N1  UNL     1      24.309  36.690  24.361  1.00  0.00    -0.191 NA
HETATM    2  C1  UNL     1      24.342  36.695  23.187  1.00  0.00     0.102 C 
HETATM    3  C2  UNL     1      24.362  36.727  21.709  1.00  0.00     0.078 A 
HETATM    4  C3  UNL     1      24.229  35.599  20.990  1.00  0.00     0.033 A 
HETATM    5  C4  UNL     1      24.235  35.729  19.619  1.00  0.00     0.053 A 
HETATM    6  S1  UNL     1      24.425  37.406  19.397  1.00  0.00    -0.083 SA
HETATM    7  C5  UNL     1      24.494  37.905  21.021  1.00  0.00     0.091 A 
ENDROOT
BRANCH   7   8
HETATM    8  N2  UNL     1      24.689  39.218  21.545  1.00  0.00    -0.376 N 
ATOM      9  H2  UNL     1      25.564  39.474  22.003  1.00  0.00     0.160 HD
BRANCH   8  10
HETATM   10  C6  UNL     1      23.599  40.187  21.408  1.00  0.00     0.115 C 
HETATM   11  C7  UNL     1      24.142  41.594  21.445  1.00  0.00     0.300 C 
HETATM   12  N3  UNL     1      23.811  42.294  22.678  1.00  0.00     0.113 N 
HETATM   13  C8  UNL     1      24.345  41.488  23.737  1.00  0.00     0.275 C 
HETATM   14  C12 UNL     1      22.380  42.447  22.827  1.00  0.00     0.318 C 
HETATM   15  C9  UNL     1      23.624  40.147  23.858  1.00  0.00     0.037 C 
HETATM   16  C10 UNL     1      22.740  40.019  22.641  1.00  0.00     0.015 C 
HETATM   17  C11 UNL     1      21.688  41.147  22.628  1.00  0.00     0.064 C 
BRANCH  14  18
HETATM   18  N4  UNL     1      22.063  43.116  23.995  1.00  0.00    -0.389 N 
ATOM     19  H4  UNL     1      21.723  42.537  24.764  1.00  0.00     0.155 HD
BRANCH  18  20
HETATM   20  C13 UNL     1      22.148  44.473  24.249  1.00  0.00     0.078 C 
HETATM   21  C14 UNL     1      21.946  45.368  23.076  1.00  0.00     0.024 C 
HETATM   22  C15 UNL     1      21.911  46.842  23.496  1.00  0.00     0.002 C 
HETATM   23  C16 UNL     1      23.271  47.186  24.004  1.00  0.00     0.000 C 
HETATM   24  C17 UNL     1      24.151  45.957  24.230  1.00  0.00     0.002 C 
HETATM   25  C18 UNL     1      23.373  44.925  25.009  1.00  0.00     0.024 C 
ENDBRANCH  18  20
ENDBRANCH  14  18
ENDBRANCH   8  10
ENDBRANCH   7   8
TORSDOF 4
ENDMDL
MODEL 4
REMARK VINA RESULT: -5.643501616      2.740      8.312
REMARK  4 active torsions:
REMARK  status: ('A' for Active; 'I' for Inactive)
REMARK    1  A    between atoms: C5_7  and  N2_8 
REMARK    2  A    between atoms: N2_8  and  C6_10 
REMARK    3  A    between atoms: C12_17  and  N4_18 
REMARK    4  A    between atoms: N4_18  and  C13_20 
ROOT
HETATM    1  N1  UNL     1      26.087  38.265  19.665  1.00  0.00    -0.191 NA
HETATM    2  C1  UNL     1      25.283  37.719  20.324  1.00  0.00     0.102 C 
HETATM    3  C2  UNL     1      24.278  37.052  21.179  1.00  0.00     0.078 A 
HETATM    4  C3  UNL     1      24.222  35.711  21.266  1.00  0.00     0.033 A 
HETATM    5  C4  UNL     1      23.267  35.180  22.106  1.00  0.00     0.053 A 
HETATM    6  S1  UNL     1      22.497  36.564  22.730  1.00  0.00    -0.083 SA
HETATM    7  C5  UNL     1      23.384  37.773  21.928  1.00  0.00     0.091 A 
ENDROOT
BRANCH   7   8
HETATM    8  N2  UNL     1      23.213  39.189  21.978  1.00  0.00    -0.376 N 
ATOM      9  H2  UNL     1      23.053  39.728  21.127  1.00  0.00     0.160 HD
BRANCH   8  10
HETATM   10  C6  UNL     1      23.273  39.847  23.286  1.00  0.00     0.115 C 
HETATM   11  C7  UNL     1      22.239  40.942  23.369  1.00  0.00     0.300 C 
HETATM   12  N3  UNL     1      22.824  42.274  23.337  1.00  0.00     0.113 N 
HETATM   13  C8  UNL     1      23.574  42.340  22.116  1.00  0.00     0.275 C 
HETATM   14  C12 UNL     1      23.689  42.496  24.476  1.00  0.00     0.318 C 
HETATM   15  C9  UNL     1      24.777  41.398  22.129  1.00  0.00     0.037 C 
HETATM   16  C10 UNL     1      24.626  40.520  23.347  1.00  0.00     0.015 C 
HETATM   17  C11 UNL     1      24.657  41.379  24.628  1.00  0.00     0.064 C 
BRANCH  14  18
HETATM   18  N4  UNL     1      24.243  43.763  24.451  1.00  0.00    -0.389 N 
ATOM     19  H4  UNL     1      25.253  43.806  24.320  1.00  0.00     0.155 HD
BRANCH  18  20
HETATM   20  C13 UNL     1      23.595  44.978  24.582  1.00  0.00     0.078 C 
HETATM   21  C14 UNL     1      24.471  46.182  24.616  1.00  0.00     0.024 C 
HETATM   22  C15 UNL     1      23.646  47.475  24.609  1.00  0.00     0.002 C 
HETATM   23  C16 UNL     1      22.892  47.520  25.896  1.00  0.00     0.000 C 
HETATM   24  C17 UNL     1      22.924  46.193  26.653  1.00  0.00     0.002 C 
HETATM   25  C18 UNL     1      22.587  45.069  25.703  1.00  0.00     0.024 C 
ENDBRANCH  18  20
ENDBRANCH  14  18
ENDBRANCH   8  10
ENDBRANCH   7   8
TORSDOF 4
ENDMDL
MODEL 5
REMARK VINA RESULT: -5.589318096      2.727      8.371
REMARK  4 active torsions:
REMARK  status: ('A' for Active; 'I' for Inactive)
REMARK    1  A    between atoms: C5_7  and  N2_8 
REMARK    2  A    between atoms: N2_8  and  C6_10 
REMARK    3  A    between atoms: C12_17  and  N4_18 
REMARK    4  A    between atoms: N4_18  and  C13_20 
ROOT
HETATM    1  N1  UNL     1      22.349  35.558  23.028  1.00  0.00    -0.191 NA
HETATM    2  C1  UNL     1      22.989  36.151  22.242  1.00  0.00     0.102 C 
HETATM    3  C2  UNL     1      23.774  36.923  21.255  1.00  0.00     0.078 A 
HETATM    4  C3  UNL     1      24.200  36.356  20.113  1.00  0.00     0.033 A 
HETATM    5  C4  UNL     1      24.904  37.160  19.243  1.00  0.00     0.053 A 
HETATM    6  S1  UNL     1      24.939  38.657  20.051  1.00  0.00    -0.083 SA
HETATM    7  C5  UNL     1      24.076  38.245  21.457  1.00  0.00     0.091 A 
ENDROOT
BRANCH   7   8
HETATM    8  N2  UNL     1      23.778  39.056  22.593  1.00  0.00    -0.376 N 
ATOM      9  H2  UNL     1      23.262  38.677  23.387  1.00  0.00     0.160 HD
BRANCH   8  10
HETATM   10  C6  UNL     1      24.234  40.449  22.588  1.00  0.00     0.115 C 
HETATM   11  C7  UNL     1      24.534  40.906  23.994  1.00  0.00     0.300 C 
HETATM   12  N3  UNL     1      23.553  41.854  24.500  1.00  0.00     0.113 N 
HETATM   13  C8  UNL     1      22.287  41.185  24.416  1.00  0.00     0.275 C 
HETATM   14  C12 UNL     1      23.539  43.068  23.712  1.00  0.00     0.318 C 
HETATM   15  C9  UNL     1      21.863  40.937  22.970  1.00  0.00     0.037 C 
HETATM   16  C10 UNL     1      23.056  41.266  22.106  1.00  0.00     0.015 C 
HETATM   17  C11 UNL     1      23.432  42.754  22.263  1.00  0.00     0.064 C 
BRANCH  14  18
HETATM   18  N4  UNL     1      22.611  43.972  24.194  1.00  0.00    -0.389 N 
ATOM     19  H4  UNL     1      21.685  43.596  24.400  1.00  0.00     0.155 HD
BRANCH  18  20
HETATM   20  C13 UNL     1      22.783  45.324  24.429  1.00  0.00     0.078 C 
HETATM   21  C14 UNL     1      22.282  46.239  23.366  1.00  0.00     0.024 C 
HETATM   22  C15 UNL     1      22.384  47.707  23.796  1.00  0.00     0.002 C 
HETATM   23  C16 UNL     1      23.837  48.028  23.918  1.00  0.00     0.000 C 
HETATM   24  C17 UNL     1      24.727  46.786  23.882  1.00  0.00     0.002 C 
HETATM   25  C18 UNL     1      24.174  45.751  24.832  1.00  0.00     0.024 C 
ENDBRANCH  18  20
ENDBRANCH  14  18
ENDBRANCH   8  10
ENDBRANCH   7   8
TORSDOF 4
ENDMDL
