MODEL 1
REMARK VINA RESULT: -7.088548960      0.000      0.000
REMARK  6 active torsions:
REMARK  status: ('A' for Active; 'I' for Inactive)
REMARK       I    between atoms: C1_2  and  N1_3 
REMARK    1  A    between atoms: C1_2  and  C7_12 
REMARK    2  A    between atoms: N1_3  and  N2_4 
REMARK    3  A    between atoms: C2_6  and  C3_7 
REMARK    4  A    between atoms: C10_15  and  S2_16 
REMARK    5  A    between atoms: S2_16  and  N3_19 
REMARK    6  A    between atoms: N3_19  and  C11_21 
ROOT
HETATM    1  C7  UNL     1      -8.503  45.739  39.783  1.00  0.00     0.161 A 
HETATM    2  C8  UNL     1      -9.581  46.588  39.655  1.00  0.00     0.048 A 
HETATM    3  C9  UNL     1      -9.017  47.801  39.324  1.00  0.00     0.054 A 
HETATM    4  C10 UNL     1      -7.630  47.649  39.264  1.00  0.00     0.190 A 
HETATM    5  O4  UNL     1      -7.395  46.387  39.550  1.00  0.00    -0.290 OA
ENDROOT
BRANCH   1   6
HETATM    6  C1  UNL     1      -8.634  44.284  40.142  1.00  0.00     0.369 C 
HETATM    7  O1  UNL     1      -9.827  43.935  40.416  1.00  0.00    -0.247 OA
HETATM    8  N1  UNL     1      -7.552  43.486  40.152  1.00  0.00    -0.280 NA
BRANCH   8   9
HETATM    9  N2  UNL     1      -6.478  42.694  40.161  1.00  0.00    -0.242 N 
HETATM   10  C2  UNL     1      -6.092  41.850  39.292  1.00  0.00     0.140 C 
ATOM     11  H2  UNL     1      -5.880  42.778  40.983  1.00  0.00     0.201 HD
BRANCH  10  12
HETATM   12  C3  UNL     1      -4.870  41.091  39.521  1.00  0.00     0.022 A 
HETATM   13  C4  UNL     1      -4.624  40.214  40.552  1.00  0.00     0.021 A 
HETATM   14  C5  UNL     1      -3.425  39.616  40.577  1.00  0.00     0.008 A 
HETATM   15  C6  UNL     1      -2.541  39.921  39.579  1.00  0.00     0.050 A 
HETATM   16  S1  UNL     1      -3.412  41.038  38.632  1.00  0.00    -0.101 SA
ENDBRANCH  10  12
ENDBRANCH   8   9
ENDBRANCH   1   6
BRANCH   4  17
HETATM   17  S2  UNL     1      -6.533  48.927  38.878  1.00  0.00     0.281 S 
HETATM   18  O2  UNL     1      -5.247  48.708  39.617  1.00  0.00    -0.199 OA
HETATM   19  O3  UNL     1      -7.088  50.228  39.392  1.00  0.00    -0.199 OA
BRANCH  17  20
HETATM   20  N3  UNL     1      -6.143  49.033  37.203  1.00  0.00    -0.309 N 
ATOM     21  H3  UNL     1      -5.276  49.450  36.866  1.00  0.00     0.172 HD
BRANCH  20  22
HETATM   22  C11 UNL     1      -7.127  48.492  36.324  1.00  0.00     0.093 C 
HETATM   23  C12 UNL     1      -6.716  47.100  35.918  1.00  0.00     0.026 C 
HETATM   24  C13 UNL     1      -5.496  47.376  35.067  1.00  0.00     0.002 C 
HETATM   25  C14 UNL     1      -5.777  48.719  34.418  1.00  0.00     0.002 C 
HETATM   26  C15 UNL     1      -7.087  49.192  34.951  1.00  0.00     0.026 C 
ENDBRANCH  20  22
ENDBRANCH  17  20
ENDBRANCH   4  17
TORSDOF 6
ENDMDL
MODEL 2
REMARK VINA RESULT: -7.043110272      0.590      1.057
REMARK  6 active torsions:
REMARK  status: ('A' for Active; 'I' for Inactive)
REMARK       I    between atoms: C1_2  and  N1_3 
REMARK    1  A    between atoms: C1_2  and  C7_12 
REMARK    2  A    between atoms: N1_3  and  N2_4 
REMARK    3  A    between atoms: C2_6  and  C3_7 
REMARK    4  A    between atoms: C10_15  and  S2_16 
REMARK    5  A    between atoms: S2_16  and  N3_19 
REMARK    6  A    between atoms: N3_19  and  C11_21 
ROOT
HETATM    1  C7  UNL     1      -8.417  45.758  39.683  1.00  0.00     0.161 A 
HETATM    2  C8  UNL     1      -9.482  46.616  39.518  1.00  0.00     0.048 A 
HETATM    3  C9  UNL     1      -8.896  47.837  39.263  1.00  0.00     0.054 A 
HETATM    4  C10 UNL     1      -7.507  47.680  39.282  1.00  0.00     0.190 A 
HETATM    5  O4  UNL     1      -7.294  46.408  39.540  1.00  0.00    -0.290 OA
ENDROOT
BRANCH   1   6
HETATM    6  C1  UNL     1      -8.573  44.292  39.984  1.00  0.00     0.369 C 
HETATM    7  O1  UNL     1      -9.782  43.941  40.171  1.00  0.00    -0.247 OA
HETATM    8  N1  UNL     1      -7.496  43.490  40.035  1.00  0.00    -0.280 NA
BRANCH   8   9
HETATM    9  N2  UNL     1      -6.426  42.693  40.085  1.00  0.00    -0.242 N 
HETATM   10  C2  UNL     1      -6.039  41.812  39.254  1.00  0.00     0.140 C 
ATOM     11  H2  UNL     1      -5.834  42.807  40.907  1.00  0.00     0.201 HD
BRANCH  10  12
HETATM   12  C3  UNL     1      -4.823  41.056  39.524  1.00  0.00     0.022 A 
HETATM   13  C4  UNL     1      -4.594  40.211  40.585  1.00  0.00     0.021 A 
HETATM   14  C5  UNL     1      -3.398  39.611  40.644  1.00  0.00     0.008 A 
HETATM   15  C6  UNL     1      -2.500  39.882  39.650  1.00  0.00     0.050 A 
HETATM   16  S1  UNL     1      -3.354  40.971  38.656  1.00  0.00    -0.101 SA
ENDBRANCH  10  12
ENDBRANCH   8   9
ENDBRANCH   1   6
BRANCH   4  17
HETATM   17  S2  UNL     1      -6.386  48.965  39.006  1.00  0.00     0.281 S 
HETATM   18  O2  UNL     1      -5.017  48.518  39.426  1.00  0.00    -0.199 OA
HETATM   19  O3  UNL     1      -6.733  50.125  39.900  1.00  0.00    -0.199 OA
BRANCH  17  20
HETATM   20  N3  UNL     1      -6.275  49.456  37.359  1.00  0.00    -0.309 N 
ATOM     21  H3  UNL     1      -6.896  50.153  36.950  1.00  0.00     0.172 HD
BRANCH  20  22
HETATM   22  C11 UNL     1      -5.247  48.812  36.611  1.00  0.00     0.093 C 
HETATM   23  C12 UNL     1      -5.272  49.323  35.193  1.00  0.00     0.026 C 
HETATM   24  C13 UNL     1      -6.580  48.758  34.686  1.00  0.00     0.002 C 
HETATM   25  C14 UNL     1      -6.745  47.445  35.430  1.00  0.00     0.002 C 
HETATM   26  C15 UNL     1      -5.589  47.328  36.365  1.00  0.00     0.026 C 
ENDBRANCH  20  22
ENDBRANCH  17  20
ENDBRANCH   4  17
TORSDOF 6
ENDMDL
MODEL 3
REMARK VINA RESULT: -6.831092435      1.283      1.518
REMARK  6 active torsions:
REMARK  status: ('A' for Active; 'I' for Inactive)
REMARK       I    between atoms: C1_2  and  N1_3 
REMARK    1  A    between atoms: C1_2  and  C7_12 
REMARK    2  A    between atoms: N1_3  and  N2_4 
REMARK    3  A    between atoms: C2_6  and  C3_7 
REMARK    4  A    between atoms: C10_15  and  S2_16 
REMARK    5  A    between atoms: S2_16  and  N3_19 
REMARK    6  A    between atoms: N3_19  and  C11_21 
ROOT
HETATM    1  C7  UNL     1      -8.322  45.681  39.301  1.00  0.00     0.161 A 
HETATM    2  C8  UNL     1      -9.120  46.740  39.674  1.00  0.00     0.048 A 
HETATM    3  C9  UNL     1      -8.645  47.799  38.929  1.00  0.00     0.054 A 
HETATM    4  C10 UNL     1      -7.585  47.350  38.138  1.00  0.00     0.190 A 
HETATM    5  O4  UNL     1      -7.449  46.070  38.413  1.00  0.00    -0.290 OA
ENDROOT
BRANCH   1   6
HETATM    6  C1  UNL     1      -8.473  44.293  39.863  1.00  0.00     0.369 C 
HETATM    7  O1  UNL     1      -9.664  44.018  40.218  1.00  0.00    -0.247 OA
HETATM    8  N1  UNL     1      -7.409  43.476  39.952  1.00  0.00    -0.280 NA
BRANCH   8   9
HETATM    9  N2  UNL     1      -6.353  42.665  40.039  1.00  0.00    -0.242 N 
HETATM   10  C2  UNL     1      -5.937  41.792  39.215  1.00  0.00     0.140 C 
ATOM     11  H2  UNL     1      -5.799  42.760  40.891  1.00  0.00     0.201 HD
BRANCH  10  12
HETATM   12  C3  UNL     1      -4.746  41.016  39.530  1.00  0.00     0.022 A 
HETATM   13  C4  UNL     1      -4.550  40.209  40.627  1.00  0.00     0.021 A 
HETATM   14  C5  UNL     1      -3.371  39.581  40.725  1.00  0.00     0.008 A 
HETATM   15  C6  UNL     1      -2.455  39.788  39.732  1.00  0.00     0.050 A 
HETATM   16  S1  UNL     1      -3.269  40.858  38.685  1.00  0.00    -0.101 SA
ENDBRANCH  10  12
ENDBRANCH   8   9
ENDBRANCH   1   6
BRANCH   4  17
HETATM   17  S2  UNL     1      -6.700  48.355  37.046  1.00  0.00     0.281 S 
HETATM   18  O2  UNL     1      -5.245  48.001  37.126  1.00  0.00    -0.199 OA
HETATM   19  O3  UNL     1      -6.802  49.787  37.499  1.00  0.00    -0.199 OA
BRANCH  17  20
HETATM   20  N3  UNL     1      -7.173  48.185  35.398  1.00  0.00    -0.309 N 
ATOM     21  H3  UNL     1      -7.473  47.295  35.002  1.00  0.00     0.172 HD
BRANCH  20  22
HETATM   22  C11 UNL     1      -7.111  49.385  34.632  1.00  0.00     0.093 C 
HETATM   23  C12 UNL     1      -8.062  49.279  33.467  1.00  0.00     0.026 C 
HETATM   24  C13 UNL     1      -7.401  48.207  32.628  1.00  0.00     0.002 C 
HETATM   25  C14 UNL     1      -5.914  48.388  32.876  1.00  0.00     0.002 C 
HETATM   26  C15 UNL     1      -5.772  49.488  33.872  1.00  0.00     0.026 C 
ENDBRANCH  20  22
ENDBRANCH  17  20
ENDBRANCH   4  17
TORSDOF 6
ENDMDL
MODEL 4
REMARK VINA RESULT: -6.721618837      4.536      6.241
REMARK  6 active torsions:
REMARK  status: ('A' for Active; 'I' for Inactive)
REMARK       I    between atoms: C1_2  and  N1_3 
REMARK    1  A    between atoms: C1_2  and  C7_12 
REMARK    2  A    between atoms: N1_3  and  N2_4 
REMARK    3  A    between atoms: C2_6  and  C3_7 
REMARK    4  A    between atoms: C10_15  and  S2_16 
REMARK    5  A    between atoms: S2_16  and  N3_19 
REMARK    6  A    between atoms: N3_19  and  C11_21 
ROOT
HETATM    1  C7  UNL     1      -6.807  42.812  41.660  1.00  0.00     0.161 A 
HETATM    2  C8  UNL     1      -6.318  42.211  40.521  1.00  0.00     0.048 A 
HETATM    3  C9  UNL     1      -6.578  43.123  39.521  1.00  0.00     0.054 A 
HETATM    4  C10 UNL     1      -7.212  44.235  40.082  1.00  0.00     0.190 A 
HETATM    5  O4  UNL     1      -7.316  43.977  41.368  1.00  0.00    -0.290 OA
ENDROOT
BRANCH   1   6
HETATM    6  C1  UNL     1      -6.744  42.177  43.023  1.00  0.00     0.369 C 
HETATM    7  O1  UNL     1      -5.885  41.241  43.106  1.00  0.00    -0.247 OA
HETATM    8  N1  UNL     1      -7.548  42.607  44.011  1.00  0.00    -0.280 NA
BRANCH   8   9
HETATM    9  N2  UNL     1      -8.345  43.034  44.993  1.00  0.00    -0.242 N 
HETATM   10  C2  UNL     1      -9.388  43.757  44.926  1.00  0.00     0.140 C 
ATOM     11  H2  UNL     1      -8.079  42.738  45.932  1.00  0.00     0.201 HD
BRANCH  10  12
HETATM   12  C3  UNL     1     -10.104  44.100  46.147  1.00  0.00     0.022 A 
HETATM   13  C4  UNL     1     -10.122  43.386  47.323  1.00  0.00     0.021 A 
HETATM   14  C5  UNL     1     -10.851  43.882  48.331  1.00  0.00     0.008 A 
HETATM   15  C6  UNL     1     -11.518  45.056  48.118  1.00  0.00     0.050 A 
HETATM   16  S1  UNL     1     -11.107  45.436  46.508  1.00  0.00    -0.101 SA
ENDBRANCH  10  12
ENDBRANCH   8   9
ENDBRANCH   1   6
BRANCH   4  17
HETATM   17  S2  UNL     1      -7.714  45.619  39.178  1.00  0.00     0.281 S 
HETATM   18  O2  UNL     1      -7.750  46.811  40.089  1.00  0.00    -0.199 OA
HETATM   19  O3  UNL     1      -9.129  45.417  38.707  1.00  0.00    -0.199 OA
BRANCH  17  20
HETATM   20  N3  UNL     1      -6.669  46.016  37.867  1.00  0.00    -0.309 N 
ATOM     21  H3  UNL     1      -6.348  45.323  37.191  1.00  0.00     0.172 HD
BRANCH  20  22
HETATM   22  C11 UNL     1      -6.287  47.388  37.800  1.00  0.00     0.093 C 
HETATM   23  C12 UNL     1      -7.179  48.103  36.818  1.00  0.00     0.026 C 
HETATM   24  C13 UNL     1      -6.752  47.481  35.506  1.00  0.00     0.002 C 
HETATM   25  C14 UNL     1      -5.279  47.167  35.692  1.00  0.00     0.002 C 
HETATM   26  C15 UNL     1      -4.927  47.550  37.090  1.00  0.00     0.026 C 
ENDBRANCH  20  22
ENDBRANCH  17  20
ENDBRANCH   4  17
TORSDOF 6
ENDMDL
MODEL 5
REMARK VINA RESULT: -6.617949292      2.203      2.837
REMARK  6 active torsions:
REMARK  status: ('A' for Active; 'I' for Inactive)
REMARK       I    between atoms: C1_2  and  N1_3 
REMARK    1  A    between atoms: C1_2  and  C7_12 
REMARK    2  A    between atoms: N1_3  and  N2_4 
REMARK    3  A    between atoms: C2_6  and  C3_7 
REMARK    4  A    between atoms: C10_15  and  S2_16 
REMARK    5  A    between atoms: S2_16  and  N3_19 
REMARK    6  A    between atoms: N3_19  and  C11_21 
ROOT
HETATM    1  C7  UNL     1      -8.401  45.736  39.245  1.00  0.00     0.161 A 
HETATM    2  C8  UNL     1      -9.227  46.801  39.531  1.00  0.00     0.048 A 
HETATM    3  C9  UNL     1      -8.715  47.837  38.781  1.00  0.00     0.054 A 
HETATM    4  C10 UNL     1      -7.605  47.370  38.071  1.00  0.00     0.190 A 
HETATM    5  O4  UNL     1      -7.477  46.103  38.399  1.00  0.00    -0.290 OA
ENDROOT
BRANCH   1   6
HETATM    6  C1  UNL     1      -8.577  44.368  39.845  1.00  0.00     0.369 C 
HETATM    7  O1  UNL     1      -9.773  44.123  40.206  1.00  0.00    -0.247 OA
HETATM    8  N1  UNL     1      -7.528  43.535  39.957  1.00  0.00    -0.280 NA
BRANCH   8   9
HETATM    9  N2  UNL     1      -6.486  42.708  40.069  1.00  0.00    -0.242 N 
HETATM   10  C2  UNL     1      -6.019  41.883  39.222  1.00  0.00     0.140 C 
ATOM     11  H2  UNL     1      -5.994  42.743  40.962  1.00  0.00     0.201 HD
BRANCH  10  12
HETATM   12  C3  UNL     1      -4.858  41.075  39.572  1.00  0.00     0.022 A 
HETATM   13  C4  UNL     1      -3.731  40.873  38.807  1.00  0.00     0.021 A 
HETATM   14  C5  UNL     1      -2.775  40.088  39.321  1.00  0.00     0.008 A 
HETATM   15  C6  UNL     1      -2.988  39.551  40.559  1.00  0.00     0.050 A 
HETATM   16  S1  UNL     1      -4.525  40.158  40.974  1.00  0.00    -0.101 SA
ENDBRANCH  10  12
ENDBRANCH   8   9
ENDBRANCH   1   6
BRANCH   4  17
HETATM   17  S2  UNL     1      -6.662  48.345  37.001  1.00  0.00     0.281 S 
HETATM   18  O2  UNL     1      -7.292  48.328  35.640  1.00  0.00    -0.199 OA
HETATM   19  O3  UNL     1      -5.302  47.723  36.834  1.00  0.00    -0.199 OA
BRANCH  17  20
HETATM   20  N3  UNL     1      -6.539  49.995  37.482  1.00  0.00    -0.309 N 
ATOM     21  H3  UNL     1      -7.181  50.714  37.148  1.00  0.00     0.172 HD
BRANCH  20  22
HETATM   22  C11 UNL     1      -5.472  50.278  38.383  1.00  0.00     0.093 C 
HETATM   23  C12 UNL     1      -5.892  49.904  39.781  1.00  0.00     0.026 C 
HETATM   24  C13 UNL     1      -6.967  50.931  40.064  1.00  0.00     0.002 C 
HETATM   25  C14 UNL     1      -6.531  52.164  39.293  1.00  0.00     0.002 C 
HETATM   26  C15 UNL     1      -5.285  51.800  38.559  1.00  0.00     0.026 C 
ENDBRANCH  20  22
ENDBRANCH  17  20
ENDBRANCH   4  17
TORSDOF 6
ENDMDL
