MODEL 1
REMARK VINA RESULT: -6.623542784      0.000      0.000
REMARK  9 active torsions:
REMARK  status: ('A' for Active; 'I' for Inactive)
REMARK    1  A    between atoms: C2_2  and  C3_3 
REMARK    2  A    between atoms: C3_3  and  N1_4 
REMARK       I    between atoms: N1_4  and  C4_6 
REMARK    3  A    between atoms: C4_6  and  C5_8 
REMARK    4  A    between atoms: C5_8  and  N2_9 
REMARK    5  A    between atoms: N2_9  and  C6_11 
REMARK    6  A    between atoms: C6_11  and  O2_12 
REMARK    7  A    between atoms: C6_11  and  C7_14 
REMARK    8  A    between atoms: C7_14  and  S1_15 
REMARK    9  A    between atoms: S1_15  and  C8_16 
ROOT
HETATM    1  N2  UNL     1      -6.335  44.772  40.991  1.00  0.00    -0.356 N 
ATOM      2  H2  UNL     1      -5.780  45.349  41.623  1.00  0.00     0.162 HD
ENDROOT
BRANCH   1   3
HETATM    3  C5  UNL     1      -7.005  43.551  41.487  1.00  0.00     0.113 C 
HETATM    4  C11 UNL     1      -6.682  43.379  42.940  1.00  0.00     0.041 C 
HETATM    5  C12 UNL     1      -7.880  43.080  43.809  1.00  0.00     0.003 C 
HETATM    6  C13 UNL     1      -8.975  44.090  43.645  1.00  0.00     0.000 C 
HETATM    7  C14 UNL     1      -9.060  44.623  42.235  1.00  0.00     0.003 C 
HETATM    8  C15 UNL     1      -8.477  43.599  41.287  1.00  0.00     0.041 C 
BRANCH   3   9
HETATM    9  C4  UNL     1      -6.447  42.441  40.659  1.00  0.00     0.246 C 
HETATM   10  N1  UNL     1      -5.638  41.398  41.157  1.00  0.00    -0.359 N 
ATOM     11  H1  UNL     1      -5.411  41.373  42.151  1.00  0.00     0.162 HD
HETATM   12  O1  UNL     1      -6.689  42.385  39.398  1.00  0.00    -0.271 OA
BRANCH  10  13
HETATM   13  C3  UNL     1      -5.121  40.359  40.282  1.00  0.00     0.122 C 
BRANCH  13  14
HETATM   14  C2  UNL     1      -3.732  39.947  40.610  1.00  0.00     0.015 C 
HETATM   15  C1  UNL     1      -2.874  39.931  39.367  1.00  0.00     0.006 C 
ENDBRANCH  13  14
ENDBRANCH  10  13
ENDBRANCH   3   9
ENDBRANCH   1   3
BRANCH   1  16
HETATM   16  C6  UNL     1      -6.471  45.128  39.632  1.00  0.00     0.122 C 
BRANCH  16  17
HETATM   17  O2  UNL     1      -5.447  44.954  38.846  1.00  0.00    -0.349 OA
ATOM     18  H2  UNL     1      -4.606  45.299  39.122  1.00  0.00     0.219 HD
ENDBRANCH  16  17
BRANCH  16  19
HETATM   19  C7  UNL     1      -7.696  45.685  39.035  1.00  0.00     0.165 C 
BRANCH  19  20
HETATM   20  S1  UNL     1      -7.630  47.400  38.546  1.00  0.00    -0.097 SA
BRANCH  20  21
HETATM   21  C8  UNL     1      -6.858  47.554  36.926  1.00  0.00     0.109 A 
HETATM   22  N3  UNL     1      -5.956  46.815  36.498  1.00  0.00    -0.358 N 
HETATM   23  C9  UNL     1      -5.395  46.975  35.254  1.00  0.00     0.073 A 
ATOM     24  H3  UNL     1      -5.618  46.059  37.094  1.00  0.00     0.166 HD
HETATM   25  C10 UNL     1      -5.919  48.181  34.513  1.00  0.00     0.127 A 
HETATM   26  S2  UNL     1      -7.191  48.744  35.670  1.00  0.00    -0.085 SA
HETATM   27  S3  UNL     1      -6.849  50.364  36.159  1.00  0.00    -0.017 SA
ENDBRANCH  20  21
ENDBRANCH  19  20
ENDBRANCH  16  19
ENDBRANCH   1  16
TORSDOF 9
ENDMDL
MODEL 2
REMARK VINA RESULT: -6.364775172      2.942      7.776
REMARK  9 active torsions:
REMARK  status: ('A' for Active; 'I' for Inactive)
REMARK    1  A    between atoms: C2_2  and  C3_3 
REMARK    2  A    between atoms: C3_3  and  N1_4 
REMARK       I    between atoms: N1_4  and  C4_6 
REMARK    3  A    between atoms: C4_6  and  C5_8 
REMARK    4  A    between atoms: C5_8  and  N2_9 
REMARK    5  A    between atoms: N2_9  and  C6_11 
REMARK    6  A    between atoms: C6_11  and  O2_12 
REMARK    7  A    between atoms: C6_11  and  C7_14 
REMARK    8  A    between atoms: C7_14  and  S1_15 
REMARK    9  A    between atoms: S1_15  and  C8_16 
ROOT
HETATM    1  N2  UNL     1      -4.792  47.790  37.881  1.00  0.00    -0.356 N 
ATOM      2  H2  UNL     1      -3.933  48.325  38.007  1.00  0.00     0.162 HD
ENDROOT
BRANCH   1   3
HETATM    3  C5  UNL     1      -5.914  48.350  37.096  1.00  0.00     0.113 C 
HETATM    4  C11 UNL     1      -5.417  49.528  36.316  1.00  0.00     0.041 C 
HETATM    5  C12 UNL     1      -5.829  49.525  34.862  1.00  0.00     0.003 C 
HETATM    6  C13 UNL     1      -5.456  48.254  34.162  1.00  0.00     0.000 C 
HETATM    7  C14 UNL     1      -5.538  47.051  35.071  1.00  0.00     0.003 C 
HETATM    8  C15 UNL     1      -6.517  47.343  36.185  1.00  0.00     0.041 C 
BRANCH   3   9
HETATM    9  C4  UNL     1      -6.934  48.747  38.112  1.00  0.00     0.246 C 
HETATM   10  N1  UNL     1      -8.290  48.362  38.078  1.00  0.00    -0.359 N 
ATOM     11  H1  UNL     1      -8.621  47.762  37.322  1.00  0.00     0.162 HD
HETATM   12  O1  UNL     1      -6.607  49.492  39.106  1.00  0.00    -0.271 OA
BRANCH  10  13
HETATM   13  C3  UNL     1      -9.227  48.801  39.099  1.00  0.00     0.122 C 
BRANCH  13  14
HETATM   14  C2  UNL     1     -10.009  47.691  39.701  1.00  0.00     0.015 C 
HETATM   15  C1  UNL     1     -11.461  48.082  39.847  1.00  0.00     0.006 C 
ENDBRANCH  13  14
ENDBRANCH  10  13
ENDBRANCH   3   9
ENDBRANCH   1   3
BRANCH   1  16
HETATM   16  C6  UNL     1      -4.925  46.507  38.453  1.00  0.00     0.122 C 
BRANCH  16  17
HETATM   17  O2  UNL     1      -4.261  45.524  37.916  1.00  0.00    -0.349 OA
ATOM     18  H2  UNL     1      -4.459  44.640  38.203  1.00  0.00     0.219 HD
ENDBRANCH  16  17
BRANCH  16  19
HETATM   19  C7  UNL     1      -5.763  46.199  39.624  1.00  0.00     0.165 C 
BRANCH  19  20
HETATM   20  S1  UNL     1      -7.081  45.023  39.367  1.00  0.00    -0.097 SA
BRANCH  20  21
HETATM   21  C8  UNL     1      -6.607  43.409  40.011  1.00  0.00     0.109 A 
HETATM   22  N3  UNL     1      -6.267  42.439  39.312  1.00  0.00    -0.358 N 
HETATM   23  C9  UNL     1      -5.917  41.225  39.851  1.00  0.00     0.073 A 
ATOM     24  H3  UNL     1      -6.248  42.549  38.299  1.00  0.00     0.166 HD
HETATM   25  C10 UNL     1      -6.075  41.169  41.351  1.00  0.00     0.127 A 
HETATM   26  S2  UNL     1      -6.545  42.883  41.691  1.00  0.00    -0.085 SA
HETATM   27  S3  UNL     1      -8.084  42.915  42.472  1.00  0.00    -0.017 SA
ENDBRANCH  20  21
ENDBRANCH  19  20
ENDBRANCH  16  19
ENDBRANCH   1  16
TORSDOF 9
ENDMDL
MODEL 3
REMARK VINA RESULT: -6.345977159      1.589      1.800
REMARK  9 active torsions:
REMARK  status: ('A' for Active; 'I' for Inactive)
REMARK    1  A    between atoms: C2_2  and  C3_3 
REMARK    2  A    between atoms: C3_3  and  N1_4 
REMARK       I    between atoms: N1_4  and  C4_6 
REMARK    3  A    between atoms: C4_6  and  C5_8 
REMARK    4  A    between atoms: C5_8  and  N2_9 
REMARK    5  A    between atoms: N2_9  and  C6_11 
REMARK    6  A    between atoms: C6_11  and  O2_12 
REMARK    7  A    between atoms: C6_11  and  C7_14 
REMARK    8  A    between atoms: C7_14  and  S1_15 
REMARK    9  A    between atoms: S1_15  and  C8_16 
ROOT
HETATM    1  N2  UNL     1      -7.203  42.766  40.309  1.00  0.00    -0.356 N 
ATOM      2  H2  UNL     1      -7.785  42.147  39.745  1.00  0.00     0.162 HD
ENDROOT
BRANCH   1   3
HETATM    3  C5  UNL     1      -6.745  42.346  41.651  1.00  0.00     0.113 C 
HETATM    4  C11 UNL     1      -6.072  43.507  42.317  1.00  0.00     0.041 C 
HETATM    5  C12 UNL     1      -6.522  43.749  43.738  1.00  0.00     0.003 C 
HETATM    6  C13 UNL     1      -8.010  43.885  43.855  1.00  0.00     0.000 C 
HETATM    7  C14 UNL     1      -8.747  43.012  42.869  1.00  0.00     0.003 C 
HETATM    8  C15 UNL     1      -7.863  41.844  42.492  1.00  0.00     0.041 C 
BRANCH   3   9
HETATM    9  C4  UNL     1      -5.795  41.222  41.399  1.00  0.00     0.246 C 
HETATM   10  N1  UNL     1      -5.110  41.008  40.185  1.00  0.00    -0.359 N 
ATOM     11  H1  UNL     1      -5.250  41.658  39.411  1.00  0.00     0.162 HD
HETATM   12  O1  UNL     1      -5.548  40.361  42.320  1.00  0.00    -0.271 OA
BRANCH  10  13
HETATM   13  C3  UNL     1      -4.209  39.881  40.013  1.00  0.00     0.122 C 
BRANCH  13  14
HETATM   14  C2  UNL     1      -2.936  40.239  39.338  1.00  0.00     0.015 C 
HETATM   15  C1  UNL     1      -3.180  41.254  38.246  1.00  0.00     0.006 C 
ENDBRANCH  13  14
ENDBRANCH  10  13
ENDBRANCH   3   9
ENDBRANCH   1   3
BRANCH   1  16
HETATM   16  C6  UNL     1      -6.824  44.033  39.817  1.00  0.00     0.122 C 
BRANCH  16  17
HETATM   17  O2  UNL     1      -5.738  44.116  39.103  1.00  0.00    -0.349 OA
ATOM     18  H2  UNL     1      -5.014  44.628  39.445  1.00  0.00     0.219 HD
ENDBRANCH  16  17
BRANCH  16  19
HETATM   19  C7  UNL     1      -7.576  45.277  40.052  1.00  0.00     0.165 C 
BRANCH  19  20
HETATM   20  S1  UNL     1      -8.219  46.099  38.604  1.00  0.00    -0.097 SA
BRANCH  20  21
HETATM   21  C8  UNL     1      -6.918  47.053  37.803  1.00  0.00     0.109 A 
HETATM   22  N3  UNL     1      -5.974  46.564  37.159  1.00  0.00    -0.358 N 
HETATM   23  C9  UNL     1      -5.003  47.334  36.568  1.00  0.00     0.073 A 
ATOM     24  H3  UNL     1      -5.919  45.550  37.066  1.00  0.00     0.166 HD
HETATM   25  C10 UNL     1      -5.151  48.808  36.858  1.00  0.00     0.127 A 
HETATM   26  S2  UNL     1      -6.707  48.801  37.779  1.00  0.00    -0.085 SA
HETATM   27  S3  UNL     1      -6.452  49.478  39.347  1.00  0.00    -0.017 SA
ENDBRANCH  20  21
ENDBRANCH  19  20
ENDBRANCH  16  19
ENDBRANCH   1  16
TORSDOF 9
ENDMDL
MODEL 4
REMARK VINA RESULT: -6.325110123      1.277      1.405
REMARK  9 active torsions:
REMARK  status: ('A' for Active; 'I' for Inactive)
REMARK    1  A    between atoms: C2_2  and  C3_3 
REMARK    2  A    between atoms: C3_3  and  N1_4 
REMARK       I    between atoms: N1_4  and  C4_6 
REMARK    3  A    between atoms: C4_6  and  C5_8 
REMARK    4  A    between atoms: C5_8  and  N2_9 
REMARK    5  A    between atoms: N2_9  and  C6_11 
REMARK    6  A    between atoms: C6_11  and  O2_12 
REMARK    7  A    between atoms: C6_11  and  C7_14 
REMARK    8  A    between atoms: C7_14  and  S1_15 
REMARK    9  A    between atoms: S1_15  and  C8_16 
ROOT
HETATM    1  N2  UNL     1      -6.457  44.566  41.382  1.00  0.00    -0.356 N 
ATOM      2  H2  UNL     1      -5.803  44.954  42.062  1.00  0.00     0.162 HD
ENDROOT
BRANCH   1   3
HETATM    3  C5  UNL     1      -7.475  43.579  41.802  1.00  0.00     0.113 C 
HETATM    4  C11 UNL     1      -7.941  43.924  43.184  1.00  0.00     0.041 C 
HETATM    5  C12 UNL     1      -9.443  43.921  43.347  1.00  0.00     0.003 C 
HETATM    6  C13 UNL     1     -10.133  44.793  42.342  1.00  0.00     0.000 C 
HETATM    7  C14 UNL     1      -9.424  44.806  41.009  1.00  0.00     0.003 C 
HETATM    8  C15 UNL     1      -8.626  43.529  40.865  1.00  0.00     0.041 C 
BRANCH   3   9
HETATM    9  C4  UNL     1      -6.772  42.262  41.766  1.00  0.00     0.246 C 
HETATM   10  N1  UNL     1      -6.179  41.701  40.616  1.00  0.00    -0.359 N 
ATOM     11  H1  UNL     1      -6.210  42.216  39.735  1.00  0.00     0.162 HD
HETATM   12  O1  UNL     1      -6.674  41.548  42.829  1.00  0.00    -0.271 OA
BRANCH  10  13
HETATM   13  C3  UNL     1      -5.523  40.405  40.658  1.00  0.00     0.122 C 
BRANCH  13  14
HETATM   14  C2  UNL     1      -4.267  40.352  39.868  1.00  0.00     0.015 C 
HETATM   15  C1  UNL     1      -3.213  39.551  40.597  1.00  0.00     0.006 C 
ENDBRANCH  13  14
ENDBRANCH  10  13
ENDBRANCH   3   9
ENDBRANCH   1   3
BRANCH   1  16
HETATM   16  C6  UNL     1      -6.400  44.964  40.030  1.00  0.00     0.122 C 
BRANCH  16  17
HETATM   17  O2  UNL     1      -6.057  44.075  39.142  1.00  0.00    -0.349 OA
ATOM     18  H2  UNL     1      -5.134  43.980  38.936  1.00  0.00     0.219 HD
ENDBRANCH  16  17
BRANCH  16  19
HETATM   19  C7  UNL     1      -6.706  46.321  39.546  1.00  0.00     0.165 C 
BRANCH  19  20
HETATM   20  S1  UNL     1      -7.678  46.429  38.053  1.00  0.00    -0.097 SA
BRANCH  20  21
HETATM   21  C8  UNL     1      -6.768  47.327  36.784  1.00  0.00     0.109 A 
HETATM   22  N3  UNL     1      -6.352  46.830  35.724  1.00  0.00    -0.358 N 
HETATM   23  C9  UNL     1      -5.659  47.556  34.787  1.00  0.00     0.073 A 
ATOM     24  H3  UNL     1      -6.532  45.842  35.543  1.00  0.00     0.166 HD
HETATM   25  C10 UNL     1      -5.382  48.977  35.218  1.00  0.00     0.127 A 
HETATM   26  S2  UNL     1      -6.283  49.020  36.785  1.00  0.00    -0.085 SA
HETATM   27  S3  UNL     1      -5.194  49.416  38.066  1.00  0.00    -0.017 SA
ENDBRANCH  20  21
ENDBRANCH  19  20
ENDBRANCH  16  19
ENDBRANCH   1  16
TORSDOF 9
ENDMDL
MODEL 5
REMARK VINA RESULT: -6.299724092      3.202      6.529
REMARK  9 active torsions:
REMARK  status: ('A' for Active; 'I' for Inactive)
REMARK    1  A    between atoms: C2_2  and  C3_3 
REMARK    2  A    between atoms: C3_3  and  N1_4 
REMARK       I    between atoms: N1_4  and  C4_6 
REMARK    3  A    between atoms: C4_6  and  C5_8 
REMARK    4  A    between atoms: C5_8  and  N2_9 
REMARK    5  A    between atoms: N2_9  and  C6_11 
REMARK    6  A    between atoms: C6_11  and  O2_12 
REMARK    7  A    between atoms: C6_11  and  C7_14 
REMARK    8  A    between atoms: C7_14  and  S1_15 
REMARK    9  A    between atoms: S1_15  and  C8_16 
ROOT
HETATM    1  N2  UNL     1      -8.087  44.201  40.198  1.00  0.00    -0.356 N 
ATOM      2  H2  UNL     1      -8.218  43.282  39.776  1.00  0.00     0.162 HD
ENDROOT
BRANCH   1   3
HETATM    3  C5  UNL     1      -9.089  45.269  39.994  1.00  0.00     0.113 C 
HETATM    4  C11 UNL     1     -10.218  44.721  39.175  1.00  0.00     0.041 C 
HETATM    5  C12 UNL     1     -11.590  45.036  39.723  1.00  0.00     0.003 C 
HETATM    6  C13 UNL     1     -11.747  44.618  41.154  1.00  0.00     0.000 C 
HETATM    7  C14 UNL     1     -10.465  44.760  41.939  1.00  0.00     0.003 C 
HETATM    8  C15 UNL     1      -9.600  45.811  41.280  1.00  0.00     0.041 C 
BRANCH   3   9
HETATM    9  C4  UNL     1      -8.357  46.354  39.276  1.00  0.00     0.246 C 
HETATM   10  N1  UNL     1      -7.707  46.195  38.034  1.00  0.00    -0.359 N 
ATOM     11  H1  UNL     1      -7.732  45.287  37.569  1.00  0.00     0.162 HD
HETATM   12  O1  UNL     1      -8.281  47.532  39.781  1.00  0.00    -0.271 OA
BRANCH  10  13
HETATM   13  C3  UNL     1      -7.002  47.298  37.404  1.00  0.00     0.122 C 
BRANCH  13  14
HETATM   14  C2  UNL     1      -6.866  47.149  35.932  1.00  0.00     0.015 C 
HETATM   15  C1  UNL     1      -5.410  47.078  35.537  1.00  0.00     0.006 C 
ENDBRANCH  13  14
ENDBRANCH  10  13
ENDBRANCH   3   9
ENDBRANCH   1   3
BRANCH   1  16
HETATM   16  C6  UNL     1      -6.945  44.469  40.984  1.00  0.00     0.122 C 
BRANCH  16  17
HETATM   17  O2  UNL     1      -6.032  45.256  40.492  1.00  0.00    -0.349 OA
ATOM     18  H2  UNL     1      -5.876  45.231  39.555  1.00  0.00     0.219 HD
ENDBRANCH  16  17
BRANCH  16  19
HETATM   19  C7  UNL     1      -6.713  43.922  42.331  1.00  0.00     0.165 C 
BRANCH  19  20
HETATM   20  S1  UNL     1      -7.098  42.194  42.560  1.00  0.00    -0.097 SA
BRANCH  20  21
HETATM   21  C8  UNL     1      -5.804  41.170  41.839  1.00  0.00     0.109 A 
HETATM   22  N3  UNL     1      -4.802  40.758  42.448  1.00  0.00    -0.358 N 
HETATM   23  C9  UNL     1      -3.839  39.981  41.852  1.00  0.00     0.073 A 
ATOM     24  H3  UNL     1      -4.691  41.008  43.431  1.00  0.00     0.166 HD
HETATM   25  C10 UNL     1      -4.078  39.761  40.378  1.00  0.00     0.127 A 
HETATM   26  S2  UNL     1      -5.681  40.576  40.185  1.00  0.00    -0.085 SA
HETATM   27  S3  UNL     1      -5.548  41.839  39.016  1.00  0.00    -0.017 SA
ENDBRANCH  20  21
ENDBRANCH  19  20
ENDBRANCH  16  19
ENDBRANCH   1  16
TORSDOF 9
ENDMDL
