MODEL 1
REMARK VINA RESULT: -7.221454678      0.000      0.000
REMARK  8 active torsions:
REMARK  status: ('A' for Active; 'I' for Inactive)
REMARK    1  A    between atoms: O1_1  and  C1_3 
REMARK    2  A    between atoms: C4_6  and  O2_7 
REMARK    3  A    between atoms: N1_9  and  C5_10 
REMARK    4  A    between atoms: C5_10  and  C6_11 
REMARK    5  A    between atoms: C6_11  and  C7_12 
REMARK    6  A    between atoms: C7_12  and  N2_13 
REMARK    7  A    between atoms: C13_19  and  C14_20 
REMARK    8  A    between atoms: C14_20  and  C15_21 
ROOT
HETATM    1  C1  UNL     1      -9.239  45.359  41.071  1.00  0.00     0.151 A 
HETATM    2  C2  UNL     1      -8.680  44.643  42.128  1.00  0.00     0.007 A 
HETATM    3  C3  UNL     1      -7.468  44.211  41.677  1.00  0.00     0.011 A 
HETATM    4  C4  UNL     1      -7.335  44.661  40.407  1.00  0.00     0.151 A 
HETATM    5  N1  UNL     1      -8.440  45.382  40.018  1.00  0.00    -0.308 N 
HETATM    6  C13 UNL     1      -6.641  43.402  42.630  1.00  0.00     0.048 C 
HETATM    7  C19 UNL     1      -7.555  42.408  43.247  1.00  0.00    -0.021 C 
HETATM    8  C20 UNL     1      -8.749  42.833  43.673  1.00  0.00    -0.025 C 
HETATM    9  C21 UNL     1      -9.097  44.292  43.506  1.00  0.00     0.070 C 
ENDROOT
BRANCH   5  10
HETATM   10  C5  UNL     1      -8.644  45.989  38.734  1.00  0.00     0.135 C 
BRANCH  10  11
HETATM   11  C6  UNL     1      -8.398  47.450  38.652  1.00  0.00     0.050 C 
BRANCH  11  12
HETATM   12  C7  UNL     1      -7.076  47.904  38.167  1.00  0.00     0.274 C 
BRANCH  12  13
HETATM   13  N2  UNL     1      -6.431  47.055  37.215  1.00  0.00     0.088 N 
HETATM   14  C8  UNL     1      -4.992  47.215  37.258  1.00  0.00     0.272 C 
HETATM   15  C9  UNL     1      -4.662  48.639  36.952  1.00  0.00     0.030 C 
HETATM   16  C10 UNL     1      -5.269  49.182  35.705  1.00  0.00     0.003 C 
HETATM   17  C11 UNL     1      -6.624  48.663  35.373  1.00  0.00     0.030 C 
HETATM   18  C12 UNL     1      -6.871  47.261  35.872  1.00  0.00     0.272 C 
ENDBRANCH  12  13
ENDBRANCH  11  12
ENDBRANCH  10  11
ENDBRANCH   5  10
BRANCH   1  19
HETATM   19  O1  UNL     1     -10.507  45.943  41.228  1.00  0.00    -0.345 OA
ATOM     20  H1  UNL     1     -10.658  46.823  40.906  1.00  0.00     0.219 HD
ENDBRANCH   1  19
BRANCH   4  21
HETATM   21  O2  UNL     1      -6.239  44.436  39.596  1.00  0.00    -0.345 OA
ATOM     22  H2  UNL     1      -6.128  44.787  38.720  1.00  0.00     0.219 HD
ENDBRANCH   4  21
BRANCH   6  23
HETATM   23  C14 UNL     1      -5.482  42.768  41.928  1.00  0.00     0.047 C 
BRANCH  23  24
HETATM   24  C15 UNL     1      -5.687  41.299  41.778  1.00  0.00     0.146 C 
HETATM   25  C16 UNL     1      -6.006  40.936  40.340  1.00  0.00     0.199 C 
HETATM   26  O3  UNL     1      -4.898  41.020  39.520  1.00  0.00    -0.387 OA
HETATM   27  C17 UNL     1      -3.837  40.237  39.969  1.00  0.00     0.193 C 
HETATM   28  C18 UNL     1      -4.088  39.691  41.354  1.00  0.00     0.194 C 
HETATM   29  O4  UNL     1      -4.557  40.640  42.239  1.00  0.00    -0.382 OA
ENDBRANCH  23  24
ENDBRANCH   6  23
TORSDOF 8
ENDMDL
MODEL 2
REMARK VINA RESULT: -7.219634596      1.748      4.578
REMARK  8 active torsions:
REMARK  status: ('A' for Active; 'I' for Inactive)
REMARK    1  A    between atoms: O1_1  and  C1_3 
REMARK    2  A    between atoms: C4_6  and  O2_7 
REMARK    3  A    between atoms: N1_9  and  C5_10 
REMARK    4  A    between atoms: C5_10  and  C6_11 
REMARK    5  A    between atoms: C6_11  and  C7_12 
REMARK    6  A    between atoms: C7_12  and  N2_13 
REMARK    7  A    between atoms: C13_19  and  C14_20 
REMARK    8  A    between atoms: C14_20  and  C15_21 
ROOT
HETATM    1  C1  UNL     1      -7.023  44.025  40.033  1.00  0.00     0.151 A 
HETATM    2  C2  UNL     1      -7.078  43.240  41.183  1.00  0.00     0.007 A 
HETATM    3  C3  UNL     1      -8.276  43.526  41.765  1.00  0.00     0.011 A 
HETATM    4  C4  UNL     1      -8.889  44.443  40.979  1.00  0.00     0.151 A 
HETATM    5  N1  UNL     1      -8.111  44.762  39.890  1.00  0.00    -0.308 N 
HETATM    6  C13 UNL     1      -8.598  42.807  43.040  1.00  0.00     0.048 C 
HETATM    7  C19 UNL     1      -7.376  42.870  43.882  1.00  0.00    -0.021 C 
HETATM    8  C20 UNL     1      -6.201  42.604  43.303  1.00  0.00    -0.025 C 
HETATM    9  C21 UNL     1      -6.183  42.255  41.835  1.00  0.00     0.070 C 
ENDROOT
BRANCH   5  10
HETATM   10  C5  UNL     1      -8.443  45.708  38.864  1.00  0.00     0.135 C 
BRANCH  10  11
HETATM   11  C6  UNL     1      -8.071  47.120  39.128  1.00  0.00     0.050 C 
BRANCH  11  12
HETATM   12  C7  UNL     1      -7.226  47.812  38.130  1.00  0.00     0.274 C 
BRANCH  12  13
HETATM   13  N2  UNL     1      -6.473  46.971  37.254  1.00  0.00     0.088 N 
HETATM   14  C8  UNL     1      -5.049  47.155  37.445  1.00  0.00     0.272 C 
HETATM   15  C9  UNL     1      -4.712  48.583  37.168  1.00  0.00     0.030 C 
HETATM   16  C10 UNL     1      -5.194  49.113  35.864  1.00  0.00     0.003 C 
HETATM   17  C11 UNL     1      -6.499  48.571  35.395  1.00  0.00     0.030 C 
HETATM   18  C12 UNL     1      -6.774  47.166  35.872  1.00  0.00     0.272 C 
ENDBRANCH  12  13
ENDBRANCH  11  12
ENDBRANCH  10  11
ENDBRANCH   5  10
BRANCH   1  19
HETATM   19  O1  UNL     1      -5.893  43.952  39.201  1.00  0.00    -0.345 OA
ATOM     20  H1  UNL     1      -5.817  43.238  38.580  1.00  0.00     0.219 HD
ENDBRANCH   1  19
BRANCH   4  21
HETATM   21  O2  UNL     1     -10.132  44.994  41.224  1.00  0.00    -0.345 OA
ATOM     22  H2  UNL     1     -10.284  45.866  41.569  1.00  0.00     0.219 HD
ENDBRANCH   4  21
BRANCH   6  23
HETATM   23  C14 UNL     1      -9.794  43.409  43.708  1.00  0.00     0.047 C 
BRANCH  23  24
HETATM   24  C15 UNL     1      -9.398  44.177  44.923  1.00  0.00     0.146 C 
HETATM   25  C16 UNL     1      -9.498  45.671  44.681  1.00  0.00     0.199 C 
HETATM   26  O3  UNL     1     -10.807  46.109  44.643  1.00  0.00    -0.387 OA
HETATM   27  C17 UNL     1     -11.518  45.781  45.794  1.00  0.00     0.193 C 
HETATM   28  C18 UNL     1     -10.747  44.828  46.677  1.00  0.00     0.194 C 
HETATM   29  O4  UNL     1     -10.190  43.771  45.986  1.00  0.00    -0.382 OA
ENDBRANCH  23  24
ENDBRANCH   6  23
TORSDOF 8
ENDMDL
MODEL 3
REMARK VINA RESULT: -7.126489683      1.902      4.701
REMARK  8 active torsions:
REMARK  status: ('A' for Active; 'I' for Inactive)
REMARK    1  A    between atoms: O1_1  and  C1_3 
REMARK    2  A    between atoms: C4_6  and  O2_7 
REMARK    3  A    between atoms: N1_9  and  C5_10 
REMARK    4  A    between atoms: C5_10  and  C6_11 
REMARK    5  A    between atoms: C6_11  and  C7_12 
REMARK    6  A    between atoms: C7_12  and  N2_13 
REMARK    7  A    between atoms: C13_19  and  C14_20 
REMARK    8  A    between atoms: C14_20  and  C15_21 
ROOT
HETATM    1  C1  UNL     1      -7.062  43.990  40.104  1.00  0.00     0.151 A 
HETATM    2  C2  UNL     1      -7.067  43.177  41.237  1.00  0.00     0.007 A 
HETATM    3  C3  UNL     1      -8.255  43.421  41.859  1.00  0.00     0.011 A 
HETATM    4  C4  UNL     1      -8.910  44.341  41.111  1.00  0.00     0.151 A 
HETATM    5  N1  UNL     1      -8.171  44.703  40.009  1.00  0.00    -0.308 N 
HETATM    6  C13 UNL     1      -8.525  42.667  43.125  1.00  0.00     0.048 C 
HETATM    7  C19 UNL     1      -7.282  42.739  43.934  1.00  0.00    -0.021 C 
HETATM    8  C20 UNL     1      -6.118  42.514  43.317  1.00  0.00    -0.025 C 
HETATM    9  C21 UNL     1      -6.132  42.199  41.841  1.00  0.00     0.070 C 
ENDROOT
BRANCH   5  10
HETATM   10  C5  UNL     1      -8.552  45.664  39.014  1.00  0.00     0.135 C 
BRANCH  10  11
HETATM   11  C6  UNL     1      -8.081  47.054  39.230  1.00  0.00     0.050 C 
BRANCH  11  12
HETATM   12  C7  UNL     1      -6.748  47.423  38.706  1.00  0.00     0.274 C 
BRANCH  12  13
HETATM   13  N2  UNL     1      -6.705  48.567  37.851  1.00  0.00     0.088 N 
HETATM   14  C8  UNL     1      -7.448  48.338  36.629  1.00  0.00     0.272 C 
HETATM   15  C9  UNL     1      -6.849  47.169  35.919  1.00  0.00     0.030 C 
HETATM   16  C10 UNL     1      -5.379  47.240  35.698  1.00  0.00     0.003 C 
HETATM   17  C11 UNL     1      -4.601  47.912  36.773  1.00  0.00     0.030 C 
HETATM   18  C12 UNL     1      -5.380  48.976  37.506  1.00  0.00     0.272 C 
ENDBRANCH  12  13
ENDBRANCH  11  12
ENDBRANCH  10  11
ENDBRANCH   5  10
BRANCH   1  19
HETATM   19  O1  UNL     1      -5.955  43.962  39.241  1.00  0.00    -0.345 OA
ATOM     20  H1  UNL     1      -5.747  44.731  38.724  1.00  0.00     0.219 HD
ENDBRANCH   1  19
BRANCH   4  21
HETATM   21  O2  UNL     1     -10.159  44.857  41.402  1.00  0.00    -0.345 OA
ATOM     22  H2  UNL     1     -10.970  44.589  40.987  1.00  0.00     0.219 HD
ENDBRANCH   4  21
BRANCH   6  23
HETATM   23  C14 UNL     1      -9.715  43.225  43.838  1.00  0.00     0.047 C 
BRANCH  23  24
HETATM   24  C15 UNL     1      -9.303  43.986  45.052  1.00  0.00     0.146 C 
HETATM   25  C16 UNL     1      -9.476  45.479  44.846  1.00  0.00     0.199 C 
HETATM   26  O3  UNL     1     -10.802  45.861  44.870  1.00  0.00    -0.387 OA
HETATM   27  C17 UNL     1     -11.451  45.479  46.042  1.00  0.00     0.193 C 
HETATM   28  C18 UNL     1     -10.605  44.544  46.873  1.00  0.00     0.194 C 
HETATM   29  O4  UNL     1     -10.033  43.526  46.138  1.00  0.00    -0.382 OA
ENDBRANCH  23  24
ENDBRANCH   6  23
TORSDOF 8
ENDMDL
MODEL 4
REMARK VINA RESULT: -7.121327475      0.638      1.082
REMARK  8 active torsions:
REMARK  status: ('A' for Active; 'I' for Inactive)
REMARK    1  A    between atoms: O1_1  and  C1_3 
REMARK    2  A    between atoms: C4_6  and  O2_7 
REMARK    3  A    between atoms: N1_9  and  C5_10 
REMARK    4  A    between atoms: C5_10  and  C6_11 
REMARK    5  A    between atoms: C6_11  and  C7_12 
REMARK    6  A    between atoms: C7_12  and  N2_13 
REMARK    7  A    between atoms: C13_19  and  C14_20 
REMARK    8  A    between atoms: C14_20  and  C15_21 
ROOT
HETATM    1  C1  UNL     1      -9.154  45.380  40.917  1.00  0.00     0.151 A 
HETATM    2  C2  UNL     1      -8.655  44.643  41.990  1.00  0.00     0.007 A 
HETATM    3  C3  UNL     1      -7.422  44.214  41.600  1.00  0.00     0.011 A 
HETATM    4  C4  UNL     1      -7.218  44.686  40.347  1.00  0.00     0.151 A 
HETATM    5  N1  UNL     1      -8.297  45.418  39.911  1.00  0.00    -0.308 N 
HETATM    6  C13 UNL     1      -6.651  43.385  42.583  1.00  0.00     0.048 C 
HETATM    7  C19 UNL     1      -7.602  42.384  43.130  1.00  0.00    -0.021 C 
HETATM    8  C20 UNL     1      -8.816  42.807  43.497  1.00  0.00    -0.025 C 
HETATM    9  C21 UNL     1      -9.149  44.270  43.337  1.00  0.00     0.070 C 
ENDROOT
BRANCH   5  10
HETATM   10  C5  UNL     1      -8.427  46.048  38.628  1.00  0.00     0.135 C 
BRANCH  10  11
HETATM   11  C6  UNL     1      -7.839  47.404  38.501  1.00  0.00     0.050 C 
BRANCH  11  12
HETATM   12  C7  UNL     1      -7.391  47.842  37.161  1.00  0.00     0.274 C 
BRANCH  12  13
HETATM   13  N2  UNL     1      -6.079  48.404  37.089  1.00  0.00     0.088 N 
HETATM   14  C8  UNL     1      -6.051  49.564  36.223  1.00  0.00     0.272 C 
HETATM   15  C9  UNL     1      -6.484  49.148  34.856  1.00  0.00     0.030 C 
HETATM   16  C10 UNL     1      -5.760  47.981  34.284  1.00  0.00     0.003 C 
HETATM   17  C11 UNL     1      -5.350  46.938  35.263  1.00  0.00     0.030 C 
HETATM   18  C12 UNL     1      -5.084  47.481  36.645  1.00  0.00     0.272 C 
ENDBRANCH  12  13
ENDBRANCH  11  12
ENDBRANCH  10  11
ENDBRANCH   5  10
BRANCH   1  19
HETATM   19  O1  UNL     1     -10.426  45.966  41.014  1.00  0.00    -0.345 OA
ATOM     20  H1  UNL     1     -10.499  46.904  41.142  1.00  0.00     0.219 HD
ENDBRANCH   1  19
BRANCH   4  21
HETATM   21  O2  UNL     1      -6.080  44.470  39.594  1.00  0.00    -0.345 OA
ATOM     22  H2  UNL     1      -5.220  44.278  39.948  1.00  0.00     0.219 HD
ENDBRANCH   4  21
BRANCH   6  23
HETATM   23  C14 UNL     1      -5.458  42.758  41.935  1.00  0.00     0.047 C 
BRANCH  23  24
HETATM   24  C15 UNL     1      -5.651  41.289  41.765  1.00  0.00     0.146 C 
HETATM   25  C16 UNL     1      -6.026  40.949  40.336  1.00  0.00     0.199 C 
HETATM   26  O3  UNL     1      -4.956  41.062  39.472  1.00  0.00    -0.387 OA
HETATM   27  C17 UNL     1      -3.866  40.285  39.860  1.00  0.00     0.193 C 
HETATM   28  C18 UNL     1      -4.052  39.710  41.244  1.00  0.00     0.194 C 
HETATM   29  O4  UNL     1      -4.495  40.637  42.166  1.00  0.00    -0.382 OA
ENDBRANCH  23  24
ENDBRANCH   6  23
TORSDOF 8
ENDMDL
MODEL 5
REMARK VINA RESULT: -6.998518522      2.400      7.032
REMARK  8 active torsions:
REMARK  status: ('A' for Active; 'I' for Inactive)
REMARK    1  A    between atoms: O1_1  and  C1_3 
REMARK    2  A    between atoms: C4_6  and  O2_7 
REMARK    3  A    between atoms: N1_9  and  C5_10 
REMARK    4  A    between atoms: C5_10  and  C6_11 
REMARK    5  A    between atoms: C6_11  and  C7_12 
REMARK    6  A    between atoms: C7_12  and  N2_13 
REMARK    7  A    between atoms: C13_19  and  C14_20 
REMARK    8  A    between atoms: C14_20  and  C15_21 
ROOT
HETATM    1  C1  UNL     1      -9.583  47.775  39.420  1.00  0.00     0.151 A 
HETATM    2  C2  UNL     1      -8.614  48.745  39.170  1.00  0.00     0.007 A 
HETATM    3  C3  UNL     1      -7.542  48.072  38.666  1.00  0.00     0.011 A 
HETATM    4  C4  UNL     1      -7.881  46.761  38.628  1.00  0.00     0.151 A 
HETATM    5  N1  UNL     1      -9.159  46.565  39.098  1.00  0.00    -0.308 N 
HETATM    6  C13 UNL     1      -6.338  48.888  38.304  1.00  0.00     0.048 C 
HETATM    7  C19 UNL     1      -6.110  49.828  39.430  1.00  0.00    -0.021 C 
HETATM    8  C20 UNL     1      -7.166  50.475  39.932  1.00  0.00    -0.025 C 
HETATM    9  C21 UNL     1      -8.525  50.216  39.327  1.00  0.00     0.070 C 
ENDROOT
BRANCH   5  10
HETATM   10  C5  UNL     1      -9.832  45.304  39.215  1.00  0.00     0.135 C 
BRANCH  10  11
HETATM   11  C6  UNL     1      -9.984  44.765  40.588  1.00  0.00     0.050 C 
BRANCH  11  12
HETATM   12  C7  UNL     1      -8.965  43.810  41.075  1.00  0.00     0.274 C 
BRANCH  12  13
HETATM   13  N2  UNL     1      -7.805  44.385  41.681  1.00  0.00     0.088 N 
HETATM   14  C8  UNL     1      -6.591  43.886  41.068  1.00  0.00     0.272 C 
HETATM   15  C9  UNL     1      -6.549  42.402  41.232  1.00  0.00     0.030 C 
HETATM   16  C10 UNL     1      -6.742  41.908  42.623  1.00  0.00     0.003 C 
HETATM   17  C11 UNL     1      -7.676  42.705  43.463  1.00  0.00     0.030 C 
HETATM   18  C12 UNL     1      -7.725  44.166  43.090  1.00  0.00     0.272 C 
ENDBRANCH  12  13
ENDBRANCH  11  12
ENDBRANCH  10  11
ENDBRANCH   5  10
BRANCH   1  19
HETATM   19  O1  UNL     1     -10.825  48.162  39.950  1.00  0.00    -0.345 OA
ATOM     20  H1  UNL     1     -10.860  48.578  40.802  1.00  0.00     0.219 HD
ENDBRANCH   1  19
BRANCH   4  21
HETATM   21  O2  UNL     1      -7.064  45.742  38.177  1.00  0.00    -0.345 OA
ATOM     22  H2  UNL     1      -6.716  45.042  38.717  1.00  0.00     0.219 HD
ENDBRANCH   4  21
BRANCH   6  23
HETATM   23  C14 UNL     1      -5.158  48.010  38.031  1.00  0.00     0.047 C 
BRANCH  23  24
HETATM   24  C15 UNL     1      -4.691  48.164  36.623  1.00  0.00     0.146 C 
HETATM   25  C16 UNL     1      -5.109  46.978  35.776  1.00  0.00     0.199 C 
HETATM   26  O3  UNL     1      -6.459  46.988  35.490  1.00  0.00    -0.387 OA
HETATM   27  C17 UNL     1      -6.868  48.166  34.869  1.00  0.00     0.193 C 
HETATM   28  C18 UNL     1      -5.783  49.216  34.885  1.00  0.00     0.194 C 
HETATM   29  O4  UNL     1      -5.180  49.359  36.118  1.00  0.00    -0.382 OA
ENDBRANCH  23  24
ENDBRANCH   6  23
TORSDOF 8
ENDMDL
