MODEL 1
REMARK VINA RESULT: -3.310275611      0.000      0.000
REMARK  0 active torsions:
REMARK  status: ('A' for Active; 'I' for Inactive)
ROOT
HETATM    1  S1  UNL     1      10.587  -4.407  -1.277  1.00  0.00    -0.091 SA
HETATM    2  C1  UNL     1       8.767  -4.344  -1.328  1.00  0.00     0.076 C 
HETATM    3  C2  UNL     1       8.327  -5.598  -2.085  1.00  0.00     0.019 C 
HETATM    4  C3  UNL     1       8.754  -6.759  -1.177  1.00  0.00     0.020 C 
HETATM    5  C4  UNL     1       7.821  -6.657   0.022  1.00  0.00     0.113 C 
HETATM    6  N1  UNL     1       8.178  -5.501   0.764  1.00  0.00    -0.420 N 
ATOM      7  H1  UNL     1       8.383  -5.549   1.762  1.00  0.00     0.153 HD
HETATM    8  C5  UNL     1       8.234  -4.281   0.053  1.00  0.00     0.129 C 
ENDROOT
TORSDOF 0
ENDMDL
MODEL 2
REMARK VINA RESULT: -3.084122966      2.317      3.018
REMARK  0 active torsions:
REMARK  status: ('A' for Active; 'I' for Inactive)
ROOT
HETATM    1  S1  UNL     1       7.990  -4.130   0.118  1.00  0.00    -0.091 SA
HETATM    2  C1  UNL     1       9.030  -5.371  -0.717  1.00  0.00     0.076 C 
HETATM    3  C2  UNL     1       9.050  -4.974  -2.194  1.00  0.00     0.019 C 
HETATM    4  C3  UNL     1       9.779  -3.624  -2.215  1.00  0.00     0.020 C 
HETATM    5  C4  UNL     1      11.220  -3.975  -1.867  1.00  0.00     0.113 C 
HETATM    6  N1  UNL     1      11.266  -4.361  -0.503  1.00  0.00    -0.420 N 
ATOM      7  H1  UNL     1      11.908  -3.920   0.156  1.00  0.00     0.153 HD
HETATM    8  C5  UNL     1      10.378  -5.385  -0.101  1.00  0.00     0.129 C 
ENDROOT
TORSDOF 0
ENDMDL
MODEL 3
REMARK VINA RESULT: -3.081257733      2.314      2.889
REMARK  0 active torsions:
REMARK  status: ('A' for Active; 'I' for Inactive)
ROOT
HETATM    1  S1  UNL     1       8.234  -6.088  -2.033  1.00  0.00    -0.091 SA
HETATM    2  C1  UNL     1       8.596  -4.404  -1.438  1.00  0.00     0.076 C 
HETATM    3  C2  UNL     1       8.729  -4.518   0.082  1.00  0.00     0.019 C 
HETATM    4  C3  UNL     1       9.973  -5.392   0.290  1.00  0.00     0.020 C 
HETATM    5  C4  UNL     1      11.129  -4.506  -0.157  1.00  0.00     0.113 C 
HETATM    6  N1  UNL     1      11.055  -4.357  -1.566  1.00  0.00    -0.420 N 
ATOM      7  H1  UNL     1      11.849  -4.569  -2.168  1.00  0.00     0.153 HD
HETATM    8  C5  UNL     1       9.825  -3.899  -2.093  1.00  0.00     0.129 C 
ENDROOT
TORSDOF 0
ENDMDL
MODEL 4
REMARK VINA RESULT: -3.032900869      2.310      2.914
REMARK  0 active torsions:
REMARK  status: ('A' for Active; 'I' for Inactive)
ROOT
HETATM    1  S1  UNL     1       8.292  -6.575   0.047  1.00  0.00    -0.091 SA
HETATM    2  C1  UNL     1       8.657  -4.798   0.216  1.00  0.00     0.076 C 
HETATM    3  C2  UNL     1      10.179  -4.693   0.332  1.00  0.00     0.019 C 
HETATM    4  C3  UNL     1      10.698  -5.176  -1.029  1.00  0.00     0.020 C 
HETATM    5  C4  UNL     1      10.285  -4.074  -1.996  1.00  0.00     0.113 C 
HETATM    6  N1  UNL     1       8.874  -4.115  -2.140  1.00  0.00    -0.420 N 
ATOM      7  H1  UNL     1       8.433  -4.178  -3.057  1.00  0.00     0.153 HD
HETATM    8  C5  UNL     1       8.112  -4.065  -0.951  1.00  0.00     0.129 C 
ENDROOT
TORSDOF 0
ENDMDL
MODEL 5
REMARK VINA RESULT: -3.022650551      1.825      2.849
REMARK  0 active torsions:
REMARK  status: ('A' for Active; 'I' for Inactive)
ROOT
HETATM    1  S1  UNL     1       9.893  -7.527  -0.393  1.00  0.00    -0.091 SA
HETATM    2  C1  UNL     1       8.209  -6.892  -0.673  1.00  0.00     0.076 C 
HETATM    3  C2  UNL     1       7.968  -5.850   0.421  1.00  0.00     0.019 C 
HETATM    4  C3  UNL     1       8.974  -4.734   0.111  1.00  0.00     0.020 C 
HETATM    5  C4  UNL     1       8.449  -4.106  -1.173  1.00  0.00     0.113 C 
HETATM    6  N1  UNL     1       8.639  -5.033  -2.230  1.00  0.00    -0.420 N 
ATOM      7  H1  UNL     1       9.132  -4.776  -3.085  1.00  0.00     0.153 HD
HETATM    8  C5  UNL     1       8.111  -6.331  -2.041  1.00  0.00     0.129 C 
ENDROOT
TORSDOF 0
ENDMDL
