MODEL 1
REMARK VINA RESULT: -4.720355081      0.000      0.000
REMARK  1 active torsions:
REMARK  status: ('A' for Active; 'I' for Inactive)
REMARK    1  A    between atoms: N2_8  and  O1_9 
ROOT
HETATM    1  N1  UNL     1      12.808  -2.514  -2.643  1.00  0.00    -0.195 NA
HETATM    2  C1  UNL     1      12.024  -3.298  -2.270  1.00  0.00     0.087 C 
HETATM    3  C2  UNL     1      11.022  -4.265  -1.801  1.00  0.00     0.219 C 
HETATM    4  C3  UNL     1      11.226  -4.459  -0.335  1.00  0.00     0.043 C 
HETATM    5  C4  UNL     1      10.059  -5.071   0.369  1.00  0.00     0.008 C 
HETATM    6  C5  UNL     1       8.729  -4.612  -0.094  1.00  0.00     0.047 C 
HETATM    7  C6  UNL     1       8.615  -4.311  -1.543  1.00  0.00     0.091 C 
HETATM    8  N2  UNL     1       9.751  -3.840  -2.199  1.00  0.00    -0.258 N 
ENDROOT
BRANCH   8   9
HETATM    9  O1  UNL     1       9.656  -2.755  -2.934  1.00  0.00    -0.287 OA
ATOM     10  H1  UNL     1       8.805  -2.340  -3.020  1.00  0.00     0.244 HD
ENDBRANCH   8   9
TORSDOF 1
ENDMDL
MODEL 2
REMARK VINA RESULT: -4.390883048      2.212      3.941
REMARK  1 active torsions:
REMARK  status: ('A' for Active; 'I' for Inactive)
REMARK    1  A    between atoms: N2_8  and  O1_9 
ROOT
HETATM    1  N1  UNL     1       8.488  -4.452  -0.076  1.00  0.00    -0.195 NA
HETATM    2  C1  UNL     1       9.531  -4.479  -0.604  1.00  0.00     0.087 C 
HETATM    3  C2  UNL     1      10.852  -4.500  -1.249  1.00  0.00     0.219 C 
HETATM    4  C3  UNL     1      10.832  -3.502  -2.359  1.00  0.00     0.043 C 
HETATM    5  C4  UNL     1      12.188  -3.098  -2.841  1.00  0.00     0.008 C 
HETATM    6  C5  UNL     1      13.215  -2.945  -1.785  1.00  0.00     0.047 C 
HETATM    7  C6  UNL     1      13.111  -3.882  -0.639  1.00  0.00     0.091 C 
HETATM    8  N2  UNL     1      11.841  -4.327  -0.276  1.00  0.00    -0.258 N 
ENDROOT
BRANCH   8   9
HETATM    9  O1  UNL     1      11.474  -4.243   0.982  1.00  0.00    -0.287 OA
ATOM     10  H1  UNL     1      11.931  -4.775   1.623  1.00  0.00     0.244 HD
ENDBRANCH   8   9
TORSDOF 1
ENDMDL
MODEL 3
REMARK VINA RESULT: -4.227045212      1.877      3.531
REMARK  1 active torsions:
REMARK  status: ('A' for Active; 'I' for Inactive)
REMARK    1  A    between atoms: N2_8  and  O1_9 
ROOT
HETATM    1  N1  UNL     1       7.518  -6.257   0.659  1.00  0.00    -0.195 NA
HETATM    2  C1  UNL     1       8.275  -5.442   0.295  1.00  0.00     0.087 C 
HETATM    3  C2  UNL     1       9.225  -4.428  -0.184  1.00  0.00     0.219 C 
HETATM    4  C3  UNL     1      10.595  -4.859   0.223  1.00  0.00     0.043 C 
HETATM    5  C4  UNL     1      11.696  -4.181  -0.526  1.00  0.00     0.008 C 
HETATM    6  C5  UNL     1      11.436  -3.956  -1.967  1.00  0.00     0.047 C 
HETATM    7  C6  UNL     1      10.029  -3.656  -2.333  1.00  0.00     0.091 C 
HETATM    8  N2  UNL     1       9.021  -4.218  -1.552  1.00  0.00    -0.258 N 
ENDROOT
BRANCH   8   9
HETATM    9  O1  UNL     1       8.042  -4.861  -2.144  1.00  0.00    -0.287 OA
ATOM     10  H1  UNL     1       8.179  -5.177  -3.030  1.00  0.00     0.244 HD
ENDBRANCH   8   9
TORSDOF 1
ENDMDL
MODEL 4
REMARK VINA RESULT: -3.927617313      2.413      4.026
REMARK  1 active torsions:
REMARK  status: ('A' for Active; 'I' for Inactive)
REMARK    1  A    between atoms: N2_8  and  O1_9 
ROOT
HETATM    1  N1  UNL     1       7.657  -5.791   0.727  1.00  0.00    -0.195 NA
HETATM    2  C1  UNL     1       8.531  -5.596  -0.025  1.00  0.00     0.087 C 
HETATM    3  C2  UNL     1       9.643  -5.337  -0.952  1.00  0.00     0.219 C 
HETATM    4  C3  UNL     1       9.197  -4.288  -1.916  1.00  0.00     0.043 C 
HETATM    5  C4  UNL     1      10.313  -3.617  -2.648  1.00  0.00     0.008 C 
HETATM    6  C5  UNL     1      11.528  -3.352  -1.843  1.00  0.00     0.047 C 
HETATM    7  C6  UNL     1      11.855  -4.366  -0.809  1.00  0.00     0.091 C 
HETATM    8  N2  UNL     1      10.798  -5.054  -0.217  1.00  0.00    -0.258 N 
ENDROOT
BRANCH   8   9
HETATM    9  O1  UNL     1      10.738  -5.120   1.093  1.00  0.00    -0.287 OA
ATOM     10  H1  UNL     1      11.546  -5.040   1.588  1.00  0.00     0.244 HD
ENDBRANCH   8   9
TORSDOF 1
ENDMDL
MODEL 5
REMARK VINA RESULT: -3.904400915      2.692      3.394
REMARK  1 active torsions:
REMARK  status: ('A' for Active; 'I' for Inactive)
REMARK    1  A    between atoms: N2_8  and  O1_9 
ROOT
HETATM    1  N1  UNL     1      15.652  -2.909  -2.639  1.00  0.00    -0.195 NA
HETATM    2  C1  UNL     1      14.565  -2.889  -2.209  1.00  0.00     0.087 C 
HETATM    3  C2  UNL     1      13.201  -2.887  -1.661  1.00  0.00     0.219 C 
HETATM    4  C3  UNL     1      12.249  -2.973  -2.808  1.00  0.00     0.043 C 
HETATM    5  C4  UNL     1      10.869  -3.397  -2.426  1.00  0.00     0.008 C 
HETATM    6  C5  UNL     1      10.794  -4.443  -1.381  1.00  0.00     0.047 C 
HETATM    7  C6  UNL     1      11.843  -4.387  -0.332  1.00  0.00     0.091 C 
HETATM    8  N2  UNL     1      13.094  -3.888  -0.690  1.00  0.00    -0.258 N 
ENDROOT
BRANCH   8   9
HETATM    9  O1  UNL     1      14.166  -4.584  -0.389  1.00  0.00    -0.287 OA
ATOM     10  H1  UNL     1      14.776  -4.801  -1.085  1.00  0.00     0.244 HD
ENDBRANCH   8   9
TORSDOF 1
ENDMDL
