MODEL 1
REMARK VINA RESULT: -4.334812033      0.000      0.000
REMARK  0 active torsions:
REMARK  status: ('A' for Active; 'I' for Inactive)
ROOT
HETATM    1  C1  UNL     1      10.818  -4.950   0.406  1.00  0.00     0.013 C 
HETATM    2  C2  UNL     1      12.107  -4.485  -0.350  1.00  0.00     0.081 C 
HETATM    3  C3  UNL     1      11.624  -3.758  -1.451  1.00  0.00    -0.162 C 
HETATM    4  C4  UNL     1      11.473  -3.033  -2.642  1.00  0.00     0.218 C 
HETATM    5  N1  UNL     1       9.978  -2.935  -2.841  1.00  0.00    -0.331 N 
ATOM      6  H1  UNL     1       9.546  -2.110  -3.256  1.00  0.00     0.180 HD
HETATM    7  N2  UNL     1       9.260  -3.972  -2.449  1.00  0.00    -0.340 N 
ATOM      8  H2  UNL     1       8.998  -4.643  -3.171  1.00  0.00     0.179 HD
HETATM    9  C5  UNL     1       8.805  -4.259  -1.110  1.00  0.00     0.139 C 
HETATM   10  C6  UNL     1       9.661  -5.287  -0.418  1.00  0.00     0.022 C 
ENDROOT
TORSDOF 0
ENDMDL
MODEL 2
REMARK VINA RESULT: -3.931273779      2.013      2.802
REMARK  0 active torsions:
REMARK  status: ('A' for Active; 'I' for Inactive)
ROOT
HETATM    1  C1  UNL     1       9.782  -3.974  -2.535  1.00  0.00     0.013 C 
HETATM    2  C2  UNL     1      11.264  -3.501  -2.363  1.00  0.00     0.081 C 
HETATM    3  C3  UNL     1      11.665  -4.044  -1.132  1.00  0.00    -0.162 C 
HETATM    4  C4  UNL     1      12.345  -4.395   0.045  1.00  0.00     0.218 C 
HETATM    5  N1  UNL     1      11.333  -5.177   0.850  1.00  0.00    -0.331 N 
ATOM      6  H1  UNL     1      11.610  -5.960   1.442  1.00  0.00     0.180 HD
HETATM    7  N2  UNL     1      10.073  -4.795   0.748  1.00  0.00    -0.340 N 
ATOM      8  H2  UNL     1       9.723  -4.183   1.485  1.00  0.00     0.179 HD
HETATM    9  C5  UNL     1       9.138  -5.150  -0.292  1.00  0.00     0.139 C 
HETATM   10  C6  UNL     1       8.978  -4.061  -1.320  1.00  0.00     0.022 C 
ENDROOT
TORSDOF 0
ENDMDL
MODEL 3
REMARK VINA RESULT: -3.830864541      2.173      3.024
REMARK  0 active torsions:
REMARK  status: ('A' for Active; 'I' for Inactive)
ROOT
HETATM    1  C1  UNL     1       9.816  -4.083  -2.287  1.00  0.00     0.013 C 
HETATM    2  C2  UNL     1      11.230  -3.918  -1.638  1.00  0.00     0.081 C 
HETATM    3  C3  UNL     1      11.192  -4.739  -0.499  1.00  0.00    -0.162 C 
HETATM    4  C4  UNL     1      11.456  -5.413   0.703  1.00  0.00     0.218 C 
HETATM    5  N1  UNL     1      10.170  -6.138   1.024  1.00  0.00    -0.331 N 
ATOM      6  H1  UNL     1      10.169  -7.053   1.476  1.00  0.00     0.180 HD
HETATM    7  N2  UNL     1       9.047  -5.529   0.689  1.00  0.00    -0.340 N 
ATOM      8  H2  UNL     1       8.574  -5.010   1.429  1.00  0.00     0.179 HD
HETATM    9  C5  UNL     1       8.417  -5.517  -0.609  1.00  0.00     0.139 C 
HETATM   10  C6  UNL     1       8.691  -4.248  -1.372  1.00  0.00     0.022 C 
ENDROOT
TORSDOF 0
ENDMDL
MODEL 4
REMARK VINA RESULT: -3.828568226      0.731      2.456
REMARK  0 active torsions:
REMARK  status: ('A' for Active; 'I' for Inactive)
ROOT
HETATM    1  C1  UNL     1      12.636  -4.334  -0.438  1.00  0.00     0.013 C 
HETATM    2  C2  UNL     1      11.291  -4.683   0.280  1.00  0.00     0.081 C 
HETATM    3  C3  UNL     1      10.301  -4.410  -0.678  1.00  0.00    -0.162 C 
HETATM    4  C4  UNL     1       9.100  -4.197  -1.372  1.00  0.00     0.218 C 
HETATM    5  N1  UNL     1       9.527  -3.634  -2.707  1.00  0.00    -0.331 N 
ATOM      6  H1  UNL     1       9.020  -3.849  -3.566  1.00  0.00     0.180 HD
HETATM    7  N2  UNL     1      10.591  -2.850  -2.707  1.00  0.00    -0.340 N 
ATOM      8  H2  UNL     1      10.415  -1.846  -2.691  1.00  0.00     0.179 HD
HETATM    9  C5  UNL     1      11.974  -3.261  -2.726  1.00  0.00     0.139 C 
HETATM   10  C6  UNL     1      12.611  -3.205  -1.363  1.00  0.00     0.022 C 
ENDROOT
TORSDOF 0
ENDMDL
MODEL 5
REMARK VINA RESULT: -3.828140883      2.860      3.603
REMARK  0 active torsions:
REMARK  status: ('A' for Active; 'I' for Inactive)
ROOT
HETATM    1  C1  UNL     1       7.520  -7.705  -0.507  1.00  0.00     0.013 C 
HETATM    2  C2  UNL     1       7.850  -6.850   0.760  1.00  0.00     0.081 C 
HETATM    3  C3  UNL     1       8.049  -5.551   0.265  1.00  0.00    -0.162 C 
HETATM    4  C4  UNL     1       8.346  -4.190   0.092  1.00  0.00     0.218 C 
HETATM    5  N1  UNL     1       8.259  -3.968  -1.400  1.00  0.00    -0.331 N 
ATOM      6  H1  UNL     1       7.917  -3.091  -1.791  1.00  0.00     0.180 HD
HETATM    7  N2  UNL     1       8.648  -4.968  -2.171  1.00  0.00    -0.340 N 
ATOM      8  H2  UNL     1       9.600  -4.918  -2.534  1.00  0.00     0.179 HD
HETATM    9  C5  UNL     1       7.873  -6.122  -2.556  1.00  0.00     0.139 C 
HETATM   10  C6  UNL     1       8.211  -7.342  -1.741  1.00  0.00     0.022 C 
ENDROOT
TORSDOF 0
ENDMDL
