MODEL 1
REMARK VINA RESULT: -3.570856648      0.000      0.000
REMARK  1 active torsions:
REMARK  status: ('A' for Active; 'I' for Inactive)
REMARK       I    between atoms: N1_2  and  C2_4 
REMARK       I    between atoms: C2_4  and  N3_10 
REMARK    1  A    between atoms: N2_5  and  C3_7 
ROOT
HETATM    1  C1  UNL     1       7.943  -7.514  -1.404  1.00  0.00     0.165 C 
HETATM    2  N1  UNL     1       9.017  -7.370  -0.434  1.00  0.00    -0.231 N 
ATOM      3  H1  UNL     1       9.928  -7.780  -0.640  1.00  0.00     0.177 HD
HETATM    4  C2  UNL     1       8.837  -6.681   0.782  1.00  0.00     0.673 C 
HETATM    5  N2  UNL     1       9.046  -5.410   0.830  1.00  0.00    -0.186 N 
ATOM      6  H2  UNL     1       8.909  -4.929   1.719  1.00  0.00     0.185 HD
HETATM    7  N3  UNL     1       8.427  -7.307   1.997  1.00  0.00    -0.231 N 
ATOM      8  H3  UNL     1       7.470  -7.165   2.321  1.00  0.00     0.177 HD
HETATM    9  C5  UNL     1       9.313  -8.133   2.786  1.00  0.00     0.165 C 
ENDROOT
BRANCH   5  10
HETATM   10  C3  UNL     1       9.453  -4.653  -0.281  1.00  0.00     0.090 C 
HETATM   11  C4  UNL     1       8.448  -3.952  -1.123  1.00  0.00     0.082 C 
HETATM   12  S1  UNL     1      11.020  -4.501  -0.704  1.00  0.00    -0.065 SA
ENDBRANCH   5  10
TORSDOF 1
ENDMDL
MODEL 2
REMARK VINA RESULT: -3.552114417      1.554      1.596
REMARK  1 active torsions:
REMARK  status: ('A' for Active; 'I' for Inactive)
REMARK       I    between atoms: N1_2  and  C2_4 
REMARK       I    between atoms: C2_4  and  N3_10 
REMARK    1  A    between atoms: N2_5  and  C3_7 
ROOT
HETATM    1  C1  UNL     1       7.314  -7.304   0.477  1.00  0.00     0.165 C 
HETATM    2  N1  UNL     1       8.701  -7.140   0.072  1.00  0.00    -0.231 N 
ATOM      3  H1  UNL     1       9.020  -7.579  -0.792  1.00  0.00     0.177 HD
HETATM    4  C2  UNL     1       9.617  -6.391   0.836  1.00  0.00     0.673 C 
HETATM    5  N2  UNL     1       9.734  -5.124   0.628  1.00  0.00    -0.186 N 
ATOM      6  H2  UNL     1      10.402  -4.600   1.193  1.00  0.00     0.185 HD
HETATM    7  N3  UNL     1      10.448  -6.950   1.852  1.00  0.00    -0.231 N 
ATOM      8  H3  UNL     1      10.214  -6.772   2.829  1.00  0.00     0.177 HD
HETATM    9  C5  UNL     1      11.609  -7.759   1.553  1.00  0.00     0.165 C 
ENDROOT
BRANCH   5  10
HETATM   10  C3  UNL     1       8.986  -4.429  -0.337  1.00  0.00     0.090 C 
HETATM   11  C4  UNL     1       7.713  -3.759   0.038  1.00  0.00     0.082 C 
HETATM   12  S1  UNL     1       9.462  -4.318  -1.892  1.00  0.00    -0.065 SA
ENDBRANCH   5  10
TORSDOF 1
ENDMDL
MODEL 3
REMARK VINA RESULT: -3.454589549      2.218      2.958
REMARK  1 active torsions:
REMARK  status: ('A' for Active; 'I' for Inactive)
REMARK       I    between atoms: N1_2  and  C2_4 
REMARK       I    between atoms: C2_4  and  N3_10 
REMARK    1  A    between atoms: N2_5  and  C3_7 
ROOT
HETATM    1  C1  UNL     1      12.036  -4.000  -0.862  1.00  0.00     0.165 C 
HETATM    2  N1  UNL     1      11.315  -4.363   0.348  1.00  0.00    -0.231 N 
ATOM      3  H1  UNL     1      11.198  -3.665   1.082  1.00  0.00     0.177 HD
HETATM    4  C2  UNL     1      10.774  -5.650   0.535  1.00  0.00     0.673 C 
HETATM    5  N2  UNL     1       9.580  -5.904   0.122  1.00  0.00    -0.186 N 
ATOM      6  H2  UNL     1       9.206  -6.842   0.267  1.00  0.00     0.185 HD
HETATM    7  N3  UNL     1      11.473  -6.722   1.166  1.00  0.00    -0.231 N 
ATOM      8  H3  UNL     1      11.838  -7.477   0.585  1.00  0.00     0.177 HD
HETATM    9  C5  UNL     1      11.684  -6.781   2.595  1.00  0.00     0.165 C 
ENDROOT
BRANCH   5  10
HETATM   10  C3  UNL     1       8.766  -4.954  -0.517  1.00  0.00     0.090 C 
HETATM   11  C4  UNL     1       7.985  -3.975   0.283  1.00  0.00     0.082 C 
HETATM   12  S1  UNL     1       8.634  -4.872  -2.140  1.00  0.00    -0.065 SA
ENDBRANCH   5  10
TORSDOF 1
ENDMDL
MODEL 4
REMARK VINA RESULT: -3.427909607      4.540      5.888
REMARK  1 active torsions:
REMARK  status: ('A' for Active; 'I' for Inactive)
REMARK       I    between atoms: N1_2  and  C2_4 
REMARK       I    between atoms: C2_4  and  N3_10 
REMARK    1  A    between atoms: N2_5  and  C3_7 
ROOT
HETATM    1  C1  UNL     1       7.093  -7.895  -2.931  1.00  0.00     0.165 C 
HETATM    2  N1  UNL     1       6.340  -9.104  -2.639  1.00  0.00    -0.231 N 
ATOM      3  H1  UNL     1       6.741 -10.009  -2.887  1.00  0.00     0.177 HD
HETATM    4  C2  UNL     1       5.074  -9.063  -2.023  1.00  0.00     0.673 C 
HETATM    5  N2  UNL     1       4.991  -9.076  -0.736  1.00  0.00    -0.186 N 
ATOM      6  H2  UNL     1       4.065  -9.045  -0.310  1.00  0.00     0.185 HD
HETATM    7  N3  UNL     1       3.842  -9.006  -2.741  1.00  0.00    -0.231 N 
ATOM      8  H3  UNL     1       3.332  -8.123  -2.768  1.00  0.00     0.177 HD
HETATM    9  C5  UNL     1       3.288 -10.149  -3.431  1.00  0.00     0.165 C 
ENDROOT
BRANCH   5  10
HETATM   10  C3  UNL     1       6.112  -9.131   0.108  1.00  0.00     0.090 C 
HETATM   11  C4  UNL     1       6.652  -7.889   0.722  1.00  0.00     0.082 C 
HETATM   12  S1  UNL     1       6.871 -10.531   0.456  1.00  0.00    -0.065 SA
ENDBRANCH   5  10
TORSDOF 1
ENDMDL
MODEL 5
REMARK VINA RESULT: -3.387883046      1.046      1.273
REMARK  1 active torsions:
REMARK  status: ('A' for Active; 'I' for Inactive)
REMARK       I    between atoms: N1_2  and  C2_4 
REMARK       I    between atoms: C2_4  and  N3_10 
REMARK    1  A    between atoms: N2_5  and  C3_7 
ROOT
HETATM    1  C1  UNL     1       7.932  -7.639  -1.230  1.00  0.00     0.165 C 
HETATM    2  N1  UNL     1       9.067  -7.513  -0.329  1.00  0.00    -0.231 N 
ATOM      3  H1  UNL     1       9.947  -7.967  -0.575  1.00  0.00     0.177 HD
HETATM    4  C2  UNL     1       8.987  -6.784   0.874  1.00  0.00     0.673 C 
HETATM    5  N2  UNL     1       9.249  -5.522   0.871  1.00  0.00    -0.186 N 
ATOM      6  H2  UNL     1       9.184  -5.012   1.752  1.00  0.00     0.185 HD
HETATM    7  N3  UNL     1       8.625  -7.358   2.129  1.00  0.00    -0.231 N 
ATOM      8  H3  UNL     1       7.696  -7.168   2.504  1.00  0.00     0.177 HD
HETATM    9  C5  UNL     1       9.522  -8.198   2.889  1.00  0.00     0.165 C 
ENDROOT
BRANCH   5  10
HETATM   10  C3  UNL     1       9.619  -4.814  -0.284  1.00  0.00     0.090 C 
HETATM   11  C4  UNL     1      11.044  -4.751  -0.703  1.00  0.00     0.082 C 
HETATM   12  S1  UNL     1       8.530  -4.034  -1.214  1.00  0.00    -0.065 SA
ENDBRANCH   5  10
TORSDOF 1
ENDMDL
