MODEL 1
REMARK VINA RESULT: -4.339769744      0.000      0.000
REMARK  4 active torsions:
REMARK  status: ('A' for Active; 'I' for Inactive)
REMARK    1  A    between atoms: C2_2  and  C3_3 
REMARK    2  A    between atoms: C4_4  and  C5_5 
REMARK    3  A    between atoms: C6_6  and  C7_7 
REMARK    4  A    between atoms: C8_8  and  C9_9 
ROOT
HETATM    1  C7  UNL     1       7.824  -7.346  -0.988  1.00  0.00    -0.070 C 
HETATM    2  C8  UNL     1       6.956  -8.176  -0.782  1.00  0.00    -0.029 C 
ENDROOT
BRANCH   1   3
HETATM    3  C6  UNL     1       8.840  -6.372  -1.242  1.00  0.00     0.073 C 
HETATM    4  C5  UNL     1       8.627  -5.266  -1.933  1.00  0.00     0.073 C 
BRANCH   4   5
HETATM    5  C4  UNL     1       9.664  -4.302  -2.175  1.00  0.00    -0.078 C 
HETATM    6  C3  UNL     1      10.549  -3.505  -2.377  1.00  0.00    -0.102 C 
BRANCH   6   7
HETATM    7  C2  UNL     1      11.646  -2.554  -2.623  1.00  0.00     0.090 C 
HETATM    8  C1  UNL     1      12.914  -2.987  -1.943  1.00  0.00     0.018 C 
ENDBRANCH   6   7
ENDBRANCH   4   5
ENDBRANCH   1   3
BRANCH   2   9
HETATM    9  C9  UNL     1       5.946  -9.175  -0.540  1.00  0.00     0.165 C 
HETATM   10  N1  UNL     1       4.755  -8.945  -0.943  1.00  0.00    -0.381 N 
ATOM     11  H12 UNL     1       4.497  -8.084  -1.426  1.00  0.00     0.158 HD
ATOM     12  H11 UNL     1       4.041  -9.652  -0.771  1.00  0.00     0.158 HD
HETATM   13  N2  UNL     1       6.309 -10.383   0.139  1.00  0.00    -0.073 NA
ENDBRANCH   2   9
TORSDOF 4
ENDMDL
MODEL 2
REMARK VINA RESULT: -4.232625644      4.924      7.350
REMARK  4 active torsions:
REMARK  status: ('A' for Active; 'I' for Inactive)
REMARK    1  A    between atoms: C2_2  and  C3_3 
REMARK    2  A    between atoms: C4_4  and  C5_5 
REMARK    3  A    between atoms: C6_6  and  C7_7 
REMARK    4  A    between atoms: C8_8  and  C9_9 
ROOT
HETATM    1  C7  UNL     1      11.047  -4.724  -0.737  1.00  0.00    -0.070 C 
HETATM    2  C8  UNL     1      11.660  -3.915  -1.411  1.00  0.00    -0.029 C 
ENDROOT
BRANCH   1   3
HETATM    3  C6  UNL     1      10.334  -5.682   0.051  1.00  0.00     0.073 C 
HETATM    4  C5  UNL     1       9.016  -5.709   0.142  1.00  0.00     0.073 C 
BRANCH   4   5
HETATM    5  C4  UNL     1       8.323  -6.680   0.940  1.00  0.00    -0.078 C 
HETATM    6  C3  UNL     1       7.756  -7.509   1.611  1.00  0.00    -0.102 C 
BRANCH   6   7
HETATM    7  C2  UNL     1       7.087  -8.532   2.432  1.00  0.00     0.090 C 
HETATM    8  C1  UNL     1       8.052  -9.590   2.889  1.00  0.00     0.018 C 
ENDBRANCH   6   7
ENDBRANCH   4   5
ENDBRANCH   1   3
BRANCH   2   9
HETATM    9  C9  UNL     1      12.368  -2.960  -2.227  1.00  0.00     0.165 C 
HETATM   10  N1  UNL     1      11.687  -2.121  -2.908  1.00  0.00    -0.381 N 
ATOM     11  H12 UNL     1      10.667  -2.103  -2.895  1.00  0.00     0.158 HD
ATOM     12  H11 UNL     1      12.188  -1.445  -3.484  1.00  0.00     0.158 HD
HETATM   13  N2  UNL     1      13.800  -2.986  -2.245  1.00  0.00    -0.073 NA
ENDBRANCH   2   9
TORSDOF 4
ENDMDL
MODEL 3
REMARK VINA RESULT: -4.161413853      6.702      9.030
REMARK  4 active torsions:
REMARK  status: ('A' for Active; 'I' for Inactive)
REMARK    1  A    between atoms: C2_2  and  C3_3 
REMARK    2  A    between atoms: C4_4  and  C5_5 
REMARK    3  A    between atoms: C6_6  and  C7_7 
REMARK    4  A    between atoms: C8_8  and  C9_9 
ROOT
HETATM    1  C7  UNL     1      14.462  -2.553  -2.016  1.00  0.00    -0.070 C 
HETATM    2  C8  UNL     1      15.589  -2.164  -2.268  1.00  0.00    -0.029 C 
ENDROOT
BRANCH   1   3
HETATM    3  C6  UNL     1      13.142  -3.019  -1.722  1.00  0.00     0.073 C 
HETATM    4  C5  UNL     1      12.165  -3.036  -2.611  1.00  0.00     0.073 C 
BRANCH   4   5
HETATM    5  C4  UNL     1      10.848  -3.509  -2.292  1.00  0.00    -0.078 C 
HETATM    6  C3  UNL     1       9.746  -3.915  -2.008  1.00  0.00    -0.102 C 
BRANCH   6   7
HETATM    7  C2  UNL     1       8.413  -4.419  -1.638  1.00  0.00     0.090 C 
HETATM    8  C1  UNL     1       8.004  -3.948  -0.271  1.00  0.00     0.018 C 
ENDBRANCH   6   7
ENDBRANCH   4   5
ENDBRANCH   1   3
BRANCH   2   9
HETATM    9  C9  UNL     1      16.915  -1.698  -2.590  1.00  0.00     0.165 C 
HETATM   10  N1  UNL     1      17.828  -1.810  -1.703  1.00  0.00    -0.381 N 
ATOM     11  H12 UNL     1      17.653  -2.214  -0.783  1.00  0.00     0.158 HD
ATOM     12  H11 UNL     1      18.766  -1.480  -1.931  1.00  0.00     0.158 HD
HETATM   13  N2  UNL     1      17.160  -1.131  -3.882  1.00  0.00    -0.073 NA
ENDBRANCH   2   9
TORSDOF 4
ENDMDL
MODEL 4
REMARK VINA RESULT: -4.121551706      3.603      5.593
REMARK  4 active torsions:
REMARK  status: ('A' for Active; 'I' for Inactive)
REMARK    1  A    between atoms: C2_2  and  C3_3 
REMARK    2  A    between atoms: C4_4  and  C5_5 
REMARK    3  A    between atoms: C6_6  and  C7_7 
REMARK    4  A    between atoms: C8_8  and  C9_9 
ROOT
HETATM    1  C7  UNL     1      11.177  -3.452  -2.344  1.00  0.00    -0.070 C 
HETATM    2  C8  UNL     1      10.032  -3.799  -2.109  1.00  0.00    -0.029 C 
ENDROOT
BRANCH   1   3
HETATM    3  C6  UNL     1      12.518  -3.044  -2.630  1.00  0.00     0.073 C 
HETATM    4  C5  UNL     1      13.433  -2.856  -1.696  1.00  0.00     0.073 C 
BRANCH   4   5
HETATM    5  C4  UNL     1      14.773  -2.446  -2.008  1.00  0.00    -0.078 C 
HETATM    6  C3  UNL     1      15.897  -2.104  -2.289  1.00  0.00    -0.102 C 
BRANCH   6   7
HETATM    7  C2  UNL     1      17.260  -1.688  -2.658  1.00  0.00     0.090 C 
HETATM    8  C1  UNL     1      17.418  -1.573  -4.148  1.00  0.00     0.018 C 
ENDBRANCH   6   7
ENDBRANCH   4   5
ENDBRANCH   1   3
BRANCH   2   9
HETATM    9  C9  UNL     1       8.686  -4.232  -1.832  1.00  0.00     0.165 C 
HETATM   10  N1  UNL     1       8.105  -4.989  -2.683  1.00  0.00    -0.381 N 
ATOM     11  H12 UNL     1       8.558  -5.293  -3.545  1.00  0.00     0.158 HD
ATOM     12  H11 UNL     1       7.153  -5.295  -2.486  1.00  0.00     0.158 HD
HETATM   13  N2  UNL     1       8.051  -3.805  -0.622  1.00  0.00    -0.073 NA
ENDBRANCH   2   9
TORSDOF 4
ENDMDL
MODEL 5
REMARK VINA RESULT: -4.112073470      4.287      7.173
REMARK  4 active torsions:
REMARK  status: ('A' for Active; 'I' for Inactive)
REMARK    1  A    between atoms: C2_2  and  C3_3 
REMARK    2  A    between atoms: C4_4  and  C5_5 
REMARK    3  A    between atoms: C6_6  and  C7_7 
REMARK    4  A    between atoms: C8_8  and  C9_9 
ROOT
HETATM    1  C7  UNL     1       9.217  -4.923  -2.166  1.00  0.00    -0.070 C 
HETATM    2  C8  UNL     1      10.188  -4.188  -2.111  1.00  0.00    -0.029 C 
ENDROOT
BRANCH   1   3
HETATM    3  C6  UNL     1       8.084  -5.794  -2.227  1.00  0.00     0.073 C 
HETATM    4  C5  UNL     1       8.185  -7.111  -2.274  1.00  0.00     0.073 C 
BRANCH   4   5
HETATM    5  C4  UNL     1       7.033  -7.965  -2.336  1.00  0.00    -0.078 C 
HETATM    6  C3  UNL     1       6.052  -8.669  -2.386  1.00  0.00    -0.102 C 
BRANCH   6   7
HETATM    7  C2  UNL     1       4.841  -9.504  -2.448  1.00  0.00     0.090 C 
HETATM    8  C1  UNL     1       3.648  -8.714  -2.905  1.00  0.00     0.018 C 
ENDBRANCH   6   7
ENDBRANCH   4   5
ENDBRANCH   1   3
BRANCH   2   9
HETATM    9  C9  UNL     1      11.340  -3.323  -2.069  1.00  0.00     0.165 C 
HETATM   10  N1  UNL     1      11.367  -2.311  -2.849  1.00  0.00    -0.381 N 
ATOM     11  H12 UNL     1      10.608  -2.095  -3.495  1.00  0.00     0.158 HD
ATOM     12  H11 UNL     1      12.183  -1.699  -2.819  1.00  0.00     0.158 HD
HETATM   13  N2  UNL     1      12.406  -3.625  -1.162  1.00  0.00    -0.073 NA
ENDBRANCH   2   9
TORSDOF 4
ENDMDL
