MODEL 1
REMARK VINA RESULT: -6.329449982      0.000      0.000
REMARK  0 active torsions:
REMARK  status: ('A' for Active; 'I' for Inactive)
ROOT
HETATM    1  F1  UNL     1       3.244 -25.809 -31.631  1.00  0.00    -0.243 F 
HETATM    2  C1  UNL     1       3.491 -26.859 -32.467  1.00  0.00     0.222 C 
HETATM    3  C2  UNL     1       4.241 -26.426 -33.731  1.00  0.00     0.044 C 
HETATM    4  C3  UNL     1       4.185 -27.618 -34.667  1.00  0.00     0.008 C 
HETATM    5  C4  UNL     1       5.071 -28.730 -34.115  1.00  0.00     0.044 C 
HETATM    6  C5  UNL     1       5.016 -28.789 -32.642  1.00  0.00     0.017 A 
HETATM    7  C6  UNL     1       4.289 -27.930 -31.857  1.00  0.00     0.076 A 
HETATM    8  N1  UNL     1       4.457 -28.257 -30.565  1.00  0.00    -0.261 N 
ATOM      9  H1  UNL     1       4.040 -27.795 -29.758  1.00  0.00     0.194 HD
HETATM   10  O1  UNL     1       5.257 -29.277 -30.552  1.00  0.00    -0.225 OA
HETATM   11  C7  UNL     1       5.625 -29.641 -31.754  1.00  0.00     0.173 A 
HETATM   12  S1  UNL     1       6.628 -30.887 -32.144  1.00  0.00    -0.050 SA
ENDROOT
TORSDOF 0
ENDMDL
MODEL 2
REMARK VINA RESULT: -6.121642712      1.209      1.258
REMARK  0 active torsions:
REMARK  status: ('A' for Active; 'I' for Inactive)
ROOT
HETATM    1  F1  UNL     1       3.566 -26.863 -31.399  1.00  0.00    -0.243 F 
HETATM    2  C1  UNL     1       3.838 -27.575 -32.532  1.00  0.00     0.222 C 
HETATM    3  C2  UNL     1       4.172 -26.663 -33.718  1.00  0.00     0.044 C 
HETATM    4  C3  UNL     1       4.166 -27.564 -34.938  1.00  0.00     0.008 C 
HETATM    5  C4  UNL     1       5.372 -28.495 -34.880  1.00  0.00     0.044 C 
HETATM    6  C5  UNL     1       5.665 -28.921 -33.499  1.00  0.00     0.017 A 
HETATM    7  C6  UNL     1       4.965 -28.505 -32.394  1.00  0.00     0.076 A 
HETATM    8  N1  UNL     1       5.486 -29.077 -31.295  1.00  0.00    -0.261 N 
ATOM      9  H1  UNL     1       5.172 -28.953 -30.333  1.00  0.00     0.194 HD
HETATM   10  O1  UNL     1       6.469 -29.816 -31.706  1.00  0.00    -0.225 OA
HETATM   11  C7  UNL     1       6.626 -29.766 -33.003  1.00  0.00     0.173 A 
HETATM   12  S1  UNL     1       7.761 -30.563 -33.892  1.00  0.00    -0.050 SA
ENDROOT
TORSDOF 0
ENDMDL
MODEL 3
REMARK VINA RESULT: -5.793065796      2.682      3.414
REMARK  0 active torsions:
REMARK  status: ('A' for Active; 'I' for Inactive)
ROOT
HETATM    1  F1  UNL     1       3.890 -28.567 -30.052  1.00  0.00    -0.243 F 
HETATM    2  C1  UNL     1       4.780 -28.430 -31.078  1.00  0.00     0.222 C 
HETATM    3  C2  UNL     1       5.300 -29.784 -31.573  1.00  0.00     0.044 C 
HETATM    4  C3  UNL     1       6.464 -29.463 -32.490  1.00  0.00     0.008 C 
HETATM    5  C4  UNL     1       5.934 -28.820 -33.767  1.00  0.00     0.044 C 
HETATM    6  C5  UNL     1       4.785 -27.936 -33.494  1.00  0.00     0.017 A 
HETATM    7  C6  UNL     1       4.233 -27.741 -32.253  1.00  0.00     0.076 A 
HETATM    8  N1  UNL     1       3.205 -26.882 -32.352  1.00  0.00    -0.261 N 
ATOM      9  H1  UNL     1       2.609 -26.550 -31.595  1.00  0.00     0.194 HD
HETATM   10  O1  UNL     1       3.126 -26.558 -33.605  1.00  0.00    -0.225 OA
HETATM   11  C7  UNL     1       4.035 -27.151 -34.335  1.00  0.00     0.173 A 
HETATM   12  S1  UNL     1       4.254 -26.995 -35.960  1.00  0.00    -0.050 SA
ENDROOT
TORSDOF 0
ENDMDL
MODEL 4
REMARK VINA RESULT: -5.741674241      1.237      1.461
REMARK  0 active torsions:
REMARK  status: ('A' for Active; 'I' for Inactive)
ROOT
HETATM    1  F1  UNL     1       4.000 -26.981 -32.036  1.00  0.00    -0.243 F 
HETATM    2  C1  UNL     1       4.308 -28.053 -32.823  1.00  0.00     0.222 C 
HETATM    3  C2  UNL     1       5.099 -27.643 -34.070  1.00  0.00     0.044 C 
HETATM    4  C3  UNL     1       5.114 -28.868 -34.964  1.00  0.00     0.008 C 
HETATM    5  C4  UNL     1       6.004 -29.936 -34.337  1.00  0.00     0.044 C 
HETATM    6  C5  UNL     1       5.889 -29.946 -32.867  1.00  0.00     0.017 A 
HETATM    7  C6  UNL     1       5.107 -29.080 -32.143  1.00  0.00     0.076 A 
HETATM    8  N1  UNL     1       5.228 -29.357 -30.835  1.00  0.00    -0.261 N 
ATOM      9  H1  UNL     1       4.766 -28.879 -30.062  1.00  0.00     0.194 HD
HETATM   10  O1  UNL     1       6.053 -30.355 -30.753  1.00  0.00    -0.225 OA
HETATM   11  C7  UNL     1       6.480 -30.749 -31.924  1.00  0.00     0.173 A 
HETATM   12  S1  UNL     1       7.531 -31.980 -32.228  1.00  0.00    -0.050 SA
ENDROOT
TORSDOF 0
ENDMDL
MODEL 5
REMARK VINA RESULT: -5.693181121      2.800      3.389
REMARK  0 active torsions:
REMARK  status: ('A' for Active; 'I' for Inactive)
ROOT
HETATM    1  F1  UNL     1       2.972 -26.137 -32.018  1.00  0.00    -0.243 F 
HETATM    2  C1  UNL     1       4.002 -26.964 -32.360  1.00  0.00     0.222 C 
HETATM    3  C2  UNL     1       3.913 -28.319 -31.650  1.00  0.00     0.044 C 
HETATM    4  C3  UNL     1       5.246 -28.999 -31.900  1.00  0.00     0.008 C 
HETATM    5  C4  UNL     1       5.338 -29.396 -33.370  1.00  0.00     0.044 C 
HETATM    6  C5  UNL     1       4.707 -28.390 -34.246  1.00  0.00     0.017 A 
HETATM    7  C6  UNL     1       4.081 -27.254 -33.797  1.00  0.00     0.076 A 
HETATM    8  N1  UNL     1       3.617 -26.557 -34.848  1.00  0.00    -0.261 N 
ATOM      9  H1  UNL     1       3.110 -25.673 -34.820  1.00  0.00     0.194 HD
HETATM   10  O1  UNL     1       3.943 -27.236 -35.903  1.00  0.00    -0.225 OA
HETATM   11  C7  UNL     1       4.591 -28.334 -35.612  1.00  0.00     0.173 A 
HETATM   12  S1  UNL     1       5.169 -29.451 -36.675  1.00  0.00    -0.050 SA
ENDROOT
TORSDOF 0
ENDMDL
