MODEL 1
REMARK VINA RESULT: -5.270931932      0.000      0.000
REMARK  0 active torsions:
REMARK  status: ('A' for Active; 'I' for Inactive)
ROOT
HETATM    1  C1  UNL     1      10.776 -32.836 -37.093  1.00  0.00     0.031 C 
HETATM    2  C2  UNL     1      10.051 -34.072 -36.658  1.00  0.00     0.049 C 
HETATM    3  C3  UNL     1      10.610 -34.530 -35.380  1.00  0.00     0.069 C 
HETATM    4  N1  UNL     1      11.051 -34.898 -34.360  1.00  0.00    -0.196 NA
HETATM    5  C4  UNL     1       8.573 -33.852 -36.439  1.00  0.00     0.057 C 
HETATM    6  C5  UNL     1       7.827 -33.582 -37.709  1.00  0.00     0.188 C 
HETATM    7  C6  UNL     1       6.629 -34.501 -37.893  1.00  0.00     0.033 C 
HETATM    8  C7  UNL     1       7.039 -35.944 -37.849  1.00  0.00     0.004 C 
HETATM    9  C8  UNL     1       8.196 -36.214 -38.746  1.00  0.00     0.033 C 
HETATM   10  C9  UNL     1       9.223 -35.125 -38.785  1.00  0.00     0.188 C 
HETATM   11  C10 UNL     1      10.219 -35.195 -37.659  1.00  0.00     0.057 C 
HETATM   12  N2  UNL     1       8.667 -33.803 -38.884  1.00  0.00    -0.067 N 
ATOM     13  H21 UNL     1       9.378 -33.082 -39.002  1.00  0.00     0.278 HD
ATOM     14  H22 UNL     1       8.169 -33.649 -39.760  1.00  0.00     0.278 HD
ENDROOT
TORSDOF 0
ENDMDL
MODEL 2
REMARK VINA RESULT: -5.227040490      6.260      7.355
REMARK  0 active torsions:
REMARK  status: ('A' for Active; 'I' for Inactive)
ROOT
HETATM    1  C1  UNL     1       4.503 -28.032 -33.185  1.00  0.00     0.031 C 
HETATM    2  C2  UNL     1       5.383 -29.071 -32.562  1.00  0.00     0.049 C 
HETATM    3  C3  UNL     1       5.167 -29.073 -31.109  1.00  0.00     0.069 C 
HETATM    4  N1  UNL     1       4.997 -29.080 -29.951  1.00  0.00    -0.196 NA
HETATM    5  C4  UNL     1       5.095 -30.470 -33.051  1.00  0.00     0.057 C 
HETATM    6  C5  UNL     1       5.473 -30.677 -34.485  1.00  0.00     0.188 C 
HETATM    7  C6  UNL     1       6.375 -31.885 -34.686  1.00  0.00     0.033 C 
HETATM    8  C7  UNL     1       7.618 -31.780 -33.849  1.00  0.00     0.004 C 
HETATM    9  C8  UNL     1       8.278 -30.456 -34.008  1.00  0.00     0.033 C 
HETATM   10  C9  UNL     1       7.334 -29.299 -34.129  1.00  0.00     0.188 C 
HETATM   11  C10 UNL     1       6.848 -28.777 -32.805  1.00  0.00     0.057 C 
HETATM   12  N2  UNL     1       6.226 -29.542 -35.013  1.00  0.00    -0.067 N 
ATOM     13  H21 UNL     1       5.646 -28.715 -35.156  1.00  0.00     0.278 HD
ATOM     14  H22 UNL     1       6.515 -29.675 -35.981  1.00  0.00     0.278 HD
ENDROOT
TORSDOF 0
ENDMDL
MODEL 3
REMARK VINA RESULT: -5.153616337      5.413      6.813
REMARK  0 active torsions:
REMARK  status: ('A' for Active; 'I' for Inactive)
ROOT
HETATM    1  C1  UNL     1       5.923 -29.249 -32.053  1.00  0.00     0.031 C 
HETATM    2  C2  UNL     1       5.835 -29.387 -33.541  1.00  0.00     0.049 C 
HETATM    3  C3  UNL     1       4.861 -28.415 -34.056  1.00  0.00     0.069 C 
HETATM    4  N1  UNL     1       4.088 -27.640 -34.471  1.00  0.00    -0.196 NA
HETATM    5  C4  UNL     1       7.142 -29.115 -34.246  1.00  0.00     0.057 C 
HETATM    6  C5  UNL     1       8.179 -30.162 -33.978  1.00  0.00     0.188 C 
HETATM    7  C6  UNL     1       8.780 -30.733 -35.254  1.00  0.00     0.033 C 
HETATM    8  C7  UNL     1       7.716 -31.298 -36.150  1.00  0.00     0.004 C 
HETATM    9  C8  UNL     1       6.801 -32.209 -35.410  1.00  0.00     0.033 C 
HETATM   10  C9  UNL     1       6.476 -31.770 -34.015  1.00  0.00     0.188 C 
HETATM   11  C10 UNL     1       5.358 -30.767 -33.944  1.00  0.00     0.057 C 
HETATM   12  N2  UNL     1       7.616 -31.309 -33.270  1.00  0.00    -0.067 N 
ATOM     13  H21 UNL     1       7.394 -31.102 -32.296  1.00  0.00     0.278 HD
ATOM     14  H22 UNL     1       8.301 -32.044 -33.101  1.00  0.00     0.278 HD
ENDROOT
TORSDOF 0
ENDMDL
MODEL 4
REMARK VINA RESULT: -5.043116093      1.636      3.662
REMARK  0 active torsions:
REMARK  status: ('A' for Active; 'I' for Inactive)
ROOT
HETATM    1  C1  UNL     1      11.129 -36.210 -37.377  1.00  0.00     0.031 C 
HETATM    2  C2  UNL     1       9.858 -35.441 -37.562  1.00  0.00     0.049 C 
HETATM    3  C3  UNL     1       9.400 -35.599 -38.948  1.00  0.00     0.069 C 
HETATM    4  N1  UNL     1       9.029 -35.725 -40.052  1.00  0.00    -0.196 NA
HETATM    5  C4  UNL     1       8.736 -35.917 -36.671  1.00  0.00     0.057 C 
HETATM    6  C5  UNL     1       8.975 -35.622 -35.222  1.00  0.00     0.188 C 
HETATM    7  C6  UNL     1       7.813 -34.883 -34.574  1.00  0.00     0.033 C 
HETATM    8  C7  UNL     1       7.508 -33.606 -35.303  1.00  0.00     0.004 C 
HETATM    9  C8  UNL     1       8.736 -32.795 -35.529  1.00  0.00     0.033 C 
HETATM   10  C9  UNL     1       9.958 -33.595 -35.861  1.00  0.00     0.188 C 
HETATM   11  C10 UNL     1      10.063 -33.962 -37.316  1.00  0.00     0.057 C 
HETATM   12  N2  UNL     1      10.136 -34.757 -35.034  1.00  0.00    -0.067 N 
ATOM     13  H21 UNL     1      11.019 -35.236 -35.210  1.00  0.00     0.278 HD
ATOM     14  H22 UNL     1      10.300 -34.524 -34.055  1.00  0.00     0.278 HD
ENDROOT
TORSDOF 0
ENDMDL
MODEL 5
REMARK VINA RESULT: -5.038895691      1.745      2.522
REMARK  0 active torsions:
REMARK  status: ('A' for Active; 'I' for Inactive)
ROOT
HETATM    1  C1  UNL     1       7.298 -32.956 -34.532  1.00  0.00     0.031 C 
HETATM    2  C2  UNL     1       8.302 -34.045 -34.755  1.00  0.00     0.049 C 
HETATM    3  C3  UNL     1       8.920 -34.397 -33.470  1.00  0.00     0.069 C 
HETATM    4  N1  UNL     1       9.414 -34.683 -32.448  1.00  0.00    -0.196 NA
HETATM    5  C4  UNL     1       7.698 -35.310 -35.315  1.00  0.00     0.057 C 
HETATM    6  C5  UNL     1       7.211 -35.153 -36.722  1.00  0.00     0.188 C 
HETATM    7  C6  UNL     1       7.771 -36.214 -37.658  1.00  0.00     0.033 C 
HETATM    8  C7  UNL     1       9.272 -36.215 -37.643  1.00  0.00     0.004 C 
HETATM    9  C8  UNL     1       9.825 -34.846 -37.826  1.00  0.00     0.033 C 
HETATM   10  C9  UNL     1       9.051 -33.764 -37.138  1.00  0.00     0.188 C 
HETATM   11  C10 UNL     1       9.409 -33.597 -35.686  1.00  0.00     0.057 C 
HETATM   12  N2  UNL     1       7.627 -33.875 -37.296  1.00  0.00    -0.067 N 
ATOM     13  H21 UNL     1       7.122 -33.082 -36.901  1.00  0.00     0.278 HD
ATOM     14  H22 UNL     1       7.326 -33.760 -38.263  1.00  0.00     0.278 HD
ENDROOT
TORSDOF 0
ENDMDL
