MODEL 1
REMARK VINA RESULT: -4.540323049      0.000      0.000
REMARK  2 active torsions:
REMARK  status: ('A' for Active; 'I' for Inactive)
REMARK    1  A    between atoms: O1_1  and  N1_3 
REMARK    2  A    between atoms: N1_3  and  N2_5 
ROOT
HETATM    1  N2  UNL     1       6.891 -31.956 -32.212  1.00  0.00    -0.221 N 
HETATM    2  C1  UNL     1       6.956 -32.702 -33.456  1.00  0.00     0.390 C 
HETATM    3  N3  UNL     1       7.986 -32.087 -34.255  1.00  0.00    -0.057 N 
ATOM      4  H31 UNL     1       8.356 -32.734 -34.951  1.00  0.00     0.279 HD
ATOM      5  H32 UNL     1       8.837 -31.935 -33.714  1.00  0.00     0.279 HD
HETATM    6  C2  UNL     1       7.513 -30.849 -34.872  1.00  0.00     0.235 C 
HETATM    7  C3  UNL     1       7.865 -29.640 -34.091  1.00  0.00     0.039 C 
HETATM    8  C4  UNL     1       6.803 -29.150 -33.157  1.00  0.00     0.101 C 
HETATM    9  S1  UNL     1       6.193 -30.372 -32.013  1.00  0.00    -0.033 SA
ENDROOT
BRANCH   1  10
HETATM   10  N1  UNL     1       7.433 -32.552 -31.064  1.00  0.00    -0.201 N 
ATOM     11  H1  UNL     1       6.836 -32.644 -30.243  1.00  0.00     0.216 HD
BRANCH  10  12
HETATM   12  O1  UNL     1       8.587 -32.969 -30.994  1.00  0.00    -0.274 OA
ATOM     13  H1  UNL     1       9.106 -32.953 -30.198  1.00  0.00     0.246 HD
ENDBRANCH  10  12
ENDBRANCH   1  10
TORSDOF 2
ENDMDL
MODEL 2
REMARK VINA RESULT: -4.485664980      3.477      4.034
REMARK  2 active torsions:
REMARK  status: ('A' for Active; 'I' for Inactive)
REMARK    1  A    between atoms: O1_1  and  N1_3 
REMARK    2  A    between atoms: N1_3  and  N2_5 
ROOT
HETATM    1  N2  UNL     1       8.217 -34.425 -33.742  1.00  0.00    -0.221 N 
HETATM    2  C1  UNL     1       8.298 -35.774 -34.273  1.00  0.00     0.390 C 
HETATM    3  N3  UNL     1       9.598 -35.903 -34.880  1.00  0.00    -0.057 N 
ATOM      4  H31 UNL     1       9.887 -36.880 -34.942  1.00  0.00     0.279 HD
ATOM      5  H32 UNL     1      10.334 -35.560 -34.264  1.00  0.00     0.279 HD
HETATM    6  C2  UNL     1       9.643 -35.248 -36.186  1.00  0.00     0.235 C 
HETATM    7  C3  UNL     1      10.179 -33.867 -36.125  1.00  0.00     0.039 C 
HETATM    8  C4  UNL     1       9.150 -32.786 -36.025  1.00  0.00     0.101 C 
HETATM    9  S1  UNL     1       7.995 -32.976 -34.682  1.00  0.00    -0.033 SA
ENDROOT
BRANCH   1  10
HETATM   10  N1  UNL     1       8.323 -34.263 -32.354  1.00  0.00    -0.201 N 
ATOM     11  H1  UNL     1       7.685 -33.614 -31.894  1.00  0.00     0.216 HD
BRANCH  10  12
HETATM   12  O1  UNL     1       9.145 -34.860 -31.659  1.00  0.00    -0.274 OA
ATOM     13  H1  UNL     1       9.724 -34.429 -31.041  1.00  0.00     0.246 HD
ENDBRANCH  10  12
ENDBRANCH   1  10
TORSDOF 2
ENDMDL
MODEL 3
REMARK VINA RESULT: -4.440044942      1.568      1.855
REMARK  2 active torsions:
REMARK  status: ('A' for Active; 'I' for Inactive)
REMARK    1  A    between atoms: O1_1  and  N1_3 
REMARK    2  A    between atoms: N1_3  and  N2_5 
ROOT
HETATM    1  N2  UNL     1       7.526 -33.118 -32.699  1.00  0.00    -0.221 N 
HETATM    2  C1  UNL     1       7.105 -34.155 -33.625  1.00  0.00     0.390 C 
HETATM    3  N3  UNL     1       7.929 -34.022 -34.799  1.00  0.00    -0.057 N 
ATOM      4  H31 UNL     1       7.973 -34.894 -35.326  1.00  0.00     0.279 HD
ATOM      5  H32 UNL     1       8.916 -33.935 -34.555  1.00  0.00     0.279 HD
HETATM    6  C2  UNL     1       7.484 -32.911 -35.639  1.00  0.00     0.235 C 
HETATM    7  C3  UNL     1       8.229 -31.656 -35.384  1.00  0.00     0.039 C 
HETATM    8  C4  UNL     1       7.579 -30.710 -34.423  1.00  0.00     0.101 C 
HETATM    9  S1  UNL     1       7.163 -31.420 -32.843  1.00  0.00    -0.033 SA
ENDROOT
BRANCH   1  10
HETATM   10  N1  UNL     1       8.291 -33.505 -31.589  1.00  0.00    -0.201 N 
ATOM     11  H1  UNL     1       8.171 -32.987 -30.719  1.00  0.00     0.216 HD
BRANCH  10  12
HETATM   12  O1  UNL     1       9.097 -34.434 -31.607  1.00  0.00    -0.274 OA
ATOM     13  H1  UNL     1      10.028 -34.320 -31.755  1.00  0.00     0.246 HD
ENDBRANCH  10  12
ENDBRANCH   1  10
TORSDOF 2
ENDMDL
MODEL 4
REMARK VINA RESULT: -4.439704054      2.589      3.062
REMARK  2 active torsions:
REMARK  status: ('A' for Active; 'I' for Inactive)
REMARK    1  A    between atoms: O1_1  and  N1_3 
REMARK    2  A    between atoms: N1_3  and  N2_5 
ROOT
HETATM    1  N2  UNL     1       7.869 -33.903 -33.329  1.00  0.00    -0.221 N 
HETATM    2  C1  UNL     1       7.948 -35.156 -34.059  1.00  0.00     0.390 C 
HETATM    3  N3  UNL     1       9.087 -35.054 -34.935  1.00  0.00    -0.057 N 
ATOM      4  H31 UNL     1       9.439 -35.975 -35.199  1.00  0.00     0.279 HD
ATOM      5  H32 UNL     1       9.909 -34.708 -34.440  1.00  0.00     0.279 HD
HETATM    6  C2  UNL     1       8.785 -34.239 -36.110  1.00  0.00     0.235 C 
HETATM    7  C3  UNL     1       9.199 -32.824 -35.957  1.00  0.00     0.039 C 
HETATM    8  C4  UNL     1       8.128 -31.891 -35.487  1.00  0.00     0.101 C 
HETATM    9  S1  UNL     1       7.320 -32.382 -33.977  1.00  0.00    -0.033 SA
ENDROOT
BRANCH   1  10
HETATM   10  N1  UNL     1       8.267 -33.905 -31.984  1.00  0.00    -0.201 N 
ATOM     11  H1  UNL     1       7.738 -33.334 -31.325  1.00  0.00     0.216 HD
BRANCH  10  12
HETATM   12  O1  UNL     1       9.218 -34.557 -31.556  1.00  0.00    -0.274 OA
ATOM     13  H1  UNL     1      10.126 -34.341 -31.730  1.00  0.00     0.246 HD
ENDBRANCH  10  12
ENDBRANCH   1  10
TORSDOF 2
ENDMDL
MODEL 5
REMARK VINA RESULT: -4.340849319      1.617      1.631
REMARK  2 active torsions:
REMARK  status: ('A' for Active; 'I' for Inactive)
REMARK    1  A    between atoms: O1_1  and  N1_3 
REMARK    2  A    between atoms: N1_3  and  N2_5 
ROOT
HETATM    1  N2  UNL     1       7.577 -33.531 -33.159  1.00  0.00    -0.221 N 
HETATM    2  C1  UNL     1       7.554 -33.567 -34.611  1.00  0.00     0.390 C 
HETATM    3  N3  UNL     1       8.288 -32.414 -35.066  1.00  0.00    -0.057 N 
ATOM      4  H31 UNL     1       8.639 -32.545 -36.015  1.00  0.00     0.279 HD
ATOM      5  H32 UNL     1       9.179 -32.323 -34.579  1.00  0.00     0.279 HD
HETATM    6  C2  UNL     1       7.488 -31.195 -34.954  1.00  0.00     0.235 C 
HETATM    7  C3  UNL     1       7.744 -30.446 -33.702  1.00  0.00     0.039 C 
HETATM    8  C4  UNL     1       6.796 -30.734 -32.580  1.00  0.00     0.101 C 
HETATM    9  S1  UNL     1       6.643 -32.457 -32.155  1.00  0.00    -0.033 SA
ENDROOT
BRANCH   1  10
HETATM   10  N1  UNL     1       8.420 -34.436 -32.498  1.00  0.00    -0.201 N 
ATOM     11  H1  UNL     1       8.524 -35.372 -32.889  1.00  0.00     0.216 HD
BRANCH  10  12
HETATM   12  O1  UNL     1       9.040 -34.163 -31.471  1.00  0.00    -0.274 OA
ATOM     13  H1  UNL     1       8.886 -34.585 -30.634  1.00  0.00     0.246 HD
ENDBRANCH  10  12
ENDBRANCH   1  10
TORSDOF 2
ENDMDL
