MODEL 1
REMARK VINA RESULT: -3.944376320      0.000      0.000
REMARK  1 active torsions:
REMARK  status: ('A' for Active; 'I' for Inactive)
REMARK    1  A    between atoms: C1_2  and  C2_4 
ROOT
HETATM    1  C2  UNL     1       4.191 -28.954 -32.041  1.00  0.00     0.209 C 
HETATM    2  S1  UNL     1       5.232 -28.710 -33.536  1.00  0.00    -0.142 SA
HETATM    3  C3  UNL     1       4.034 -27.710 -34.504  1.00  0.00     0.086 C 
HETATM    4  C4  UNL     1       3.652 -26.573 -33.562  1.00  0.00     0.086 C 
HETATM    5  S2  UNL     1       3.429 -27.311 -31.938  1.00  0.00    -0.142 SA
ENDROOT
BRANCH   1   6
HETATM    6  C1  UNL     1       5.012 -29.275 -30.885  1.00  0.00     0.197 C 
HETATM    7  O1  UNL     1       4.900 -28.662 -29.807  1.00  0.00    -0.646 OA
HETATM    8  O2  UNL     1       5.946 -30.290 -30.985  1.00  0.00    -0.646 OA
ENDBRANCH   1   6
TORSDOF 1
ENDMDL
MODEL 2
REMARK VINA RESULT: -3.931531013      0.089      1.134
REMARK  1 active torsions:
REMARK  status: ('A' for Active; 'I' for Inactive)
REMARK    1  A    between atoms: C1_2  and  C2_4 
ROOT
HETATM    1  C2  UNL     1       4.234 -28.984 -32.108  1.00  0.00     0.209 C 
HETATM    2  S1  UNL     1       5.232 -28.676 -33.620  1.00  0.00    -0.142 SA
HETATM    3  C3  UNL     1       3.998 -27.656 -34.520  1.00  0.00     0.086 C 
HETATM    4  C4  UNL     1       3.629 -26.558 -33.528  1.00  0.00     0.086 C 
HETATM    5  S2  UNL     1       3.458 -27.355 -31.926  1.00  0.00    -0.142 SA
ENDROOT
BRANCH   1   6
HETATM    6  C1  UNL     1       5.090 -29.336 -30.986  1.00  0.00     0.197 C 
HETATM    7  O1  UNL     1       5.976 -30.205 -31.081  1.00  0.00    -0.646 OA
HETATM    8  O2  UNL     1       4.915 -28.686 -29.778  1.00  0.00    -0.646 OA
ENDBRANCH   1   6
TORSDOF 1
ENDMDL
MODEL 3
REMARK VINA RESULT: -3.870490879      8.844      9.487
REMARK  1 active torsions:
REMARK  status: ('A' for Active; 'I' for Inactive)
REMARK    1  A    between atoms: C1_2  and  C2_4 
ROOT
HETATM    1  C2  UNL     1      10.135 -34.621 -36.267  1.00  0.00     0.209 C 
HETATM    2  S1  UNL     1       8.519 -33.871 -36.718  1.00  0.00    -0.142 SA
HETATM    3  C3  UNL     1       8.672 -34.045 -38.540  1.00  0.00     0.086 C 
HETATM    4  C4  UNL     1       8.990 -35.523 -38.746  1.00  0.00     0.086 C 
HETATM    5  S2  UNL     1      10.187 -35.967 -37.481  1.00  0.00    -0.142 SA
ENDROOT
BRANCH   1   6
HETATM    6  C1  UNL     1      10.120 -35.094 -34.892  1.00  0.00     0.197 C 
HETATM    7  O1  UNL     1      10.961 -34.717 -34.056  1.00  0.00    -0.646 OA
HETATM    8  O2  UNL     1       9.141 -35.989 -34.500  1.00  0.00    -0.646 OA
ENDBRANCH   1   6
TORSDOF 1
ENDMDL
MODEL 4
REMARK VINA RESULT: -3.855385044      8.881      9.426
REMARK  1 active torsions:
REMARK  status: ('A' for Active; 'I' for Inactive)
REMARK    1  A    between atoms: C1_2  and  C2_4 
ROOT
HETATM    1  C2  UNL     1       9.468 -35.374 -35.853  1.00  0.00     0.209 C 
HETATM    2  S1  UNL     1      10.138 -35.990 -37.449  1.00  0.00    -0.142 SA
HETATM    3  C3  UNL     1       8.531 -36.277 -38.292  1.00  0.00     0.086 C 
HETATM    4  C4  UNL     1       7.798 -34.946 -38.156  1.00  0.00     0.086 C 
HETATM    5  S2  UNL     1       8.088 -34.374 -36.476  1.00  0.00    -0.142 SA
ENDROOT
BRANCH   1   6
HETATM    6  C1  UNL     1      10.464 -34.589 -35.143  1.00  0.00     0.197 C 
HETATM    7  O1  UNL     1      10.821 -34.871 -33.984  1.00  0.00    -0.646 OA
HETATM    8  O2  UNL     1      11.033 -33.496 -35.772  1.00  0.00    -0.646 OA
ENDBRANCH   1   6
TORSDOF 1
ENDMDL
MODEL 5
REMARK VINA RESULT: -3.849533862      8.720      9.347
REMARK  1 active torsions:
REMARK  status: ('A' for Active; 'I' for Inactive)
REMARK    1  A    between atoms: C1_2  and  C2_4 
ROOT
HETATM    1  C2  UNL     1       9.537 -35.700 -35.775  1.00  0.00     0.209 C 
HETATM    2  S1  UNL     1       9.669 -35.112 -37.511  1.00  0.00    -0.142 SA
HETATM    3  C3  UNL     1       8.510 -36.321 -38.265  1.00  0.00     0.086 C 
HETATM    4  C4  UNL     1       7.238 -36.183 -37.435  1.00  0.00     0.086 C 
HETATM    5  S2  UNL     1       7.761 -36.063 -35.719  1.00  0.00    -0.142 SA
ENDROOT
BRANCH   1   6
HETATM    6  C1  UNL     1       9.934 -34.657 -34.844  1.00  0.00     0.197 C 
HETATM    7  O1  UNL     1      10.928 -34.779 -34.103  1.00  0.00    -0.646 OA
HETATM    8  O2  UNL     1       9.189 -33.494 -34.778  1.00  0.00    -0.646 OA
ENDBRANCH   1   6
TORSDOF 1
ENDMDL
