MODEL 1
REMARK VINA RESULT: -5.805113776      0.000      0.000
REMARK  2 active torsions:
REMARK  status: ('A' for Active; 'I' for Inactive)
REMARK    1  A    between atoms: C2_2  and  C3_7 
REMARK    2  A    between atoms: N1_3  and  O1_5 
ROOT
HETATM    1  C3  UNL     1       8.075 -34.086 -34.223  1.00  0.00     0.112 C 
HETATM    2  C4  UNL     1       9.480 -34.458 -34.311  1.00  0.00     0.077 C 
HETATM    3  N2  UNL     1      10.604 -34.758 -34.382  1.00  0.00    -0.196 NA
HETATM    4  C5  UNL     1       7.288 -35.400 -34.356  1.00  0.00     0.059 C 
HETATM    5  C6  UNL     1       7.281 -35.563 -35.855  1.00  0.00     0.169 C 
HETATM    6  O2  UNL     1       7.853 -34.444 -36.411  1.00  0.00    -0.389 OA
HETATM    7  C7  UNL     1       7.628 -33.406 -35.474  1.00  0.00     0.198 C 
ENDROOT
BRANCH   1   8
HETATM    8  C2  UNL     1       7.719 -33.429 -32.972  1.00  0.00     0.031 C 
HETATM    9  C1  UNL     1       6.692 -32.329 -33.077  1.00  0.00     0.067 C 
HETATM   10  N1  UNL     1       8.184 -33.690 -31.809  1.00  0.00    -0.276 N 
ATOM     11  H1  UNL     1       7.846 -33.151 -31.011  1.00  0.00     0.193 HD
BRANCH  10  12
HETATM   12  O1  UNL     1       9.121 -34.669 -31.598  1.00  0.00    -0.290 OA
ATOM     13  H1  UNL     1       9.400 -34.924 -30.726  1.00  0.00     0.244 HD
ENDBRANCH  10  12
ENDBRANCH   1   8
TORSDOF 2
ENDMDL
MODEL 2
REMARK VINA RESULT: -5.179609920      2.012      3.020
REMARK  2 active torsions:
REMARK  status: ('A' for Active; 'I' for Inactive)
REMARK    1  A    between atoms: C2_2  and  C3_7 
REMARK    2  A    between atoms: N1_3  and  O1_5 
ROOT
HETATM    1  C3  UNL     1       8.517 -34.214 -35.461  1.00  0.00     0.112 C 
HETATM    2  C4  UNL     1       9.847 -34.443 -34.914  1.00  0.00     0.077 C 
HETATM    3  N2  UNL     1      10.914 -34.624 -34.479  1.00  0.00    -0.196 NA
HETATM    4  C5  UNL     1       8.737 -33.508 -36.808  1.00  0.00     0.059 C 
HETATM    5  C6  UNL     1       8.928 -32.087 -36.344  1.00  0.00     0.169 C 
HETATM    6  O2  UNL     1       8.707 -32.045 -34.987  1.00  0.00    -0.389 OA
HETATM    7  C7  UNL     1       7.823 -33.119 -34.722  1.00  0.00     0.198 C 
ENDROOT
BRANCH   1   8
HETATM    8  C2  UNL     1       7.751 -35.436 -35.669  1.00  0.00     0.031 C 
HETATM    9  C1  UNL     1       7.017 -35.534 -36.984  1.00  0.00     0.067 C 
HETATM   10  N1  UNL     1       7.642 -36.421 -34.861  1.00  0.00    -0.276 N 
ATOM     11  H1  UNL     1       7.070 -37.222 -35.134  1.00  0.00     0.193 HD
BRANCH  10  12
HETATM   12  O1  UNL     1       8.266 -36.438 -33.640  1.00  0.00    -0.290 OA
ATOM     13  H1  UNL     1       8.636 -35.656 -33.249  1.00  0.00     0.244 HD
ENDBRANCH  10  12
ENDBRANCH   1   8
TORSDOF 2
ENDMDL
MODEL 3
REMARK VINA RESULT: -5.117834659      3.209      4.049
REMARK  2 active torsions:
REMARK  status: ('A' for Active; 'I' for Inactive)
REMARK    1  A    between atoms: C2_2  and  C3_7 
REMARK    2  A    between atoms: N1_3  and  O1_5 
ROOT
HETATM    1  C3  UNL     1       6.383 -31.019 -33.039  1.00  0.00     0.112 C 
HETATM    2  C4  UNL     1       6.450 -32.474 -33.058  1.00  0.00     0.077 C 
HETATM    3  N2  UNL     1       6.502 -33.638 -33.076  1.00  0.00    -0.196 NA
HETATM    4  C5  UNL     1       5.432 -30.632 -34.182  1.00  0.00     0.059 C 
HETATM    5  C6  UNL     1       6.377 -30.698 -35.356  1.00  0.00     0.169 C 
HETATM    6  O2  UNL     1       7.641 -30.946 -34.877  1.00  0.00    -0.389 OA
HETATM    7  C7  UNL     1       7.648 -30.424 -33.560  1.00  0.00     0.198 C 
ENDROOT
BRANCH   1   8
HETATM    8  C2  UNL     1       5.884 -30.472 -31.784  1.00  0.00     0.031 C 
HETATM    9  C1  UNL     1       4.967 -29.280 -31.906  1.00  0.00     0.067 C 
HETATM   10  N1  UNL     1       6.142 -30.896 -30.604  1.00  0.00    -0.276 N 
ATOM     11  H1  UNL     1       5.723 -30.418 -29.806  1.00  0.00     0.193 HD
BRANCH  10  12
HETATM   12  O1  UNL     1       6.962 -31.972 -30.377  1.00  0.00    -0.290 OA
ATOM     13  H1  UNL     1       6.751 -32.644 -29.739  1.00  0.00     0.244 HD
ENDBRANCH  10  12
ENDBRANCH   1   8
TORSDOF 2
ENDMDL
MODEL 4
REMARK VINA RESULT: -5.107245137      1.481      1.625
REMARK  2 active torsions:
REMARK  status: ('A' for Active; 'I' for Inactive)
REMARK    1  A    between atoms: C2_2  and  C3_7 
REMARK    2  A    between atoms: N1_3  and  O1_5 
ROOT
HETATM    1  C3  UNL     1       8.490 -34.052 -34.909  1.00  0.00     0.112 C 
HETATM    2  C4  UNL     1       9.837 -34.509 -34.597  1.00  0.00     0.077 C 
HETATM    3  N2  UNL     1      10.916 -34.877 -34.351  1.00  0.00    -0.196 NA
HETATM    4  C5  UNL     1       8.035 -34.890 -36.114  1.00  0.00     0.059 C 
HETATM    5  C6  UNL     1       8.688 -34.129 -37.239  1.00  0.00     0.169 C 
HETATM    6  O2  UNL     1       9.274 -33.002 -36.711  1.00  0.00    -0.389 OA
HETATM    7  C7  UNL     1       8.523 -32.704 -35.548  1.00  0.00     0.198 C 
ENDROOT
BRANCH   1   8
HETATM    8  C2  UNL     1       7.546 -34.221 -33.812  1.00  0.00     0.031 C 
HETATM    9  C1  UNL     1       6.607 -33.064 -33.570  1.00  0.00     0.067 C 
HETATM   10  N1  UNL     1       7.433 -35.239 -33.045  1.00  0.00    -0.276 N 
ATOM     11  H1  UNL     1       6.724 -35.227 -32.311  1.00  0.00     0.193 HD
BRANCH  10  12
HETATM   12  O1  UNL     1       8.234 -36.345 -33.176  1.00  0.00    -0.290 OA
ATOM     13  H1  UNL     1       7.877 -37.217 -33.292  1.00  0.00     0.244 HD
ENDBRANCH  10  12
ENDBRANCH   1   8
TORSDOF 2
ENDMDL
MODEL 5
REMARK VINA RESULT: -5.060329062      1.583      2.148
REMARK  2 active torsions:
REMARK  status: ('A' for Active; 'I' for Inactive)
REMARK    1  A    between atoms: C2_2  and  C3_7 
REMARK    2  A    between atoms: N1_3  and  O1_5 
ROOT
HETATM    1  C3  UNL     1       8.395 -34.158 -34.400  1.00  0.00     0.112 C 
HETATM    2  C4  UNL     1       7.604 -35.257 -34.937  1.00  0.00     0.077 C 
HETATM    3  N2  UNL     1       6.972 -36.135 -35.370  1.00  0.00    -0.196 NA
HETATM    4  C5  UNL     1       8.402 -33.078 -35.493  1.00  0.00     0.059 C 
HETATM    5  C6  UNL     1       9.502 -33.599 -36.383  1.00  0.00     0.169 C 
HETATM    6  O2  UNL     1      10.062 -34.697 -35.776  1.00  0.00    -0.389 OA
HETATM    7  C7  UNL     1       9.846 -34.505 -34.389  1.00  0.00     0.198 C 
ENDROOT
BRANCH   1   8
HETATM    8  C2  UNL     1       7.859 -33.599 -33.165  1.00  0.00     0.031 C 
HETATM    9  C1  UNL     1       6.809 -32.529 -33.332  1.00  0.00     0.067 C 
HETATM   10  N1  UNL     1       8.183 -33.922 -31.971  1.00  0.00    -0.276 N 
ATOM     11  H1  UNL     1       7.726 -33.450 -31.190  1.00  0.00     0.193 HD
BRANCH  10  12
HETATM   12  O1  UNL     1       9.125 -34.883 -31.703  1.00  0.00    -0.290 OA
ATOM     13  H1  UNL     1       9.260 -35.632 -32.271  1.00  0.00     0.244 HD
ENDBRANCH  10  12
ENDBRANCH   1   8
TORSDOF 2
ENDMDL
