MODEL 1
REMARK VINA RESULT: -4.948885116      0.000      0.000
REMARK  3 active torsions:
REMARK  status: ('A' for Active; 'I' for Inactive)
REMARK    1  A    between atoms: C2_2  and  O1_4 
REMARK    2  A    between atoms: C2_2  and  O2_6 
REMARK    3  A    between atoms: O2_6  and  C4_7 
ROOT
HETATM    1  C4  UNL     1       4.631 -28.652 -33.425  1.00  0.00     0.263 C 
HETATM    2  C5  UNL     1       3.997 -27.696 -34.414  1.00  0.00     0.061 C 
HETATM    3  C6  UNL     1       4.068 -26.319 -33.744  1.00  0.00     0.007 C 
HETATM    4  C7  UNL     1       3.041 -26.370 -32.628  1.00  0.00     0.026 C 
HETATM    5  C8  UNL     1       3.334 -27.612 -31.814  1.00  0.00     0.171 C 
HETATM    6  O3  UNL     1       4.532 -28.205 -32.137  1.00  0.00    -0.361 OA
ENDROOT
BRANCH   1   7
HETATM    7  O2  UNL     1       6.006 -28.707 -33.731  1.00  0.00    -0.326 OA
BRANCH   7   8
HETATM    8  C2  UNL     1       6.567 -29.920 -33.341  1.00  0.00     0.157 C 
HETATM    9  C1  UNL     1       7.976 -30.054 -33.888  1.00  0.00     0.078 C 
HETATM   10  C3  UNL     1       5.716 -31.018 -33.908  1.00  0.00     0.078 C 
BRANCH   8  11
HETATM   11  O1  UNL     1       6.598 -30.068 -31.954  1.00  0.00    -0.366 OA
ATOM     12  H1  UNL     1       7.191 -30.775 -31.729  1.00  0.00     0.213 HD
ENDBRANCH   8  11
ENDBRANCH   7   8
ENDBRANCH   1   7
TORSDOF 3
ENDMDL
MODEL 2
REMARK VINA RESULT: -4.827193817      3.627      5.113
REMARK  3 active torsions:
REMARK  status: ('A' for Active; 'I' for Inactive)
REMARK    1  A    between atoms: C2_2  and  O1_4 
REMARK    2  A    between atoms: C2_2  and  O2_6 
REMARK    3  A    between atoms: O2_6  and  C4_7 
ROOT
HETATM    1  C4  UNL     1       7.603 -32.421 -34.154  1.00  0.00     0.263 C 
HETATM    2  C5  UNL     1       7.309 -31.311 -35.141  1.00  0.00     0.061 C 
HETATM    3  C6  UNL     1       8.013 -30.072 -34.576  1.00  0.00     0.007 C 
HETATM    4  C7  UNL     1       7.190 -29.667 -33.367  1.00  0.00     0.026 C 
HETATM    5  C8  UNL     1       7.039 -30.901 -32.502  1.00  0.00     0.171 C 
HETATM    6  O3  UNL     1       7.842 -31.944 -32.896  1.00  0.00    -0.361 OA
ENDROOT
BRANCH   1   7
HETATM    7  O2  UNL     1       8.790 -33.048 -34.584  1.00  0.00    -0.326 OA
BRANCH   7   8
HETATM    8  C2  UNL     1       8.837 -34.380 -34.181  1.00  0.00     0.157 C 
HETATM    9  C1  UNL     1       9.835 -35.154 -35.023  1.00  0.00     0.078 C 
HETATM   10  C3  UNL     1       7.470 -34.965 -34.382  1.00  0.00     0.078 C 
BRANCH   8  11
HETATM   11  O1  UNL     1       9.173 -34.514 -32.834  1.00  0.00    -0.366 OA
ATOM     12  H1  UNL     1       9.950 -33.999 -32.653  1.00  0.00     0.213 HD
ENDBRANCH   8  11
ENDBRANCH   7   8
ENDBRANCH   1   7
TORSDOF 3
ENDMDL
MODEL 3
REMARK VINA RESULT: -4.736804098      4.506      5.996
REMARK  3 active torsions:
REMARK  status: ('A' for Active; 'I' for Inactive)
REMARK    1  A    between atoms: C2_2  and  O1_4 
REMARK    2  A    between atoms: C2_2  and  O2_6 
REMARK    3  A    between atoms: O2_6  and  C4_7 
ROOT
HETATM    1  C4  UNL     1       7.978 -33.420 -34.000  1.00  0.00     0.263 C 
HETATM    2  C5  UNL     1       6.967 -32.395 -34.469  1.00  0.00     0.061 C 
HETATM    3  C6  UNL     1       7.311 -31.111 -33.705  1.00  0.00     0.007 C 
HETATM    4  C7  UNL     1       6.877 -31.375 -32.275  1.00  0.00     0.026 C 
HETATM    5  C8  UNL     1       7.508 -32.686 -31.856  1.00  0.00     0.171 C 
HETATM    6  O3  UNL     1       8.448 -33.147 -32.746  1.00  0.00    -0.361 OA
ENDROOT
BRANCH   1   7
HETATM    7  O2  UNL     1       9.081 -33.338 -34.874  1.00  0.00    -0.326 OA
BRANCH   7   8
HETATM    8  C2  UNL     1       9.737 -34.561 -34.983  1.00  0.00     0.157 C 
HETATM    9  C1  UNL     1      10.439 -34.670 -36.324  1.00  0.00     0.078 C 
HETATM   10  C3  UNL     1       8.703 -35.643 -34.883  1.00  0.00     0.078 C 
BRANCH   8  11
HETATM   11  O1  UNL     1      10.668 -34.756 -33.962  1.00  0.00    -0.366 OA
ATOM     12  H1  UNL     1      11.006 -35.642 -34.013  1.00  0.00     0.213 HD
ENDBRANCH   8  11
ENDBRANCH   7   8
ENDBRANCH   1   7
TORSDOF 3
ENDMDL
MODEL 4
REMARK VINA RESULT: -4.658184033      2.934      4.288
REMARK  3 active torsions:
REMARK  status: ('A' for Active; 'I' for Inactive)
REMARK    1  A    between atoms: C2_2  and  O1_4 
REMARK    2  A    between atoms: C2_2  and  O2_6 
REMARK    3  A    between atoms: O2_6  and  C4_7 
ROOT
HETATM    1  C4  UNL     1       7.024 -31.915 -33.352  1.00  0.00     0.263 C 
HETATM    2  C5  UNL     1       6.853 -30.851 -34.416  1.00  0.00     0.061 C 
HETATM    3  C6  UNL     1       7.452 -29.576 -33.811  1.00  0.00     0.007 C 
HETATM    4  C7  UNL     1       6.462 -29.142 -32.746  1.00  0.00     0.026 C 
HETATM    5  C8  UNL     1       6.211 -30.343 -31.859  1.00  0.00     0.171 C 
HETATM    6  O3  UNL     1       7.078 -31.384 -32.094  1.00  0.00    -0.361 OA
ENDROOT
BRANCH   1   7
HETATM    7  O2  UNL     1       8.270 -32.533 -33.586  1.00  0.00    -0.326 OA
BRANCH   7   8
HETATM    8  C2  UNL     1       8.244 -33.879 -33.233  1.00  0.00     0.157 C 
HETATM    9  C1  UNL     1       9.205 -34.673 -34.099  1.00  0.00     0.078 C 
HETATM   10  C3  UNL     1       6.850 -34.384 -33.459  1.00  0.00     0.078 C 
BRANCH   8  11
HETATM   11  O1  UNL     1       8.566 -34.080 -31.890  1.00  0.00    -0.366 OA
ATOM     12  H1  UNL     1       7.781 -34.324 -31.414  1.00  0.00     0.213 HD
ENDBRANCH   8  11
ENDBRANCH   7   8
ENDBRANCH   1   7
TORSDOF 3
ENDMDL
MODEL 5
REMARK VINA RESULT: -4.616730936      1.963      2.977
REMARK  3 active torsions:
REMARK  status: ('A' for Active; 'I' for Inactive)
REMARK    1  A    between atoms: C2_2  and  O1_4 
REMARK    2  A    between atoms: C2_2  and  O2_6 
REMARK    3  A    between atoms: O2_6  and  C4_7 
ROOT
HETATM    1  C4  UNL     1       6.228 -30.079 -33.100  1.00  0.00     0.263 C 
HETATM    2  C5  UNL     1       5.779 -29.115 -32.022  1.00  0.00     0.061 C 
HETATM    3  C6  UNL     1       4.309 -28.815 -32.335  1.00  0.00     0.007 C 
HETATM    4  C7  UNL     1       4.339 -27.937 -33.572  1.00  0.00     0.026 C 
HETATM    5  C8  UNL     1       5.192 -28.651 -34.600  1.00  0.00     0.171 C 
HETATM    6  O3  UNL     1       5.500 -29.944 -34.250  1.00  0.00    -0.361 OA
ENDROOT
BRANCH   1   7
HETATM    7  O2  UNL     1       5.985 -31.379 -32.615  1.00  0.00    -0.326 OA
BRANCH   7   8
HETATM    8  C2  UNL     1       7.117 -32.181 -32.718  1.00  0.00     0.157 C 
HETATM    9  C1  UNL     1       6.746 -33.562 -33.227  1.00  0.00     0.078 C 
HETATM   10  C3  UNL     1       7.712 -32.309 -31.347  1.00  0.00     0.078 C 
BRANCH   8  11
HETATM   11  O1  UNL     1       8.083 -31.628 -33.559  1.00  0.00    -0.366 OA
ATOM     12  H1  UNL     1       8.945 -31.784 -33.190  1.00  0.00     0.213 HD
ENDBRANCH   8  11
ENDBRANCH   7   8
ENDBRANCH   1   7
TORSDOF 3
ENDMDL
