MODEL 1
REMARK VINA RESULT: -3.793011829      0.000      0.000
REMARK  1 active torsions:
REMARK  status: ('A' for Active; 'I' for Inactive)
REMARK    1  A    between atoms: C2_2  and  C3_3 
ROOT
HETATM    1  C3  UNL     1       4.987 -29.226 -33.971  1.00  0.00     0.130 C 
HETATM    2  S1  UNL     1       5.358 -30.160 -35.492  1.00  0.00    -0.150 SA
HETATM    3  C4  UNL     1       6.617 -31.380 -35.020  1.00  0.00     0.076 C 
HETATM    4  C5  UNL     1       7.953 -30.770 -34.778  1.00  0.00     0.020 C 
HETATM    5  C6  UNL     1       7.966 -29.503 -34.017  1.00  0.00     0.076 C 
HETATM    6  S2  UNL     1       6.502 -29.247 -32.979  1.00  0.00    -0.150 SA
ENDROOT
BRANCH   1   7
HETATM    7  C2  UNL     1       4.523 -27.859 -34.269  1.00  0.00    -0.011 C 
HETATM    8  C1  UNL     1       4.102 -27.536 -35.480  1.00  0.00     0.009 C 
ENDBRANCH   1   7
TORSDOF 1
ENDMDL
MODEL 2
REMARK VINA RESULT: -3.743331482      1.093      3.850
REMARK  1 active torsions:
REMARK  status: ('A' for Active; 'I' for Inactive)
REMARK    1  A    between atoms: C2_2  and  C3_3 
ROOT
HETATM    1  C3  UNL     1       6.254 -30.449 -33.602  1.00  0.00     0.130 C 
HETATM    2  S1  UNL     1       5.954 -29.310 -32.210  1.00  0.00    -0.150 SA
HETATM    3  C4  UNL     1       4.276 -28.665 -32.460  1.00  0.00     0.076 C 
HETATM    4  C5  UNL     1       4.190 -27.697 -33.587  1.00  0.00     0.020 C 
HETATM    5  C6  UNL     1       4.934 -28.052 -34.814  1.00  0.00     0.076 C 
HETATM    6  S2  UNL     1       5.270 -29.825 -34.989  1.00  0.00    -0.150 SA
ENDROOT
BRANCH   1   7
HETATM    7  C2  UNL     1       7.688 -30.551 -33.925  1.00  0.00    -0.011 C 
HETATM    8  C1  UNL     1       8.402 -29.469 -34.186  1.00  0.00     0.009 C 
ENDBRANCH   1   7
TORSDOF 1
ENDMDL
MODEL 3
REMARK VINA RESULT: -3.720452893      2.904      3.966
REMARK  1 active torsions:
REMARK  status: ('A' for Active; 'I' for Inactive)
REMARK    1  A    between atoms: C2_2  and  C3_3 
ROOT
HETATM    1  C3  UNL     1       4.400 -26.953 -33.981  1.00  0.00     0.130 C 
HETATM    2  S1  UNL     1       3.143 -26.634 -32.700  1.00  0.00    -0.150 SA
HETATM    3  C4  UNL     1       3.870 -27.225 -31.145  1.00  0.00     0.076 C 
HETATM    4  C5  UNL     1       3.931 -28.709 -31.061  1.00  0.00     0.020 C 
HETATM    5  C6  UNL     1       4.362 -29.418 -32.284  1.00  0.00     0.076 C 
HETATM    6  S2  UNL     1       5.337 -28.401 -33.424  1.00  0.00    -0.150 SA
ENDROOT
BRANCH   1   7
HETATM    7  C2  UNL     1       3.790 -27.149 -35.308  1.00  0.00    -0.011 C 
HETATM    8  C1  UNL     1       4.322 -27.988 -36.181  1.00  0.00     0.009 C 
ENDBRANCH   1   7
TORSDOF 1
ENDMDL
MODEL 4
REMARK VINA RESULT: -3.699495650      2.018      3.969
REMARK  1 active torsions:
REMARK  status: ('A' for Active; 'I' for Inactive)
REMARK    1  A    between atoms: C2_2  and  C3_3 
ROOT
HETATM    1  C3  UNL     1       5.309 -28.397 -34.807  1.00  0.00     0.130 C 
HETATM    2  S1  UNL     1       3.839 -27.322 -34.889  1.00  0.00    -0.150 SA
HETATM    3  C4  UNL     1       3.831 -26.387 -33.333  1.00  0.00     0.076 C 
HETATM    4  C5  UNL     1       3.456 -27.220 -32.159  1.00  0.00     0.020 C 
HETATM    5  C6  UNL     1       4.053 -28.571 -32.097  1.00  0.00     0.076 C 
HETATM    6  S2  UNL     1       5.583 -28.749 -33.052  1.00  0.00    -0.150 SA
ENDROOT
BRANCH   1   7
HETATM    7  C2  UNL     1       5.136 -29.621 -35.610  1.00  0.00    -0.011 C 
HETATM    8  C1  UNL     1       5.293 -30.816 -35.066  1.00  0.00     0.009 C 
ENDBRANCH   1   7
TORSDOF 1
ENDMDL
MODEL 5
REMARK VINA RESULT: -3.669889598      1.964      4.336
REMARK  1 active torsions:
REMARK  status: ('A' for Active; 'I' for Inactive)
REMARK    1  A    between atoms: C2_2  and  C3_3 
ROOT
HETATM    1  C3  UNL     1       4.924 -29.170 -33.903  1.00  0.00     0.130 C 
HETATM    2  S1  UNL     1       4.811 -28.820 -32.117  1.00  0.00    -0.150 SA
HETATM    3  C4  UNL     1       3.299 -27.839 -31.907  1.00  0.00     0.076 C 
HETATM    4  C5  UNL     1       3.436 -26.447 -32.418  1.00  0.00     0.020 C 
HETATM    5  C6  UNL     1       4.132 -26.291 -33.712  1.00  0.00     0.076 C 
HETATM    6  S2  UNL     1       4.121 -27.781 -34.743  1.00  0.00    -0.150 SA
ENDROOT
BRANCH   1   7
HETATM    7  C2  UNL     1       6.320 -29.364 -34.334  1.00  0.00    -0.011 C 
HETATM    8  C1  UNL     1       7.313 -29.301 -33.463  1.00  0.00     0.009 C 
ENDBRANCH   1   7
TORSDOF 1
ENDMDL
