MODEL 1
REMARK VINA RESULT: -5.031335930      0.000      0.000
REMARK  1 active torsions:
REMARK  status: ('A' for Active; 'I' for Inactive)
REMARK    1  A    between atoms: C2_3  and  S1_4 
ROOT
HETATM    1  N1  UNL     1       4.959 -29.525 -30.299  1.00  0.00    -0.195 NA
HETATM    2  C1  UNL     1       5.191 -29.281 -31.417  1.00  0.00     0.085 C 
HETATM    3  C2  UNL     1       5.456 -28.992 -32.793  1.00  0.00     0.125 A 
HETATM    4  C3  UNL     1       6.757 -29.023 -33.167  1.00  0.00     0.005 A 
HETATM    5  C4  UNL     1       7.414 -29.447 -33.607  1.00  0.00    -0.028 A 
HETATM    6  C5  UNL     1       7.779 -30.500 -34.357  1.00  0.00     0.027 A 
HETATM    7  C6  UNL     1       6.216 -31.117 -34.330  1.00  0.00     0.007 A 
HETATM    8  C7  UNL     1       5.175 -30.430 -33.582  1.00  0.00     0.041 A 
ENDROOT
BRANCH   3   9
HETATM    9  S1  UNL     1       4.325 -27.782 -33.442  1.00  0.00    -0.056 SA
HETATM   10  S2  UNL     1       4.380 -27.862 -35.566  1.00  0.00    -0.011 SA
ENDBRANCH   3   9
TORSDOF 1
ENDMDL
MODEL 2
REMARK VINA RESULT: -4.986088011      3.043      3.837
REMARK  1 active torsions:
REMARK  status: ('A' for Active; 'I' for Inactive)
REMARK    1  A    between atoms: C2_3  and  S1_4 
ROOT
HETATM    1  N1  UNL     1       8.351 -29.240 -34.048  1.00  0.00    -0.195 NA
HETATM    2  C1  UNL     1       7.194 -29.383 -33.969  1.00  0.00     0.085 C 
HETATM    3  C2  UNL     1       5.777 -29.567 -33.891  1.00  0.00     0.125 A 
HETATM    4  C3  UNL     1       5.081 -28.579 -33.282  1.00  0.00     0.005 A 
HETATM    5  C4  UNL     1       4.523 -27.882 -33.358  1.00  0.00    -0.028 A 
HETATM    6  C5  UNL     1       3.794 -27.097 -34.169  1.00  0.00     0.027 A 
HETATM    7  C6  UNL     1       4.278 -27.971 -35.521  1.00  0.00     0.007 A 
HETATM    8  C7  UNL     1       5.212 -29.076 -35.377  1.00  0.00     0.041 A 
ENDROOT
BRANCH   3   9
HETATM    9  S1  UNL     1       5.348 -31.281 -33.681  1.00  0.00    -0.056 SA
HETATM   10  S2  UNL     1       6.688 -32.156 -32.282  1.00  0.00    -0.011 SA
ENDBRANCH   3   9
TORSDOF 1
ENDMDL
MODEL 3
REMARK VINA RESULT: -4.700334578      2.711      3.647
REMARK  1 active torsions:
REMARK  status: ('A' for Active; 'I' for Inactive)
REMARK    1  A    between atoms: C2_3  and  S1_4 
ROOT
HETATM    1  N1  UNL     1       8.105 -29.123 -33.682  1.00  0.00    -0.195 NA
HETATM    2  C1  UNL     1       6.946 -29.233 -33.773  1.00  0.00     0.085 C 
HETATM    3  C2  UNL     1       5.527 -29.368 -33.907  1.00  0.00     0.125 A 
HETATM    4  C3  UNL     1       4.780 -28.747 -32.965  1.00  0.00     0.005 A 
HETATM    5  C4  UNL     1       4.232 -28.070 -32.751  1.00  0.00    -0.028 A 
HETATM    6  C5  UNL     1       3.584 -26.965 -33.157  1.00  0.00     0.027 A 
HETATM    7  C6  UNL     1       4.191 -27.130 -34.716  1.00  0.00     0.007 A 
HETATM    8  C7  UNL     1       5.104 -28.217 -35.030  1.00  0.00     0.041 A 
ENDROOT
BRANCH   3   9
HETATM    9  S1  UNL     1       5.077 -30.961 -34.559  1.00  0.00    -0.056 SA
HETATM   10  S2  UNL     1       5.902 -31.161 -36.508  1.00  0.00    -0.011 SA
ENDBRANCH   3   9
TORSDOF 1
ENDMDL
MODEL 4
REMARK VINA RESULT: -4.629745686      2.715      3.136
REMARK  1 active torsions:
REMARK  status: ('A' for Active; 'I' for Inactive)
REMARK    1  A    between atoms: C2_3  and  S1_4 
ROOT
HETATM    1  N1  UNL     1       4.842 -28.732 -30.153  1.00  0.00    -0.195 NA
HETATM    2  C1  UNL     1       5.259 -29.446 -30.978  1.00  0.00     0.085 C 
HETATM    3  C2  UNL     1       5.791 -30.316 -31.983  1.00  0.00     0.125 A 
HETATM    4  C3  UNL     1       5.069 -30.418 -33.123  1.00  0.00     0.005 A 
HETATM    5  C4  UNL     1       4.987 -30.217 -33.994  1.00  0.00    -0.028 A 
HETATM    6  C5  UNL     1       5.509 -29.604 -35.069  1.00  0.00     0.027 A 
HETATM    7  C6  UNL     1       6.841 -29.088 -34.183  1.00  0.00     0.007 A 
HETATM    8  C7  UNL     1       6.935 -29.396 -32.765  1.00  0.00     0.041 A 
ENDROOT
BRANCH   3   9
HETATM    9  S1  UNL     1       6.613 -31.721 -31.268  1.00  0.00    -0.056 SA
HETATM   10  S2  UNL     1       7.262 -33.005 -32.834  1.00  0.00    -0.011 SA
ENDBRANCH   3   9
TORSDOF 1
ENDMDL
MODEL 5
REMARK VINA RESULT: -4.562785465      3.035      3.564
REMARK  1 active torsions:
REMARK  status: ('A' for Active; 'I' for Inactive)
REMARK    1  A    between atoms: C2_3  and  S1_4 
ROOT
HETATM    1  N1  UNL     1       6.997 -31.789 -30.676  1.00  0.00    -0.195 NA
HETATM    2  C1  UNL     1       6.854 -31.666 -31.829  1.00  0.00     0.085 C 
HETATM    3  C2  UNL     1       6.699 -31.509 -33.243  1.00  0.00     0.125 A 
HETATM    4  C3  UNL     1       5.492 -31.065 -33.664  1.00  0.00     0.005 A 
HETATM    5  C4  UNL     1       5.002 -30.393 -34.000  1.00  0.00    -0.028 A 
HETATM    6  C5  UNL     1       4.968 -29.124 -34.438  1.00  0.00     0.027 A 
HETATM    7  C6  UNL     1       6.614 -28.936 -34.151  1.00  0.00     0.007 A 
HETATM    8  C7  UNL     1       7.381 -30.027 -33.573  1.00  0.00     0.041 A 
ENDROOT
BRANCH   3   9
HETATM    9  S1  UNL     1       7.609 -32.743 -34.145  1.00  0.00    -0.056 SA
HETATM   10  S2  UNL     1       8.426 -31.850 -35.893  1.00  0.00    -0.011 SA
ENDBRANCH   3   9
TORSDOF 1
ENDMDL
