MODEL 1
REMARK VINA RESULT: -6.135414426      0.000      0.000
REMARK  4 active torsions:
REMARK  status: ('A' for Active; 'I' for Inactive)
REMARK    1  A    between atoms: C2_2  and  C3_4 
REMARK    2  A    between atoms: C7_9  and  C8_10 
REMARK    3  A    between atoms: C8_10  and  N1_12 
REMARK    4  A    between atoms: N1_12  and  C11_14 
ROOT
HETATM    1  C8  UNL     1       7.628   8.934  43.921  1.00  0.00     0.116 C 
HETATM    2  C9  UNL     1       6.408   8.178  44.440  1.00  0.00     0.037 C 
ENDROOT
BRANCH   1   3
HETATM    3  C7  UNL     1       7.789   8.411  42.504  1.00  0.00     0.019 A 
HETATM    4  C3  UNL     1       8.700   7.599  41.937  1.00  0.00     0.025 A 
HETATM    5  C4  UNL     1       8.678   7.457  40.590  1.00  0.00     0.030 A 
HETATM    6  C5  UNL     1       7.709   8.159  39.912  1.00  0.00    -0.020 A 
HETATM    7  C6  UNL     1       7.448   8.192  38.414  1.00  0.00     0.056 C 
HETATM    8  S1  UNL     1       6.875   8.973  41.155  1.00  0.00    -0.097 SA
BRANCH   4   9
HETATM    9  C2  UNL     1       9.611   6.748  42.773  1.00  0.00     0.156 C 
HETATM   10  C1  UNL     1       9.142   5.518  43.425  1.00  0.00     0.097 C 
HETATM   11  O1  UNL     1      10.804   7.084  42.931  1.00  0.00    -0.293 OA
ENDBRANCH   4   9
ENDBRANCH   1   3
BRANCH   1  12
HETATM   12  N1  UNL     1       7.342  10.324  43.764  1.00  0.00    -0.404 N 
HETATM   13  C10 UNL     1       8.486  11.132  43.681  1.00  0.00     0.144 C 
BRANCH  12  14
HETATM   14  C11 UNL     1       6.261  10.930  44.410  1.00  0.00     0.079 C 
HETATM   15  C12 UNL     1       6.541  11.808  45.593  1.00  0.00     0.025 C 
HETATM   16  C13 UNL     1       5.216  11.881  46.404  1.00  0.00     0.002 C 
HETATM   17  C14 UNL     1       4.253  12.603  45.528  1.00  0.00     0.000 C 
HETATM   18  C15 UNL     1       4.776  12.890  44.143  1.00  0.00     0.002 C 
HETATM   19  C16 UNL     1       5.345  11.692  43.466  1.00  0.00     0.025 C 
ENDBRANCH  12  14
ENDBRANCH   1  12
TORSDOF 4
ENDMDL
MODEL 2
REMARK VINA RESULT: -6.063567122      2.868      6.695
REMARK  4 active torsions:
REMARK  status: ('A' for Active; 'I' for Inactive)
REMARK    1  A    between atoms: C2_2  and  C3_4 
REMARK    2  A    between atoms: C7_9  and  C8_10 
REMARK    3  A    between atoms: C8_10  and  N1_12 
REMARK    4  A    between atoms: N1_12  and  C11_14 
ROOT
HETATM    1  C8  UNL     1       6.143  11.226  42.536  1.00  0.00     0.116 C 
HETATM    2  C9  UNL     1       5.084  10.530  41.685  1.00  0.00     0.037 C 
ENDROOT
BRANCH   1   3
HETATM    3  C7  UNL     1       5.333  11.864  43.652  1.00  0.00     0.019 A 
HETATM    4  C3  UNL     1       4.845  13.107  43.818  1.00  0.00     0.025 A 
HETATM    5  C4  UNL     1       4.307  13.425  45.020  1.00  0.00     0.030 A 
HETATM    6  C5  UNL     1       4.300  12.435  45.974  1.00  0.00    -0.020 A 
HETATM    7  C6  UNL     1       3.767  12.505  47.397  1.00  0.00     0.056 C 
HETATM    8  S1  UNL     1       5.026  11.117  45.174  1.00  0.00    -0.097 SA
BRANCH   4   9
HETATM    9  C2  UNL     1       4.747  14.065  42.667  1.00  0.00     0.156 C 
HETATM   10  C1  UNL     1       3.875  13.806  41.514  1.00  0.00     0.097 C 
HETATM   11  O1  UNL     1       5.422  15.116  42.674  1.00  0.00    -0.293 OA
ENDBRANCH   4   9
ENDBRANCH   1   3
BRANCH   1  12
HETATM   12  N1  UNL     1       6.978  10.273  43.195  1.00  0.00    -0.404 N 
HETATM   13  C10 UNL     1       8.261  10.757  43.496  1.00  0.00     0.144 C 
BRANCH  12  14
HETATM   14  C11 UNL     1       6.943   8.914  42.870  1.00  0.00     0.079 C 
HETATM   15  C12 UNL     1       8.030   8.364  41.995  1.00  0.00     0.025 C 
HETATM   16  C13 UNL     1       7.467   7.055  41.372  1.00  0.00     0.002 C 
HETATM   17  C14 UNL     1       7.289   6.115  42.513  1.00  0.00     0.000 C 
HETATM   18  C15 UNL     1       7.547   6.732  43.864  1.00  0.00     0.002 C 
HETATM   19  C16 UNL     1       6.812   8.008  44.082  1.00  0.00     0.025 C 
ENDBRANCH  12  14
ENDBRANCH   1  12
TORSDOF 4
ENDMDL
MODEL 3
REMARK VINA RESULT: -5.694877244      2.269      6.049
REMARK  4 active torsions:
REMARK  status: ('A' for Active; 'I' for Inactive)
REMARK    1  A    between atoms: C2_2  and  C3_4 
REMARK    2  A    between atoms: C7_9  and  C8_10 
REMARK    3  A    between atoms: C8_10  and  N1_12 
REMARK    4  A    between atoms: N1_12  and  C11_14 
ROOT
HETATM    1  C8  UNL     1      10.093   8.024  41.003  1.00  0.00     0.116 C 
HETATM    2  C9  UNL     1      10.038   9.208  40.041  1.00  0.00     0.037 C 
ENDROOT
BRANCH   1   3
HETATM    3  C7  UNL     1       9.009   8.346  42.018  1.00  0.00     0.019 A 
HETATM    4  C3  UNL     1       8.514   7.655  43.062  1.00  0.00     0.025 A 
HETATM    5  C4  UNL     1       7.411   8.140  43.682  1.00  0.00     0.030 A 
HETATM    6  C5  UNL     1       6.892   9.314  43.188  1.00  0.00    -0.020 A 
HETATM    7  C6  UNL     1       5.674  10.082  43.677  1.00  0.00     0.056 C 
HETATM    8  S1  UNL     1       7.944   9.696  41.903  1.00  0.00    -0.097 SA
BRANCH   4   9
HETATM    9  C2  UNL     1       9.246   6.475  43.632  1.00  0.00     0.156 C 
HETATM   10  C1  UNL     1       8.845   5.095  43.331  1.00  0.00     0.097 C 
HETATM   11  O1  UNL     1      10.225   6.656  44.387  1.00  0.00    -0.293 OA
ENDBRANCH   4   9
ENDBRANCH   1   3
BRANCH   1  12
HETATM   12  N1  UNL     1       9.648   6.825  40.368  1.00  0.00    -0.404 N 
HETATM   13  C10 UNL     1      10.670   5.891  40.140  1.00  0.00     0.144 C 
BRANCH  12  14
HETATM   14  C11 UNL     1       8.659   6.839  39.380  1.00  0.00     0.079 C 
HETATM   15  C12 UNL     1       8.968   6.206  38.055  1.00  0.00     0.025 C 
HETATM   16  C13 UNL     1       7.975   6.828  37.033  1.00  0.00     0.002 C 
HETATM   17  C14 UNL     1       6.626   6.358  37.452  1.00  0.00     0.000 C 
HETATM   18  C15 UNL     1       6.617   5.594  38.752  1.00  0.00     0.002 C 
HETATM   19  C16 UNL     1       7.322   6.299  39.857  1.00  0.00     0.025 C 
ENDBRANCH  12  14
ENDBRANCH   1  12
TORSDOF 4
ENDMDL
MODEL 4
REMARK VINA RESULT: -5.685132249      3.563      6.045
REMARK  4 active torsions:
REMARK  status: ('A' for Active; 'I' for Inactive)
REMARK    1  A    between atoms: C2_2  and  C3_4 
REMARK    2  A    between atoms: C7_9  and  C8_10 
REMARK    3  A    between atoms: C8_10  and  N1_12 
REMARK    4  A    between atoms: N1_12  and  C11_14 
ROOT
HETATM    1  C8  UNL     1       6.198  12.418  44.635  1.00  0.00     0.116 C 
HETATM    2  C9  UNL     1       7.671  12.405  44.236  1.00  0.00     0.037 C 
ENDROOT
BRANCH   1   3
HETATM    3  C7  UNL     1       5.478  12.630  43.314  1.00  0.00     0.019 A 
HETATM    4  C3  UNL     1       4.596  13.560  42.903  1.00  0.00     0.025 A 
HETATM    5  C4  UNL     1       3.987  13.377  41.707  1.00  0.00     0.030 A 
HETATM    6  C5  UNL     1       4.335  12.247  41.004  1.00  0.00    -0.020 A 
HETATM    7  C6  UNL     1       3.819  11.788  39.649  1.00  0.00     0.056 C 
HETATM    8  S1  UNL     1       5.481  11.495  42.016  1.00  0.00    -0.097 SA
BRANCH   4   9
HETATM    9  C2  UNL     1       4.406  14.841  43.662  1.00  0.00     0.156 C 
HETATM   10  C1  UNL     1       3.504  14.932  44.817  1.00  0.00     0.097 C 
HETATM   11  O1  UNL     1       5.025  15.868  43.311  1.00  0.00    -0.293 OA
ENDBRANCH   4   9
ENDBRANCH   1   3
BRANCH   1  12
HETATM   12  N1  UNL     1       5.774  11.127  45.074  1.00  0.00    -0.404 N 
HETATM   13  C10 UNL     1       4.851  11.162  46.131  1.00  0.00     0.144 C 
BRANCH  12  14
HETATM   14  C11 UNL     1       6.652  10.040  45.120  1.00  0.00     0.079 C 
HETATM   15  C12 UNL     1       6.901   9.383  46.446  1.00  0.00     0.025 C 
HETATM   16  C13 UNL     1       8.255   8.631  46.311  1.00  0.00     0.002 C 
HETATM   17  C14 UNL     1       8.013   7.552  45.313  1.00  0.00     0.000 C 
HETATM   18  C15 UNL     1       6.655   7.610  44.661  1.00  0.00     0.002 C 
HETATM   19  C16 UNL     1       6.319   8.953  44.113  1.00  0.00     0.025 C 
ENDBRANCH  12  14
ENDBRANCH   1  12
TORSDOF 4
ENDMDL
MODEL 5
REMARK VINA RESULT: -5.665593365      2.381      6.088
REMARK  4 active torsions:
REMARK  status: ('A' for Active; 'I' for Inactive)
REMARK    1  A    between atoms: C2_2  and  C3_4 
REMARK    2  A    between atoms: C7_9  and  C8_10 
REMARK    3  A    between atoms: C8_10  and  N1_12 
REMARK    4  A    between atoms: N1_12  and  C11_14 
ROOT
HETATM    1  C8  UNL     1       7.034  10.655  44.559  1.00  0.00     0.116 C 
HETATM    2  C9  UNL     1       8.371  11.172  44.034  1.00  0.00     0.037 C 
ENDROOT
BRANCH   1   3
HETATM    3  C7  UNL     1       6.038  11.686  44.058  1.00  0.00     0.019 A 
HETATM    4  C3  UNL     1       5.026  12.335  44.664  1.00  0.00     0.025 A 
HETATM    5  C4  UNL     1       4.191  13.074  43.895  1.00  0.00     0.030 A 
HETATM    6  C5  UNL     1       4.460  13.104  42.546  1.00  0.00    -0.020 A 
HETATM    7  C6  UNL     1       3.701  13.842  41.454  1.00  0.00     0.056 C 
HETATM    8  S1  UNL     1       5.844  12.121  42.402  1.00  0.00    -0.097 SA
BRANCH   4   9
HETATM    9  C2  UNL     1       4.913  12.376  46.160  1.00  0.00     0.156 C 
HETATM   10  C1  UNL     1       3.635  12.149  46.848  1.00  0.00     0.097 C 
HETATM   11  O1  UNL     1       5.926  12.611  46.854  1.00  0.00    -0.293 OA
ENDBRANCH   4   9
ENDBRANCH   1   3
BRANCH   1  12
HETATM   12  N1  UNL     1       6.660   9.443  43.904  1.00  0.00    -0.404 N 
HETATM   13  C10 UNL     1       5.965   8.544  44.729  1.00  0.00     0.144 C 
BRANCH  12  14
HETATM   14  C11 UNL     1       7.490   8.827  42.964  1.00  0.00     0.079 C 
HETATM   15  C12 UNL     1       8.124   7.516  43.324  1.00  0.00     0.025 C 
HETATM   16  C13 UNL     1       9.357   7.357  42.390  1.00  0.00     0.002 C 
HETATM   17  C14 UNL     1       8.801   7.225  41.015  1.00  0.00     0.000 C 
HETATM   18  C15 UNL     1       7.309   7.428  40.933  1.00  0.00     0.002 C 
HETATM   19  C16 UNL     1       6.845   8.677  41.596  1.00  0.00     0.025 C 
ENDBRANCH  12  14
ENDBRANCH   1  12
TORSDOF 4
ENDMDL
