MODEL 1
REMARK VINA RESULT: -8.360260349      0.000      0.000
REMARK  3 active torsions:
REMARK  status: ('A' for Active; 'I' for Inactive)
REMARK    1  A    between atoms: C10_11  and  C11_12 
REMARK    2  A    between atoms: C12_13  and  O2_14 
REMARK    3  A    between atoms: O2_14  and  C13_15 
ROOT
HETATM    1  C1  UNL     1       6.111  10.397  46.962  1.00  0.00     0.015 C 
HETATM    2  C2  UNL     1       6.188  10.292  45.674  1.00  0.00    -0.077 C 
HETATM    3  C3  UNL     1       6.889   9.027  45.212  1.00  0.00     0.017 C 
HETATM    4  C4  UNL     1       7.962   8.745  46.241  1.00  0.00     0.015 C 
HETATM    5  C5  UNL     1       7.526   9.135  43.870  1.00  0.00     0.087 C 
HETATM    6  C6  UNL     1       6.960   9.959  42.830  1.00  0.00     0.136 C 
HETATM    7  O1  UNL     1       7.773  10.234  41.956  1.00  0.00    -0.297 OA
HETATM    8  C7  UNL     1       5.629  10.601  42.491  1.00  0.00     0.021 C 
HETATM    9  C8  UNL     1       5.020   9.983  41.270  1.00  0.00     0.024 C 
HETATM   10  C9  UNL     1       5.703  12.123  42.406  1.00  0.00     0.055 C 
HETATM   11  C10 UNL     1       4.950  12.876  43.434  1.00  0.00    -0.052 C 
HETATM   12  C15 UNL     1       4.952  12.389  44.724  1.00  0.00    -0.069 C 
HETATM   13  C16 UNL     1       4.207  13.150  45.705  1.00  0.00     0.044 C 
HETATM   14  C17 UNL     1       5.710  11.199  44.748  1.00  0.00     0.044 C 
HETATM   15  C18 UNL     1       4.879  10.340  43.747  1.00  0.00     0.030 C 
ENDROOT
BRANCH  11  16
HETATM   16  C11 UNL     1       4.190  14.121  43.169  1.00  0.00     0.032 C 
HETATM   17  C12 UNL     1       3.713  14.339  41.984  1.00  0.00     0.146 C 
BRANCH  17  18
HETATM   18  O2  UNL     1       2.996  15.427  41.583  1.00  0.00    -0.291 OA
BRANCH  18  19
HETATM   19  C13 UNL     1       2.653  15.882  40.371  1.00  0.00     0.259 C 
HETATM   20  C14 UNL     1       2.454  14.898  39.236  1.00  0.00     0.126 C 
HETATM   21  O3  UNL     1       2.498  17.109  40.178  1.00  0.00    -0.265 OA
ENDBRANCH  18  19
ENDBRANCH  17  18
ENDBRANCH  11  16
TORSDOF 3
ENDMDL
MODEL 2
REMARK VINA RESULT: -8.080037472      2.740      4.793
REMARK  3 active torsions:
REMARK  status: ('A' for Active; 'I' for Inactive)
REMARK    1  A    between atoms: C10_11  and  C11_12 
REMARK    2  A    between atoms: C12_13  and  O2_14 
REMARK    3  A    between atoms: O2_14  and  C13_15 
ROOT
HETATM    1  C1  UNL     1       4.570  12.009  40.115  1.00  0.00     0.015 C 
HETATM    2  C2  UNL     1       4.962  11.808  41.332  1.00  0.00    -0.077 C 
HETATM    3  C3  UNL     1       5.871  10.601  41.482  1.00  0.00     0.017 C 
HETATM    4  C4  UNL     1       5.382   9.583  40.475  1.00  0.00     0.015 C 
HETATM    5  C5  UNL     1       5.852   9.985  42.838  1.00  0.00     0.087 C 
HETATM    6  C6  UNL     1       5.656  10.780  44.026  1.00  0.00     0.136 C 
HETATM    7  O1  UNL     1       5.295  10.109  44.985  1.00  0.00    -0.297 OA
HETATM    8  C7  UNL     1       5.767  12.231  44.448  1.00  0.00     0.021 C 
HETATM    9  C8  UNL     1       6.882  12.432  45.429  1.00  0.00     0.024 C 
HETATM   10  C9  UNL     1       4.443  12.816  44.936  1.00  0.00     0.055 C 
HETATM   11  C10 UNL     1       3.852  13.887  44.103  1.00  0.00    -0.052 C 
HETATM   12  C15 UNL     1       3.935  13.761  42.732  1.00  0.00    -0.069 C 
HETATM   13  C16 UNL     1       3.346  14.825  41.947  1.00  0.00     0.044 C 
HETATM   14  C17 UNL     1       4.628  12.567  42.437  1.00  0.00     0.044 C 
HETATM   15  C18 UNL     1       5.989  12.879  43.129  1.00  0.00     0.030 C 
ENDROOT
BRANCH  11  16
HETATM   16  C11 UNL     1       3.176  15.090  44.644  1.00  0.00     0.032 C 
HETATM   17  C12 UNL     1       3.468  15.506  45.836  1.00  0.00     0.146 C 
BRANCH  17  18
HETATM   18  O2  UNL     1       2.939  16.589  46.473  1.00  0.00    -0.291 OA
BRANCH  18  19
HETATM   19  C13 UNL     1       3.474  17.498  47.298  1.00  0.00     0.259 C 
HETATM   20  C14 UNL     1       4.599  17.087  48.228  1.00  0.00     0.126 C 
HETATM   21  O3  UNL     1       3.048  18.675  47.303  1.00  0.00    -0.265 OA
ENDBRANCH  18  19
ENDBRANCH  17  18
ENDBRANCH  11  16
TORSDOF 3
ENDMDL
MODEL 3
REMARK VINA RESULT: -7.943625735      2.494      4.887
REMARK  3 active torsions:
REMARK  status: ('A' for Active; 'I' for Inactive)
REMARK    1  A    between atoms: C10_11  and  C11_12 
REMARK    2  A    between atoms: C12_13  and  O2_14 
REMARK    3  A    between atoms: O2_14  and  C13_15 
ROOT
HETATM    1  C1  UNL     1       5.152  10.778  45.632  1.00  0.00     0.015 C 
HETATM    2  C2  UNL     1       4.902  11.924  45.085  1.00  0.00    -0.077 C 
HETATM    3  C3  UNL     1       4.663  13.035  46.091  1.00  0.00     0.017 C 
HETATM    4  C4  UNL     1       3.968  12.388  47.270  1.00  0.00     0.015 C 
HETATM    5  C5  UNL     1       3.814  14.149  45.584  1.00  0.00     0.087 C 
HETATM    6  C6  UNL     1       3.841  14.547  44.198  1.00  0.00     0.136 C 
HETATM    7  O1  UNL     1       2.848  15.189  43.876  1.00  0.00    -0.297 OA
HETATM    8  C7  UNL     1       4.752  14.404  42.996  1.00  0.00     0.021 C 
HETATM    9  C8  UNL     1       5.331  15.725  42.588  1.00  0.00     0.024 C 
HETATM   10  C9  UNL     1       4.095  13.666  41.831  1.00  0.00     0.055 C 
HETATM   11  C10 UNL     1       4.672  12.349  41.480  1.00  0.00    -0.052 C 
HETATM   12  C15 UNL     1       5.074  11.523  42.508  1.00  0.00    -0.069 C 
HETATM   13  C16 UNL     1       5.632  10.242  42.130  1.00  0.00     0.044 C 
HETATM   14  C17 UNL     1       4.837  12.188  43.730  1.00  0.00     0.044 C 
HETATM   15  C18 UNL     1       5.748  13.437  43.527  1.00  0.00     0.030 C 
ENDROOT
BRANCH  11  16
HETATM   16  C11 UNL     1       4.849  11.857  40.093  1.00  0.00     0.032 C 
HETATM   17  C12 UNL     1       3.807  11.546  39.386  1.00  0.00     0.146 C 
BRANCH  17  18
HETATM   18  O2  UNL     1       3.801  11.083  38.104  1.00  0.00    -0.291 OA
BRANCH  18  19
HETATM   19  C13 UNL     1       4.600  10.229  37.452  1.00  0.00     0.259 C 
HETATM   20  C14 UNL     1       4.703   8.795  37.931  1.00  0.00     0.126 C 
HETATM   21  O3  UNL     1       5.255  10.611  36.456  1.00  0.00    -0.265 OA
ENDBRANCH  18  19
ENDBRANCH  17  18
ENDBRANCH  11  16
TORSDOF 3
ENDMDL
MODEL 4
REMARK VINA RESULT: -7.880033499      2.181      3.898
REMARK  3 active torsions:
REMARK  status: ('A' for Active; 'I' for Inactive)
REMARK    1  A    between atoms: C10_11  and  C11_12 
REMARK    2  A    between atoms: C12_13  and  O2_14 
REMARK    3  A    between atoms: O2_14  and  C13_15 
ROOT
HETATM    1  C1  UNL     1       5.921  10.314  43.806  1.00  0.00     0.015 C 
HETATM    2  C2  UNL     1       5.503  11.514  44.049  1.00  0.00    -0.077 C 
HETATM    3  C3  UNL     1       5.721  11.949  45.487  1.00  0.00     0.017 C 
HETATM    4  C4  UNL     1       5.542  10.706  46.331  1.00  0.00     0.015 C 
HETATM    5  C5  UNL     1       4.772  12.994  45.962  1.00  0.00     0.087 C 
HETATM    6  C6  UNL     1       4.249  14.001  45.070  1.00  0.00     0.136 C 
HETATM    7  O1  UNL     1       3.230  14.525  45.502  1.00  0.00    -0.297 OA
HETATM    8  C7  UNL     1       4.595  14.615  43.729  1.00  0.00     0.021 C 
HETATM    9  C8  UNL     1       4.999  16.050  43.872  1.00  0.00     0.024 C 
HETATM   10  C9  UNL     1       3.505  14.413  42.679  1.00  0.00     0.055 C 
HETATM   11  C10 UNL     1       3.853  13.551  41.527  1.00  0.00    -0.052 C 
HETATM   12  C15 UNL     1       4.612  12.424  41.767  1.00  0.00    -0.069 C 
HETATM   13  C16 UNL     1       4.934  11.603  40.620  1.00  0.00     0.044 C 
HETATM   14  C17 UNL     1       4.907  12.374  43.147  1.00  0.00     0.044 C 
HETATM   15  C18 UNL     1       5.693  13.711  43.295  1.00  0.00     0.030 C 
ENDROOT
BRANCH  11  16
HETATM   16  C11 UNL     1       3.443  13.818  40.128  1.00  0.00     0.032 C 
HETATM   17  C12 UNL     1       2.807  14.913  39.846  1.00  0.00     0.146 C 
BRANCH  17  18
HETATM   18  O2  UNL     1       2.366  15.303  38.617  1.00  0.00    -0.291 OA
BRANCH  18  19
HETATM   19  C13 UNL     1       2.646  16.369  37.857  1.00  0.00     0.259 C 
HETATM   20  C14 UNL     1       2.375  16.311  36.366  1.00  0.00     0.126 C 
HETATM   21  O3  UNL     1       3.128  17.403  38.371  1.00  0.00    -0.265 OA
ENDBRANCH  18  19
ENDBRANCH  17  18
ENDBRANCH  11  16
TORSDOF 3
ENDMDL
MODEL 5
REMARK VINA RESULT: -7.856948648      2.937      6.809
REMARK  3 active torsions:
REMARK  status: ('A' for Active; 'I' for Inactive)
REMARK    1  A    between atoms: C10_11  and  C11_12 
REMARK    2  A    between atoms: C12_13  and  O2_14 
REMARK    3  A    between atoms: O2_14  and  C13_15 
ROOT
HETATM    1  C1  UNL     1       3.967  13.366  41.353  1.00  0.00     0.015 C 
HETATM    2  C2  UNL     1       4.647  12.653  42.193  1.00  0.00    -0.077 C 
HETATM    3  C3  UNL     1       4.502  13.115  43.631  1.00  0.00     0.017 C 
HETATM    4  C4  UNL     1       4.366  14.621  43.575  1.00  0.00     0.015 C 
HETATM    5  C5  UNL     1       5.657  12.768  44.506  1.00  0.00     0.087 C 
HETATM    6  C6  UNL     1       6.421  11.561  44.303  1.00  0.00     0.136 C 
HETATM    7  O1  UNL     1       7.524  11.611  44.834  1.00  0.00    -0.297 OA
HETATM    8  C7  UNL     1       6.260  10.221  43.614  1.00  0.00     0.021 C 
HETATM    9  C8  UNL     1       6.199   9.100  44.606  1.00  0.00     0.024 C 
HETATM   10  C9  UNL     1       7.298   9.982  42.520  1.00  0.00     0.055 C 
HETATM   11  C10 UNL     1       6.786   9.909  41.133  1.00  0.00    -0.052 C 
HETATM   12  C15 UNL     1       5.780  10.779  40.768  1.00  0.00    -0.069 C 
HETATM   13  C16 UNL     1       5.303  10.681  39.405  1.00  0.00     0.044 C 
HETATM   14  C17 UNL     1       5.449  11.571  41.888  1.00  0.00     0.044 C 
HETATM   15  C18 UNL     1       4.993  10.451  42.873  1.00  0.00     0.030 C 
ENDROOT
BRANCH  11  16
HETATM   16  C11 UNL     1       7.281   8.959  40.108  1.00  0.00     0.032 C 
HETATM   17  C12 UNL     1       8.461   8.438  40.236  1.00  0.00     0.146 C 
BRANCH  17  18
HETATM   18  O2  UNL     1       9.057   7.554  39.386  1.00  0.00    -0.291 OA
BRANCH  18  19
HETATM   19  C13 UNL     1       9.979   6.603  39.578  1.00  0.00     0.259 C 
HETATM   20  C14 UNL     1      10.973   6.749  40.713  1.00  0.00     0.126 C 
HETATM   21  O3  UNL     1      10.021   5.602  38.828  1.00  0.00    -0.265 OA
ENDBRANCH  18  19
ENDBRANCH  17  18
ENDBRANCH  11  16
TORSDOF 3
ENDMDL
