MODEL 1
REMARK VINA RESULT: -6.304527870      0.000      0.000
REMARK  4 active torsions:
REMARK  status: ('A' for Active; 'I' for Inactive)
REMARK    1  A    between atoms: C3_3  and  C4_4 
REMARK    2  A    between atoms: C11_12  and  O2_13 
REMARK    3  A    between atoms: O2_13  and  C12_14 
REMARK    4  A    between atoms: C12_14  and  C13_16 
ROOT
HETATM    1  C1  UNL     1       5.016  10.355  45.100  1.00  0.00     0.017 C 
HETATM    2  C2  UNL     1       5.658  10.175  43.969  1.00  0.00    -0.049 C 
HETATM    3  C3  UNL     1       5.516  11.038  42.719  1.00  0.00     0.174 C 
HETATM    4  O1  UNL     1       6.752  10.953  42.072  1.00  0.00    -0.366 OA
HETATM    5  C7  UNL     1       7.626  10.248  42.927  1.00  0.00     0.067 C 
HETATM    6  C8  UNL     1       8.077  11.257  43.952  1.00  0.00     0.047 C 
HETATM    7  C9  UNL     1       8.740   9.591  42.237  1.00  0.00     0.041 C 
HETATM    8  C10 UNL     1       8.995   8.174  42.444  1.00  0.00     0.036 C 
HETATM    9  C11 UNL     1       8.054   7.363  43.279  1.00  0.00     0.140 C 
HETATM   10  C15 UNL     1       7.203   8.160  44.236  1.00  0.00    -0.011 C 
HETATM   11  C16 UNL     1       6.119   7.209  44.717  1.00  0.00     0.018 C 
HETATM   12  C17 UNL     1       8.016   8.524  45.440  1.00  0.00     0.018 C 
HETATM   13  C18 UNL     1       6.643   9.232  43.455  1.00  0.00     0.061 C 
ENDROOT
BRANCH   9  14
HETATM   14  O2  UNL     1       7.147   6.699  42.412  1.00  0.00    -0.315 OA
BRANCH  14  15
HETATM   15  C12 UNL     1       7.553   5.921  41.350  1.00  0.00     0.258 C 
HETATM   16  O3  UNL     1       8.464   5.093  41.515  1.00  0.00    -0.265 OA
BRANCH  15  17
HETATM   17  C13 UNL     1       6.889   6.105  40.030  1.00  0.00     0.106 C 
HETATM   18  C14 UNL     1       6.437   7.572  40.019  1.00  0.00     0.015 C 
ENDBRANCH  15  17
ENDBRANCH  14  15
ENDBRANCH   9  14
BRANCH   3  19
HETATM   19  C4  UNL     1       5.095  12.392  43.011  1.00  0.00     0.005 C 
HETATM   20  C5  UNL     1       4.494  13.129  42.090  1.00  0.00    -0.032 C 
HETATM   21  C6  UNL     1       4.213  12.631  40.721  1.00  0.00     0.036 C 
ENDBRANCH   3  19
TORSDOF 4
ENDMDL
MODEL 2
REMARK VINA RESULT: -6.252983131      2.148      4.477
REMARK  4 active torsions:
REMARK  status: ('A' for Active; 'I' for Inactive)
REMARK    1  A    between atoms: C3_3  and  C4_4 
REMARK    2  A    between atoms: C11_12  and  O2_13 
REMARK    3  A    between atoms: O2_13  and  C12_14 
REMARK    4  A    between atoms: C12_14  and  C13_16 
ROOT
HETATM    1  C1  UNL     1       9.100   9.427  38.917  1.00  0.00     0.017 C 
HETATM    2  C2  UNL     1       8.381   8.931  39.896  1.00  0.00    -0.049 C 
HETATM    3  C3  UNL     1       6.942   9.318  40.226  1.00  0.00     0.174 C 
HETATM    4  O1  UNL     1       6.380   8.178  40.808  1.00  0.00    -0.366 OA
HETATM    5  C7  UNL     1       7.326   7.137  40.692  1.00  0.00     0.067 C 
HETATM    6  C8  UNL     1       7.198   6.643  39.273  1.00  0.00     0.047 C 
HETATM    7  C9  UNL     1       7.173   6.073  41.688  1.00  0.00     0.041 C 
HETATM    8  C10 UNL     1       8.306   5.668  42.505  1.00  0.00     0.036 C 
HETATM    9  C11 UNL     1       9.602   6.410  42.401  1.00  0.00     0.140 C 
HETATM   10  C15 UNL     1       9.788   7.191  41.124  1.00  0.00    -0.011 C 
HETATM   11  C16 UNL     1      10.973   8.111  41.371  1.00  0.00     0.018 C 
HETATM   12  C17 UNL     1      10.193   6.258  40.026  1.00  0.00     0.018 C 
HETATM   13  C18 UNL     1       8.574   7.945  40.951  1.00  0.00     0.061 C 
ENDROOT
BRANCH   9  14
HETATM   14  O2  UNL     1       9.654   7.364  43.452  1.00  0.00    -0.315 OA
BRANCH  14  15
HETATM   15  C12 UNL     1       9.015   7.190  44.660  1.00  0.00     0.258 C 
HETATM   16  O3  UNL     1       9.584   6.553  45.563  1.00  0.00    -0.265 OA
BRANCH  15  17
HETATM   17  C13 UNL     1       7.655   7.765  44.843  1.00  0.00     0.106 C 
HETATM   18  C14 UNL     1       7.732   9.163  44.212  1.00  0.00     0.015 C 
ENDBRANCH  15  17
ENDBRANCH  14  15
ENDBRANCH   9  14
BRANCH   3  19
HETATM   19  C4  UNL     1       6.212   9.814  39.078  1.00  0.00     0.005 C 
HETATM   20  C5  UNL     1       5.356  10.817  39.199  1.00  0.00    -0.032 C 
HETATM   21  C6  UNL     1       5.090  11.492  40.493  1.00  0.00     0.036 C 
ENDBRANCH   3  19
TORSDOF 4
ENDMDL
MODEL 3
REMARK VINA RESULT: -6.183011242      2.465      5.096
REMARK  4 active torsions:
REMARK  status: ('A' for Active; 'I' for Inactive)
REMARK    1  A    between atoms: C3_3  and  C4_4 
REMARK    2  A    between atoms: C11_12  and  O2_13 
REMARK    3  A    between atoms: O2_13  and  C12_14 
REMARK    4  A    between atoms: C12_14  and  C13_16 
ROOT
HETATM    1  C1  UNL     1       8.382   8.328  38.548  1.00  0.00     0.017 C 
HETATM    2  C2  UNL     1       7.883   7.706  39.590  1.00  0.00    -0.049 C 
HETATM    3  C3  UNL     1       6.441   7.229  39.734  1.00  0.00     0.174 C 
HETATM    4  O1  UNL     1       6.504   6.116  40.577  1.00  0.00    -0.366 OA
HETATM    5  C7  UNL     1       7.870   5.831  40.795  1.00  0.00     0.067 C 
HETATM    6  C8  UNL     1       8.321   5.093  39.561  1.00  0.00     0.047 C 
HETATM    7  C9  UNL     1       8.140   5.100  42.035  1.00  0.00     0.041 C 
HETATM    8  C10 UNL     1       9.119   5.605  42.985  1.00  0.00     0.036 C 
HETATM    9  C11 UNL     1       9.774   6.930  42.744  1.00  0.00     0.140 C 
HETATM   10  C15 UNL     1       9.743   7.404  41.312  1.00  0.00    -0.011 C 
HETATM   11  C16 UNL     1      10.141   8.871  41.355  1.00  0.00     0.018 C 
HETATM   12  C17 UNL     1      10.806   6.696  40.531  1.00  0.00     0.018 C 
HETATM   13  C18 UNL     1       8.378   7.250  40.883  1.00  0.00     0.061 C 
ENDROOT
BRANCH   9  14
HETATM   14  O2  UNL     1       9.079   7.914  43.496  1.00  0.00    -0.315 OA
BRANCH  14  15
HETATM   15  C12 UNL     1       8.429   7.638  44.679  1.00  0.00     0.258 C 
HETATM   16  O3  UNL     1       9.096   7.325  45.680  1.00  0.00    -0.265 OA
BRANCH  15  17
HETATM   17  C13 UNL     1       6.943   7.717  44.718  1.00  0.00     0.106 C 
HETATM   18  C14 UNL     1       6.584   8.836  43.730  1.00  0.00     0.015 C 
ENDBRANCH  15  17
ENDBRANCH  14  15
ENDBRANCH   9  14
BRANCH   3  19
HETATM   19  C4  UNL     1       5.802   6.966  38.461  1.00  0.00     0.005 C 
HETATM   20  C5  UNL     1       4.711   7.623  38.101  1.00  0.00    -0.032 C 
HETATM   21  C6  UNL     1       4.076   8.655  38.957  1.00  0.00     0.036 C 
ENDBRANCH   3  19
TORSDOF 4
ENDMDL
MODEL 4
REMARK VINA RESULT: -6.060698044      2.678      5.091
REMARK  4 active torsions:
REMARK  status: ('A' for Active; 'I' for Inactive)
REMARK    1  A    between atoms: C3_3  and  C4_4 
REMARK    2  A    between atoms: C11_12  and  O2_13 
REMARK    3  A    between atoms: O2_13  and  C12_14 
REMARK    4  A    between atoms: C12_14  and  C13_16 
ROOT
HETATM    1  C1  UNL     1       7.401   9.361  39.037  1.00  0.00     0.017 C 
HETATM    2  C2  UNL     1       7.373   8.208  39.662  1.00  0.00    -0.049 C 
HETATM    3  C3  UNL     1       6.428   7.051  39.352  1.00  0.00     0.174 C 
HETATM    4  O1  UNL     1       7.128   5.897  39.717  1.00  0.00    -0.366 OA
HETATM    5  C7  UNL     1       8.440   6.292  40.058  1.00  0.00     0.067 C 
HETATM    6  C8  UNL     1       9.153   6.473  38.742  1.00  0.00     0.047 C 
HETATM    7  C9  UNL     1       9.128   5.368  40.964  1.00  0.00     0.041 C 
HETATM    8  C10 UNL     1       9.726   5.860  42.195  1.00  0.00     0.036 C 
HETATM    9  C11 UNL     1       9.547   7.293  42.588  1.00  0.00     0.140 C 
HETATM   10  C15 UNL     1       9.189   8.224  41.457  1.00  0.00    -0.011 C 
HETATM   11  C16 UNL     1       8.732   9.516  42.114  1.00  0.00     0.018 C 
HETATM   12  C17 UNL     1      10.423   8.555  40.676  1.00  0.00     0.018 C 
HETATM   13  C18 UNL     1       8.104   7.586  40.759  1.00  0.00     0.061 C 
ENDROOT
BRANCH   9  14
HETATM   14  O2  UNL     1       8.471   7.371  43.512  1.00  0.00    -0.315 OA
BRANCH  14  15
HETATM   15  C12 UNL     1       8.653   7.450  44.875  1.00  0.00     0.258 C 
HETATM   16  O3  UNL     1       9.474   6.695  45.424  1.00  0.00    -0.265 OA
BRANCH  15  17
HETATM   17  C13 UNL     1       7.852   8.436  45.651  1.00  0.00     0.106 C 
HETATM   18  C14 UNL     1       6.467   8.423  44.989  1.00  0.00     0.015 C 
ENDBRANCH  15  17
ENDBRANCH  14  15
ENDBRANCH   9  14
BRANCH   3  19
HETATM   19  C4  UNL     1       5.967   7.049  37.979  1.00  0.00     0.005 C 
HETATM   20  C5  UNL     1       4.690   7.248  37.692  1.00  0.00    -0.032 C 
HETATM   21  C6  UNL     1       3.661   7.482  38.734  1.00  0.00     0.036 C 
ENDBRANCH   3  19
TORSDOF 4
ENDMDL
MODEL 5
REMARK VINA RESULT: -5.911581484      2.376      4.454
REMARK  4 active torsions:
REMARK  status: ('A' for Active; 'I' for Inactive)
REMARK    1  A    between atoms: C3_3  and  C4_4 
REMARK    2  A    between atoms: C11_12  and  O2_13 
REMARK    3  A    between atoms: O2_13  and  C12_14 
REMARK    4  A    between atoms: C12_14  and  C13_16 
ROOT
HETATM    1  C1  UNL     1       7.066   5.742  43.568  1.00  0.00     0.017 C 
HETATM    2  C2  UNL     1       7.568   6.822  43.018  1.00  0.00    -0.049 C 
HETATM    3  C3  UNL     1       7.772   8.163  43.716  1.00  0.00     0.174 C 
HETATM    4  O1  UNL     1       8.863   8.751  43.069  1.00  0.00    -0.366 OA
HETATM    5  C7  UNL     1       9.388   7.793  42.175  1.00  0.00     0.067 C 
HETATM    6  C8  UNL     1      10.218   6.869  43.029  1.00  0.00     0.047 C 
HETATM    7  C9  UNL     1      10.135   8.367  41.053  1.00  0.00     0.041 C 
HETATM    8  C10 UNL     1       9.800   7.998  39.686  1.00  0.00     0.036 C 
HETATM    9  C11 UNL     1       8.621   7.114  39.422  1.00  0.00     0.140 C 
HETATM   10  C15 UNL     1       8.174   6.281  40.597  1.00  0.00    -0.011 C 
HETATM   11  C16 UNL     1       6.804   5.740  40.222  1.00  0.00     0.018 C 
HETATM   12  C17 UNL     1       9.077   5.096  40.739  1.00  0.00     0.018 C 
HETATM   13  C18 UNL     1       8.085   7.194  41.707  1.00  0.00     0.061 C 
ENDROOT
BRANCH   9  14
HETATM   14  O2  UNL     1       7.514   7.936  39.083  1.00  0.00    -0.315 OA
BRANCH  14  15
HETATM   15  C12 UNL     1       7.619   9.044  38.270  1.00  0.00     0.258 C 
HETATM   16  O3  UNL     1       7.968   8.899  37.086  1.00  0.00    -0.265 OA
BRANCH  15  17
HETATM   17  C13 UNL     1       7.317  10.385  38.841  1.00  0.00     0.106 C 
HETATM   18  C14 UNL     1       6.534  10.096  40.129  1.00  0.00     0.015 C 
ENDBRANCH  15  17
ENDBRANCH  14  15
ENDBRANCH   9  14
BRANCH   3  19
HETATM   19  C4  UNL     1       7.936   8.036  45.149  1.00  0.00     0.005 C 
HETATM   20  C5  UNL     1       7.436   8.943  45.973  1.00  0.00    -0.032 C 
HETATM   21  C6  UNL     1       6.686  10.132  45.497  1.00  0.00     0.036 C 
ENDBRANCH   3  19
TORSDOF 4
ENDMDL
