MODEL 1
REMARK VINA RESULT: -7.690383017      0.000      0.000
REMARK  3 active torsions:
REMARK  status: ('A' for Active; 'I' for Inactive)
REMARK    1  A    between atoms: C2_2  and  C3_4 
REMARK    2  A    between atoms: C3_4  and  C4_5 
REMARK    3  A    between atoms: C4_5  and  C5_6 
ROOT
HETATM    1  C5  UNL     1       7.062  10.183  45.156  1.00  0.00     0.111 C 
HETATM    2  C6  UNL     1       6.878   9.378  46.425  1.00  0.00     0.054 C 
HETATM    3  C7  UNL     1       6.118   9.612  44.147  1.00  0.00     0.012 C 
HETATM    4  C8  UNL     1       6.513   9.165  42.969  1.00  0.00     0.013 C 
HETATM    5  C9  UNL     1       7.962   9.225  42.616  1.00  0.00     0.115 C 
HETATM    6  C10 UNL     1       8.632   7.957  43.043  1.00  0.00     0.050 C 
HETATM    7  C11 UNL     1       8.414   6.823  42.104  1.00  0.00    -0.015 C 
HETATM    8  C12 UNL     1       9.339   5.687  42.510  1.00  0.00     0.010 C 
HETATM    9  C13 UNL     1       8.530   7.172  40.664  1.00  0.00     0.013 C 
HETATM   10  C14 UNL     1       8.980   8.586  40.409  1.00  0.00    -0.044 C 
HETATM   11  C15 UNL     1      10.476   8.757  40.592  1.00  0.00     0.015 C 
HETATM   12  C16 UNL     1       8.711   8.856  38.921  1.00  0.00     0.015 C 
HETATM   13  C17 UNL     1       8.187   9.586  41.183  1.00  0.00     0.054 C 
HETATM   14  O2  UNL     1       8.494  10.260  43.421  1.00  0.00    -0.224 OA
HETATM   15  O3  UNL     1       8.345   9.965  44.693  1.00  0.00    -0.225 OA
ENDROOT
BRANCH   1  16
HETATM   16  C4  UNL     1       6.760  11.644  45.371  1.00  0.00     0.052 C 
BRANCH  16  17
HETATM   17  C3  UNL     1       5.317  11.981  45.279  1.00  0.00     0.081 C 
BRANCH  17  18
HETATM   18  C2  UNL     1       4.791  12.367  46.615  1.00  0.00     0.123 C 
HETATM   19  C1  UNL     1       3.320  12.254  46.932  1.00  0.00     0.091 C 
HETATM   20  O1  UNL     1       5.556  12.774  47.455  1.00  0.00    -0.298 OA
ENDBRANCH  17  18
ENDBRANCH  16  17
ENDBRANCH   1  16
TORSDOF 3
ENDMDL
MODEL 2
REMARK VINA RESULT: -7.397475216      0.881      1.209
REMARK  3 active torsions:
REMARK  status: ('A' for Active; 'I' for Inactive)
REMARK    1  A    between atoms: C2_2  and  C3_4 
REMARK    2  A    between atoms: C3_4  and  C4_5 
REMARK    3  A    between atoms: C4_5  and  C5_6 
ROOT
HETATM    1  C5  UNL     1       6.970  10.191  45.209  1.00  0.00     0.111 C 
HETATM    2  C6  UNL     1       6.792   9.391  46.483  1.00  0.00     0.054 C 
HETATM    3  C7  UNL     1       6.061   9.580  44.190  1.00  0.00     0.012 C 
HETATM    4  C8  UNL     1       6.490   9.138  43.023  1.00  0.00     0.013 C 
HETATM    5  C9  UNL     1       7.943   9.244  42.693  1.00  0.00     0.115 C 
HETATM    6  C10 UNL     1       8.648   8.003  43.142  1.00  0.00     0.050 C 
HETATM    7  C11 UNL     1       8.484   6.854  42.209  1.00  0.00    -0.015 C 
HETATM    8  C12 UNL     1       9.440   5.754  42.640  1.00  0.00     0.010 C 
HETATM    9  C13 UNL     1       8.611   7.195  40.768  1.00  0.00     0.013 C 
HETATM   10  C14 UNL     1       9.017   8.622  40.508  1.00  0.00    -0.044 C 
HETATM   11  C15 UNL     1      10.503   8.845  40.714  1.00  0.00     0.015 C 
HETATM   12  C16 UNL     1       8.763   8.870  39.013  1.00  0.00     0.015 C 
HETATM   13  C17 UNL     1       8.178   9.600  41.260  1.00  0.00     0.054 C 
HETATM   14  O2  UNL     1       8.426  10.303  43.497  1.00  0.00    -0.224 OA
HETATM   15  O3  UNL     1       8.266  10.014  44.769  1.00  0.00    -0.225 OA
ENDROOT
BRANCH   1  16
HETATM   16  C4  UNL     1       6.615  11.643  45.407  1.00  0.00     0.052 C 
BRANCH  16  17
HETATM   17  C3  UNL     1       5.168  11.884  45.641  1.00  0.00     0.081 C 
BRANCH  17  18
HETATM   18  C2  UNL     1       4.687  13.003  44.789  1.00  0.00     0.123 C 
HETATM   19  C1  UNL     1       5.066  13.087  43.331  1.00  0.00     0.091 C 
HETATM   20  O1  UNL     1       3.984  13.855  45.276  1.00  0.00    -0.298 OA
ENDBRANCH  17  18
ENDBRANCH  16  17
ENDBRANCH   1  16
TORSDOF 3
ENDMDL
MODEL 3
REMARK VINA RESULT: -7.393201335      2.247      2.661
REMARK  3 active torsions:
REMARK  status: ('A' for Active; 'I' for Inactive)
REMARK    1  A    between atoms: C2_2  and  C3_4 
REMARK    2  A    between atoms: C3_4  and  C4_5 
REMARK    3  A    between atoms: C4_5  and  C5_6 
ROOT
HETATM    1  C5  UNL     1       6.125  12.025  44.317  1.00  0.00     0.111 C 
HETATM    2  C6  UNL     1       6.136  12.242  45.815  1.00  0.00     0.054 C 
HETATM    3  C7  UNL     1       5.129  10.941  44.050  1.00  0.00     0.012 C 
HETATM    4  C8  UNL     1       5.435   9.832  43.403  1.00  0.00     0.013 C 
HETATM    5  C9  UNL     1       6.832   9.638  42.911  1.00  0.00     0.115 C 
HETATM    6  C10 UNL     1       7.640   8.949  43.965  1.00  0.00     0.050 C 
HETATM    7  C11 UNL     1       7.418   7.479  44.021  1.00  0.00    -0.015 C 
HETATM    8  C12 UNL     1       8.467   6.875  44.940  1.00  0.00     0.010 C 
HETATM    9  C13 UNL     1       7.356   6.804  42.697  1.00  0.00     0.013 C 
HETATM   10  C14 UNL     1       7.664   7.707  41.532  1.00  0.00    -0.044 C 
HETATM   11  C15 UNL     1       9.152   7.947  41.366  1.00  0.00     0.015 C 
HETATM   12  C16 UNL     1       7.222   6.945  40.274  1.00  0.00     0.015 C 
HETATM   13  C17 UNL     1       6.878   8.976  41.571  1.00  0.00     0.054 C 
HETATM   14  O2  UNL     1       7.360  10.943  42.777  1.00  0.00    -0.224 OA
HETATM   15  O3  UNL     1       7.366  11.550  43.943  1.00  0.00    -0.225 OA
ENDROOT
BRANCH   1  16
HETATM   16  C4  UNL     1       5.731  13.275  43.573  1.00  0.00     0.052 C 
BRANCH  16  17
HETATM   17  C3  UNL     1       4.340  13.255  43.052  1.00  0.00     0.081 C 
BRANCH  17  18
HETATM   18  C2  UNL     1       3.621  14.493  43.454  1.00  0.00     0.123 C 
HETATM   19  C1  UNL     1       3.545  14.910  44.903  1.00  0.00     0.091 C 
HETATM   20  O1  UNL     1       3.093  15.169  42.606  1.00  0.00    -0.298 OA
ENDBRANCH  17  18
ENDBRANCH  16  17
ENDBRANCH   1  16
TORSDOF 3
ENDMDL
MODEL 4
REMARK VINA RESULT: -7.331795984      1.463      2.824
REMARK  3 active torsions:
REMARK  status: ('A' for Active; 'I' for Inactive)
REMARK    1  A    between atoms: C2_2  and  C3_4 
REMARK    2  A    between atoms: C3_4  and  C4_5 
REMARK    3  A    between atoms: C4_5  and  C5_6 
ROOT
HETATM    1  C5  UNL     1       5.688  11.348  43.485  1.00  0.00     0.111 C 
HETATM    2  C6  UNL     1       5.331  12.552  42.638  1.00  0.00     0.054 C 
HETATM    3  C7  UNL     1       7.130  11.496  43.852  1.00  0.00     0.012 C 
HETATM    4  C8  UNL     1       8.034  10.572  43.585  1.00  0.00     0.013 C 
HETATM    5  C9  UNL     1       7.613   9.321  42.887  1.00  0.00     0.115 C 
HETATM    6  C10 UNL     1       7.734   9.512  41.408  1.00  0.00     0.050 C 
HETATM    7  C11 UNL     1       9.127   9.368  40.901  1.00  0.00    -0.015 C 
HETATM    8  C12 UNL     1       9.076   9.330  39.382  1.00  0.00     0.010 C 
HETATM    9  C13 UNL     1       9.890   8.232  41.480  1.00  0.00     0.013 C 
HETATM   10  C14 UNL     1       9.076   7.341  42.381  1.00  0.00    -0.044 C 
HETATM   11  C15 UNL     1       8.196   6.382  41.602  1.00  0.00     0.015 C 
HETATM   12  C16 UNL     1      10.085   6.461  43.134  1.00  0.00     0.015 C 
HETATM   13  C17 UNL     1       8.318   8.111  43.410  1.00  0.00     0.054 C 
HETATM   14  O2  UNL     1       6.234   9.187  43.171  1.00  0.00    -0.224 OA
HETATM   15  O3  UNL     1       5.573  10.221  42.697  1.00  0.00    -0.225 OA
ENDROOT
BRANCH   1  16
HETATM   16  C4  UNL     1       4.847  11.275  44.734  1.00  0.00     0.052 C 
BRANCH  16  17
HETATM   17  C3  UNL     1       5.622  11.421  45.992  1.00  0.00     0.081 C 
BRANCH  17  18
HETATM   18  C2  UNL     1       4.887  12.287  46.953  1.00  0.00     0.123 C 
HETATM   19  C1  UNL     1       3.918  13.337  46.467  1.00  0.00     0.091 C 
HETATM   20  O1  UNL     1       5.071  12.142  48.137  1.00  0.00    -0.298 OA
ENDBRANCH  17  18
ENDBRANCH  16  17
ENDBRANCH   1  16
TORSDOF 3
ENDMDL
MODEL 5
REMARK VINA RESULT: -7.219003169      2.715      6.329
REMARK  3 active torsions:
REMARK  status: ('A' for Active; 'I' for Inactive)
REMARK    1  A    between atoms: C2_2  and  C3_4 
REMARK    2  A    between atoms: C3_4  and  C4_5 
REMARK    3  A    between atoms: C4_5  and  C5_6 
ROOT
HETATM    1  C5  UNL     1       6.974   9.695  43.386  1.00  0.00     0.111 C 
HETATM    2  C6  UNL     1       7.091   8.781  42.184  1.00  0.00     0.054 C 
HETATM    3  C7  UNL     1       5.529   9.709  43.772  1.00  0.00     0.012 C 
HETATM    4  C8  UNL     1       4.823  10.821  43.863  1.00  0.00     0.013 C 
HETATM    5  C9  UNL     1       5.483  12.128  43.570  1.00  0.00     0.115 C 
HETATM    6  C10 UNL     1       5.333  12.447  42.116  1.00  0.00     0.050 C 
HETATM    7  C11 UNL     1       3.997  13.001  41.763  1.00  0.00    -0.015 C 
HETATM    8  C12 UNL     1       4.059  13.513  40.333  1.00  0.00     0.010 C 
HETATM    9  C13 UNL     1       3.468  14.014  42.713  1.00  0.00     0.013 C 
HETATM   10  C14 UNL     1       4.437  14.402  43.799  1.00  0.00    -0.044 C 
HETATM   11  C15 UNL     1       5.490  15.378  43.311  1.00  0.00     0.015 C 
HETATM   12  C16 UNL     1       3.616  15.166  44.849  1.00  0.00     0.015 C 
HETATM   13  C17 UNL     1       5.027  13.216  44.488  1.00  0.00     0.054 C 
HETATM   14  O2  UNL     1       6.861  11.904  43.800  1.00  0.00    -0.224 OA
HETATM   15  O3  UNL     1       7.309  10.973  42.988  1.00  0.00    -0.225 OA
ENDROOT
BRANCH   1  16
HETATM   16  C4  UNL     1       7.808   9.207  44.543  1.00  0.00     0.052 C 
BRANCH  16  17
HETATM   17  C3  UNL     1       7.476   7.829  44.987  1.00  0.00     0.081 C 
BRANCH  17  18
HETATM   18  C2  UNL     1       8.674   6.953  44.888  1.00  0.00     0.123 C 
HETATM   19  C1  UNL     1       8.937   6.138  43.645  1.00  0.00     0.091 C 
HETATM   20  O1  UNL     1       9.443   6.898  45.816  1.00  0.00    -0.298 OA
ENDBRANCH  17  18
ENDBRANCH  16  17
ENDBRANCH   1  16
TORSDOF 3
ENDMDL
