MODEL 1
REMARK VINA RESULT: -8.237826469      0.000      0.000
REMARK  11 active torsions:
REMARK  status: ('A' for Active; 'I' for Inactive)
REMARK    1  A    between atoms: C2_2  and  C3_3 
REMARK    2  A    between atoms: C3_3  and  C4_4 
REMARK    3  A    between atoms: C4_4  and  C5_5 
REMARK    4  A    between atoms: C5_5  and  O2_7 
REMARK    5  A    between atoms: O2_7  and  C6_8 
REMARK    6  A    between atoms: C6_8  and  C7_9 
REMARK    7  A    between atoms: C11_13  and  O3_15 
REMARK    8  A    between atoms: C17_21  and  O4_22 
REMARK    9  A    between atoms: O4_22  and  C18_23 
REMARK   10  A    between atoms: C18_23  and  C19_25 
REMARK   11  A    between atoms: C22_28  and  O6_29 
ROOT
HETATM    1  C7  UNL     1      32.153  46.765   0.606  1.00  0.00    -0.027 C 
HETATM    2  C8  UNL     1      32.686  47.072  -0.586  1.00  0.00    -0.019 C 
HETATM    3  C9  UNL     1      31.979  46.913  -1.885  1.00  0.00     0.030 C 
HETATM    4  C10 UNL     1      30.656  47.597  -1.855  1.00  0.00     0.046 C 
HETATM    5  C11 UNL     1      29.566  46.730  -1.173  1.00  0.00     0.081 C 
HETATM    6  C12 UNL     1      28.289  47.187  -1.805  1.00  0.00     0.051 C 
HETATM    7  C13 UNL     1      29.667  46.934   0.280  1.00  0.00    -0.013 C 
HETATM    8  C14 UNL     1      28.499  46.868   1.148  1.00  0.00     0.014 C 
HETATM    9  C15 UNL     1      27.592  46.023   1.503  1.00  0.00    -0.054 C 
HETATM   10  C16 UNL     1      26.570  46.597   2.517  1.00  0.00     0.046 C 
HETATM   11  C17 UNL     1      27.262  44.631   1.185  1.00  0.00     0.163 C 
HETATM   12  C21 UNL     1      28.278  43.587   1.083  1.00  0.00     0.069 C 
HETATM   13  C22 UNL     1      29.085  43.323   2.339  1.00  0.00     0.130 C 
HETATM   14  C23 UNL     1      30.495  42.914   2.016  1.00  0.00    -0.000 C 
HETATM   15  C24 UNL     1      31.081  42.095   3.159  1.00  0.00     0.020 C 
HETATM   16  C25 UNL     1      30.589  42.082   0.771  1.00  0.00     0.020 C 
HETATM   17  C26 UNL     1      31.331  44.162   1.877  1.00  0.00     0.180 C 
HETATM   18  O7  UNL     1      30.839  44.859   0.776  1.00  0.00    -0.376 OA
HETATM   19  C27 UNL     1      30.824  46.212   0.929  1.00  0.00     0.184 C 
ENDROOT
BRANCH   1  20
HETATM   20  C6  UNL     1      33.081  47.022   1.732  1.00  0.00     0.215 C 
BRANCH  20  21
HETATM   21  O2  UNL     1      32.342  47.367   2.874  1.00  0.00    -0.317 OA
BRANCH  21  22
HETATM   22  C5  UNL     1      32.223  48.639   3.405  1.00  0.00     0.259 C 
HETATM   23  O1  UNL     1      33.244  49.156   3.893  1.00  0.00    -0.265 OA
BRANCH  22  24
HETATM   24  C4  UNL     1      30.919  49.305   3.369  1.00  0.00     0.111 C 
BRANCH  24  25
HETATM   25  C3  UNL     1      30.558  49.862   2.036  1.00  0.00     0.009 C 
BRANCH  25  26
HETATM   26  C2  UNL     1      31.410  50.977   1.539  1.00  0.00    -0.004 C 
HETATM   27  C1  UNL     1      32.200  50.613   0.304  1.00  0.00     0.005 C 
ENDBRANCH  25  26
ENDBRANCH  24  25
ENDBRANCH  22  24
ENDBRANCH  21  22
ENDBRANCH  20  21
ENDBRANCH   1  20
BRANCH   5  28
HETATM   28  O3  UNL     1      29.876  45.460  -1.649  1.00  0.00    -0.386 OA
ATOM     29  H3  UNL     1      30.355  45.091  -0.916  1.00  0.00     0.211 HD
ENDBRANCH   5  28
BRANCH  11  30
HETATM   30  O4  UNL     1      26.496  44.633  -0.025  1.00  0.00    -0.311 OA
BRANCH  30  31
HETATM   31  C18 UNL     1      25.155  44.879  -0.100  1.00  0.00     0.259 C 
HETATM   32  O5  UNL     1      24.395  43.911  -0.403  1.00  0.00    -0.265 OA
BRANCH  31  33
HETATM   33  C19 UNL     1      24.523  46.193   0.147  1.00  0.00     0.106 C 
HETATM   34  C20 UNL     1      23.069  46.058   0.507  1.00  0.00     0.015 C 
ENDBRANCH  31  33
ENDBRANCH  30  31
ENDBRANCH  11  30
BRANCH  13  35
HETATM   35  O6  UNL     1      29.054  44.387   3.235  1.00  0.00    -0.395 OA
ATOM     36  H6  UNL     1      28.819  44.121   4.116  1.00  0.00     0.210 HD
ENDBRANCH  13  35
TORSDOF 11
ENDMDL
MODEL 2
REMARK VINA RESULT: -8.126835429      2.088      7.246
REMARK  11 active torsions:
REMARK  status: ('A' for Active; 'I' for Inactive)
REMARK    1  A    between atoms: C2_2  and  C3_3 
REMARK    2  A    between atoms: C3_3  and  C4_4 
REMARK    3  A    between atoms: C4_4  and  C5_5 
REMARK    4  A    between atoms: C5_5  and  O2_7 
REMARK    5  A    between atoms: O2_7  and  C6_8 
REMARK    6  A    between atoms: C6_8  and  C7_9 
REMARK    7  A    between atoms: C11_13  and  O3_15 
REMARK    8  A    between atoms: C17_21  and  O4_22 
REMARK    9  A    between atoms: O4_22  and  C18_23 
REMARK   10  A    between atoms: C18_23  and  C19_25 
REMARK   11  A    between atoms: C22_28  and  O6_29 
ROOT
HETATM    1  C7  UNL     1      30.329  45.551   0.710  1.00  0.00    -0.027 C 
HETATM    2  C8  UNL     1      30.279  44.489   1.529  1.00  0.00    -0.019 C 
HETATM    3  C9  UNL     1      30.735  44.503   2.944  1.00  0.00     0.030 C 
HETATM    4  C10 UNL     1      30.090  45.615   3.697  1.00  0.00     0.046 C 
HETATM    5  C11 UNL     1      30.810  46.970   3.469  1.00  0.00     0.081 C 
HETATM    6  C12 UNL     1      30.530  47.746   4.718  1.00  0.00     0.051 C 
HETATM    7  C13 UNL     1      30.289  47.555   2.225  1.00  0.00    -0.013 C 
HETATM    8  C14 UNL     1      30.188  48.997   2.038  1.00  0.00     0.014 C 
HETATM    9  C15 UNL     1      30.955  50.034   2.004  1.00  0.00    -0.054 C 
HETATM   10  C16 UNL     1      30.194  51.360   1.751  1.00  0.00     0.046 C 
HETATM   11  C17 UNL     1      32.389  50.293   2.152  1.00  0.00     0.163 C 
HETATM   12  C21 UNL     1      33.407  49.447   1.536  1.00  0.00     0.069 C 
HETATM   13  C22 UNL     1      33.372  49.363   0.022  1.00  0.00     0.130 C 
HETATM   14  C23 UNL     1      33.811  48.012  -0.468  1.00  0.00    -0.000 C 
HETATM   15  C24 UNL     1      34.347  48.116  -1.890  1.00  0.00     0.020 C 
HETATM   16  C25 UNL     1      34.894  47.409   0.378  1.00  0.00     0.020 C 
HETATM   17  C26 UNL     1      32.606  47.105  -0.501  1.00  0.00     0.180 C 
HETATM   18  O7  UNL     1      32.179  46.949   0.815  1.00  0.00    -0.376 OA
HETATM   19  C27 UNL     1      30.826  46.916   0.966  1.00  0.00     0.184 C 
ENDROOT
BRANCH   1  20
HETATM   20  C6  UNL     1      29.810  45.254  -0.646  1.00  0.00     0.215 C 
BRANCH  20  21
HETATM   21  O2  UNL     1      29.044  46.338  -1.100  1.00  0.00    -0.317 OA
BRANCH  21  22
HETATM   22  C5  UNL     1      27.760  46.261  -1.611  1.00  0.00     0.259 C 
HETATM   23  O1  UNL     1      27.608  46.510  -2.821  1.00  0.00    -0.265 OA
BRANCH  22  24
HETATM   24  C4  UNL     1      26.659  45.898  -0.716  1.00  0.00     0.111 C 
BRANCH  24  25
HETATM   25  C3  UNL     1      26.427  46.871   0.388  1.00  0.00     0.009 C 
BRANCH  25  26
HETATM   26  C2  UNL     1      26.761  46.398   1.760  1.00  0.00    -0.004 C 
HETATM   27  C1  UNL     1      26.825  44.892   1.867  1.00  0.00     0.005 C 
ENDBRANCH  25  26
ENDBRANCH  24  25
ENDBRANCH  22  24
ENDBRANCH  21  22
ENDBRANCH  20  21
ENDBRANCH   1  20
BRANCH   5  28
HETATM   28  O3  UNL     1      32.146  46.584   3.467  1.00  0.00    -0.386 OA
ATOM     29  H3  UNL     1      32.118  45.788   3.985  1.00  0.00     0.211 HD
ENDBRANCH   5  28
BRANCH  11  30
HETATM   30  O4  UNL     1      32.669  50.387   3.553  1.00  0.00    -0.311 OA
BRANCH  30  31
HETATM   31  C18 UNL     1      33.523  51.289   4.121  1.00  0.00     0.259 C 
HETATM   32  O5  UNL     1      33.404  52.504   3.785  1.00  0.00    -0.265 OA
BRANCH  31  33
HETATM   33  C19 UNL     1      34.579  50.950   5.100  1.00  0.00     0.106 C 
HETATM   34  C20 UNL     1      35.914  50.750   4.438  1.00  0.00     0.015 C 
ENDBRANCH  31  33
ENDBRANCH  30  31
ENDBRANCH  11  30
BRANCH  13  35
HETATM   35  O6  UNL     1      32.138  49.724  -0.509  1.00  0.00    -0.395 OA
ATOM     36  H6  UNL     1      31.875  49.173  -1.238  1.00  0.00     0.210 HD
ENDBRANCH  13  35
TORSDOF 11
ENDMDL
MODEL 3
REMARK VINA RESULT: -7.913976441      2.056      7.358
REMARK  11 active torsions:
REMARK  status: ('A' for Active; 'I' for Inactive)
REMARK    1  A    between atoms: C2_2  and  C3_3 
REMARK    2  A    between atoms: C3_3  and  C4_4 
REMARK    3  A    between atoms: C4_4  and  C5_5 
REMARK    4  A    between atoms: C5_5  and  O2_7 
REMARK    5  A    between atoms: O2_7  and  C6_8 
REMARK    6  A    between atoms: C6_8  and  C7_9 
REMARK    7  A    between atoms: C11_13  and  O3_15 
REMARK    8  A    between atoms: C17_21  and  O4_22 
REMARK    9  A    between atoms: O4_22  and  C18_23 
REMARK   10  A    between atoms: C18_23  and  C19_25 
REMARK   11  A    between atoms: C22_28  and  O6_29 
ROOT
HETATM    1  C7  UNL     1      30.178  45.734   0.239  1.00  0.00    -0.027 C 
HETATM    2  C8  UNL     1      30.102  44.604   0.959  1.00  0.00    -0.019 C 
HETATM    3  C9  UNL     1      30.584  44.471   2.360  1.00  0.00     0.030 C 
HETATM    4  C10 UNL     1      29.998  45.534   3.225  1.00  0.00     0.046 C 
HETATM    5  C11 UNL     1      30.767  46.875   3.104  1.00  0.00     0.081 C 
HETATM    6  C12 UNL     1      30.542  47.544   4.424  1.00  0.00     0.051 C 
HETATM    7  C13 UNL     1      30.247  47.591   1.930  1.00  0.00    -0.013 C 
HETATM    8  C14 UNL     1      30.200  49.047   1.877  1.00  0.00     0.014 C 
HETATM    9  C15 UNL     1      31.006  50.053   1.920  1.00  0.00    -0.054 C 
HETATM   10  C16 UNL     1      30.295  51.424   1.806  1.00  0.00     0.046 C 
HETATM   11  C17 UNL     1      32.452  50.242   2.060  1.00  0.00     0.163 C 
HETATM   12  C21 UNL     1      33.425  49.418   1.346  1.00  0.00     0.069 C 
HETATM   13  C22 UNL     1      33.358  49.475  -0.168  1.00  0.00     0.130 C 
HETATM   14  C23 UNL     1      33.734  48.158  -0.788  1.00  0.00    -0.000 C 
HETATM   15  C24 UNL     1      34.246  48.371  -2.206  1.00  0.00     0.020 C 
HETATM   16  C25 UNL     1      34.807  47.440  -0.025  1.00  0.00     0.020 C 
HETATM   17  C26 UNL     1      32.493  47.304  -0.876  1.00  0.00     0.180 C 
HETATM   18  O7  UNL     1      32.084  47.045   0.429  1.00  0.00    -0.376 OA
HETATM   19  C27 UNL     1      30.734  47.050   0.607  1.00  0.00     0.184 C 
ENDROOT
BRANCH   1  20
HETATM   20  C6  UNL     1      29.623  45.582  -1.126  1.00  0.00     0.215 C 
BRANCH  20  21
HETATM   21  O2  UNL     1      28.403  46.268  -1.212  1.00  0.00    -0.317 OA
BRANCH  21  22
HETATM   22  C5  UNL     1      27.237  45.930  -0.546  1.00  0.00     0.259 C 
HETATM   23  O1  UNL     1      26.743  44.813  -0.787  1.00  0.00    -0.265 OA
BRANCH  22  24
HETATM   24  C4  UNL     1      26.651  46.889   0.393  1.00  0.00     0.111 C 
BRANCH  24  25
HETATM   25  C3  UNL     1      25.507  46.348   1.179  1.00  0.00     0.009 C 
BRANCH  25  26
HETATM   26  C2  UNL     1      24.148  46.643   0.646  1.00  0.00    -0.004 C 
HETATM   27  C1  UNL     1      23.496  45.446  -0.005  1.00  0.00     0.005 C 
ENDBRANCH  25  26
ENDBRANCH  24  25
ENDBRANCH  22  24
ENDBRANCH  21  22
ENDBRANCH  20  21
ENDBRANCH   1  20
BRANCH   5  28
HETATM   28  O3  UNL     1      32.086  46.440   3.037  1.00  0.00    -0.386 OA
ATOM     29  H3  UNL     1      32.496  46.959   3.720  1.00  0.00     0.211 HD
ENDBRANCH   5  28
BRANCH  11  30
HETATM   30  O4  UNL     1      32.762  50.197   3.457  1.00  0.00    -0.311 OA
BRANCH  30  31
HETATM   31  C18 UNL     1      33.501  51.131   4.124  1.00  0.00     0.259 C 
HETATM   32  O5  UNL     1      33.273  52.352   3.872  1.00  0.00    -0.265 OA
BRANCH  31  33
HETATM   33  C19 UNL     1      34.549  50.823   5.121  1.00  0.00     0.106 C 
HETATM   34  C20 UNL     1      35.923  50.825   4.510  1.00  0.00     0.015 C 
ENDBRANCH  31  33
ENDBRANCH  30  31
ENDBRANCH  11  30
BRANCH  13  35
HETATM   35  O6  UNL     1      32.129  49.929  -0.636  1.00  0.00    -0.395 OA
ATOM     36  H6  UNL     1      32.013  50.865  -0.519  1.00  0.00     0.210 HD
ENDBRANCH  13  35
TORSDOF 11
ENDMDL
MODEL 4
REMARK VINA RESULT: -7.787499502      2.182      7.325
REMARK  11 active torsions:
REMARK  status: ('A' for Active; 'I' for Inactive)
REMARK    1  A    between atoms: C2_2  and  C3_3 
REMARK    2  A    between atoms: C3_3  and  C4_4 
REMARK    3  A    between atoms: C4_4  and  C5_5 
REMARK    4  A    between atoms: C5_5  and  O2_7 
REMARK    5  A    between atoms: O2_7  and  C6_8 
REMARK    6  A    between atoms: C6_8  and  C7_9 
REMARK    7  A    between atoms: C11_13  and  O3_15 
REMARK    8  A    between atoms: C17_21  and  O4_22 
REMARK    9  A    between atoms: O4_22  and  C18_23 
REMARK   10  A    between atoms: C18_23  and  C19_25 
REMARK   11  A    between atoms: C22_28  and  O6_29 
ROOT
HETATM    1  C7  UNL     1      29.965  46.037  -0.302  1.00  0.00    -0.027 C 
HETATM    2  C8  UNL     1      30.069  44.840   0.296  1.00  0.00    -0.019 C 
HETATM    3  C9  UNL     1      31.161  44.466   1.234  1.00  0.00     0.030 C 
HETATM    4  C10 UNL     1      31.285  45.468   2.330  1.00  0.00     0.046 C 
HETATM    5  C11 UNL     1      32.105  46.710   1.896  1.00  0.00     0.081 C 
HETATM    6  C12 UNL     1      32.696  47.221   3.172  1.00  0.00     0.051 C 
HETATM    7  C13 UNL     1      31.196  47.633   1.200  1.00  0.00    -0.013 C 
HETATM    8  C14 UNL     1      31.380  49.077   1.253  1.00  0.00     0.014 C 
HETATM    9  C15 UNL     1      32.257  49.963   0.922  1.00  0.00    -0.054 C 
HETATM   10  C16 UNL     1      31.833  51.414   1.263  1.00  0.00     0.046 C 
HETATM   11  C17 UNL     1      33.583  49.956   0.300  1.00  0.00     0.163 C 
HETATM   12  C21 UNL     1      33.905  49.122  -0.855  1.00  0.00     0.069 C 
HETATM   13  C22 UNL     1      33.094  49.385  -2.109  1.00  0.00     0.130 C 
HETATM   14  C23 UNL     1      32.873  48.127  -2.900  1.00  0.00    -0.000 C 
HETATM   15  C24 UNL     1      32.627  48.462  -4.365  1.00  0.00     0.020 C 
HETATM   16  C25 UNL     1      34.042  47.189  -2.842  1.00  0.00     0.020 C 
HETATM   17  C26 UNL     1      31.631  47.449  -2.375  1.00  0.00     0.180 C 
HETATM   18  O7  UNL     1      31.899  47.071  -1.061  1.00  0.00    -0.376 OA
HETATM   19  C27 UNL     1      30.848  47.216  -0.209  1.00  0.00     0.184 C 
ENDROOT
BRANCH   1  20
HETATM   20  C6  UNL     1      28.780  46.136  -1.186  1.00  0.00     0.215 C 
BRANCH  20  21
HETATM   21  O2  UNL     1      27.749  45.335  -0.673  1.00  0.00    -0.317 OA
BRANCH  21  22
HETATM   22  C5  UNL     1      26.475  45.769  -0.349  1.00  0.00     0.259 C 
HETATM   23  O1  UNL     1      25.519  45.230  -0.934  1.00  0.00    -0.265 OA
BRANCH  22  24
HETATM   24  C4  UNL     1      26.318  46.827   0.652  1.00  0.00     0.111 C 
BRANCH  24  25
HETATM   25  C3  UNL     1      26.766  46.442   2.019  1.00  0.00     0.009 C 
BRANCH  25  26
HETATM   26  C2  UNL     1      27.999  47.112   2.518  1.00  0.00    -0.004 C 
HETATM   27  C1  UNL     1      28.465  46.575   3.850  1.00  0.00     0.005 C 
ENDBRANCH  25  26
ENDBRANCH  24  25
ENDBRANCH  22  24
ENDBRANCH  21  22
ENDBRANCH  20  21
ENDBRANCH   1  20
BRANCH   5  28
HETATM   28  O3  UNL     1      33.113  46.131   1.132  1.00  0.00    -0.386 OA
ATOM     29  H3  UNL     1      32.927  46.482   0.269  1.00  0.00     0.211 HD
ENDBRANCH   5  28
BRANCH  11  30
HETATM   30  O4  UNL     1      34.543  49.689   1.329  1.00  0.00    -0.311 OA
BRANCH  30  31
HETATM   31  C18 UNL     1      35.033  50.619   2.201  1.00  0.00     0.259 C 
HETATM   32  O5  UNL     1      35.428  51.724   1.723  1.00  0.00    -0.265 OA
BRANCH  31  33
HETATM   33  C19 UNL     1      35.138  50.431   3.664  1.00  0.00     0.106 C 
HETATM   34  C20 UNL     1      33.803  50.554   4.343  1.00  0.00     0.015 C 
ENDBRANCH  31  33
ENDBRANCH  30  31
ENDBRANCH  11  30
BRANCH  13  35
HETATM   35  O6  UNL     1      31.896  50.043  -1.848  1.00  0.00    -0.395 OA
ATOM     36  H6  UNL     1      31.134  49.498  -2.006  1.00  0.00     0.210 HD
ENDBRANCH  13  35
TORSDOF 11
ENDMDL
MODEL 5
REMARK VINA RESULT: -7.731735511      2.023      7.447
REMARK  11 active torsions:
REMARK  status: ('A' for Active; 'I' for Inactive)
REMARK    1  A    between atoms: C2_2  and  C3_3 
REMARK    2  A    between atoms: C3_3  and  C4_4 
REMARK    3  A    between atoms: C4_4  and  C5_5 
REMARK    4  A    between atoms: C5_5  and  O2_7 
REMARK    5  A    between atoms: O2_7  and  C6_8 
REMARK    6  A    between atoms: C6_8  and  C7_9 
REMARK    7  A    between atoms: C11_13  and  O3_15 
REMARK    8  A    between atoms: C17_21  and  O4_22 
REMARK    9  A    between atoms: O4_22  and  C18_23 
REMARK   10  A    between atoms: C18_23  and  C19_25 
REMARK   11  A    between atoms: C22_28  and  O6_29 
ROOT
HETATM    1  C7  UNL     1      29.715  45.729  -0.117  1.00  0.00    -0.027 C 
HETATM    2  C8  UNL     1      29.707  44.483   0.382  1.00  0.00    -0.019 C 
HETATM    3  C9  UNL     1      30.452  44.064   1.599  1.00  0.00     0.030 C 
HETATM    4  C10 UNL     1      30.128  44.953   2.750  1.00  0.00     0.046 C 
HETATM    5  C11 UNL     1      30.947  46.269   2.721  1.00  0.00     0.081 C 
HETATM    6  C12 UNL     1      31.040  46.673   4.158  1.00  0.00     0.051 C 
HETATM    7  C13 UNL     1      30.252  47.217   1.837  1.00  0.00    -0.013 C 
HETATM    8  C14 UNL     1      30.296  48.655   2.065  1.00  0.00     0.014 C 
HETATM    9  C15 UNL     1      31.162  49.609   2.122  1.00  0.00    -0.054 C 
HETATM   10  C16 UNL     1      30.539  50.997   2.418  1.00  0.00     0.046 C 
HETATM   11  C17 UNL     1      32.616  49.725   1.986  1.00  0.00     0.163 C 
HETATM   12  C21 UNL     1      33.365  49.029   0.943  1.00  0.00     0.069 C 
HETATM   13  C22 UNL     1      32.998  49.383  -0.485  1.00  0.00     0.130 C 
HETATM   14  C23 UNL     1      33.149  48.203  -1.404  1.00  0.00    -0.000 C 
HETATM   15  C24 UNL     1      33.377  48.675  -2.834  1.00  0.00     0.020 C 
HETATM   16  C25 UNL     1      34.301  47.318  -1.032  1.00  0.00     0.020 C 
HETATM   17  C26 UNL     1      31.859  47.420  -1.385  1.00  0.00     0.180 C 
HETATM   18  O7  UNL     1      31.706  46.922  -0.093  1.00  0.00    -0.376 OA
HETATM   19  C27 UNL     1      30.423  46.931   0.364  1.00  0.00     0.184 C 
ENDROOT
BRANCH   1  20
HETATM   20  C6  UNL     1      28.886  45.864  -1.337  1.00  0.00     0.215 C 
BRANCH  20  21
HETATM   21  O2  UNL     1      27.756  46.643  -1.050  1.00  0.00    -0.317 OA
BRANCH  21  22
HETATM   22  C5  UNL     1      26.788  46.345  -0.105  1.00  0.00     0.259 C 
HETATM   23  O1  UNL     1      26.715  47.084   0.894  1.00  0.00    -0.265 OA
BRANCH  22  24
HETATM   24  C4  UNL     1      25.912  45.192  -0.324  1.00  0.00     0.111 C 
BRANCH  24  25
HETATM   25  C3  UNL     1      24.466  45.479  -0.114  1.00  0.00     0.009 C 
BRANCH  25  26
HETATM   26  C2  UNL     1      23.511  44.498  -0.700  1.00  0.00    -0.004 C 
HETATM   27  C1  UNL     1      22.078  44.755  -0.297  1.00  0.00     0.005 C 
ENDBRANCH  25  26
ENDBRANCH  24  25
ENDBRANCH  22  24
ENDBRANCH  21  22
ENDBRANCH  20  21
ENDBRANCH   1  20
BRANCH   5  28
HETATM   28  O3  UNL     1      32.192  45.818   2.297  1.00  0.00    -0.386 OA
ATOM     29  H3  UNL     1      32.106  45.869   1.352  1.00  0.00     0.211 HD
ENDBRANCH   5  28
BRANCH  11  30
HETATM   30  O4  UNL     1      33.198  49.399   3.253  1.00  0.00    -0.311 OA
BRANCH  30  31
HETATM   31  C18 UNL     1      33.909  50.264   4.033  1.00  0.00     0.259 C 
HETATM   32  O5  UNL     1      33.333  50.746   5.053  1.00  0.00    -0.265 OA
BRANCH  31  33
HETATM   33  C19 UNL     1      35.304  50.683   3.774  1.00  0.00     0.106 C 
HETATM   34  C20 UNL     1      36.168  49.525   3.356  1.00  0.00     0.015 C 
ENDBRANCH  31  33
ENDBRANCH  30  31
ENDBRANCH  11  30
BRANCH  13  35
HETATM   35  O6  UNL     1      31.734  49.956  -0.591  1.00  0.00    -0.395 OA
ATOM     36  H6  UNL     1      31.566  50.320  -1.452  1.00  0.00     0.210 HD
ENDBRANCH  13  35
TORSDOF 11
ENDMDL
