MODEL 1
REMARK VINA RESULT: -9.497553660      0.000      0.000
REMARK  10 active torsions:
REMARK  status: ('A' for Active; 'I' for Inactive)
REMARK       I    between atoms: C2_2  and  N1_4 
REMARK    1  A    between atoms: C4_6  and  C5_7 
REMARK    2  A    between atoms: C5_7  and  C8_10 
REMARK    3  A    between atoms: C12_14  and  N2_15 
REMARK       I    between atoms: N2_15  and  C13_17 
REMARK    4  A    between atoms: C13_17  and  C14_19 
REMARK    5  A    between atoms: C14_19  and  C16_21 
REMARK    6  A    between atoms: C21_29  and  C22_30 
REMARK    7  A    between atoms: C23_31  and  C24_32 
REMARK    8  A    between atoms: C24_32  and  O3_33 
REMARK    9  A    between atoms: C24_32  and  C25_35 
REMARK   10  A    between atoms: C25_35  and  O4_38 
ROOT
HETATM    1  C16 UNL     1      31.332  40.756   2.095  1.00  0.00     0.053 C 
HETATM    2  C17 UNL     1      32.289  41.654   1.347  1.00  0.00     0.032 C 
HETATM    3  C18 UNL     1      31.458  41.054   3.569  1.00  0.00     0.032 C 
HETATM    4  C19 UNL     1      31.805  39.362   1.909  1.00  0.00     0.069 C 
HETATM    5  N3  UNL     1      32.161  38.272   1.750  1.00  0.00    -0.196 NA
ENDROOT
BRANCH   1   6
HETATM    6  C14 UNL     1      29.928  40.890   1.603  1.00  0.00     0.096 C 
HETATM    7  C15 UNL     1      29.838  40.216   0.240  1.00  0.00     0.021 C 
BRANCH   6   8
HETATM    8  C13 UNL     1      29.564  42.336   1.371  1.00  0.00     0.227 C 
HETATM    9  N2  UNL     1      29.254  43.188   2.443  1.00  0.00    -0.327 N 
ATOM     10  H2  UNL     1      29.299  42.766   3.370  1.00  0.00     0.169 HD
HETATM   11  O2  UNL     1      29.564  42.692   0.173  1.00  0.00    -0.273 OA
BRANCH   9  12
HETATM   12  C12 UNL     1      28.893  44.543   2.410  1.00  0.00     0.035 A 
HETATM   13  C11 UNL     1      27.592  44.968   2.418  1.00  0.00     0.029 A 
HETATM   14  C10 UNL     1      27.355  46.345   2.371  1.00  0.00     0.003 A 
HETATM   15  C9  UNL     1      28.370  47.276   2.317  1.00  0.00     0.008 A 
HETATM   16  C8  UNL     1      29.671  46.859   2.308  1.00  0.00    -0.042 A 
HETATM   17  C20 UNL     1      29.907  45.514   2.354  1.00  0.00     0.037 A 
BRANCH  16  18
HETATM   18  C5  UNL     1      30.817  47.791   2.258  1.00  0.00     0.023 C 
HETATM   19  C6  UNL     1      31.735  47.442   3.426  1.00  0.00     0.027 C 
HETATM   20  C7  UNL     1      30.325  49.228   2.459  1.00  0.00     0.027 C 
BRANCH  18  21
HETATM   21  C4  UNL     1      31.561  47.702   0.978  1.00  0.00     0.039 A 
HETATM   22  C3  UNL     1      32.908  47.643   0.748  1.00  0.00     0.127 A 
HETATM   23  N1  UNL     1      33.170  47.567  -0.605  1.00  0.00    -0.277 N 
HETATM   24  C2  UNL     1      34.467  47.495  -1.152  1.00  0.00     0.225 C 
HETATM   25  C21 UNL     1      31.956  47.579  -1.216  1.00  0.00     0.114 A 
HETATM   26  C1  UNL     1      35.666  47.499  -0.247  1.00  0.00     0.118 C 
HETATM   27  O1  UNL     1      34.694  47.428  -2.357  1.00  0.00    -0.273 OA
HETATM   28  N4  UNL     1      31.013  47.660  -0.241  1.00  0.00    -0.343 N 
ATOM     29  H4  UNL     1      30.008  47.687  -0.417  1.00  0.00     0.167 HD
BRANCH  25  30
HETATM   30  C22 UNL     1      31.703  47.508  -2.636  1.00  0.00     0.051 C 
HETATM   31  C23 UNL     1      31.849  48.379  -3.579  1.00  0.00     0.039 C 
BRANCH  31  32
HETATM   32  C24 UNL     1      32.308  49.752  -3.648  1.00  0.00     0.076 C 
BRANCH  32  33
HETATM   33  O3  UNL     1      31.395  50.746  -3.829  1.00  0.00    -0.362 OA
ATOM     34  H3  UNL     1      31.694  51.647  -3.859  1.00  0.00     0.217 HD
ENDBRANCH  32  33
BRANCH  32  35
HETATM   35  C25 UNL     1      33.522  49.980  -4.529  1.00  0.00     0.099 C 
HETATM   36  C26 UNL     1      33.460  51.301  -5.253  1.00  0.00     0.053 C 
HETATM   37  C27 UNL     1      33.721  48.902  -5.548  1.00  0.00     0.053 C 
BRANCH  35  38
HETATM   38  O4  UNL     1      34.687  50.035  -3.733  1.00  0.00    -0.384 OA
ATOM     39  H4  UNL     1      35.432  50.279  -4.269  1.00  0.00     0.211 HD
ENDBRANCH  35  38
ENDBRANCH  32  35
ENDBRANCH  31  32
ENDBRANCH  25  30
ENDBRANCH  18  21
ENDBRANCH  16  18
ENDBRANCH   9  12
ENDBRANCH   6   8
ENDBRANCH   1   6
TORSDOF 10
ENDMDL
MODEL 2
REMARK VINA RESULT: -9.424498564      1.644      3.717
REMARK  10 active torsions:
REMARK  status: ('A' for Active; 'I' for Inactive)
REMARK       I    between atoms: C2_2  and  N1_4 
REMARK    1  A    between atoms: C4_6  and  C5_7 
REMARK    2  A    between atoms: C5_7  and  C8_10 
REMARK    3  A    between atoms: C12_14  and  N2_15 
REMARK       I    between atoms: N2_15  and  C13_17 
REMARK    4  A    between atoms: C13_17  and  C14_19 
REMARK    5  A    between atoms: C14_19  and  C16_21 
REMARK    6  A    between atoms: C21_29  and  C22_30 
REMARK    7  A    between atoms: C23_31  and  C24_32 
REMARK    8  A    between atoms: C24_32  and  O3_33 
REMARK    9  A    between atoms: C24_32  and  C25_35 
REMARK   10  A    between atoms: C25_35  and  O4_38 
ROOT
HETATM    1  C16 UNL     1      31.336  40.752   2.096  1.00  0.00     0.053 C 
HETATM    2  C17 UNL     1      32.293  41.643   1.340  1.00  0.00     0.032 C 
HETATM    3  C18 UNL     1      31.474  41.052   3.568  1.00  0.00     0.032 C 
HETATM    4  C19 UNL     1      31.800  39.354   1.910  1.00  0.00     0.069 C 
HETATM    5  N3  UNL     1      32.149  38.262   1.750  1.00  0.00    -0.196 NA
ENDROOT
BRANCH   1   6
HETATM    6  C14 UNL     1      29.929  40.893   1.613  1.00  0.00     0.096 C 
HETATM    7  C15 UNL     1      29.828  40.220   0.250  1.00  0.00     0.021 C 
BRANCH   6   8
HETATM    8  C13 UNL     1      29.571  42.341   1.385  1.00  0.00     0.227 C 
HETATM    9  N2  UNL     1      29.272  43.193   2.459  1.00  0.00    -0.327 N 
ATOM     10  H2  UNL     1      29.319  42.770   3.386  1.00  0.00     0.169 HD
HETATM   11  O2  UNL     1      29.566  42.698   0.187  1.00  0.00    -0.273 OA
BRANCH   9  12
HETATM   12  C12 UNL     1      28.916  44.550   2.430  1.00  0.00     0.035 A 
HETATM   13  C11 UNL     1      27.618  44.979   2.361  1.00  0.00     0.029 A 
HETATM   14  C10 UNL     1      27.388  46.358   2.326  1.00  0.00     0.003 A 
HETATM   15  C9  UNL     1      28.407  47.286   2.357  1.00  0.00     0.008 A 
HETATM   16  C8  UNL     1      29.705  46.864   2.425  1.00  0.00    -0.042 A 
HETATM   17  C20 UNL     1      29.934  45.518   2.460  1.00  0.00     0.037 A 
BRANCH  16  18
HETATM   18  C5  UNL     1      30.854  47.793   2.469  1.00  0.00     0.023 C 
HETATM   19  C6  UNL     1      31.743  47.358   3.630  1.00  0.00     0.027 C 
HETATM   20  C7  UNL     1      30.361  49.215   2.761  1.00  0.00     0.027 C 
BRANCH  18  21
HETATM   21  C4  UNL     1      31.628  47.793   1.204  1.00  0.00     0.039 A 
HETATM   22  C3  UNL     1      31.192  47.757  -0.092  1.00  0.00     0.127 A 
HETATM   23  N1  UNL     1      32.259  47.774  -0.967  1.00  0.00    -0.277 N 
HETATM   24  C2  UNL     1      32.125  47.744  -2.370  1.00  0.00     0.225 C 
HETATM   25  C21 UNL     1      33.372  47.821  -0.189  1.00  0.00     0.114 A 
HETATM   26  C1  UNL     1      30.760  47.691  -2.995  1.00  0.00     0.118 C 
HETATM   27  O1  UNL     1      33.079  47.758  -3.144  1.00  0.00    -0.273 OA
HETATM   28  N4  UNL     1      32.961  47.831   1.106  1.00  0.00    -0.343 N 
ATOM     29  H4  UNL     1      33.593  47.865   1.906  1.00  0.00     0.167 HD
BRANCH  25  30
HETATM   30  C22 UNL     1      34.743  47.863  -0.645  1.00  0.00     0.051 C 
HETATM   31  C23 UNL     1      35.764  47.124  -0.365  1.00  0.00     0.039 C 
BRANCH  31  32
HETATM   32  C24 UNL     1      35.998  45.974   0.487  1.00  0.00     0.076 C 
BRANCH  32  33
HETATM   33  O3  UNL     1      35.379  45.911   1.697  1.00  0.00    -0.362 OA
ATOM     34  H3  UNL     1      35.908  45.862   2.485  1.00  0.00     0.217 HD
ENDBRANCH  32  33
BRANCH  32  35
HETATM   35  C25 UNL     1      37.451  45.554   0.611  1.00  0.00     0.099 C 
HETATM   36  C26 UNL     1      38.281  46.584   1.335  1.00  0.00     0.053 C 
HETATM   37  C27 UNL     1      38.100  45.281  -0.709  1.00  0.00     0.053 C 
BRANCH  35  38
HETATM   38  O4  UNL     1      37.544  44.376   1.385  1.00  0.00    -0.384 OA
ATOM     39  H4  UNL     1      37.051  43.679   0.969  1.00  0.00     0.211 HD
ENDBRANCH  35  38
ENDBRANCH  32  35
ENDBRANCH  31  32
ENDBRANCH  25  30
ENDBRANCH  18  21
ENDBRANCH  16  18
ENDBRANCH   9  12
ENDBRANCH   6   8
ENDBRANCH   1   6
TORSDOF 10
ENDMDL
MODEL 3
REMARK VINA RESULT: -9.357318456      1.635      3.518
REMARK  10 active torsions:
REMARK  status: ('A' for Active; 'I' for Inactive)
REMARK       I    between atoms: C2_2  and  N1_4 
REMARK    1  A    between atoms: C4_6  and  C5_7 
REMARK    2  A    between atoms: C5_7  and  C8_10 
REMARK    3  A    between atoms: C12_14  and  N2_15 
REMARK       I    between atoms: N2_15  and  C13_17 
REMARK    4  A    between atoms: C13_17  and  C14_19 
REMARK    5  A    between atoms: C14_19  and  C16_21 
REMARK    6  A    between atoms: C21_29  and  C22_30 
REMARK    7  A    between atoms: C23_31  and  C24_32 
REMARK    8  A    between atoms: C24_32  and  O3_33 
REMARK    9  A    between atoms: C24_32  and  C25_35 
REMARK   10  A    between atoms: C25_35  and  O4_38 
ROOT
HETATM    1  C16 UNL     1      31.330  40.731   2.106  1.00  0.00     0.053 C 
HETATM    2  C17 UNL     1      32.286  41.602   1.326  1.00  0.00     0.032 C 
HETATM    3  C18 UNL     1      31.515  41.026   3.575  1.00  0.00     0.032 C 
HETATM    4  C19 UNL     1      31.758  39.324   1.905  1.00  0.00     0.069 C 
HETATM    5  N3  UNL     1      32.078  38.225   1.735  1.00  0.00    -0.196 NA
ENDROOT
BRANCH   1   6
HETATM    6  C14 UNL     1      29.914  40.905   1.662  1.00  0.00     0.096 C 
HETATM    7  C15 UNL     1      29.766  40.257   0.291  1.00  0.00     0.021 C 
BRANCH   6   8
HETATM    8  C13 UNL     1      29.575  42.362   1.468  1.00  0.00     0.227 C 
HETATM    9  N2  UNL     1      29.327  43.203   2.564  1.00  0.00    -0.327 N 
ATOM     10  H2  UNL     1      29.396  42.764   3.482  1.00  0.00     0.169 HD
HETATM   11  O2  UNL     1      29.538  42.738   0.276  1.00  0.00    -0.273 OA
BRANCH   9  12
HETATM   12  C12 UNL     1      28.996  44.566   2.566  1.00  0.00     0.035 A 
HETATM   13  C11 UNL     1      27.706  45.020   2.637  1.00  0.00     0.029 A 
HETATM   14  C10 UNL     1      27.499  46.402   2.621  1.00  0.00     0.003 A 
HETATM   15  C9  UNL     1      28.532  47.311   2.535  1.00  0.00     0.008 A 
HETATM   16  C8  UNL     1      29.822  46.865   2.464  1.00  0.00    -0.042 A 
HETATM   17  C20 UNL     1      30.028  45.514   2.480  1.00  0.00     0.037 A 
BRANCH  16  18
HETATM   18  C5  UNL     1      30.986  47.771   2.378  1.00  0.00     0.023 C 
HETATM   19  C6  UNL     1      31.961  47.362   3.478  1.00  0.00     0.027 C 
HETATM   20  C7  UNL     1      30.542  49.212   2.654  1.00  0.00     0.027 C 
BRANCH  18  21
HETATM   21  C4  UNL     1      31.653  47.709   1.054  1.00  0.00     0.039 A 
HETATM   22  C3  UNL     1      31.111  47.676  -0.201  1.00  0.00     0.127 A 
HETATM   23  N1  UNL     1      32.101  47.621  -1.160  1.00  0.00    -0.277 N 
HETATM   24  C2  UNL     1      31.851  47.575  -2.547  1.00  0.00     0.225 C 
HETATM   25  C21 UNL     1      33.275  47.621  -0.476  1.00  0.00     0.114 A 
HETATM   26  C1  UNL     1      30.439  47.586  -3.057  1.00  0.00     0.118 C 
HETATM   27  O1  UNL     1      32.737  47.526  -3.396  1.00  0.00    -0.273 OA
HETATM   28  N4  UNL     1      32.973  47.675   0.847  1.00  0.00    -0.343 N 
ATOM     29  H4  UNL     1      33.670  47.687   1.593  1.00  0.00     0.167 HD
BRANCH  25  30
HETATM   30  C22 UNL     1      34.604  47.582  -1.042  1.00  0.00     0.051 C 
HETATM   31  C23 UNL     1      35.762  47.389  -0.504  1.00  0.00     0.039 C 
BRANCH  31  32
HETATM   32  C24 UNL     1      36.240  47.135   0.841  1.00  0.00     0.076 C 
BRANCH  32  33
HETATM   33  O3  UNL     1      35.644  46.161   1.582  1.00  0.00    -0.362 OA
ATOM     34  H3  UNL     1      35.906  46.044   2.488  1.00  0.00     0.217 HD
ENDBRANCH  32  33
BRANCH  32  35
HETATM   35  C25 UNL     1      36.474  48.376   1.684  1.00  0.00     0.099 C 
HETATM   36  C26 UNL     1      36.615  49.617   0.839  1.00  0.00     0.053 C 
HETATM   37  C27 UNL     1      37.680  48.273   2.562  1.00  0.00     0.053 C 
BRANCH  35  38
HETATM   38  O4  UNL     1      35.357  48.605   2.516  1.00  0.00    -0.384 OA
ATOM     39  H4  UNL     1      35.392  49.489   2.865  1.00  0.00     0.211 HD
ENDBRANCH  35  38
ENDBRANCH  32  35
ENDBRANCH  31  32
ENDBRANCH  25  30
ENDBRANCH  18  21
ENDBRANCH  16  18
ENDBRANCH   9  12
ENDBRANCH   6   8
ENDBRANCH   1   6
TORSDOF 10
ENDMDL
MODEL 4
REMARK VINA RESULT: -9.324457486      2.058      8.339
REMARK  10 active torsions:
REMARK  status: ('A' for Active; 'I' for Inactive)
REMARK       I    between atoms: C2_2  and  N1_4 
REMARK    1  A    between atoms: C4_6  and  C5_7 
REMARK    2  A    between atoms: C5_7  and  C8_10 
REMARK    3  A    between atoms: C12_14  and  N2_15 
REMARK       I    between atoms: N2_15  and  C13_17 
REMARK    4  A    between atoms: C13_17  and  C14_19 
REMARK    5  A    between atoms: C14_19  and  C16_21 
REMARK    6  A    between atoms: C21_29  and  C22_30 
REMARK    7  A    between atoms: C23_31  and  C24_32 
REMARK    8  A    between atoms: C24_32  and  O3_33 
REMARK    9  A    between atoms: C24_32  and  C25_35 
REMARK   10  A    between atoms: C25_35  and  O4_38 
ROOT
HETATM    1  C16 UNL     1      32.943  48.992  -4.200  1.00  0.00     0.053 C 
HETATM    2  C17 UNL     1      32.975  50.497  -4.067  1.00  0.00     0.032 C 
HETATM    3  C18 UNL     1      32.758  48.651  -5.659  1.00  0.00     0.032 C 
HETATM    4  C19 UNL     1      31.722  48.518  -3.502  1.00  0.00     0.069 C 
HETATM    5  N3  UNL     1      30.780  48.144  -2.943  1.00  0.00    -0.196 NA
ENDROOT
BRANCH   1   6
HETATM    6  C14 UNL     1      34.153  48.346  -3.611  1.00  0.00     0.096 C 
HETATM    7  C15 UNL     1      34.098  46.857  -3.931  1.00  0.00     0.021 C 
BRANCH   6   8
HETATM    8  C13 UNL     1      34.148  48.443  -2.105  1.00  0.00     0.227 C 
HETATM    9  N2  UNL     1      33.498  47.480  -1.316  1.00  0.00    -0.327 N 
ATOM     10  H2  UNL     1      33.044  46.724  -1.828  1.00  0.00     0.169 HD
HETATM   11  O2  UNL     1      34.758  49.431  -1.641  1.00  0.00    -0.273 OA
BRANCH   9  12
HETATM   12  C12 UNL     1      33.389  47.419   0.081  1.00  0.00     0.035 A 
HETATM   13  C11 UNL     1      34.430  47.059   0.894  1.00  0.00     0.029 A 
HETATM   14  C10 UNL     1      34.198  47.024   2.272  1.00  0.00     0.003 A 
HETATM   15  C9  UNL     1      32.978  47.334   2.833  1.00  0.00     0.008 A 
HETATM   16  C8  UNL     1      31.935  47.694   2.027  1.00  0.00    -0.042 A 
HETATM   17  C20 UNL     1      32.157  47.730   0.679  1.00  0.00     0.037 A 
BRANCH  16  18
HETATM   18  C5  UNL     1      30.597  48.048   2.546  1.00  0.00     0.023 C 
HETATM   19  C6  UNL     1      30.150  49.313   1.821  1.00  0.00     0.027 C 
HETATM   20  C7  UNL     1      30.691  48.370   4.042  1.00  0.00     0.027 C 
BRANCH  18  21
HETATM   21  C4  UNL     1      29.606  46.963   2.341  1.00  0.00     0.039 A 
HETATM   22  C3  UNL     1      28.350  47.012   1.805  1.00  0.00     0.127 A 
HETATM   23  N1  UNL     1      27.770  45.760   1.802  1.00  0.00    -0.277 N 
HETATM   24  C2  UNL     1      26.474  45.494   1.312  1.00  0.00     0.225 C 
HETATM   25  C21 UNL     1      28.694  44.926   2.348  1.00  0.00     0.114 A 
HETATM   26  C1  UNL     1      25.639  46.609   0.752  1.00  0.00     0.118 C 
HETATM   27  O1  UNL     1      25.964  44.377   1.313  1.00  0.00    -0.273 OA
HETATM   28  N4  UNL     1      29.783  45.676   2.659  1.00  0.00    -0.343 N 
ATOM     29  H4  UNL     1      30.631  45.303   3.085  1.00  0.00     0.167 HD
BRANCH  25  30
HETATM   30  C22 UNL     1      28.557  43.502   2.552  1.00  0.00     0.051 C 
HETATM   31  C23 UNL     1      29.434  42.576   2.754  1.00  0.00     0.039 C 
BRANCH  31  32
HETATM   32  C24 UNL     1      30.879  42.534   2.863  1.00  0.00     0.076 C 
BRANCH  32  33
HETATM   33  O3  UNL     1      31.610  43.561   2.350  1.00  0.00    -0.362 OA
ATOM     34  H3  UNL     1      31.258  44.061   1.623  1.00  0.00     0.217 HD
ENDBRANCH  32  33
BRANCH  32  35
HETATM   35  C25 UNL     1      31.511  41.201   2.507  1.00  0.00     0.099 C 
HETATM   36  C26 UNL     1      32.525  41.332   1.398  1.00  0.00     0.053 C 
HETATM   37  C27 UNL     1      30.511  40.165   2.101  1.00  0.00     0.053 C 
BRANCH  35  38
HETATM   38  O4  UNL     1      32.222  40.697   3.617  1.00  0.00    -0.384 OA
ATOM     39  H4  UNL     1      33.070  40.372   3.336  1.00  0.00     0.211 HD
ENDBRANCH  35  38
ENDBRANCH  32  35
ENDBRANCH  31  32
ENDBRANCH  25  30
ENDBRANCH  18  21
ENDBRANCH  16  18
ENDBRANCH   9  12
ENDBRANCH   6   8
ENDBRANCH   1   6
TORSDOF 10
ENDMDL
MODEL 5
REMARK VINA RESULT: -9.230693881      1.726      3.480
REMARK  10 active torsions:
REMARK  status: ('A' for Active; 'I' for Inactive)
REMARK       I    between atoms: C2_2  and  N1_4 
REMARK    1  A    between atoms: C4_6  and  C5_7 
REMARK    2  A    between atoms: C5_7  and  C8_10 
REMARK    3  A    between atoms: C12_14  and  N2_15 
REMARK       I    between atoms: N2_15  and  C13_17 
REMARK    4  A    between atoms: C13_17  and  C14_19 
REMARK    5  A    between atoms: C14_19  and  C16_21 
REMARK    6  A    between atoms: C21_29  and  C22_30 
REMARK    7  A    between atoms: C23_31  and  C24_32 
REMARK    8  A    between atoms: C24_32  and  O3_33 
REMARK    9  A    between atoms: C24_32  and  C25_35 
REMARK   10  A    between atoms: C25_35  and  O4_38 
ROOT
HETATM    1  C16 UNL     1      31.326  40.761   2.103  1.00  0.00     0.053 C 
HETATM    2  C17 UNL     1      32.252  41.669   1.327  1.00  0.00     0.032 C 
HETATM    3  C18 UNL     1      31.496  41.060   3.573  1.00  0.00     0.032 C 
HETATM    4  C19 UNL     1      31.806  39.372   1.901  1.00  0.00     0.069 C 
HETATM    5  N3  UNL     1      32.168  38.285   1.730  1.00  0.00    -0.196 NA
ENDROOT
BRANCH   1   6
HETATM    6  C14 UNL     1      29.907  40.883   1.655  1.00  0.00     0.096 C 
HETATM    7  C15 UNL     1      29.774  40.179   0.311  1.00  0.00     0.021 C 
BRANCH   6   8
HETATM    8  C13 UNL     1      29.533  42.323   1.405  1.00  0.00     0.227 C 
HETATM    9  N2  UNL     1      29.234  43.192   2.466  1.00  0.00    -0.327 N 
ATOM     10  H2  UNL     1      29.293  42.785   3.400  1.00  0.00     0.169 HD
HETATM   11  O2  UNL     1      29.514  42.659   0.200  1.00  0.00    -0.273 OA
BRANCH   9  12
HETATM   12  C12 UNL     1      28.865  44.544   2.415  1.00  0.00     0.035 A 
HETATM   13  C11 UNL     1      27.565  44.959   2.313  1.00  0.00     0.029 A 
HETATM   14  C10 UNL     1      27.321  46.335   2.260  1.00  0.00     0.003 A 
HETATM   15  C9  UNL     1      28.329  47.274   2.305  1.00  0.00     0.008 A 
HETATM   16  C8  UNL     1      29.629  46.867   2.407  1.00  0.00    -0.042 A 
HETATM   17  C20 UNL     1      29.872  45.523   2.460  1.00  0.00     0.037 A 
BRANCH  16  18
HETATM   18  C5  UNL     1      30.768  47.807   2.468  1.00  0.00     0.023 C 
HETATM   19  C6  UNL     1      31.560  47.477   3.729  1.00  0.00     0.027 C 
HETATM   20  C7  UNL     1      30.247  49.243   2.602  1.00  0.00     0.027 C 
BRANCH  18  21
HETATM   21  C4  UNL     1      31.643  47.713   1.274  1.00  0.00     0.039 A 
HETATM   22  C3  UNL     1      31.320  47.736  -0.055  1.00  0.00     0.127 A 
HETATM   23  N1  UNL     1      32.452  47.620  -0.835  1.00  0.00    -0.277 N 
HETATM   24  C2  UNL     1      32.438  47.610  -2.245  1.00  0.00     0.225 C 
HETATM   25  C21 UNL     1      33.491  47.525   0.036  1.00  0.00     0.114 A 
HETATM   26  C1  UNL     1      31.136  47.730  -2.984  1.00  0.00     0.118 C 
HETATM   27  O1  UNL     1      33.449  47.507  -2.934  1.00  0.00    -0.273 OA
HETATM   28  N4  UNL     1      32.973  47.585   1.291  1.00  0.00    -0.343 N 
ATOM     29  H4  UNL     1      33.533  47.537   2.143  1.00  0.00     0.167 HD
BRANCH  25  30
HETATM   30  C22 UNL     1      34.890  47.396  -0.299  1.00  0.00     0.051 C 
HETATM   31  C23 UNL     1      35.906  48.154  -0.051  1.00  0.00     0.039 C 
BRANCH  31  32
HETATM   32  C24 UNL     1      36.105  49.412   0.641  1.00  0.00     0.076 C 
BRANCH  32  33
HETATM   33  O3  UNL     1      36.886  50.367   0.065  1.00  0.00    -0.362 OA
ATOM     34  H3  UNL     1      36.793  50.540  -0.865  1.00  0.00     0.217 HD
ENDBRANCH  32  33
BRANCH  32  35
HETATM   35  C25 UNL     1      36.423  49.288   2.120  1.00  0.00     0.099 C 
HETATM   36  C26 UNL     1      36.758  50.620   2.743  1.00  0.00     0.053 C 
HETATM   37  C27 UNL     1      37.551  48.347   2.404  1.00  0.00     0.053 C 
BRANCH  35  38
HETATM   38  O4  UNL     1      35.287  48.817   2.814  1.00  0.00    -0.384 OA
ATOM     39  H4  UNL     1      35.413  48.928   3.750  1.00  0.00     0.211 HD
ENDBRANCH  35  38
ENDBRANCH  32  35
ENDBRANCH  31  32
ENDBRANCH  25  30
ENDBRANCH  18  21
ENDBRANCH  16  18
ENDBRANCH   9  12
ENDBRANCH   6   8
ENDBRANCH   1   6
TORSDOF 10
ENDMDL
