MODEL 1
REMARK VINA RESULT: -7.667646678      0.000      0.000
REMARK  9 active torsions:
REMARK  status: ('A' for Active; 'I' for Inactive)
REMARK    1  A    between atoms: O1_2  and  C2_3 
REMARK    2  A    between atoms: C3_5  and  C4_6 
REMARK    3  A    between atoms: C4_6  and  O3_7 
REMARK    4  A    between atoms: C5_9  and  S1_10 
REMARK    5  A    between atoms: S1_10  and  S2_11 
REMARK    6  A    between atoms: S2_11  and  C6_12 
REMARK    7  A    between atoms: C9_16  and  O5_17 
REMARK    8  A    between atoms: O5_17  and  C10_18 
REMARK    9  A    between atoms: C15_23  and  C16_24 
ROOT
HETATM    1  C2  UNL     1      30.854  44.945   1.972  1.00  0.00     0.289 C 
HETATM    2  O2  UNL     1      29.669  44.972   2.758  1.00  0.00    -0.350 OA
HETATM    3  C3  UNL     1      29.172  46.305   2.745  1.00  0.00     0.163 C 
HETATM    4  C5  UNL     1      28.449  46.524   1.499  1.00  0.00     0.092 C 
HETATM    5  C8  UNL     1      29.044  45.511   0.488  1.00  0.00     0.056 C 
HETATM    6  C9  UNL     1      30.544  45.593   0.658  1.00  0.00     0.185 C 
ENDROOT
BRANCH   6   7
HETATM    7  O5  UNL     1      31.089  46.866   0.462  1.00  0.00    -0.340 OA
BRANCH   7   8
HETATM    8  C10 UNL     1      32.126  47.192  -0.400  1.00  0.00     0.083 A 
HETATM    9  C11 UNL     1      31.867  47.449  -1.728  1.00  0.00    -0.021 A 
HETATM   10  C12 UNL     1      30.500  47.437  -2.329  1.00  0.00     0.052 C 
HETATM   11  C13 UNL     1      32.951  47.764  -2.555  1.00  0.00    -0.036 A 
HETATM   12  C14 UNL     1      32.693  48.040  -3.979  1.00  0.00     0.050 C 
HETATM   13  C15 UNL     1      34.245  47.823  -2.086  1.00  0.00     0.054 A 
HETATM   14  C17 UNL     1      34.479  47.564  -0.756  1.00  0.00    -0.032 A 
HETATM   15  C18 UNL     1      33.440  47.251   0.088  1.00  0.00    -0.017 A 
HETATM   16  C22 UNL     1      35.854  47.599  -0.226  1.00  0.00     0.040 C 
HETATM   17  C19 UNL     1      33.785  47.029   1.511  1.00  0.00     0.042 C 
HETATM   18  C20 UNL     1      34.845  47.970   2.017  1.00  0.00     0.005 C 
HETATM   19  C21 UNL     1      35.833  48.442   1.014  1.00  0.00     0.005 C 
BRANCH  13  20
HETATM   20  C16 UNL     1      35.388  48.144  -2.934  1.00  0.00     0.210 C 
HETATM   21  O6  UNL     1      35.976  47.201  -3.506  1.00  0.00    -0.644 OA
HETATM   22  O7  UNL     1      35.843  49.429  -3.132  1.00  0.00    -0.644 OA
ENDBRANCH  13  20
ENDBRANCH   7   8
ENDBRANCH   6   7
BRANCH   1  23
HETATM   23  O1  UNL     1      31.136  43.572   1.829  1.00  0.00    -0.363 OA
HETATM   24  C1  UNL     1      30.521  42.819   2.827  1.00  0.00     0.204 C 
ENDBRANCH   1  23
BRANCH   4  25
HETATM   25  S1  UNL     1      26.696  46.569   1.406  1.00  0.00    -0.082 SA
BRANCH  25  26
HETATM   26  S2  UNL     1      25.860  45.482  -0.137  1.00  0.00    -0.020 SA
BRANCH  26  27
HETATM   27  C6  UNL     1      24.109  45.466  -0.114  1.00  0.00     0.192 C 
HETATM   28  C7  UNL     1      23.436  46.531   0.747  1.00  0.00     0.105 C 
HETATM   29  O4  UNL     1      23.352  44.722  -0.684  1.00  0.00    -0.285 OA
ENDBRANCH  26  27
ENDBRANCH  25  26
ENDBRANCH   4  25
BRANCH   3  30
HETATM   30  C4  UNL     1      28.590  46.680   4.048  1.00  0.00     0.197 C 
BRANCH  30  31
HETATM   31  O3  UNL     1      29.518  46.260   5.051  1.00  0.00    -0.398 OA
ATOM     32  H3  UNL     1      29.965  47.041   5.356  1.00  0.00     0.209 HD
ENDBRANCH  30  31
ENDBRANCH   3  30
TORSDOF 9
ENDMDL
MODEL 2
REMARK VINA RESULT: -7.662556322      2.135      2.893
REMARK  9 active torsions:
REMARK  status: ('A' for Active; 'I' for Inactive)
REMARK    1  A    between atoms: O1_2  and  C2_3 
REMARK    2  A    between atoms: C3_5  and  C4_6 
REMARK    3  A    between atoms: C4_6  and  O3_7 
REMARK    4  A    between atoms: C5_9  and  S1_10 
REMARK    5  A    between atoms: S1_10  and  S2_11 
REMARK    6  A    between atoms: S2_11  and  C6_12 
REMARK    7  A    between atoms: C9_16  and  O5_17 
REMARK    8  A    between atoms: O5_17  and  C10_18 
REMARK    9  A    between atoms: C15_23  and  C16_24 
ROOT
HETATM    1  C2  UNL     1      29.323  44.715   0.154  1.00  0.00     0.289 C 
HETATM    2  O2  UNL     1      28.182  44.407   0.946  1.00  0.00    -0.350 OA
HETATM    3  C3  UNL     1      27.659  45.631   1.446  1.00  0.00     0.163 C 
HETATM    4  C5  UNL     1      26.865  46.263   0.400  1.00  0.00     0.092 C 
HETATM    5  C8  UNL     1      27.423  45.714  -0.937  1.00  0.00     0.056 C 
HETATM    6  C9  UNL     1      28.928  45.786  -0.814  1.00  0.00     0.185 C 
ENDROOT
BRANCH   6   7
HETATM    7  O5  UNL     1      29.436  47.062  -0.553  1.00  0.00    -0.340 OA
BRANCH   7   8
HETATM    8  C10 UNL     1      30.751  47.376  -0.242  1.00  0.00     0.083 A 
HETATM    9  C11 UNL     1      31.711  47.390  -1.230  1.00  0.00    -0.021 A 
HETATM   10  C12 UNL     1      31.430  47.117  -2.670  1.00  0.00     0.052 C 
HETATM   11  C13 UNL     1      33.024  47.704  -0.858  1.00  0.00    -0.036 A 
HETATM   12  C14 UNL     1      34.064  47.721  -1.902  1.00  0.00     0.050 C 
HETATM   13  C15 UNL     1      33.375  47.994   0.442  1.00  0.00     0.054 A 
HETATM   14  C17 UNL     1      32.399  47.975   1.410  1.00  0.00    -0.032 A 
HETATM   15  C18 UNL     1      31.098  47.672   1.085  1.00  0.00    -0.017 A 
HETATM   16  C22 UNL     1      32.745  48.261   2.814  1.00  0.00     0.040 C 
HETATM   17  C19 UNL     1      30.111  47.717   2.188  1.00  0.00     0.042 C 
HETATM   18  C20 UNL     1      30.351  48.849   3.151  1.00  0.00     0.005 C 
HETATM   19  C21 UNL     1      31.763  49.277   3.317  1.00  0.00     0.005 C 
BRANCH  13  20
HETATM   20  C16 UNL     1      34.738  48.317   0.847  1.00  0.00     0.210 C 
HETATM   21  O6  UNL     1      35.083  49.518   0.836  1.00  0.00    -0.644 OA
HETATM   22  O7  UNL     1      35.655  47.366   1.240  1.00  0.00    -0.644 OA
ENDBRANCH  13  20
ENDBRANCH   7   8
ENDBRANCH   6   7
BRANCH   1  23
HETATM   23  O1  UNL     1      29.624  43.501  -0.495  1.00  0.00    -0.363 OA
HETATM   24  C1  UNL     1      29.604  42.429   0.394  1.00  0.00     0.204 C 
ENDBRANCH   1  23
BRANCH   4  25
HETATM   25  S1  UNL     1      25.108  46.271   0.407  1.00  0.00    -0.082 SA
BRANCH  25  26
HETATM   26  S2  UNL     1      24.210  44.635  -0.475  1.00  0.00    -0.020 SA
BRANCH  26  27
HETATM   27  C6  UNL     1      22.468  44.612  -0.297  1.00  0.00     0.192 C 
HETATM   28  C7  UNL     1      21.849  45.801   0.434  1.00  0.00     0.105 C 
HETATM   29  O4  UNL     1      21.680  43.781  -0.669  1.00  0.00    -0.285 OA
ENDBRANCH  26  27
ENDBRANCH  25  26
ENDBRANCH   4  25
BRANCH   3  30
HETATM   30  C4  UNL     1      27.142  45.480   2.820  1.00  0.00     0.197 C 
BRANCH  30  31
HETATM   31  O3  UNL     1      27.449  44.147   3.233  1.00  0.00    -0.398 OA
ATOM     32  H3  UNL     1      27.361  43.594   2.466  1.00  0.00     0.209 HD
ENDBRANCH  30  31
ENDBRANCH   3  30
TORSDOF 9
ENDMDL
MODEL 3
REMARK VINA RESULT: -7.614765729      3.181      5.189
REMARK  9 active torsions:
REMARK  status: ('A' for Active; 'I' for Inactive)
REMARK    1  A    between atoms: O1_2  and  C2_3 
REMARK    2  A    between atoms: C3_5  and  C4_6 
REMARK    3  A    between atoms: C4_6  and  O3_7 
REMARK    4  A    between atoms: C5_9  and  S1_10 
REMARK    5  A    between atoms: S1_10  and  S2_11 
REMARK    6  A    between atoms: S2_11  and  C6_12 
REMARK    7  A    between atoms: C9_16  and  O5_17 
REMARK    8  A    between atoms: O5_17  and  C10_18 
REMARK    9  A    between atoms: C15_23  and  C16_24 
ROOT
HETATM    1  C2  UNL     1      28.785  44.516   1.652  1.00  0.00     0.289 C 
HETATM    2  O2  UNL     1      28.600  43.138   1.953  1.00  0.00    -0.350 OA
HETATM    3  C3  UNL     1      29.682  42.419   1.375  1.00  0.00     0.163 C 
HETATM    4  C5  UNL     1      30.844  42.539   2.248  1.00  0.00     0.092 C 
HETATM    5  C8  UNL     1      30.632  43.850   3.046  1.00  0.00     0.056 C 
HETATM    6  C9  UNL     1      30.187  44.880   2.034  1.00  0.00     0.185 C 
ENDROOT
BRANCH   6   7
HETATM    7  O5  UNL     1      31.074  45.085   0.973  1.00  0.00    -0.340 OA
BRANCH   7   8
HETATM    8  C10 UNL     1      31.488  46.310   0.472  1.00  0.00     0.083 A 
HETATM    9  C11 UNL     1      31.015  46.756  -0.742  1.00  0.00    -0.021 A 
HETATM   10  C12 UNL     1      30.027  46.012  -1.578  1.00  0.00     0.052 C 
HETATM   11  C13 UNL     1      31.473  47.996  -1.205  1.00  0.00    -0.036 A 
HETATM   12  C14 UNL     1      30.980  48.488  -2.503  1.00  0.00     0.050 C 
HETATM   13  C15 UNL     1      32.367  48.766  -0.493  1.00  0.00     0.054 A 
HETATM   14  C17 UNL     1      32.824  48.300   0.717  1.00  0.00    -0.032 A 
HETATM   15  C18 UNL     1      32.396  47.088   1.205  1.00  0.00    -0.017 A 
HETATM   16  C22 UNL     1      33.795  49.090   1.494  1.00  0.00     0.040 C 
HETATM   17  C19 UNL     1      32.912  46.690   2.535  1.00  0.00     0.042 C 
HETATM   18  C20 UNL     1      33.014  47.841   3.500  1.00  0.00     0.005 C 
HETATM   19  C21 UNL     1      33.279  49.174   2.901  1.00  0.00     0.005 C 
BRANCH  13  20
HETATM   20  C16 UNL     1      32.859  50.057  -0.962  1.00  0.00     0.210 C 
HETATM   21  O6  UNL     1      33.887  50.069  -1.672  1.00  0.00    -0.644 OA
HETATM   22  O7  UNL     1      32.244  51.253  -0.662  1.00  0.00    -0.644 OA
ENDBRANCH  13  20
ENDBRANCH   7   8
ENDBRANCH   6   7
BRANCH   1  23
HETATM   23  O1  UNL     1      27.832  45.172   2.456  1.00  0.00    -0.363 OA
HETATM   24  C1  UNL     1      28.014  46.552   2.438  1.00  0.00     0.204 C 
ENDBRANCH   1  23
BRANCH   4  25
HETATM   25  S1  UNL     1      31.395  41.236   3.289  1.00  0.00    -0.082 SA
BRANCH  25  26
HETATM   26  S2  UNL     1      31.060  39.329   2.577  1.00  0.00    -0.020 SA
BRANCH  26  27
HETATM   27  C6  UNL     1      32.335  38.737   1.531  1.00  0.00     0.192 C 
HETATM   28  C7  UNL     1      33.004  39.772   0.631  1.00  0.00     0.105 C 
HETATM   29  O4  UNL     1      32.761  37.616   1.416  1.00  0.00    -0.285 OA
ENDBRANCH  26  27
ENDBRANCH  25  26
ENDBRANCH   4  25
BRANCH   3  30
HETATM   30  C4  UNL     1      29.247  41.112   0.849  1.00  0.00     0.197 C 
BRANCH  30  31
HETATM   31  O3  UNL     1      29.803  40.988  -0.462  1.00  0.00    -0.398 OA
ATOM     32  H3  UNL     1      29.569  40.124  -0.780  1.00  0.00     0.209 HD
ENDBRANCH  30  31
ENDBRANCH   3  30
TORSDOF 9
ENDMDL
MODEL 4
REMARK VINA RESULT: -7.569410350      1.039      2.772
REMARK  9 active torsions:
REMARK  status: ('A' for Active; 'I' for Inactive)
REMARK    1  A    between atoms: O1_2  and  C2_3 
REMARK    2  A    between atoms: C3_5  and  C4_6 
REMARK    3  A    between atoms: C4_6  and  O3_7 
REMARK    4  A    between atoms: C5_9  and  S1_10 
REMARK    5  A    between atoms: S1_10  and  S2_11 
REMARK    6  A    between atoms: S2_11  and  C6_12 
REMARK    7  A    between atoms: C9_16  and  O5_17 
REMARK    8  A    between atoms: O5_17  and  C10_18 
REMARK    9  A    between atoms: C15_23  and  C16_24 
ROOT
HETATM    1  C2  UNL     1      31.438  44.868   2.287  1.00  0.00     0.289 C 
HETATM    2  O2  UNL     1      30.233  44.934   3.038  1.00  0.00    -0.350 OA
HETATM    3  C3  UNL     1      29.876  46.305   3.165  1.00  0.00     0.163 C 
HETATM    4  C5  UNL     1      29.229  46.738   1.932  1.00  0.00     0.092 C 
HETATM    5  C8  UNL     1      29.755  45.785   0.828  1.00  0.00     0.056 C 
HETATM    6  C9  UNL     1      31.248  45.688   1.048  1.00  0.00     0.185 C 
ENDROOT
BRANCH   6   7
HETATM    7  O5  UNL     1      31.928  46.909   1.014  1.00  0.00    -0.340 OA
BRANCH   7   8
HETATM    8  C10 UNL     1      32.937  47.263   0.130  1.00  0.00     0.083 A 
HETATM    9  C11 UNL     1      34.255  47.033   0.456  1.00  0.00    -0.021 A 
HETATM   10  C12 UNL     1      34.699  46.374   1.720  1.00  0.00     0.052 C 
HETATM   11  C13 UNL     1      35.233  47.419  -0.469  1.00  0.00    -0.036 A 
HETATM   12  C14 UNL     1      36.648  47.181  -0.135  1.00  0.00     0.050 C 
HETATM   13  C15 UNL     1      34.919  48.012  -1.671  1.00  0.00     0.054 A 
HETATM   14  C17 UNL     1      33.596  48.231  -1.976  1.00  0.00    -0.032 A 
HETATM   15  C18 UNL     1      32.606  47.865  -1.093  1.00  0.00    -0.017 A 
HETATM   16  C22 UNL     1      33.227  48.881  -3.246  1.00  0.00     0.040 C 
HETATM   17  C19 UNL     1      31.211  48.103  -1.526  1.00  0.00     0.042 C 
HETATM   18  C20 UNL     1      30.989  47.825  -2.989  1.00  0.00     0.005 C 
HETATM   19  C21 UNL     1      32.156  48.045  -3.881  1.00  0.00     0.005 C 
BRANCH  13  20
HETATM   20  C16 UNL     1      35.924  48.426  -2.644  1.00  0.00     0.210 C 
HETATM   21  O6  UNL     1      36.384  49.585  -2.555  1.00  0.00    -0.644 OA
HETATM   22  O7  UNL     1      36.388  47.602  -3.647  1.00  0.00    -0.644 OA
ENDBRANCH  13  20
ENDBRANCH   7   8
ENDBRANCH   6   7
BRANCH   1  23
HETATM   23  O1  UNL     1      31.583  43.497   1.995  1.00  0.00    -0.363 OA
HETATM   24  C1  UNL     1      30.810  42.712   2.846  1.00  0.00     0.204 C 
ENDBRANCH   1  23
BRANCH   4  25
HETATM   25  S1  UNL     1      27.495  46.979   1.797  1.00  0.00    -0.082 SA
BRANCH  25  26
HETATM   26  S2  UNL     1      26.620  46.205   0.096  1.00  0.00    -0.020 SA
BRANCH  26  27
HETATM   27  C6  UNL     1      24.882  46.029   0.219  1.00  0.00     0.192 C 
HETATM   28  C7  UNL     1      24.288  44.759  -0.387  1.00  0.00     0.105 C 
HETATM   29  O4  UNL     1      24.078  46.777   0.714  1.00  0.00    -0.285 OA
ENDBRANCH  26  27
ENDBRANCH  25  26
ENDBRANCH   4  25
BRANCH   3  30
HETATM   30  C4  UNL     1      29.286  46.593   4.485  1.00  0.00     0.197 C 
BRANCH  30  31
HETATM   31  O3  UNL     1      30.273  46.254   5.462  1.00  0.00    -0.398 OA
ATOM     32  H3  UNL     1      31.046  46.768   5.261  1.00  0.00     0.209 HD
ENDBRANCH  30  31
ENDBRANCH   3  30
TORSDOF 9
ENDMDL
MODEL 5
REMARK VINA RESULT: -7.511338855      2.842      3.774
REMARK  9 active torsions:
REMARK  status: ('A' for Active; 'I' for Inactive)
REMARK    1  A    between atoms: O1_2  and  C2_3 
REMARK    2  A    between atoms: C3_5  and  C4_6 
REMARK    3  A    between atoms: C4_6  and  O3_7 
REMARK    4  A    between atoms: C5_9  and  S1_10 
REMARK    5  A    between atoms: S1_10  and  S2_11 
REMARK    6  A    between atoms: S2_11  and  C6_12 
REMARK    7  A    between atoms: C9_16  and  O5_17 
REMARK    8  A    between atoms: O5_17  and  C10_18 
REMARK    9  A    between atoms: C15_23  and  C16_24 
ROOT
HETATM    1  C2  UNL     1      30.705  43.328   1.995  1.00  0.00     0.289 C 
HETATM    2  O2  UNL     1      29.332  43.466   1.652  1.00  0.00    -0.350 OA
HETATM    3  C3  UNL     1      28.856  44.668   2.244  1.00  0.00     0.163 C 
HETATM    4  C5  UNL     1      29.263  45.794   1.412  1.00  0.00     0.092 C 
HETATM    5  C8  UNL     1      30.518  45.311   0.642  1.00  0.00     0.056 C 
HETATM    6  C9  UNL     1      31.388  44.620   1.667  1.00  0.00     0.185 C 
ENDROOT
BRANCH   6   7
HETATM    7  O5  UNL     1      31.752  45.412   2.760  1.00  0.00    -0.340 OA
BRANCH   7   8
HETATM    8  C10 UNL     1      32.193  46.726   2.712  1.00  0.00     0.083 A 
HETATM    9  C11 UNL     1      31.508  47.711   3.389  1.00  0.00    -0.021 A 
HETATM   10  C12 UNL     1      30.300  47.460   4.231  1.00  0.00     0.052 C 
HETATM   11  C13 UNL     1      31.992  49.022   3.299  1.00  0.00    -0.036 A 
HETATM   12  C14 UNL     1      31.270  50.088   4.014  1.00  0.00     0.050 C 
HETATM   13  C15 UNL     1      33.112  49.347   2.566  1.00  0.00     0.054 A 
HETATM   14  C17 UNL     1      33.780  48.347   1.900  1.00  0.00    -0.032 A 
HETATM   15  C18 UNL     1      33.336  47.047   1.965  1.00  0.00    -0.017 A 
HETATM   16  C22 UNL     1      34.970  48.664   1.091  1.00  0.00     0.040 C 
HETATM   17  C19 UNL     1      34.144  46.034   1.249  1.00  0.00     0.042 C 
HETATM   18  C20 UNL     1      35.626  46.278   1.351  1.00  0.00     0.005 C 
HETATM   19  C21 UNL     1      36.047  47.696   1.483  1.00  0.00     0.005 C 
BRANCH  13  20
HETATM   20  C16 UNL     1      33.626  50.707   2.456  1.00  0.00     0.210 C 
HETATM   21  O6  UNL     1      33.201  51.421   1.523  1.00  0.00    -0.644 OA
HETATM   22  O7  UNL     1      34.551  51.237   3.329  1.00  0.00    -0.644 OA
ENDBRANCH  13  20
ENDBRANCH   7   8
ENDBRANCH   6   7
BRANCH   1  23
HETATM   23  O1  UNL     1      31.156  42.271   1.179  1.00  0.00    -0.363 OA
HETATM   24  C1  UNL     1      30.099  41.465   0.761  1.00  0.00     0.204 C 
ENDBRANCH   1  23
BRANCH   4  25
HETATM   25  S1  UNL     1      28.152  46.650   0.355  1.00  0.00    -0.082 SA
BRANCH  25  26
HETATM   26  S2  UNL     1      26.940  45.457  -0.814  1.00  0.00    -0.020 SA
BRANCH  26  27
HETATM   27  C6  UNL     1      25.289  45.356  -0.237  1.00  0.00     0.192 C 
HETATM   28  C7  UNL     1      24.808  46.513   0.635  1.00  0.00     0.105 C 
HETATM   29  O4  UNL     1      24.472  44.492  -0.428  1.00  0.00    -0.285 OA
ENDBRANCH  26  27
ENDBRANCH  25  26
ENDBRANCH   4  25
BRANCH   3  30
HETATM   30  C4  UNL     1      27.468  44.526   2.722  1.00  0.00     0.197 C 
BRANCH  30  31
HETATM   31  O3  UNL     1      26.942  43.341   2.119  1.00  0.00    -0.398 OA
ATOM     32  H3  UNL     1      27.062  42.638   2.747  1.00  0.00     0.209 HD
ENDBRANCH  30  31
ENDBRANCH   3  30
TORSDOF 9
ENDMDL
