MODEL 1
REMARK VINA RESULT: -3.718349529      0.000      0.000
REMARK  1 active torsions:
REMARK  status: ('A' for Active; 'I' for Inactive)
REMARK    1  A    between atoms: N1_2  and  C3_4 
ROOT
HETATM    1  C3  UNL     1       8.493 -33.473 -35.438  1.00  0.00     0.099 C 
HETATM    2  C4  UNL     1       7.828 -32.756 -34.563  1.00  0.00     0.003 C 
HETATM    3  C5  UNL     1       7.691 -33.284 -33.193  1.00  0.00     0.121 C 
HETATM    4  S1  UNL     1       7.391 -32.059 -31.935  1.00  0.00    -0.163 SA
HETATM    5  C6  UNL     1       6.598 -30.567 -32.544  1.00  0.00     0.084 C 
HETATM    6  C7  UNL     1       7.410 -30.027 -33.727  1.00  0.00     0.089 C 
HETATM    7  S2  UNL     1       7.138 -31.207 -35.082  1.00  0.00    -0.131 SA
ENDROOT
BRANCH   1   8
HETATM    8  N1  UNL     1       9.084 -34.731 -35.123  1.00  0.00    -0.398 N 
HETATM    9  C1  UNL     1       8.326 -35.962 -35.120  1.00  0.00     0.148 C 
HETATM   10  C2  UNL     1      10.494 -34.740 -34.801  1.00  0.00     0.148 C 
ENDBRANCH   1   8
TORSDOF 1
ENDMDL
MODEL 2
REMARK VINA RESULT: -3.555132948      2.556      4.872
REMARK  1 active torsions:
REMARK  status: ('A' for Active; 'I' for Inactive)
REMARK    1  A    between atoms: N1_2  and  C3_4 
ROOT
HETATM    1  C3  UNL     1       7.623 -32.228 -34.568  1.00  0.00     0.099 C 
HETATM    2  C4  UNL     1       8.506 -32.901 -35.267  1.00  0.00     0.003 C 
HETATM    3  C5  UNL     1       9.144 -32.227 -36.413  1.00  0.00     0.121 C 
HETATM    4  S1  UNL     1      10.727 -32.885 -36.896  1.00  0.00    -0.163 SA
HETATM    5  C6  UNL     1      10.962 -34.611 -36.461  1.00  0.00     0.084 C 
HETATM    6  C7  UNL     1      10.669 -34.786 -34.966  1.00  0.00     0.089 C 
HETATM    7  S2  UNL     1       8.872 -34.571 -34.794  1.00  0.00    -0.131 SA
ENDROOT
BRANCH   1   8
HETATM    8  N1  UNL     1       7.257 -30.884 -34.865  1.00  0.00    -0.398 N 
HETATM    9  C1  UNL     1       6.246 -30.557 -35.845  1.00  0.00     0.148 C 
HETATM   10  C2  UNL     1       7.939 -29.834 -34.142  1.00  0.00     0.148 C 
ENDBRANCH   1   8
TORSDOF 1
ENDMDL
MODEL 3
REMARK VINA RESULT: -3.553157643      2.567      4.986
REMARK  1 active torsions:
REMARK  status: ('A' for Active; 'I' for Inactive)
REMARK    1  A    between atoms: N1_2  and  C3_4 
ROOT
HETATM    1  C3  UNL     1       7.652 -32.267 -34.560  1.00  0.00     0.099 C 
HETATM    2  C4  UNL     1       8.526 -32.925 -35.285  1.00  0.00     0.003 C 
HETATM    3  C5  UNL     1       9.162 -32.221 -36.414  1.00  0.00     0.121 C 
HETATM    4  S1  UNL     1      10.738 -32.877 -36.926  1.00  0.00    -0.163 SA
HETATM    5  C6  UNL     1      10.962 -34.616 -36.544  1.00  0.00     0.084 C 
HETATM    6  C7  UNL     1      10.677 -34.833 -35.052  1.00  0.00     0.089 C 
HETATM    7  S2  UNL     1       8.883 -34.610 -34.864  1.00  0.00    -0.131 SA
ENDROOT
BRANCH   1   8
HETATM    8  N1  UNL     1       7.294 -30.911 -34.816  1.00  0.00    -0.398 N 
HETATM    9  C1  UNL     1       7.958 -29.802 -34.168  1.00  0.00     0.148 C 
HETATM   10  C2  UNL     1       6.226 -30.673 -35.761  1.00  0.00     0.148 C 
ENDBRANCH   1   8
TORSDOF 1
ENDMDL
MODEL 4
REMARK VINA RESULT: -3.519949722      3.787      5.074
REMARK  1 active torsions:
REMARK  status: ('A' for Active; 'I' for Inactive)
REMARK    1  A    between atoms: N1_2  and  C3_4 
ROOT
HETATM    1  C3  UNL     1       6.094 -30.504 -33.438  1.00  0.00     0.099 C 
HETATM    2  C4  UNL     1       5.443 -29.454 -32.994  1.00  0.00     0.003 C 
HETATM    3  C5  UNL     1       5.257 -28.314 -33.910  1.00  0.00     0.121 C 
HETATM    4  S1  UNL     1       3.876 -27.254 -33.532  1.00  0.00    -0.163 SA
HETATM    5  C6  UNL     1       3.400 -27.267 -31.800  1.00  0.00     0.084 C 
HETATM    6  C7  UNL     1       3.181 -28.720 -31.362  1.00  0.00     0.089 C 
HETATM    7  S2  UNL     1       4.834 -29.473 -31.328  1.00  0.00    -0.131 SA
ENDROOT
BRANCH   1   8
HETATM    8  N1  UNL     1       6.624 -30.588 -34.758  1.00  0.00    -0.398 N 
HETATM    9  C1  UNL     1       5.787 -30.825 -35.913  1.00  0.00     0.148 C 
HETATM   10  C2  UNL     1       8.052 -30.427 -34.912  1.00  0.00     0.148 C 
ENDBRANCH   1   8
TORSDOF 1
ENDMDL
MODEL 5
REMARK VINA RESULT: -3.506398256      3.945      5.143
REMARK  1 active torsions:
REMARK  status: ('A' for Active; 'I' for Inactive)
REMARK    1  A    between atoms: N1_2  and  C3_4 
ROOT
HETATM    1  C3  UNL     1       5.857 -29.063 -35.086  1.00  0.00     0.099 C 
HETATM    2  C4  UNL     1       4.921 -28.636 -34.270  1.00  0.00     0.003 C 
HETATM    3  C5  UNL     1       4.796 -29.290 -32.954  1.00  0.00     0.121 C 
HETATM    4  S1  UNL     1       4.018 -28.305 -31.689  1.00  0.00    -0.163 SA
HETATM    5  C6  UNL     1       2.897 -27.055 -32.324  1.00  0.00     0.084 C 
HETATM    6  C7  UNL     1       3.640 -26.213 -33.369  1.00  0.00     0.089 C 
HETATM    7  S2  UNL     1       3.871 -27.308 -34.801  1.00  0.00    -0.131 SA
ENDROOT
BRANCH   1   8
HETATM    8  N1  UNL     1       6.750 -30.123 -34.756  1.00  0.00    -0.398 N 
HETATM    9  C1  UNL     1       6.447 -31.507 -35.046  1.00  0.00     0.148 C 
HETATM   10  C2  UNL     1       7.994 -29.767 -34.112  1.00  0.00     0.148 C 
ENDBRANCH   1   8
TORSDOF 1
ENDMDL
