MODEL 1
REMARK VINA RESULT: -4.524273042      0.000      0.000
REMARK  1 active torsions:
REMARK  status: ('A' for Active; 'I' for Inactive)
REMARK    1  A    between atoms: C2_3  and  C3_4 
ROOT
HETATM    1  N1  UNL     1       7.988 -31.675 -34.075  1.00  0.00    -0.197 NA
HETATM    2  C1  UNL     1       7.570 -30.615 -33.898  1.00  0.00     0.060 C 
HETATM    3  C2  UNL     1       7.058 -29.271 -33.656  1.00  0.00     0.139 C 
ENDROOT
BRANCH   3   4
HETATM    4  C3  UNL     1       5.563 -29.293 -33.436  1.00  0.00     0.069 C 
HETATM    5  C4  UNL     1       5.307 -28.958 -31.993  1.00  0.00     0.089 C 
HETATM    6  S1  UNL     1       3.572 -28.626 -31.646  1.00  0.00    -0.168 SA
HETATM    7  C5  UNL     1       3.344 -26.817 -31.754  1.00  0.00     0.074 C 
HETATM    8  C6  UNL     1       3.002 -26.541 -33.220  1.00  0.00     0.020 C 
HETATM    9  C7  UNL     1       4.297 -26.619 -33.998  1.00  0.00     0.075 C 
HETATM   10  S2  UNL     1       4.661 -28.270 -34.594  1.00  0.00    -0.163 SA
ENDBRANCH   3   4
TORSDOF 1
ENDMDL
MODEL 2
REMARK VINA RESULT: -4.363657096      1.471      1.734
REMARK  1 active torsions:
REMARK  status: ('A' for Active; 'I' for Inactive)
REMARK    1  A    between atoms: C2_3  and  C3_4 
ROOT
HETATM    1  N1  UNL     1       7.924 -32.334 -31.847  1.00  0.00    -0.197 NA
HETATM    2  C1  UNL     1       7.610 -31.533 -32.614  1.00  0.00     0.060 C 
HETATM    3  C2  UNL     1       7.233 -30.505 -33.577  1.00  0.00     0.139 C 
ENDROOT
BRANCH   3   4
HETATM    4  C3  UNL     1       5.782 -30.116 -33.414  1.00  0.00     0.069 C 
HETATM    5  C4  UNL     1       5.731 -28.892 -32.543  1.00  0.00     0.089 C 
HETATM    6  S1  UNL     1       4.106 -28.116 -32.517  1.00  0.00    -0.168 SA
HETATM    7  C5  UNL     1       4.125 -26.799 -33.783  1.00  0.00     0.074 C 
HETATM    8  C6  UNL     1       3.672 -27.478 -35.078  1.00  0.00     0.020 C 
HETATM    9  C7  UNL     1       4.853 -28.266 -35.600  1.00  0.00     0.075 C 
HETATM   10  S2  UNL     1       4.916 -29.942 -34.970  1.00  0.00    -0.163 SA
ENDBRANCH   3   4
TORSDOF 1
ENDMDL
MODEL 3
REMARK VINA RESULT: -4.250449962      7.151      8.717
REMARK  1 active torsions:
REMARK  status: ('A' for Active; 'I' for Inactive)
REMARK    1  A    between atoms: C2_3  and  C3_4 
ROOT
HETATM    1  N1  UNL     1       9.252 -34.303 -32.199  1.00  0.00    -0.197 NA
HETATM    2  C1  UNL     1       8.549 -34.413 -33.106  1.00  0.00     0.060 C 
HETATM    3  C2  UNL     1       7.659 -34.577 -34.250  1.00  0.00     0.139 C 
ENDROOT
BRANCH   3   4
HETATM    4  C3  UNL     1       8.295 -34.045 -35.513  1.00  0.00     0.069 C 
HETATM    5  C4  UNL     1       9.775 -34.290 -35.419  1.00  0.00     0.089 C 
HETATM    6  S1  UNL     1      10.633 -34.009 -36.977  1.00  0.00    -0.168 SA
HETATM    7  C5  UNL     1      10.761 -35.627 -37.815  1.00  0.00     0.074 C 
HETATM    8  C6  UNL     1       9.486 -35.749 -38.652  1.00  0.00     0.020 C 
HETATM    9  C7  UNL     1       8.366 -36.111 -37.702  1.00  0.00     0.075 C 
HETATM   10  S2  UNL     1       7.542 -34.679 -37.007  1.00  0.00    -0.163 SA
ENDBRANCH   3   4
TORSDOF 1
ENDMDL
MODEL 4
REMARK VINA RESULT: -4.243788819      6.606      8.131
REMARK  1 active torsions:
REMARK  status: ('A' for Active; 'I' for Inactive)
REMARK    1  A    between atoms: C2_3  and  C3_4 
ROOT
HETATM    1  N1  UNL     1       9.191 -34.260 -32.447  1.00  0.00    -0.197 NA
HETATM    2  C1  UNL     1       8.320 -34.286 -33.202  1.00  0.00     0.060 C 
HETATM    3  C2  UNL     1       7.213 -34.342 -34.149  1.00  0.00     0.139 C 
ENDROOT
BRANCH   3   4
HETATM    4  C3  UNL     1       7.698 -34.132 -35.565  1.00  0.00     0.069 C 
HETATM    5  C4  UNL     1       8.436 -32.823 -35.607  1.00  0.00     0.089 C 
HETATM    6  S1  UNL     1       9.351 -32.582 -37.139  1.00  0.00    -0.168 SA
HETATM    7  C5  UNL     1      11.060 -33.148 -36.833  1.00  0.00     0.074 C 
HETATM    8  C6  UNL     1      11.060 -34.638 -37.183  1.00  0.00     0.020 C 
HETATM    9  C7  UNL     1      10.407 -35.363 -36.027  1.00  0.00     0.075 C 
HETATM   10  S2  UNL     1       8.630 -35.517 -36.207  1.00  0.00    -0.163 SA
ENDBRANCH   3   4
TORSDOF 1
ENDMDL
MODEL 5
REMARK VINA RESULT: -4.209488748      3.136      4.138
REMARK  1 active torsions:
REMARK  status: ('A' for Active; 'I' for Inactive)
REMARK    1  A    between atoms: C2_3  and  C3_4 
ROOT
HETATM    1  N1  UNL     1       2.946 -26.360 -37.708  1.00  0.00    -0.197 NA
HETATM    2  C1  UNL     1       3.564 -27.130 -37.112  1.00  0.00     0.060 C 
HETATM    3  C2  UNL     1       4.328 -28.120 -36.361  1.00  0.00     0.139 C 
ENDROOT
BRANCH   3   4
HETATM    4  C3  UNL     1       4.696 -27.596 -34.992  1.00  0.00     0.069 C 
HETATM    5  C4  UNL     1       3.423 -27.203 -34.294  1.00  0.00     0.089 C 
HETATM    6  S1  UNL     1       3.659 -26.865 -32.541  1.00  0.00    -0.168 SA
HETATM    7  C5  UNL     1       3.274 -28.410 -31.645  1.00  0.00     0.074 C 
HETATM    8  C6  UNL     1       4.598 -29.175 -31.575  1.00  0.00     0.020 C 
HETATM    9  C7  UNL     1       4.823 -29.793 -32.937  1.00  0.00     0.075 C 
HETATM   10  S2  UNL     1       5.724 -28.722 -34.056  1.00  0.00    -0.163 SA
ENDBRANCH   3   4
TORSDOF 1
ENDMDL
