MODEL 1
REMARK VINA RESULT: -4.122511062      0.000      0.000
REMARK  3 active torsions:
REMARK  status: ('A' for Active; 'I' for Inactive)
REMARK    1  A    between atoms: C2_2  and  S1_3 
REMARK    2  A    between atoms: S1_3  and  C3_4 
REMARK    3  A    between atoms: C3_4  and  N1_6 
ROOT
HETATM    1  N1  UNL     1       4.365 -28.334 -33.849  1.00  0.00    -0.367 N 
HETATM    2  C4  UNL     1       3.677 -27.155 -34.376  1.00  0.00     0.124 C 
HETATM    3  C5  UNL     1       3.419 -26.293 -33.162  1.00  0.00     0.021 C 
HETATM    4  C6  UNL     1       3.247 -27.356 -32.097  1.00  0.00     0.021 C 
HETATM    5  C7  UNL     1       4.442 -28.237 -32.400  1.00  0.00     0.124 C 
ENDROOT
BRANCH   1   6
HETATM    6  C3  UNL     1       4.858 -29.375 -34.681  1.00  0.00     0.136 C 
HETATM    7  S2  UNL     1       4.803 -29.161 -36.293  1.00  0.00    -0.053 SA
BRANCH   6   8
HETATM    8  S1  UNL     1       5.520 -30.875 -33.979  1.00  0.00    -0.101 SA
BRANCH   8   9
HETATM    9  C2  UNL     1       7.179 -30.603 -33.315  1.00  0.00     0.077 C 
HETATM   10  C1  UNL     1       7.917 -29.493 -34.017  1.00  0.00     0.016 C 
ENDBRANCH   8   9
ENDBRANCH   6   8
ENDBRANCH   1   6
TORSDOF 3
ENDMDL
MODEL 2
REMARK VINA RESULT: -4.071245551      1.249      2.208
REMARK  3 active torsions:
REMARK  status: ('A' for Active; 'I' for Inactive)
REMARK    1  A    between atoms: C2_2  and  S1_3 
REMARK    2  A    between atoms: S1_3  and  C3_4 
REMARK    3  A    between atoms: C3_4  and  N1_6 
ROOT
HETATM    1  N1  UNL     1       4.255 -28.376 -33.049  1.00  0.00    -0.367 N 
HETATM    2  C4  UNL     1       3.562 -27.480 -32.121  1.00  0.00     0.124 C 
HETATM    3  C5  UNL     1       2.980 -26.401 -33.002  1.00  0.00     0.021 C 
HETATM    4  C6  UNL     1       4.016 -26.350 -34.106  1.00  0.00     0.021 C 
HETATM    5  C7  UNL     1       4.174 -27.829 -34.394  1.00  0.00     0.124 C 
ENDROOT
BRANCH   1   6
HETATM    6  C3  UNL     1       4.887 -29.579 -32.632  1.00  0.00     0.136 C 
HETATM    7  S2  UNL     1       5.076 -29.834 -31.037  1.00  0.00    -0.053 SA
BRANCH   6   8
HETATM    8  S1  UNL     1       5.456 -30.777 -33.825  1.00  0.00    -0.101 SA
BRANCH   8   9
HETATM    9  C2  UNL     1       7.262 -30.861 -33.848  1.00  0.00     0.077 C 
HETATM   10  C1  UNL     1       7.910 -29.512 -34.020  1.00  0.00     0.016 C 
ENDBRANCH   8   9
ENDBRANCH   6   8
ENDBRANCH   1   6
TORSDOF 3
ENDMDL
MODEL 3
REMARK VINA RESULT: -4.059375933      1.960      2.837
REMARK  3 active torsions:
REMARK  status: ('A' for Active; 'I' for Inactive)
REMARK    1  A    between atoms: C2_2  and  S1_3 
REMARK    2  A    between atoms: S1_3  and  C3_4 
REMARK    3  A    between atoms: C3_4  and  N1_6 
ROOT
HETATM    1  N1  UNL     1       5.131 -29.433 -32.439  1.00  0.00    -0.367 N 
HETATM    2  C4  UNL     1       4.452 -29.371 -31.144  1.00  0.00     0.124 C 
HETATM    3  C5  UNL     1       3.209 -28.554 -31.408  1.00  0.00     0.021 C 
HETATM    4  C6  UNL     1       3.706 -27.632 -32.501  1.00  0.00     0.021 C 
HETATM    5  C7  UNL     1       4.395 -28.633 -33.406  1.00  0.00     0.124 C 
ENDROOT
BRANCH   1   6
HETATM    6  C3  UNL     1       6.321 -30.180 -32.650  1.00  0.00     0.136 C 
HETATM    7  S2  UNL     1       7.331 -29.697 -33.832  1.00  0.00    -0.053 SA
BRANCH   6   8
HETATM    8  S1  UNL     1       6.700 -31.606 -31.648  1.00  0.00    -0.101 SA
BRANCH   8   9
HETATM    9  C2  UNL     1       7.651 -32.824 -32.587  1.00  0.00     0.077 C 
HETATM   10  C1  UNL     1       6.810 -33.589 -33.575  1.00  0.00     0.016 C 
ENDBRANCH   8   9
ENDBRANCH   6   8
ENDBRANCH   1   6
TORSDOF 3
ENDMDL
MODEL 4
REMARK VINA RESULT: -4.057482054      2.108      4.224
REMARK  3 active torsions:
REMARK  status: ('A' for Active; 'I' for Inactive)
REMARK    1  A    between atoms: C2_2  and  S1_3 
REMARK    2  A    between atoms: S1_3  and  C3_4 
REMARK    3  A    between atoms: C3_4  and  N1_6 
ROOT
HETATM    1  N1  UNL     1       5.136 -29.128 -33.177  1.00  0.00    -0.367 N 
HETATM    2  C4  UNL     1       4.918 -30.320 -33.997  1.00  0.00     0.124 C 
HETATM    3  C5  UNL     1       6.293 -30.920 -34.167  1.00  0.00     0.021 C 
HETATM    4  C6  UNL     1       7.149 -29.671 -34.144  1.00  0.00     0.021 C 
HETATM    5  C7  UNL     1       6.562 -28.965 -32.939  1.00  0.00     0.124 C 
ENDROOT
BRANCH   1   6
HETATM    6  C3  UNL     1       4.075 -28.302 -32.719  1.00  0.00     0.136 C 
HETATM    7  S2  UNL     1       3.269 -28.758 -31.381  1.00  0.00    -0.053 SA
BRANCH   6   8
HETATM    8  S1  UNL     1       3.638 -26.805 -33.585  1.00  0.00    -0.101 SA
BRANCH   8   9
HETATM    9  C2  UNL     1       4.469 -26.716 -35.187  1.00  0.00     0.077 C 
HETATM   10  C1  UNL     1       3.791 -27.544 -36.247  1.00  0.00     0.016 C 
ENDBRANCH   8   9
ENDBRANCH   6   8
ENDBRANCH   1   6
TORSDOF 3
ENDMDL
MODEL 5
REMARK VINA RESULT: -4.052694346      0.457      1.333
REMARK  3 active torsions:
REMARK  status: ('A' for Active; 'I' for Inactive)
REMARK    1  A    between atoms: C2_2  and  S1_3 
REMARK    2  A    between atoms: S1_3  and  C3_4 
REMARK    3  A    between atoms: C3_4  and  N1_6 
ROOT
HETATM    1  N1  UNL     1       4.323 -28.625 -34.188  1.00  0.00    -0.367 N 
HETATM    2  C4  UNL     1       4.221 -28.514 -32.732  1.00  0.00     0.124 C 
HETATM    3  C5  UNL     1       3.445 -27.239 -32.503  1.00  0.00     0.021 C 
HETATM    4  C6  UNL     1       3.890 -26.422 -33.698  1.00  0.00     0.021 C 
HETATM    5  C7  UNL     1       3.726 -27.448 -34.801  1.00  0.00     0.124 C 
ENDROOT
BRANCH   1   6
HETATM    6  C3  UNL     1       4.924 -29.737 -34.836  1.00  0.00     0.136 C 
HETATM    7  S2  UNL     1       4.949 -29.756 -36.463  1.00  0.00    -0.053 SA
BRANCH   6   8
HETATM    8  S1  UNL     1       5.633 -31.076 -33.894  1.00  0.00    -0.101 SA
BRANCH   8   9
HETATM    9  C2  UNL     1       7.261 -30.625 -33.251  1.00  0.00     0.077 C 
HETATM   10  C1  UNL     1       7.893 -29.483 -34.003  1.00  0.00     0.016 C 
ENDBRANCH   8   9
ENDBRANCH   6   8
ENDBRANCH   1   6
TORSDOF 3
ENDMDL
