MODEL 1
REMARK VINA RESULT: -6.111513736      0.000      0.000
REMARK  6 active torsions:
REMARK  status: ('A' for Active; 'I' for Inactive)
REMARK    1  A    between atoms: N1_1  and  C1_4 
REMARK    2  A    between atoms: C2_9  and  N4_10 
REMARK    3  A    between atoms: N4_10  and  O1_12 
REMARK    4  A    between atoms: C3_14  and  N5_15 
REMARK    5  A    between atoms: N5_15  and  S1_17 
REMARK    6  A    between atoms: S1_17  and  N6_18 
ROOT
HETATM    1  C1  UNL     1      66.449 -10.501   1.923  1.00  0.00     0.692 A 
HETATM    2  N2  UNL     1      65.954 -11.209   2.946  1.00  0.00    -0.131 N 
ATOM      3  H2  UNL     1      65.408 -12.047   2.748  1.00  0.00     0.205 HD
HETATM    4  N3  UNL     1      66.153 -10.853   4.221  1.00  0.00    -0.267 N 
ATOM      5  H3  UNL     1      65.769 -11.404   4.989  1.00  0.00     0.189 HD
HETATM    6  C2  UNL     1      66.886  -9.730   4.459  1.00  0.00     0.186 A 
HETATM    7  C3  UNL     1      67.408  -8.978   3.429  1.00  0.00     0.179 A 
HETATM    8  N7  UNL     1      67.183  -9.375   2.167  1.00  0.00    -0.171 N 
ATOM      9  H7  UNL     1      67.560  -8.834   1.388  1.00  0.00     0.186 HD
ENDROOT
BRANCH   7  10
HETATM   10  N5  UNL     1      68.091  -7.932   3.642  1.00  0.00    -0.249 N 
ATOM     11  H5  UNL     1      69.093  -7.992   3.461  1.00  0.00     0.182 HD
BRANCH  10  12
HETATM   12  S1  UNL     1      67.502  -6.440   4.201  1.00  0.00     0.318 S 
HETATM   13  O2  UNL     1      68.437  -5.291   3.886  1.00  0.00    -0.183 OA
HETATM   14  O3  UNL     1      67.193  -6.424   5.666  1.00  0.00    -0.183 OA
BRANCH  12  15
HETATM   15  N6  UNL     1      66.027  -6.093   3.328  1.00  0.00    -0.311 N 
ATOM     16  H62 UNL     1      65.085  -6.146   3.715  1.00  0.00     0.170 HD
ATOM     17  H61 UNL     1      66.286  -5.834   2.376  1.00  0.00     0.170 HD
ENDBRANCH  12  15
ENDBRANCH  10  12
ENDBRANCH   7  10
BRANCH   6  18
HETATM   18  N4  UNL     1      67.124  -9.316   5.664  1.00  0.00    -0.249 N 
ATOM     19  H4  UNL     1      66.366  -9.015   6.277  1.00  0.00     0.196 HD
BRANCH  18  20
HETATM   20  O1  UNL     1      68.429  -9.296   6.087  1.00  0.00    -0.288 OA
ATOM     21  H1  UNL     1      68.844  -8.449   6.203  1.00  0.00     0.244 HD
ENDBRANCH  18  20
ENDBRANCH   6  18
BRANCH   1  22
HETATM   22  N1  UNL     1      66.222 -10.896   0.727  1.00  0.00    -0.233 N 
ATOM     23  H12 UNL     1      66.960 -11.315   0.162  1.00  0.00     0.174 HD
ATOM     24  H11 UNL     1      65.286 -10.785   0.338  1.00  0.00     0.174 HD
ENDBRANCH   1  22
TORSDOF 6
ENDMDL
MODEL 2
REMARK VINA RESULT: -6.108862452      1.940      3.072
REMARK  6 active torsions:
REMARK  status: ('A' for Active; 'I' for Inactive)
REMARK    1  A    between atoms: N1_1  and  C1_4 
REMARK    2  A    between atoms: C2_9  and  N4_10 
REMARK    3  A    between atoms: N4_10  and  O1_12 
REMARK    4  A    between atoms: C3_14  and  N5_15 
REMARK    5  A    between atoms: N5_15  and  S1_17 
REMARK    6  A    between atoms: S1_17  and  N6_18 
ROOT
HETATM    1  C1  UNL     1      66.894 -10.397   4.976  1.00  0.00     0.692 A 
HETATM    2  N2  UNL     1      66.174 -11.133   4.119  1.00  0.00    -0.131 N 
ATOM      3  H2  UNL     1      65.720 -11.981   4.458  1.00  0.00     0.205 HD
HETATM    4  N3  UNL     1      66.032 -10.794   2.833  1.00  0.00    -0.267 N 
ATOM      5  H3  UNL     1      65.481 -11.367   2.193  1.00  0.00     0.189 HD
HETATM    6  C2  UNL     1      66.649  -9.657   2.404  1.00  0.00     0.186 A 
HETATM    7  C3  UNL     1      67.398  -8.877   3.259  1.00  0.00     0.179 A 
HETATM    8  N7  UNL     1      67.511  -9.258   4.541  1.00  0.00    -0.171 N 
ATOM      9  H7  UNL     1      68.059  -8.696   5.193  1.00  0.00     0.186 HD
ENDROOT
BRANCH   7  10
HETATM   10  N5  UNL     1      67.974  -7.819   2.868  1.00  0.00    -0.249 N 
ATOM     11  H5  UNL     1      68.490  -7.873   1.990  1.00  0.00     0.182 HD
BRANCH  10  12
HETATM   12  S1  UNL     1      67.975  -6.318   3.664  1.00  0.00     0.318 S 
HETATM   13  O2  UNL     1      67.934  -6.460   5.172  1.00  0.00    -0.183 OA
HETATM   14  O3  UNL     1      66.867  -5.407   3.234  1.00  0.00    -0.183 OA
BRANCH  12  15
HETATM   15  N6  UNL     1      69.496  -5.532   3.311  1.00  0.00    -0.311 N 
ATOM     16  H62 UNL     1      69.826  -5.273   2.381  1.00  0.00     0.170 HD
ATOM     17  H61 UNL     1      69.981  -5.386   4.196  1.00  0.00     0.170 HD
ENDBRANCH  12  15
ENDBRANCH  10  12
ENDBRANCH   7  10
BRANCH   6  18
HETATM   18  N4  UNL     1      66.563  -9.258   1.174  1.00  0.00    -0.249 N 
ATOM     19  H4  UNL     1      65.792  -8.665   0.866  1.00  0.00     0.196 HD
BRANCH  18  20
HETATM   20  O1  UNL     1      67.542  -9.659   0.302  1.00  0.00    -0.288 OA
ATOM     21  H1  UNL     1      67.473  -9.374  -0.602  1.00  0.00     0.244 HD
ENDBRANCH  18  20
ENDBRANCH   6  18
BRANCH   1  22
HETATM   22  N1  UNL     1      66.990 -10.777   6.193  1.00  0.00    -0.233 N 
ATOM     23  H12 UNL     1      67.849 -10.633   6.723  1.00  0.00     0.174 HD
ATOM     24  H11 UNL     1      66.192 -11.233   6.635  1.00  0.00     0.174 HD
ENDBRANCH   1  22
TORSDOF 6
ENDMDL
MODEL 3
REMARK VINA RESULT: -5.972910523      1.139      1.403
REMARK  6 active torsions:
REMARK  status: ('A' for Active; 'I' for Inactive)
REMARK    1  A    between atoms: N1_1  and  C1_4 
REMARK    2  A    between atoms: C2_9  and  N4_10 
REMARK    3  A    between atoms: N4_10  and  O1_12 
REMARK    4  A    between atoms: C3_14  and  N5_15 
REMARK    5  A    between atoms: N5_15  and  S1_17 
REMARK    6  A    between atoms: S1_17  and  N6_18 
ROOT
HETATM    1  C1  UNL     1      66.376 -10.496   1.913  1.00  0.00     0.692 A 
HETATM    2  N2  UNL     1      65.871 -11.109   2.991  1.00  0.00    -0.131 N 
ATOM      3  H2  UNL     1      65.236 -11.896   2.859  1.00  0.00     0.205 HD
HETATM    4  N3  UNL     1      66.172 -10.724   4.236  1.00  0.00    -0.267 N 
ATOM      5  H3  UNL     1      65.778 -11.202   5.047  1.00  0.00     0.189 HD
HETATM    6  C2  UNL     1      67.023  -9.670   4.386  1.00  0.00     0.186 A 
HETATM    7  C3  UNL     1      67.559  -9.016   3.299  1.00  0.00     0.179 A 
HETATM    8  N7  UNL     1      67.227  -9.439   2.068  1.00  0.00    -0.171 N 
ATOM      9  H7  UNL     1      67.613  -8.971   1.248  1.00  0.00     0.186 HD
ENDROOT
BRANCH   7  10
HETATM   10  N5  UNL     1      68.350  -8.035   3.429  1.00  0.00    -0.249 N 
ATOM     11  H5  UNL     1      69.348  -8.238   3.373  1.00  0.00     0.182 HD
BRANCH  10  12
HETATM   12  S1  UNL     1      67.913  -6.414   3.690  1.00  0.00     0.318 S 
HETATM   13  O2  UNL     1      67.638  -6.113   5.148  1.00  0.00    -0.183 OA
HETATM   14  O3  UNL     1      66.739  -5.968   2.874  1.00  0.00    -0.183 OA
BRANCH  12  15
HETATM   15  N6  UNL     1      69.286  -5.421   3.259  1.00  0.00    -0.311 N 
ATOM     16  H62 UNL     1      69.631  -5.267   2.311  1.00  0.00     0.170 HD
ATOM     17  H61 UNL     1      69.668  -5.032   4.121  1.00  0.00     0.170 HD
ENDBRANCH  12  15
ENDBRANCH  10  12
ENDBRANCH   7  10
BRANCH   6  18
HETATM   18  N4  UNL     1      67.365  -9.233   5.557  1.00  0.00    -0.249 N 
ATOM     19  H4  UNL     1      68.244  -9.519   5.990  1.00  0.00     0.196 HD
BRANCH  18  20
HETATM   20  O1  UNL     1      66.507  -8.373   6.195  1.00  0.00    -0.288 OA
ATOM     21  H1  UNL     1      66.624  -8.243   7.129  1.00  0.00     0.244 HD
ENDBRANCH  18  20
ENDBRANCH   6  18
BRANCH   1  22
HETATM   22  N1  UNL     1      66.047 -10.914   0.749  1.00  0.00    -0.233 N 
ATOM     23  H12 UNL     1      66.046 -11.910   0.529  1.00  0.00     0.174 HD
ATOM     24  H11 UNL     1      65.785 -10.235   0.035  1.00  0.00     0.174 HD
ENDBRANCH   1  22
TORSDOF 6
ENDMDL
MODEL 4
REMARK VINA RESULT: -5.944863962      0.905      1.406
REMARK  6 active torsions:
REMARK  status: ('A' for Active; 'I' for Inactive)
REMARK    1  A    between atoms: N1_1  and  C1_4 
REMARK    2  A    between atoms: C2_9  and  N4_10 
REMARK    3  A    between atoms: N4_10  and  O1_12 
REMARK    4  A    between atoms: C3_14  and  N5_15 
REMARK    5  A    between atoms: N5_15  and  S1_17 
REMARK    6  A    between atoms: S1_17  and  N6_18 
ROOT
HETATM    1  C1  UNL     1      66.340 -10.636   1.906  1.00  0.00     0.692 A 
HETATM    2  N2  UNL     1      66.788 -11.483   2.842  1.00  0.00    -0.131 N 
ATOM      3  H2  UNL     1      66.953 -12.456   2.588  1.00  0.00     0.205 HD
HETATM    4  N3  UNL     1      67.026 -11.093   4.100  1.00  0.00    -0.267 N 
ATOM      5  H3  UNL     1      67.367 -11.752   4.801  1.00  0.00     0.189 HD
HETATM    6  C2  UNL     1      66.797  -9.787   4.414  1.00  0.00     0.186 A 
HETATM    7  C3  UNL     1      66.336  -8.890   3.476  1.00  0.00     0.179 A 
HETATM    8  N7  UNL     1      66.112  -9.328   2.226  1.00  0.00    -0.171 N 
ATOM      9  H7  UNL     1      65.770  -8.681   1.515  1.00  0.00     0.186 HD
ENDROOT
BRANCH   7  10
HETATM   10  N5  UNL     1      66.121  -7.674   3.760  1.00  0.00    -0.249 N 
ATOM     11  H5  UNL     1      65.148  -7.398   3.891  1.00  0.00     0.182 HD
BRANCH  10  12
HETATM   12  S1  UNL     1      67.293  -6.459   3.944  1.00  0.00     0.318 S 
HETATM   13  O2  UNL     1      67.646  -6.207   5.395  1.00  0.00    -0.183 OA
HETATM   14  O3  UNL     1      66.918  -5.158   3.304  1.00  0.00    -0.183 OA
BRANCH  12  15
HETATM   15  N6  UNL     1      68.767  -7.030   3.197  1.00  0.00    -0.311 N 
ATOM     16  H62 UNL     1      68.820  -7.609   2.359  1.00  0.00     0.170 HD
ATOM     17  H61 UNL     1      69.549  -6.679   3.750  1.00  0.00     0.170 HD
ENDBRANCH  12  15
ENDBRANCH  10  12
ENDBRANCH   7  10
BRANCH   6  18
HETATM   18  N4  UNL     1      67.002  -9.329   5.609  1.00  0.00    -0.249 N 
ATOM     19  H4  UNL     1      66.239  -9.257   6.283  1.00  0.00     0.196 HD
BRANCH  18  20
HETATM   20  O1  UNL     1      68.277  -8.945   5.937  1.00  0.00    -0.288 OA
ATOM     21  H1  UNL     1      68.887  -8.782   5.227  1.00  0.00     0.244 HD
ENDBRANCH  18  20
ENDBRANCH   6  18
BRANCH   1  22
HETATM   22  N1  UNL     1      66.132 -11.072   0.722  1.00  0.00    -0.233 N 
ATOM     23  H12 UNL     1      65.184 -11.211   0.371  1.00  0.00     0.174 HD
ATOM     24  H11 UNL     1      66.930 -11.285   0.125  1.00  0.00     0.174 HD
ENDBRANCH   1  22
TORSDOF 6
ENDMDL
MODEL 5
REMARK VINA RESULT: -5.884198806      2.805      4.107
REMARK  6 active torsions:
REMARK  status: ('A' for Active; 'I' for Inactive)
REMARK    1  A    between atoms: N1_1  and  C1_4 
REMARK    2  A    between atoms: C2_9  and  N4_10 
REMARK    3  A    between atoms: N4_10  and  O1_12 
REMARK    4  A    between atoms: C3_14  and  N5_15 
REMARK    5  A    between atoms: N5_15  and  S1_17 
REMARK    6  A    between atoms: S1_17  and  N6_18 
ROOT
HETATM    1  C1  UNL     1      68.337  -7.160   3.650  1.00  0.00     0.692 A 
HETATM    2  N2  UNL     1      68.486  -7.564   4.919  1.00  0.00    -0.131 N 
ATOM      3  H2  UNL     1      69.082  -7.020   5.542  1.00  0.00     0.205 HD
HETATM    4  N3  UNL     1      67.877  -8.656   5.394  1.00  0.00    -0.267 N 
ATOM      5  H3  UNL     1      68.001  -8.950   6.364  1.00  0.00     0.189 HD
HETATM    6  C2  UNL     1      67.086  -9.365   4.541  1.00  0.00     0.186 A 
HETATM    7  C3  UNL     1      66.913  -8.979   3.230  1.00  0.00     0.179 A 
HETATM    8  N7  UNL     1      67.544  -7.875   2.798  1.00  0.00    -0.171 N 
ATOM      9  H7  UNL     1      67.430  -7.569   1.831  1.00  0.00     0.186 HD
ENDROOT
BRANCH   7  10
HETATM   10  N5  UNL     1      66.179  -9.632   2.430  1.00  0.00    -0.249 N 
ATOM     11  H5  UNL     1      65.462 -10.226   2.845  1.00  0.00     0.182 HD
BRANCH  10  12
HETATM   12  S1  UNL     1      66.273  -9.617   0.734  1.00  0.00     0.318 S 
HETATM   13  O2  UNL     1      67.678  -9.355   0.232  1.00  0.00    -0.183 OA
HETATM   14  O3  UNL     1      65.339  -8.641   0.087  1.00  0.00    -0.183 OA
BRANCH  12  15
HETATM   15  N6  UNL     1      65.865 -11.220   0.167  1.00  0.00    -0.311 N 
ATOM     16  H62 UNL     1      64.932 -11.630   0.175  1.00  0.00     0.170 HD
ATOM     17  H61 UNL     1      66.724 -11.657  -0.166  1.00  0.00     0.170 HD
ENDBRANCH  12  15
ENDBRANCH  10  12
ENDBRANCH   7  10
BRANCH   6  18
HETATM   18  N4  UNL     1      66.462 -10.435   4.922  1.00  0.00    -0.249 N 
ATOM     19  H4  UNL     1      65.778 -10.890   4.316  1.00  0.00     0.196 HD
BRANCH  18  20
HETATM   20  O1  UNL     1      66.752 -10.936   6.165  1.00  0.00    -0.288 OA
ATOM     21  H1  UNL     1      66.402 -10.476   6.920  1.00  0.00     0.244 HD
ENDBRANCH  18  20
ENDBRANCH   6  18
BRANCH   1  22
HETATM   22  N1  UNL     1      68.947  -6.107   3.258  1.00  0.00    -0.233 N 
ATOM     23  H12 UNL     1      69.287  -5.415   3.926  1.00  0.00     0.174 HD
ATOM     24  H11 UNL     1      69.092  -5.961   2.259  1.00  0.00     0.174 HD
ENDBRANCH   1  22
TORSDOF 6
ENDMDL
