MODEL 1
REMARK VINA RESULT: -7.096183260      0.000      0.000
REMARK  2 active torsions:
REMARK  status: ('A' for Active; 'I' for Inactive)
REMARK    1  A    between atoms: N2_7  and  N3_8 
REMARK    2  A    between atoms: N3_8  and  C3_10 
ROOT
HETATM    1  N3  UNL     1      67.679  -5.799   3.334  1.00  0.00    -0.117 N 
ATOM      2  H3  UNL     1      66.845  -5.331   2.979  1.00  0.00     0.206 HD
ENDROOT
BRANCH   1   3
HETATM    3  N2  UNL     1      67.568  -7.118   3.815  1.00  0.00    -0.149 N 
HETATM    4  C2  UNL     1      67.510  -8.262   2.996  1.00  0.00     0.352 A 
HETATM    5  N1  UNL     1      67.401  -9.406   3.812  1.00  0.00    -0.269 N 
HETATM    6  O2  UNL     1      67.545  -8.333   1.735  1.00  0.00    -0.244 OA
HETATM    7  C1  UNL     1      67.386  -9.003   5.178  1.00  0.00     0.319 A 
ATOM      8  H1  UNL     1      67.342 -10.367   3.478  1.00  0.00     0.174 HD
HETATM    9  O1  UNL     1      67.300  -9.739   6.210  1.00  0.00    -0.262 OA
HETATM   10  C5  UNL     1      67.492  -7.552   5.162  1.00  0.00     0.339 A 
HETATM   11  O4  UNL     1      67.516  -6.793   6.163  1.00  0.00    -0.260 OA
ENDBRANCH   1   3
BRANCH   1  12
HETATM   12  C3  UNL     1      68.788  -5.172   3.329  1.00  0.00     0.716 A 
HETATM   13  N4  UNL     1      70.018  -5.704   3.273  1.00  0.00    -0.127 N 
HETATM   14  N5  UNL     1      70.932  -4.751   3.288  1.00  0.00    -0.237 N 
ATOM     15  H4  UNL     1      70.219  -6.704   3.226  1.00  0.00     0.206 HD
HETATM   16  C4  UNL     1      70.295  -3.570   3.353  1.00  0.00     0.353 A 
ATOM     17  H5  UNL     1      71.943  -4.887   3.255  1.00  0.00     0.192 HD
HETATM   18  O3  UNL     1      70.759  -2.411   3.389  1.00  0.00    -0.245 OA
HETATM   19  N6  UNL     1      68.961  -3.841   3.379  1.00  0.00    -0.137 N 
ATOM     20  H6  UNL     1      68.216  -3.146   3.428  1.00  0.00     0.189 HD
ENDBRANCH   1  12
TORSDOF 2
ENDMDL
MODEL 2
REMARK VINA RESULT: -6.948779030      0.916      2.135
REMARK  2 active torsions:
REMARK  status: ('A' for Active; 'I' for Inactive)
REMARK    1  A    between atoms: N2_7  and  N3_8 
REMARK    2  A    between atoms: N3_8  and  C3_10 
ROOT
HETATM    1  N3  UNL     1      67.570  -5.862   3.481  1.00  0.00    -0.117 N 
ATOM      2  H3  UNL     1      66.712  -5.333   3.320  1.00  0.00     0.206 HD
ENDROOT
BRANCH   1   3
HETATM    3  N2  UNL     1      67.479  -7.234   3.784  1.00  0.00    -0.149 N 
HETATM    4  C2  UNL     1      67.620  -7.775   5.077  1.00  0.00     0.352 A 
HETATM    5  N1  UNL     1      67.469  -9.174   5.008  1.00  0.00    -0.269 N 
HETATM    6  O2  UNL     1      67.842  -7.172   6.165  1.00  0.00    -0.244 OA
HETATM    7  C1  UNL     1      67.229  -9.549   3.655  1.00  0.00     0.319 A 
ATOM      8  H1  UNL     1      67.524  -9.814   5.799  1.00  0.00     0.174 HD
HETATM    9  O1  UNL     1      67.043 -10.717   3.189  1.00  0.00    -0.262 OA
HETATM   10  C5  UNL     1      67.239  -8.310   2.894  1.00  0.00     0.339 A 
HETATM   11  O4  UNL     1      67.064  -8.192   1.656  1.00  0.00    -0.260 OA
ENDBRANCH   1   3
BRANCH   1  12
HETATM   12  C3  UNL     1      68.689  -5.259   3.402  1.00  0.00     0.716 A 
HETATM   13  N4  UNL     1      69.902  -5.818   3.270  1.00  0.00    -0.127 N 
HETATM   14  N5  UNL     1      70.835  -4.885   3.221  1.00  0.00    -0.237 N 
ATOM     15  H4  UNL     1      70.078  -6.822   3.215  1.00  0.00     0.206 HD
HETATM   16  C4  UNL     1      70.229  -3.690   3.322  1.00  0.00     0.353 A 
ATOM     17  H5  UNL     1      71.838  -5.043   3.124  1.00  0.00     0.192 HD
HETATM   18  O3  UNL     1      70.720  -2.542   3.323  1.00  0.00    -0.245 OA
HETATM   19  N6  UNL     1      68.894  -3.932   3.435  1.00  0.00    -0.137 N 
ATOM     20  H6  UNL     1      68.169  -3.221   3.528  1.00  0.00     0.189 HD
ENDBRANCH   1  12
TORSDOF 2
ENDMDL
MODEL 3
REMARK VINA RESULT: -6.882086865      2.779      4.278
REMARK  2 active torsions:
REMARK  status: ('A' for Active; 'I' for Inactive)
REMARK    1  A    between atoms: N2_7  and  N3_8 
REMARK    2  A    between atoms: N3_8  and  C3_10 
ROOT
HETATM    1  N3  UNL     1      65.994  -8.414   3.038  1.00  0.00    -0.117 N 
ATOM      2  H3  UNL     1      65.244  -8.422   3.729  1.00  0.00     0.206 HD
ENDROOT
BRANCH   1   3
HETATM    3  N2  UNL     1      65.927  -9.304   1.949  1.00  0.00    -0.149 N 
HETATM    4  C2  UNL     1      66.358 -10.644   1.987  1.00  0.00     0.352 A 
HETATM    5  N1  UNL     1      66.142 -11.233   0.726  1.00  0.00    -0.269 N 
HETATM    6  O2  UNL     1      66.864 -11.283   2.953  1.00  0.00    -0.244 OA
HETATM    7  C1  UNL     1      65.564 -10.266  -0.145  1.00  0.00     0.319 A 
ATOM      8  H1  UNL     1      66.363 -12.196   0.477  1.00  0.00     0.174 HD
HETATM    9  O1  UNL     1      65.225 -10.412  -1.362  1.00  0.00    -0.262 OA
HETATM   10  C5  UNL     1      65.435  -9.051   0.644  1.00  0.00     0.339 A 
HETATM   11  O4  UNL     1      64.967  -7.952   0.254  1.00  0.00    -0.260 OA
ENDBRANCH   1   3
BRANCH   1  12
HETATM   12  C3  UNL     1      66.962  -7.600   3.187  1.00  0.00     0.716 A 
HETATM   13  N4  UNL     1      68.268  -7.855   3.018  1.00  0.00    -0.127 N 
HETATM   14  N5  UNL     1      68.984  -6.772   3.261  1.00  0.00    -0.237 N 
ATOM     15  H4  UNL     1      68.654  -8.758   2.740  1.00  0.00     0.206 HD
HETATM   16  C4  UNL     1      68.136  -5.785   3.596  1.00  0.00     0.353 A 
ATOM     17  H5  UNL     1      69.999  -6.697   3.205  1.00  0.00     0.192 HD
HETATM   18  O3  UNL     1      68.372  -4.598   3.904  1.00  0.00    -0.245 OA
HETATM   19  N6  UNL     1      66.880  -6.308   3.548  1.00  0.00    -0.137 N 
ATOM     20  H6  UNL     1      66.018  -5.802   3.753  1.00  0.00     0.189 HD
ENDBRANCH   1  12
TORSDOF 2
ENDMDL
MODEL 4
REMARK VINA RESULT: -6.652349095      3.168      4.948
REMARK  2 active torsions:
REMARK  status: ('A' for Active; 'I' for Inactive)
REMARK    1  A    between atoms: N2_7  and  N3_8 
REMARK    2  A    between atoms: N3_8  and  C3_10 
ROOT
HETATM    1  N3  UNL     1      65.512  -8.653   3.224  1.00  0.00    -0.117 N 
ATOM      2  H3  UNL     1      64.575  -8.392   3.530  1.00  0.00     0.206 HD
ENDROOT
BRANCH   1   3
HETATM    3  N2  UNL     1      65.657  -9.435   2.062  1.00  0.00    -0.149 N 
HETATM    4  C2  UNL     1      66.143 -10.757   2.049  1.00  0.00     0.352 A 
HETATM    5  N1  UNL     1      66.153 -11.228   0.721  1.00  0.00    -0.269 N 
HETATM    6  O2  UNL     1      66.524 -11.469   3.021  1.00  0.00    -0.244 OA
HETATM    7  C1  UNL     1      65.670 -10.203  -0.140  1.00  0.00     0.319 A 
ATOM      8  H1  UNL     1      66.457 -12.155   0.425  1.00  0.00     0.174 HD
HETATM    9  O1  UNL     1      65.530 -10.242  -1.403  1.00  0.00    -0.262 OA
HETATM   10  C5  UNL     1      65.361  -9.075   0.725  1.00  0.00     0.339 A 
HETATM   11  O4  UNL     1      64.906  -7.960   0.366  1.00  0.00    -0.260 OA
ENDBRANCH   1   3
BRANCH   1  12
HETATM   12  C3  UNL     1      66.514  -8.260   3.905  1.00  0.00     0.716 A 
HETATM   13  N4  UNL     1      67.601  -7.617   3.450  1.00  0.00    -0.127 N 
HETATM   14  N5  UNL     1      68.437  -7.367   4.441  1.00  0.00    -0.237 N 
ATOM     15  H4  UNL     1      67.759  -7.358   2.475  1.00  0.00     0.206 HD
HETATM   16  C4  UNL     1      67.893  -7.852   5.570  1.00  0.00     0.353 A 
ATOM     17  H5  UNL     1      69.335  -6.891   4.364  1.00  0.00     0.192 HD
HETATM   18  O3  UNL     1      68.332  -7.840   6.739  1.00  0.00    -0.245 OA
HETATM   19  N6  UNL     1      66.698  -8.406   5.228  1.00  0.00    -0.137 N 
ATOM     20  H6  UNL     1      66.047  -8.858   5.871  1.00  0.00     0.189 HD
ENDBRANCH   1  12
TORSDOF 2
ENDMDL
MODEL 5
REMARK VINA RESULT: -6.493793062      1.332      1.616
REMARK  2 active torsions:
REMARK  status: ('A' for Active; 'I' for Inactive)
REMARK    1  A    between atoms: N2_7  and  N3_8 
REMARK    2  A    between atoms: N3_8  and  C3_10 
ROOT
HETATM    1  N3  UNL     1      66.875  -7.387   3.305  1.00  0.00    -0.117 N 
ATOM      2  H3  UNL     1      66.006  -7.154   2.824  1.00  0.00     0.206 HD
ENDROOT
BRANCH   1   3
HETATM    3  N2  UNL     1      66.997  -8.648   3.920  1.00  0.00    -0.149 N 
HETATM    4  C2  UNL     1      67.096  -9.867   3.222  1.00  0.00     0.352 A 
HETATM    5  N1  UNL     1      67.204 -10.921   4.151  1.00  0.00    -0.269 N 
HETATM    6  O2  UNL     1      67.097 -10.065   1.973  1.00  0.00    -0.244 OA
HETATM    7  C1  UNL     1      67.173 -10.383   5.469  1.00  0.00     0.319 A 
ATOM      8  H1  UNL     1      67.290 -11.909   3.917  1.00  0.00     0.174 HD
HETATM    9  O1  UNL     1      67.244 -11.010   6.572  1.00  0.00    -0.262 OA
HETATM   10  C5  UNL     1      67.041  -8.944   5.304  1.00  0.00     0.339 A 
HETATM   11  O4  UNL     1      66.978  -8.089   6.223  1.00  0.00    -0.260 OA
ENDBRANCH   1   3
BRANCH   1  12
HETATM   12  C3  UNL     1      67.815  -6.528   3.332  1.00  0.00     0.716 A 
HETATM   13  N4  UNL     1      69.132  -6.766   3.235  1.00  0.00    -0.127 N 
HETATM   14  N5  UNL     1      69.810  -5.635   3.302  1.00  0.00    -0.237 N 
ATOM     15  H4  UNL     1      69.551  -7.690   3.124  1.00  0.00     0.206 HD
HETATM   16  C4  UNL     1      68.926  -4.633   3.446  1.00  0.00     0.353 A 
ATOM     17  H5  UNL     1      70.824  -5.538   3.254  1.00  0.00     0.192 HD
HETATM   18  O3  UNL     1      69.120  -3.404   3.550  1.00  0.00    -0.245 OA
HETATM   19  N6  UNL     1      67.688  -5.197   3.463  1.00  0.00    -0.137 N 
ATOM     20  H6  UNL     1      66.807  -4.691   3.561  1.00  0.00     0.189 HD
ENDBRANCH   1  12
TORSDOF 2
ENDMDL
