MODEL 1
REMARK VINA RESULT: -5.800532779      0.000      0.000
REMARK  4 active torsions:
REMARK  status: ('A' for Active; 'I' for Inactive)
REMARK    1  A    between atoms: C3_5  and  C4_6 
REMARK    2  A    between atoms: C8_14  and  C9_15 
REMARK    3  A    between atoms: C9_15  and  N3_16 
REMARK    4  A    between atoms: C9_15  and  N4_20 
ROOT
HETATM    1  C1  UNL     1      66.837 -11.376   3.642  1.00  0.00     0.043 C 
HETATM    2  C2  UNL     1      66.900 -10.156   3.163  1.00  0.00     0.033 A 
HETATM    3  N1  UNL     1      67.586  -9.150   3.725  1.00  0.00    -0.354 N 
ATOM      4  H1  UNL     1      68.132  -9.224   4.584  1.00  0.00     0.166 HD
HETATM    5  C3  UNL     1      67.451  -8.030   2.994  1.00  0.00     0.064 A 
HETATM    6  C7  UNL     1      66.652  -8.333   1.928  1.00  0.00     0.045 A 
HETATM    7  C8  UNL     1      66.291  -9.659   2.009  1.00  0.00     0.027 A 
ENDROOT
BRANCH   7   8
HETATM    8  C9  UNL     1      65.446 -10.466   1.112  1.00  0.00     0.413 C 
BRANCH   8   9
HETATM    9  N3  UNL     1      64.462  -9.595   0.451  1.00  0.00    -0.046 N 
ATOM     10  H33 UNL     1      64.376  -9.797  -0.545  1.00  0.00     0.277 HD
ATOM     11  H32 UNL     1      63.505  -9.816   0.728  1.00  0.00     0.277 HD
ATOM     12  H31 UNL     1      64.699  -8.619   0.629  1.00  0.00     0.277 HD
ENDBRANCH   8   9
BRANCH   8  13
HETATM   13  N4  UNL     1      66.300 -11.056   0.096  1.00  0.00    -0.046 N 
ATOM     14  H43 UNL     1      66.038 -10.776  -0.849  1.00  0.00     0.277 HD
ATOM     15  H42 UNL     1      67.242 -10.666   0.098  1.00  0.00     0.277 HD
ATOM     16  H41 UNL     1      66.293 -12.068   0.223  1.00  0.00     0.277 HD
ENDBRANCH   8  13
ENDBRANCH   7   8
BRANCH   5  17
HETATM   17  C4  UNL     1      67.971  -6.838   3.216  1.00  0.00     0.118 A 
HETATM   18  N2  UNL     1      69.290  -6.314   3.475  1.00  0.00    -0.315 N 
HETATM   19  C5  UNL     1      68.839  -4.970   3.573  1.00  0.00     0.298 A 
ATOM     20  H2  UNL     1      70.209  -6.749   3.558  1.00  0.00     0.169 HD
HETATM   21  O1  UNL     1      69.363  -3.850   3.788  1.00  0.00    -0.264 OA
HETATM   22  C6  UNL     1      67.493  -5.464   3.315  1.00  0.00     0.268 A 
HETATM   23  O2  UNL     1      66.343  -4.926   3.210  1.00  0.00    -0.280 OA
ENDBRANCH   5  17
TORSDOF 4
ENDMDL
MODEL 2
REMARK VINA RESULT: -5.770914188      3.407      5.302
REMARK  4 active torsions:
REMARK  status: ('A' for Active; 'I' for Inactive)
REMARK    1  A    between atoms: C3_5  and  C4_6 
REMARK    2  A    between atoms: C8_14  and  C9_15 
REMARK    3  A    between atoms: C9_15  and  N3_16 
REMARK    4  A    between atoms: C9_15  and  N4_20 
ROOT
HETATM    1  C1  UNL     1      65.384  -6.773   5.195  1.00  0.00     0.043 C 
HETATM    2  C2  UNL     1      65.824  -7.719   4.398  1.00  0.00     0.033 A 
HETATM    3  N1  UNL     1      65.496  -7.838   3.103  1.00  0.00    -0.354 N 
ATOM      4  H1  UNL     1      64.870  -7.210   2.599  1.00  0.00     0.166 HD
HETATM    5  C3  UNL     1      66.110  -8.907   2.566  1.00  0.00     0.064 A 
HETATM    6  C7  UNL     1      66.855  -9.487   3.552  1.00  0.00     0.045 A 
HETATM    7  C8  UNL     1      66.695  -8.763   4.712  1.00  0.00     0.027 A 
ENDROOT
BRANCH   7   8
HETATM    8  C9  UNL     1      67.280  -8.973   6.047  1.00  0.00     0.413 C 
BRANCH   8   9
HETATM    9  N3  UNL     1      67.239 -10.406   6.380  1.00  0.00    -0.046 N 
ATOM     10  H33 UNL     1      66.443 -10.878   5.951  1.00  0.00     0.277 HD
ATOM     11  H32 UNL     1      67.984 -10.930   5.921  1.00  0.00     0.277 HD
ATOM     12  H31 UNL     1      67.255 -10.519   7.394  1.00  0.00     0.277 HD
ENDBRANCH   8   9
BRANCH   8  13
HETATM   13  N4  UNL     1      68.667  -8.546   6.006  1.00  0.00    -0.046 N 
ATOM     14  H43 UNL     1      68.890  -8.014   5.165  1.00  0.00     0.277 HD
ATOM     15  H42 UNL     1      68.876  -7.818   6.688  1.00  0.00     0.277 HD
ATOM     16  H41 UNL     1      69.257  -9.371   6.118  1.00  0.00     0.277 HD
ENDBRANCH   8  13
ENDBRANCH   7   8
BRANCH   5  17
HETATM   17  C4  UNL     1      66.042  -9.355   1.326  1.00  0.00     0.118 A 
HETATM   18  N2  UNL     1      66.954  -9.977   0.398  1.00  0.00    -0.315 N 
HETATM   19  C5  UNL     1      65.982 -10.078  -0.634  1.00  0.00     0.298 A 
ATOM     20  H2  UNL     1      67.936 -10.246   0.460  1.00  0.00     0.169 HD
HETATM   21  O1  UNL     1      65.949 -10.513  -1.811  1.00  0.00    -0.264 OA
HETATM   22  C6  UNL     1      65.035  -9.451   0.278  1.00  0.00     0.268 A 
HETATM   23  O2  UNL     1      63.807  -9.114   0.206  1.00  0.00    -0.280 OA
ENDBRANCH   5  17
TORSDOF 4
ENDMDL
MODEL 3
REMARK VINA RESULT: -5.768488289      2.887      5.239
REMARK  4 active torsions:
REMARK  status: ('A' for Active; 'I' for Inactive)
REMARK    1  A    between atoms: C3_5  and  C4_6 
REMARK    2  A    between atoms: C8_14  and  C9_15 
REMARK    3  A    between atoms: C9_15  and  N3_16 
REMARK    4  A    between atoms: C9_15  and  N4_20 
ROOT
HETATM    1  C1  UNL     1      66.975 -11.142   6.145  1.00  0.00     0.043 C 
HETATM    2  C2  UNL     1      66.876 -10.462   5.026  1.00  0.00     0.033 A 
HETATM    3  N1  UNL     1      66.477 -10.978   3.854  1.00  0.00    -0.354 N 
ATOM      4  H1  UNL     1      66.208 -11.950   3.705  1.00  0.00     0.166 HD
HETATM    5  C3  UNL     1      66.482 -10.027   2.904  1.00  0.00     0.064 A 
HETATM    6  C7  UNL     1      66.899  -8.866   3.490  1.00  0.00     0.045 A 
HETATM    7  C8  UNL     1      67.153  -9.109   4.822  1.00  0.00     0.027 A 
ENDROOT
BRANCH   7   8
HETATM    8  C9  UNL     1      67.620  -8.196   5.878  1.00  0.00     0.413 C 
BRANCH   8   9
HETATM    9  N3  UNL     1      69.067  -8.374   6.076  1.00  0.00    -0.046 N 
ATOM     10  H33 UNL     1      69.408  -7.876   6.898  1.00  0.00     0.277 HD
ATOM     11  H32 UNL     1      69.301  -9.322   6.372  1.00  0.00     0.277 HD
ATOM     12  H31 UNL     1      69.562  -8.102   5.226  1.00  0.00     0.277 HD
ENDBRANCH   8   9
BRANCH   8  13
HETATM   13  N4  UNL     1      67.376  -6.834   5.438  1.00  0.00    -0.046 N 
ATOM     14  H43 UNL     1      66.762  -6.320   6.070  1.00  0.00     0.277 HD
ATOM     15  H42 UNL     1      68.198  -6.237   5.531  1.00  0.00     0.277 HD
ATOM     16  H41 UNL     1      67.020  -6.867   4.482  1.00  0.00     0.277 HD
ENDBRANCH   8  13
ENDBRANCH   7   8
BRANCH   5  17
HETATM   17  C4  UNL     1      66.156 -10.139   1.630  1.00  0.00     0.118 A 
HETATM   18  N2  UNL     1      66.222 -11.178   0.631  1.00  0.00    -0.315 N 
HETATM   19  C5  UNL     1      65.656 -10.364  -0.387  1.00  0.00     0.298 A 
ATOM     20  H2  UNL     1      66.552 -12.143   0.650  1.00  0.00     0.169 HD
HETATM   21  O1  UNL     1      65.358 -10.502  -1.599  1.00  0.00    -0.264 OA
HETATM   22  C6  UNL     1      65.576  -9.292   0.596  1.00  0.00     0.268 A 
HETATM   23  O2  UNL     1      65.164  -8.086   0.578  1.00  0.00    -0.280 OA
ENDBRANCH   5  17
TORSDOF 4
ENDMDL
MODEL 4
REMARK VINA RESULT: -5.670117194      3.072      5.137
REMARK  4 active torsions:
REMARK  status: ('A' for Active; 'I' for Inactive)
REMARK    1  A    between atoms: C3_5  and  C4_6 
REMARK    2  A    between atoms: C8_14  and  C9_15 
REMARK    3  A    between atoms: C9_15  and  N3_16 
REMARK    4  A    between atoms: C9_15  and  N4_20 
ROOT
HETATM    1  C1  UNL     1      67.574  -7.044   4.892  1.00  0.00     0.043 C 
HETATM    2  C2  UNL     1      67.249  -8.042   4.104  1.00  0.00     0.033 A 
HETATM    3  N1  UNL     1      66.979  -7.924   2.795  1.00  0.00    -0.354 N 
ATOM      4  H1  UNL     1      66.996  -7.049   2.272  1.00  0.00     0.166 HD
HETATM    5  C3  UNL     1      66.682  -9.127   2.273  1.00  0.00     0.064 A 
HETATM    6  C7  UNL     1      66.766 -10.042   3.282  1.00  0.00     0.045 A 
HETATM    7  C8  UNL     1      67.121  -9.391   4.442  1.00  0.00     0.027 A 
ENDROOT
BRANCH   7   8
HETATM    8  C9  UNL     1      67.339  -9.923   5.798  1.00  0.00     0.413 C 
BRANCH   8   9
HETATM    9  N3  UNL     1      66.502 -11.116   5.997  1.00  0.00    -0.046 N 
ATOM     10  H33 UNL     1      65.810 -11.229   5.256  1.00  0.00     0.277 HD
ATOM     11  H32 UNL     1      67.021 -11.981   5.845  1.00  0.00     0.277 HD
ATOM     12  H31 UNL     1      66.074 -11.080   6.922  1.00  0.00     0.277 HD
ENDBRANCH   8   9
BRANCH   8  13
HETATM   13  N4  UNL     1      68.734 -10.311   5.912  1.00  0.00    -0.046 N 
ATOM     14  H43 UNL     1      69.278 -10.071   5.084  1.00  0.00     0.277 HD
ATOM     15  H42 UNL     1      69.247  -9.740   6.583  1.00  0.00     0.277 HD
ATOM     16  H41 UNL     1      68.770 -11.306   6.133  1.00  0.00     0.277 HD
ENDBRANCH   8  13
ENDBRANCH   7   8
BRANCH   5  17
HETATM   17  C4  UNL     1      66.363  -9.423   1.027  1.00  0.00     0.118 A 
HETATM   18  N2  UNL     1      67.067  -9.902  -0.137  1.00  0.00    -0.315 N 
HETATM   19  C5  UNL     1      65.905  -9.905  -0.955  1.00  0.00     0.298 A 
ATOM     20  H2  UNL     1      68.042 -10.148  -0.310  1.00  0.00     0.169 HD
HETATM   21  O1  UNL     1      65.634 -10.195  -2.146  1.00  0.00    -0.264 OA
HETATM   22  C6  UNL     1      65.162  -9.420   0.201  1.00  0.00     0.268 A 
HETATM   23  O2  UNL     1      63.946  -9.112   0.422  1.00  0.00    -0.280 OA
ENDBRANCH   5  17
TORSDOF 4
ENDMDL
MODEL 5
REMARK VINA RESULT: -5.623506338      2.180      3.609
REMARK  4 active torsions:
REMARK  status: ('A' for Active; 'I' for Inactive)
REMARK    1  A    between atoms: C3_5  and  C4_6 
REMARK    2  A    between atoms: C8_14  and  C9_15 
REMARK    3  A    between atoms: C9_15  and  N3_16 
REMARK    4  A    between atoms: C9_15  and  N4_20 
ROOT
HETATM    1  C1  UNL     1      66.200 -11.245   2.395  1.00  0.00     0.043 C 
HETATM    2  C2  UNL     1      66.242 -10.039   2.910  1.00  0.00     0.033 A 
HETATM    3  N1  UNL     1      65.721  -8.945   2.333  1.00  0.00    -0.354 N 
ATOM      4  H1  UNL     1      65.240  -8.933   1.434  1.00  0.00     0.166 HD
HETATM    5  C3  UNL     1      65.927  -7.868   3.110  1.00  0.00     0.064 A 
HETATM    6  C7  UNL     1      66.601  -8.289   4.221  1.00  0.00     0.045 A 
HETATM    7  C8  UNL     1      66.811  -9.646   4.122  1.00  0.00     0.027 A 
ENDROOT
BRANCH   7   8
HETATM    8  C9  UNL     1      67.486 -10.569   5.051  1.00  0.00     0.413 C 
BRANCH   8   9
HETATM    9  N3  UNL     1      68.489  -9.831   5.834  1.00  0.00    -0.046 N 
ATOM     10  H33 UNL     1      68.851  -9.021   5.330  1.00  0.00     0.277 HD
ATOM     11  H32 UNL     1      68.074  -9.337   6.624  1.00  0.00     0.277 HD
ATOM     12  H31 UNL     1      69.230 -10.469   6.124  1.00  0.00     0.277 HD
ENDBRANCH   8   9
BRANCH   8  13
HETATM   13  N4  UNL     1      66.488 -11.103   5.962  1.00  0.00    -0.046 N 
ATOM     14  H43 UNL     1      65.700 -10.470   6.097  1.00  0.00     0.277 HD
ATOM     15  H42 UNL     1      65.968 -11.884   5.562  1.00  0.00     0.277 HD
ATOM     16  H41 UNL     1      66.954 -11.346   6.836  1.00  0.00     0.277 HD
ENDBRANCH   8  13
ENDBRANCH   7   8
BRANCH   5  17
HETATM   17  C4  UNL     1      65.567  -6.617   2.891  1.00  0.00     0.118 A 
HETATM   18  N2  UNL     1      64.374  -5.947   2.434  1.00  0.00    -0.315 N 
HETATM   19  C5  UNL     1      64.952  -4.653   2.529  1.00  0.00     0.298 A 
ATOM     20  H2  UNL     1      63.453  -6.281   2.148  1.00  0.00     0.169 HD
HETATM   21  O1  UNL     1      64.580  -3.474   2.310  1.00  0.00    -0.264 OA
HETATM   22  C6  UNL     1      66.174  -5.296   2.992  1.00  0.00     0.268 A 
HETATM   23  O2  UNL     1      67.326  -4.885   3.350  1.00  0.00    -0.280 OA
ENDBRANCH   5  17
TORSDOF 4
ENDMDL
