MODEL 1
REMARK VINA RESULT: -6.628412930      0.000      0.000
REMARK  3 active torsions:
REMARK  status: ('A' for Active; 'I' for Inactive)
REMARK    1  A    between atoms: C2_7  and  C3_8 
REMARK    2  A    between atoms: C5_13  and  C6_14 
REMARK    3  A    between atoms: C6_14  and  O3_15 
ROOT
HETATM    1  C3  UNL     1      66.158  -9.191   3.014  1.00  0.00     0.141 A 
HETATM    2  N3  UNL     1      65.562  -8.077   3.483  1.00  0.00    -0.305 N 
ATOM      3  H3  UNL     1      64.851  -7.536   2.990  1.00  0.00     0.170 HD
HETATM    4  C4  UNL     1      66.052  -7.790   4.708  1.00  0.00     0.275 A 
HETATM    5  O2  UNL     1      65.740  -6.827   5.464  1.00  0.00    -0.266 OA
HETATM    6  C5  UNL     1      66.987  -8.758   5.012  1.00  0.00     0.124 A 
HETATM    7  N4  UNL     1      67.025  -9.593   3.961  1.00  0.00    -0.334 N 
ATOM      8  H4  UNL     1      67.626 -10.415   3.890  1.00  0.00     0.168 HD
ENDROOT
BRANCH   1   9
HETATM    9  C2  UNL     1      65.909  -9.753   1.836  1.00  0.00     0.148 A 
HETATM   10  N2  UNL     1      66.482 -10.927   1.323  1.00  0.00    -0.291 N 
HETATM   11  N1  UNL     1      65.977 -11.216   0.046  1.00  0.00    -0.262 N 
ATOM     12  H2  UNL     1      67.173 -11.494   1.813  1.00  0.00     0.187 HD
HETATM   13  C1  UNL     1      65.039 -10.205  -0.306  1.00  0.00     0.312 A 
ATOM     14  H1  UNL     1      66.239 -12.015  -0.531  1.00  0.00     0.190 HD
HETATM   15  O1  UNL     1      64.397 -10.158  -1.389  1.00  0.00    -0.262 OA
HETATM   16  C7  UNL     1      64.984  -9.267   0.821  1.00  0.00     0.272 A 
HETATM   17  O4  UNL     1      64.250  -8.245   0.848  1.00  0.00    -0.280 OA
ENDBRANCH   1   9
BRANCH   6  18
HETATM   18  C6  UNL     1      67.702  -8.836   6.133  1.00  0.00     0.166 C 
BRANCH  18  19
HETATM   19  O3  UNL     1      68.357  -7.697   6.596  1.00  0.00    -0.370 OA
ATOM     20  H3  UNL     1      69.273  -7.572   6.377  1.00  0.00     0.216 HD
ENDBRANCH  18  19
ENDBRANCH   6  18
TORSDOF 3
ENDMDL
MODEL 2
REMARK VINA RESULT: -6.147312282      1.185      1.185
REMARK  3 active torsions:
REMARK  status: ('A' for Active; 'I' for Inactive)
REMARK    1  A    between atoms: C2_7  and  C3_8 
REMARK    2  A    between atoms: C5_13  and  C6_14 
REMARK    3  A    between atoms: C6_14  and  O3_15 
ROOT
HETATM    1  C3  UNL     1      66.925  -8.805   2.890  1.00  0.00     0.141 A 
HETATM    2  N3  UNL     1      67.219  -7.490   2.872  1.00  0.00    -0.305 N 
ATOM      3  H3  UNL     1      67.132  -6.877   2.062  1.00  0.00     0.170 HD
HETATM    4  C4  UNL     1      67.645  -7.111   4.097  1.00  0.00     0.275 A 
HETATM    5  O2  UNL     1      68.010  -5.960   4.470  1.00  0.00    -0.266 OA
HETATM    6  C5  UNL     1      67.616  -8.229   4.905  1.00  0.00     0.124 A 
HETATM    7  N4  UNL     1      67.174  -9.240   4.139  1.00  0.00    -0.334 N 
ATOM      8  H4  UNL     1      67.045 -10.201   4.458  1.00  0.00     0.168 HD
ENDROOT
BRANCH   1   9
HETATM    9  C2  UNL     1      66.478  -9.503   1.851  1.00  0.00     0.148 A 
HETATM   10  N2  UNL     1      66.788 -10.834   1.532  1.00  0.00    -0.291 N 
HETATM   11  N1  UNL     1      66.129 -11.236   0.360  1.00  0.00    -0.262 N 
ATOM     12  H2  UNL     1      67.409 -11.429   2.079  1.00  0.00     0.187 HD
HETATM   13  C1  UNL     1      65.356 -10.142  -0.119  1.00  0.00     0.312 A 
ATOM     14  H1  UNL     1      66.194 -12.157  -0.074  1.00  0.00     0.190 HD
HETATM   15  O1  UNL     1      64.638 -10.160  -1.154  1.00  0.00    -0.262 OA
HETATM   16  C7  UNL     1      65.566  -9.032   0.818  1.00  0.00     0.272 A 
HETATM   17  O4  UNL     1      65.029  -7.901   0.697  1.00  0.00    -0.280 OA
ENDBRANCH   1   9
BRANCH   6  18
HETATM   18  C6  UNL     1      67.962  -8.279   6.189  1.00  0.00     0.166 C 
BRANCH  18  19
HETATM   19  O3  UNL     1      67.114  -8.917   7.092  1.00  0.00    -0.370 OA
ATOM     20  H3  UNL     1      66.869  -8.465   7.891  1.00  0.00     0.216 HD
ENDBRANCH  18  19
ENDBRANCH   6  18
TORSDOF 3
ENDMDL
MODEL 3
REMARK VINA RESULT: -6.139641567      1.269      1.726
REMARK  3 active torsions:
REMARK  status: ('A' for Active; 'I' for Inactive)
REMARK    1  A    between atoms: C2_7  and  C3_8 
REMARK    2  A    between atoms: C5_13  and  C6_14 
REMARK    3  A    between atoms: C6_14  and  O3_15 
ROOT
HETATM    1  C3  UNL     1      66.713  -9.829   3.282  1.00  0.00     0.141 A 
HETATM    2  N3  UNL     1      66.636 -10.749   4.263  1.00  0.00    -0.305 N 
ATOM      3  H3  UNL     1      66.280 -11.698   4.156  1.00  0.00     0.170 HD
HETATM    4  C4  UNL     1      67.105 -10.216   5.412  1.00  0.00     0.275 A 
HETATM    5  O2  UNL     1      67.195 -10.768   6.545  1.00  0.00    -0.266 OA
HETATM    6  C5  UNL     1      67.487  -8.919   5.137  1.00  0.00     0.124 A 
HETATM    7  N4  UNL     1      67.234  -8.718   3.833  1.00  0.00    -0.334 N 
ATOM      8  H4  UNL     1      67.413  -7.847   3.331  1.00  0.00     0.168 HD
ENDROOT
BRANCH   1   9
HETATM    9  C2  UNL     1      66.334 -10.022   2.022  1.00  0.00     0.148 A 
HETATM   10  N2  UNL     1      66.423 -11.213   1.287  1.00  0.00    -0.291 N 
HETATM   11  N1  UNL     1      65.926 -11.040  -0.013  1.00  0.00    -0.262 N 
ATOM     12  H2  UNL     1      66.798 -12.090   1.651  1.00  0.00     0.187 HD
HETATM   13  C1  UNL     1      65.492  -9.692  -0.153  1.00  0.00     0.312 A 
ATOM     14  H1  UNL     1      65.882 -11.759  -0.735  1.00  0.00     0.190 HD
HETATM   15  O1  UNL     1      64.991  -9.197  -1.197  1.00  0.00    -0.262 OA
HETATM   16  C7  UNL     1      65.745  -9.030   1.133  1.00  0.00     0.272 A 
HETATM   17  O4  UNL     1      65.480  -7.823   1.364  1.00  0.00    -0.280 OA
ENDBRANCH   1   9
BRANCH   6  18
HETATM   18  C6  UNL     1      68.003  -8.050   6.004  1.00  0.00     0.166 C 
BRANCH  18  19
HETATM   19  O3  UNL     1      67.624  -6.712   5.925  1.00  0.00    -0.370 OA
ATOM     20  H3  UNL     1      68.298  -6.047   5.853  1.00  0.00     0.216 HD
ENDBRANCH  18  19
ENDBRANCH   6  18
TORSDOF 3
ENDMDL
MODEL 4
REMARK VINA RESULT: -6.120948851      1.356      5.523
REMARK  3 active torsions:
REMARK  status: ('A' for Active; 'I' for Inactive)
REMARK    1  A    between atoms: C2_7  and  C3_8 
REMARK    2  A    between atoms: C5_13  and  C6_14 
REMARK    3  A    between atoms: C6_14  and  O3_15 
ROOT
HETATM    1  C3  UNL     1      66.349  -9.411   2.835  1.00  0.00     0.141 A 
HETATM    2  N3  UNL     1      65.843  -8.399   2.105  1.00  0.00    -0.305 N 
ATOM      3  H3  UNL     1      65.739  -7.435   2.423  1.00  0.00     0.170 HD
HETATM    4  C4  UNL     1      65.493  -8.860   0.885  1.00  0.00     0.275 A 
HETATM    5  O2  UNL     1      64.986  -8.213  -0.075  1.00  0.00    -0.266 OA
HETATM    6  C5  UNL     1      65.792 -10.206   0.855  1.00  0.00     0.124 A 
HETATM    7  N4  UNL     1      66.311 -10.508   2.057  1.00  0.00    -0.334 N 
ATOM      8  H4  UNL     1      66.630 -11.434   2.339  1.00  0.00     0.168 HD
ENDROOT
BRANCH   1   9
HETATM    9  C2  UNL     1      66.792  -9.305   4.085  1.00  0.00     0.148 A 
HETATM   10  N2  UNL     1      66.599 -10.222   5.129  1.00  0.00    -0.291 N 
HETATM   11  N1  UNL     1      67.211  -9.777   6.309  1.00  0.00    -0.262 N 
ATOM     12  H2  UNL     1      66.081 -11.097   5.041  1.00  0.00     0.187 HD
HETATM   13  C1  UNL     1      67.833  -8.523   6.048  1.00  0.00     0.312 A 
ATOM     14  H1  UNL     1      67.211 -10.268   7.203  1.00  0.00     0.190 HD
HETATM   15  O1  UNL     1      68.474  -7.842   6.891  1.00  0.00    -0.262 OA
HETATM   16  C7  UNL     1      67.576  -8.209   4.637  1.00  0.00     0.272 A 
HETATM   17  O4  UNL     1      67.984  -7.166   4.065  1.00  0.00    -0.280 OA
ENDBRANCH   1   9
BRANCH   6  18
HETATM   18  C6  UNL     1      65.599 -11.032  -0.172  1.00  0.00     0.166 C 
BRANCH  18  19
HETATM   19  O3  UNL     1      66.154 -10.713  -1.409  1.00  0.00    -0.370 OA
ATOM     20  H3  UNL     1      65.925  -9.886  -1.817  1.00  0.00     0.216 HD
ENDBRANCH  18  19
ENDBRANCH   6  18
TORSDOF 3
ENDMDL
MODEL 5
REMARK VINA RESULT: -6.055594575      2.037      2.148
REMARK  3 active torsions:
REMARK  status: ('A' for Active; 'I' for Inactive)
REMARK    1  A    between atoms: C2_7  and  C3_8 
REMARK    2  A    between atoms: C5_13  and  C6_14 
REMARK    3  A    between atoms: C6_14  and  O3_15 
ROOT
HETATM    1  C3  UNL     1      67.126  -8.270   2.752  1.00  0.00     0.141 A 
HETATM    2  N3  UNL     1      66.726  -8.048   4.019  1.00  0.00    -0.305 N 
ATOM      3  H3  UNL     1      66.012  -8.583   4.515  1.00  0.00     0.170 HD
HETATM    4  C4  UNL     1      67.418  -7.006   4.530  1.00  0.00     0.275 A 
HETATM    5  O2  UNL     1      67.323  -6.503   5.685  1.00  0.00    -0.266 OA
HETATM    6  C5  UNL     1      68.278  -6.565   3.546  1.00  0.00     0.124 A 
HETATM    7  N4  UNL     1      68.074  -7.356   2.479  1.00  0.00    -0.334 N 
ATOM      8  H4  UNL     1      68.568  -7.275   1.590  1.00  0.00     0.168 HD
ENDROOT
BRANCH   1   9
HETATM    9  C2  UNL     1      66.650  -9.223   1.956  1.00  0.00     0.148 A 
HETATM   10  N2  UNL     1      66.963 -10.590   1.994  1.00  0.00    -0.291 N 
HETATM   11  N1  UNL     1      66.268 -11.293   0.999  1.00  0.00    -0.262 N 
ATOM     12  H2  UNL     1      67.610 -11.016   2.658  1.00  0.00     0.187 HD
HETATM   13  C1  UNL     1      65.466 -10.369   0.272  1.00  0.00     0.312 A 
ATOM     14  H1  UNL     1      66.328 -12.296   0.826  1.00  0.00     0.190 HD
HETATM   15  O1  UNL     1      64.713 -10.665  -0.693  1.00  0.00    -0.262 OA
HETATM   16  C7  UNL     1      65.697  -9.047   0.868  1.00  0.00     0.272 A 
HETATM   17  O4  UNL     1      65.144  -7.991   0.468  1.00  0.00    -0.280 OA
ENDBRANCH   1   9
BRANCH   6  18
HETATM   18  C6  UNL     1      69.137  -5.552   3.649  1.00  0.00     0.166 C 
BRANCH  18  19
HETATM   19  O3  UNL     1      68.646  -4.275   3.908  1.00  0.00    -0.370 OA
ATOM     20  H3  UNL     1      68.985  -3.794   4.654  1.00  0.00     0.216 HD
ENDBRANCH  18  19
ENDBRANCH   6  18
TORSDOF 3
ENDMDL
