MODEL 1
REMARK VINA RESULT: -6.518584761      0.000      0.000
REMARK  8 active torsions:
REMARK  status: ('A' for Active; 'I' for Inactive)
REMARK    1  A    between atoms: C3_3  and  O1_4 
REMARK    2  A    between atoms: O1_4  and  C4_5 
REMARK    3  A    between atoms: C4_5  and  C5_7 
REMARK    4  A    between atoms: C10_13  and  O4_14 
REMARK    5  A    between atoms: C12_16  and  O5_17 
REMARK    6  A    between atoms: C17_23  and  C18_24 
REMARK    7  A    between atoms: C18_24  and  O6_25 
REMARK    8  A    between atoms: C23_31  and  C24_32 
ROOT
HETATM    1  C1  UNL     1      17.408  10.576  -0.209  1.00  0.00     0.022 C 
HETATM    2  C2  UNL     1      17.531  10.050   0.983  1.00  0.00    -0.024 C 
HETATM    3  C3  UNL     1      18.874   9.341   1.292  1.00  0.00     0.073 C 
HETATM    4  C6  UNL     1      19.049   9.556   2.709  1.00  0.00     0.022 C 
HETATM    5  C7  UNL     1      19.324  10.917   3.224  1.00  0.00    -0.000 C 
HETATM    6  C8  UNL     1      20.832  11.222   3.229  1.00  0.00     0.011 C 
HETATM    7  C9  UNL     1      18.607  12.091   2.726  1.00  0.00     0.040 C 
HETATM    8  C10 UNL     1      17.190  12.190   3.223  1.00  0.00     0.157 C 
HETATM    9  C12 UNL     1      16.200  11.270   2.646  1.00  0.00     0.100 C 
HETATM   10  C13 UNL     1      14.971  11.360   3.475  1.00  0.00     0.020 C 
HETATM   11  C14 UNL     1      15.031  11.216   4.939  1.00  0.00     0.013 C 
HETATM   12  C15 UNL     1      13.809  10.535   2.952  1.00  0.00     0.008 C 
HETATM   13  C16 UNL     1      14.320   9.142   2.826  1.00  0.00     0.008 C 
HETATM   14  C17 UNL     1      15.483   8.994   1.913  1.00  0.00     0.026 C 
HETATM   15  C19 UNL     1      16.651   9.915   2.185  1.00  0.00     0.033 C 
HETATM   16  C20 UNL     1      17.572   9.193   3.056  1.00  0.00     0.018 C 
HETATM   17  C21 UNL     1      17.513   8.960   4.440  1.00  0.00     0.007 C 
HETATM   18  C22 UNL     1      18.660   7.921   4.511  1.00  0.00     0.006 C 
HETATM   19  C23 UNL     1      19.722   8.570   3.584  1.00  0.00     0.005 C 
ENDROOT
BRANCH   3  20
HETATM   20  O1  UNL     1      19.776   9.408   0.327  1.00  0.00    -0.276 OA
BRANCH  20  21
HETATM   21  C4  UNL     1      20.943  10.088   0.186  1.00  0.00     0.326 C 
HETATM   22  O2  UNL     1      20.703  11.286  -0.031  1.00  0.00    -0.256 OA
BRANCH  21  23
HETATM   23  C5  UNL     1      22.255   9.483   0.277  1.00  0.00     0.341 C 
HETATM   24  O3  UNL     1      22.904   9.095  -0.727  1.00  0.00    -0.296 OA
ENDBRANCH  21  23
ENDBRANCH  20  21
ENDBRANCH   3  20
BRANCH  19  25
HETATM   25  C24 UNL     1      20.728   7.612   3.165  1.00  0.00    -0.017 C 
HETATM   26  C25 UNL     1      22.171   7.893   3.424  1.00  0.00     0.010 C 
HETATM   27  C26 UNL     1      20.477   6.248   3.868  1.00  0.00     0.010 C 
ENDBRANCH  19  25
BRANCH   9  28
HETATM   28  O5  UNL     1      15.813  11.913   1.425  1.00  0.00    -0.386 OA
ATOM     29  H5  UNL     1      15.878  12.838   1.630  1.00  0.00     0.210 HD
ENDBRANCH   9  28
BRANCH  14  30
HETATM   30  C18 UNL     1      14.943   8.847   0.538  1.00  0.00     0.170 C 
BRANCH  30  31
HETATM   31  O6  UNL     1      15.103   7.653  -0.087  1.00  0.00    -0.400 OA
ATOM     32  H6  UNL     1      15.199   7.652  -1.032  1.00  0.00     0.209 HD
ENDBRANCH  30  31
ENDBRANCH  14  30
BRANCH   8  33
HETATM   33  O4  UNL     1      16.814  13.505   2.824  1.00  0.00    -0.388 OA
HETATM   34  C11 UNL     1      17.750  14.150   2.073  1.00  0.00     0.202 C 
ENDBRANCH   8  33
TORSDOF 8
ENDMDL
MODEL 2
REMARK VINA RESULT: -6.506485427      2.911      6.740
REMARK  8 active torsions:
REMARK  status: ('A' for Active; 'I' for Inactive)
REMARK    1  A    between atoms: C3_3  and  O1_4 
REMARK    2  A    between atoms: O1_4  and  C4_5 
REMARK    3  A    between atoms: C4_5  and  C5_7 
REMARK    4  A    between atoms: C10_13  and  O4_14 
REMARK    5  A    between atoms: C12_16  and  O5_17 
REMARK    6  A    between atoms: C17_23  and  C18_24 
REMARK    7  A    between atoms: C18_24  and  O6_25 
REMARK    8  A    between atoms: C23_31  and  C24_32 
ROOT
HETATM    1  C1  UNL     1      19.704   7.729   5.815  1.00  0.00     0.022 C 
HETATM    2  C2  UNL     1      20.251   7.723   4.626  1.00  0.00    -0.024 C 
HETATM    3  C3  UNL     1      19.711   8.760   3.609  1.00  0.00     0.073 C 
HETATM    4  C6  UNL     1      20.863   9.064   2.794  1.00  0.00     0.022 C 
HETATM    5  C7  UNL     1      22.006   9.806   3.373  1.00  0.00    -0.000 C 
HETATM    6  C8  UNL     1      21.811  11.326   3.248  1.00  0.00     0.011 C 
HETATM    7  C9  UNL     1      22.526   9.505   4.707  1.00  0.00     0.040 C 
HETATM    8  C10 UNL     1      23.322   8.229   4.772  1.00  0.00     0.157 C 
HETATM    9  C12 UNL     1      22.582   6.961   4.713  1.00  0.00     0.100 C 
HETATM   10  C13 UNL     1      23.575   5.875   4.512  1.00  0.00     0.020 C 
HETATM   11  C14 UNL     1      24.574   5.951   3.433  1.00  0.00     0.013 C 
HETATM   12  C15 UNL     1      22.978   4.479   4.524  1.00  0.00     0.008 C 
HETATM   13  C16 UNL     1      21.907   4.483   3.489  1.00  0.00     0.008 C 
HETATM   14  C17 UNL     1      20.833   5.484   3.718  1.00  0.00     0.026 C 
HETATM   15  C19 UNL     1      21.298   6.906   3.939  1.00  0.00     0.033 C 
HETATM   16  C20 UNL     1      21.282   7.569   2.639  1.00  0.00     0.018 C 
HETATM   17  C21 UNL     1      22.197   7.498   1.576  1.00  0.00     0.007 C 
HETATM   18  C22 UNL     1      21.327   8.229   0.523  1.00  0.00     0.006 C 
HETATM   19  C23 UNL     1      20.752   9.404   1.358  1.00  0.00     0.005 C 
ENDROOT
BRANCH   3  20
HETATM   20  O1  UNL     1      18.794   9.586   4.087  1.00  0.00    -0.276 OA
BRANCH  20  21
HETATM   21  C4  UNL     1      17.456   9.708   3.892  1.00  0.00     0.326 C 
HETATM   22  O2  UNL     1      16.956   8.585   3.721  1.00  0.00    -0.256 OA
BRANCH  21  23
HETATM   23  C5  UNL     1      16.743  10.968   3.887  1.00  0.00     0.341 C 
HETATM   24  O3  UNL     1      17.321  12.084   3.931  1.00  0.00    -0.296 OA
ENDBRANCH  21  23
ENDBRANCH  20  21
ENDBRANCH   3  20
BRANCH  19  25
HETATM   25  C24 UNL     1      19.598  10.006   0.716  1.00  0.00    -0.017 C 
HETATM   26  C25 UNL     1      19.195  11.398   1.074  1.00  0.00     0.010 C 
HETATM   27  C26 UNL     1      19.824  10.062  -0.821  1.00  0.00     0.010 C 
ENDBRANCH  19  25
BRANCH   9  28
HETATM   28  O5  UNL     1      22.153   6.758   6.065  1.00  0.00    -0.386 OA
ATOM     29  H5  UNL     1      21.257   7.075   6.064  1.00  0.00     0.210 HD
ENDBRANCH   9  28
BRANCH  14  30
HETATM   30  C18 UNL     1      19.847   4.863   4.638  1.00  0.00     0.170 C 
BRANCH  30  31
HETATM   31  O6  UNL     1      19.257   3.703   4.253  1.00  0.00    -0.400 OA
ATOM     32  H6  UNL     1      19.364   2.941   4.809  1.00  0.00     0.209 HD
ENDBRANCH  30  31
ENDBRANCH  14  30
BRANCH   8  33
HETATM   33  O4  UNL     1      23.916   8.301   6.066  1.00  0.00    -0.388 OA
HETATM   34  C11 UNL     1      24.206   9.568   6.477  1.00  0.00     0.202 C 
ENDBRANCH   8  33
TORSDOF 8
ENDMDL
MODEL 3
REMARK VINA RESULT: -6.490434520      1.039      1.077
REMARK  8 active torsions:
REMARK  status: ('A' for Active; 'I' for Inactive)
REMARK    1  A    between atoms: C3_3  and  O1_4 
REMARK    2  A    between atoms: O1_4  and  C4_5 
REMARK    3  A    between atoms: C4_5  and  C5_7 
REMARK    4  A    between atoms: C10_13  and  O4_14 
REMARK    5  A    between atoms: C12_16  and  O5_17 
REMARK    6  A    between atoms: C17_23  and  C18_24 
REMARK    7  A    between atoms: C18_24  and  O6_25 
REMARK    8  A    between atoms: C23_31  and  C24_32 
ROOT
HETATM    1  C1  UNL     1      16.427  10.671   0.229  1.00  0.00     0.022 C 
HETATM    2  C2  UNL     1      16.774  10.073   1.341  1.00  0.00    -0.024 C 
HETATM    3  C3  UNL     1      18.231   9.554   1.423  1.00  0.00     0.073 C 
HETATM    4  C6  UNL     1      18.554   9.675   2.825  1.00  0.00     0.022 C 
HETATM    5  C7  UNL     1      18.697  11.015   3.439  1.00  0.00    -0.000 C 
HETATM    6  C8  UNL     1      20.134  11.545   3.304  1.00  0.00     0.011 C 
HETATM    7  C9  UNL     1      17.763  12.103   3.146  1.00  0.00     0.040 C 
HETATM    8  C10 UNL     1      16.421  11.944   3.808  1.00  0.00     0.157 C 
HETATM    9  C12 UNL     1      15.506  10.935   3.258  1.00  0.00     0.100 C 
HETATM   10  C13 UNL     1      14.393  10.768   4.226  1.00  0.00     0.020 C 
HETATM   11  C14 UNL     1      14.658  10.514   5.652  1.00  0.00     0.013 C 
HETATM   12  C15 UNL     1      13.301   9.822   3.759  1.00  0.00     0.008 C 
HETATM   13  C16 UNL     1      13.983   8.538   3.436  1.00  0.00     0.008 C 
HETATM   14  C17 UNL     1      15.030   8.644   2.387  1.00  0.00     0.026 C 
HETATM   15  C19 UNL     1      16.081   9.707   2.615  1.00  0.00     0.033 C 
HETATM   16  C20 UNL     1      17.199   9.065   3.300  1.00  0.00     0.018 C 
HETATM   17  C21 UNL     1      17.349   8.712   4.650  1.00  0.00     0.007 C 
HETATM   18  C22 UNL     1      18.631   7.857   4.486  1.00  0.00     0.006 C 
HETATM   19  C23 UNL     1      19.464   8.735   3.514  1.00  0.00     0.005 C 
ENDROOT
BRANCH   3  20
HETATM   20  O1  UNL     1      18.985   9.836   0.373  1.00  0.00    -0.276 OA
BRANCH  20  21
HETATM   21  C4  UNL     1      19.922  10.787   0.126  1.00  0.00     0.326 C 
HETATM   22  O2  UNL     1      19.365  11.859  -0.158  1.00  0.00    -0.256 OA
BRANCH  21  23
HETATM   23  C5  UNL     1      21.351  10.560   0.190  1.00  0.00     0.341 C 
HETATM   24  O3  UNL     1      22.189  11.488   0.312  1.00  0.00    -0.296 OA
ENDBRANCH  21  23
ENDBRANCH  20  21
ENDBRANCH   3  20
BRANCH  19  25
HETATM   25  C24 UNL     1      20.534   7.978   2.890  1.00  0.00    -0.017 C 
HETATM   26  C25 UNL     1      21.920   8.531   2.876  1.00  0.00     0.010 C 
HETATM   27  C26 UNL     1      20.684   6.602   3.597  1.00  0.00     0.010 C 
ENDBRANCH  19  25
BRANCH   9  28
HETATM   28  O5  UNL     1      14.880  11.610   2.160  1.00  0.00    -0.386 OA
ATOM     29  H5  UNL     1      15.086  11.061   1.413  1.00  0.00     0.210 HD
ENDBRANCH   9  28
BRANCH  14  30
HETATM   30  C18 UNL     1      14.346   8.531   1.075  1.00  0.00     0.170 C 
BRANCH  30  31
HETATM   31  O6  UNL     1      13.687   7.378   0.796  1.00  0.00    -0.400 OA
ATOM     32  H6  UNL     1      14.026   6.825   0.101  1.00  0.00     0.209 HD
ENDBRANCH  30  31
ENDBRANCH  14  30
BRANCH   8  33
HETATM   33  O4  UNL     1      15.816  13.215   3.589  1.00  0.00    -0.388 OA
HETATM   34  C11 UNL     1      16.698  14.209   3.287  1.00  0.00     0.202 C 
ENDBRANCH   8  33
TORSDOF 8
ENDMDL
MODEL 4
REMARK VINA RESULT: -5.922572301      2.158      6.409
REMARK  8 active torsions:
REMARK  status: ('A' for Active; 'I' for Inactive)
REMARK    1  A    between atoms: C3_3  and  O1_4 
REMARK    2  A    between atoms: O1_4  and  C4_5 
REMARK    3  A    between atoms: C4_5  and  C5_7 
REMARK    4  A    between atoms: C10_13  and  O4_14 
REMARK    5  A    between atoms: C12_16  and  O5_17 
REMARK    6  A    between atoms: C17_23  and  C18_24 
REMARK    7  A    between atoms: C18_24  and  O6_25 
REMARK    8  A    between atoms: C23_31  and  C24_32 
ROOT
HETATM    1  C1  UNL     1      22.225  11.615   3.001  1.00  0.00     0.022 C 
HETATM    2  C2  UNL     1      21.403  10.637   3.288  1.00  0.00    -0.024 C 
HETATM    3  C3  UNL     1      19.909  10.866   2.949  1.00  0.00     0.073 C 
HETATM    4  C6  UNL     1      19.429   9.543   2.631  1.00  0.00     0.022 C 
HETATM    5  C7  UNL     1      19.895   8.860   1.402  1.00  0.00    -0.000 C 
HETATM    6  C8  UNL     1      19.013   9.214   0.193  1.00  0.00     0.011 C 
HETATM    7  C9  UNL     1      21.298   8.889   0.988  1.00  0.00     0.040 C 
HETATM    8  C10 UNL     1      22.192   8.006   1.816  1.00  0.00     0.157 C 
HETATM    9  C12 UNL     1      22.526   8.457   3.174  1.00  0.00     0.100 C 
HETATM   10  C13 UNL     1      23.166   7.318   3.878  1.00  0.00     0.020 C 
HETATM   11  C14 UNL     1      22.531   5.989   3.907  1.00  0.00     0.013 C 
HETATM   12  C15 UNL     1      23.662   7.650   5.274  1.00  0.00     0.008 C 
HETATM   13  C16 UNL     1      22.485   8.194   6.007  1.00  0.00     0.008 C 
HETATM   14  C17 UNL     1      21.884   9.406   5.392  1.00  0.00     0.026 C 
HETATM   15  C19 UNL     1      21.531   9.291   3.927  1.00  0.00     0.033 C 
HETATM   16  C20 UNL     1      20.133   8.877   3.854  1.00  0.00     0.018 C 
HETATM   17  C21 UNL     1      19.555   7.609   4.031  1.00  0.00     0.007 C 
HETATM   18  C22 UNL     1      18.077   8.075   4.077  1.00  0.00     0.006 C 
HETATM   19  C23 UNL     1      18.044   9.110   2.921  1.00  0.00     0.005 C 
ENDROOT
BRANCH   3  20
HETATM   20  O1  UNL     1      19.643  12.011   2.341  1.00  0.00    -0.276 OA
BRANCH  20  21
HETATM   21  C4  UNL     1      18.763  12.370   1.372  1.00  0.00     0.326 C 
HETATM   22  O2  UNL     1      19.269  12.173   0.255  1.00  0.00    -0.256 OA
BRANCH  21  23
HETATM   23  C5  UNL     1      17.440  12.902   1.627  1.00  0.00     0.341 C 
HETATM   24  O3  UNL     1      17.150  13.553   2.662  1.00  0.00    -0.296 OA
ENDBRANCH  21  23
ENDBRANCH  20  21
ENDBRANCH   3  20
BRANCH  19  25
HETATM   25  C24 UNL     1      16.885   9.978   3.011  1.00  0.00    -0.017 C 
HETATM   26  C25 UNL     1      15.577   9.526   2.452  1.00  0.00     0.010 C 
HETATM   27  C26 UNL     1      16.573  10.283   4.503  1.00  0.00     0.010 C 
ENDBRANCH  19  25
BRANCH   9  28
HETATM   28  O5  UNL     1      23.616   9.364   2.970  1.00  0.00    -0.386 OA
ATOM     29  H5  UNL     1      23.244  10.039   2.416  1.00  0.00     0.210 HD
ENDBRANCH   9  28
BRANCH  14  30
HETATM   30  C18 UNL     1      22.650  10.575   5.893  1.00  0.00     0.170 C 
BRANCH  30  31
HETATM   31  O6  UNL     1      22.706  10.775   7.234  1.00  0.00    -0.400 OA
ATOM     32  H6  UNL     1      23.551  10.967   7.623  1.00  0.00     0.209 HD
ENDBRANCH  30  31
ENDBRANCH  14  30
BRANCH   8  33
HETATM   33  O4  UNL     1      23.406   8.008   1.070  1.00  0.00    -0.388 OA
HETATM   34  C11 UNL     1      23.241   7.794  -0.266  1.00  0.00     0.202 C 
ENDBRANCH   8  33
TORSDOF 8
ENDMDL
MODEL 5
REMARK VINA RESULT: -5.812046066      2.875      6.612
REMARK  8 active torsions:
REMARK  status: ('A' for Active; 'I' for Inactive)
REMARK    1  A    between atoms: C3_3  and  O1_4 
REMARK    2  A    between atoms: O1_4  and  C4_5 
REMARK    3  A    between atoms: C4_5  and  C5_7 
REMARK    4  A    between atoms: C10_13  and  O4_14 
REMARK    5  A    between atoms: C12_16  and  O5_17 
REMARK    6  A    between atoms: C17_23  and  C18_24 
REMARK    7  A    between atoms: C18_24  and  O6_25 
REMARK    8  A    between atoms: C23_31  and  C24_32 
ROOT
HETATM    1  C1  UNL     1      19.281   7.727   5.714  1.00  0.00     0.022 C 
HETATM    2  C2  UNL     1      19.870   7.777   4.546  1.00  0.00    -0.024 C 
HETATM    3  C3  UNL     1      19.394   8.888   3.576  1.00  0.00     0.073 C 
HETATM    4  C6  UNL     1      20.582   9.207   2.821  1.00  0.00     0.022 C 
HETATM    5  C7  UNL     1      21.723   9.881   3.483  1.00  0.00    -0.000 C 
HETATM    6  C8  UNL     1      21.572  11.411   3.444  1.00  0.00     0.011 C 
HETATM    7  C9  UNL     1      22.187   9.486   4.814  1.00  0.00     0.040 C 
HETATM    8  C10 UNL     1      22.946   8.187   4.828  1.00  0.00     0.157 C 
HETATM    9  C12 UNL     1      22.176   6.945   4.667  1.00  0.00     0.100 C 
HETATM   10  C13 UNL     1      23.146   5.846   4.433  1.00  0.00     0.020 C 
HETATM   11  C14 UNL     1      24.186   5.958   3.395  1.00  0.00     0.013 C 
HETATM   12  C15 UNL     1      22.513   4.470   4.340  1.00  0.00     0.008 C 
HETATM   13  C16 UNL     1      21.480   4.565   3.271  1.00  0.00     0.008 C 
HETATM   14  C17 UNL     1      20.426   5.581   3.524  1.00  0.00     0.026 C 
HETATM   15  C19 UNL     1      20.920   6.973   3.847  1.00  0.00     0.033 C 
HETATM   16  C20 UNL     1      20.967   7.713   2.590  1.00  0.00     0.018 C 
HETATM   17  C21 UNL     1      21.917   7.681   1.556  1.00  0.00     0.007 C 
HETATM   18  C22 UNL     1      21.105   8.498   0.520  1.00  0.00     0.006 C 
HETATM   19  C23 UNL     1      20.531   9.636   1.406  1.00  0.00     0.005 C 
ENDROOT
BRANCH   3  20
HETATM   20  O1  UNL     1      18.482   9.709   4.072  1.00  0.00    -0.276 OA
BRANCH  20  21
HETATM   21  C4  UNL     1      17.143   9.836   3.890  1.00  0.00     0.326 C 
HETATM   22  O2  UNL     1      16.651  10.469   4.838  1.00  0.00    -0.256 OA
BRANCH  21  23
HETATM   23  C5  UNL     1      16.420   9.302   2.755  1.00  0.00     0.341 C 
HETATM   24  O3  UNL     1      15.642   8.318   2.837  1.00  0.00    -0.296 OA
ENDBRANCH  21  23
ENDBRANCH  20  21
ENDBRANCH   3  20
BRANCH  19  25
HETATM   25  C24 UNL     1      19.418  10.308   0.762  1.00  0.00    -0.017 C 
HETATM   26  C25 UNL     1      19.215  11.772   0.973  1.00  0.00     0.010 C 
HETATM   27  C26 UNL     1      19.539  10.162  -0.781  1.00  0.00     0.010 C 
ENDBRANCH  19  25
BRANCH   9  28
HETATM   28  O5  UNL     1      21.693   6.674   5.988  1.00  0.00    -0.386 OA
ATOM     29  H5  UNL     1      21.032   6.006   5.851  1.00  0.00     0.210 HD
ENDBRANCH   9  28
BRANCH  14  30
HETATM   30  C18 UNL     1      19.391   4.934   4.370  1.00  0.00     0.170 C 
BRANCH  30  31
HETATM   31  O6  UNL     1      19.788   4.341   5.524  1.00  0.00    -0.400 OA
ATOM     32  H6  UNL     1      19.163   3.793   5.983  1.00  0.00     0.209 HD
ENDBRANCH  30  31
ENDBRANCH  14  30
BRANCH   8  33
HETATM   33  O4  UNL     1      23.495   8.164   6.143  1.00  0.00    -0.388 OA
HETATM   34  C11 UNL     1      24.230   9.267   6.460  1.00  0.00     0.202 C 
ENDBRANCH   8  33
TORSDOF 8
ENDMDL
