MODEL 1
REMARK VINA RESULT: -9.600845695      0.000      0.000
REMARK  7 active torsions:
REMARK  status: ('A' for Active; 'I' for Inactive)
REMARK    1  A    between atoms: O1_1  and  C1_3 
REMARK    2  A    between atoms: C1_3  and  C2_4 
REMARK    3  A    between atoms: C5_7  and  O2_8 
REMARK    4  A    between atoms: O2_8  and  C6_9 
REMARK    5  A    between atoms: C8_11  and  C9_12 
REMARK    6  A    between atoms: C12_15  and  C13_16 
REMARK    7  A    between atoms: N3_29  and  C21_31 
ROOT
HETATM    1  C6  UNL     1      15.936  10.871   0.435  1.00  0.00     0.114 A 
HETATM    2  C7  UNL     1      15.646  10.667   1.798  1.00  0.00     0.055 A 
HETATM    3  C8  UNL     1      14.489  10.083   2.231  1.00  0.00     0.009 A 
HETATM    4  C19 UNL     1      13.594   9.689   1.268  1.00  0.00     0.103 A 
HETATM    5  N2  UNL     1      13.864   9.880  -0.024  1.00  0.00    -0.349 N 
ATOM      6  H2  UNL     1      13.174   9.574  -0.710  1.00  0.00     0.167 HD
HETATM    7  C20 UNL     1      14.993  10.452  -0.475  1.00  0.00     0.135 A 
HETATM    8  N3  UNL     1      15.172  10.591  -1.755  1.00  0.00    -0.369 N 
ATOM      9  H3  UNL     1      16.029  11.020  -2.103  1.00  0.00     0.161 HD
ENDROOT
BRANCH   3  10
HETATM   10  C9  UNL     1      14.227   9.888   3.647  1.00  0.00     0.043 A 
HETATM   11  C10 UNL     1      13.601   8.793   4.148  1.00  0.00     0.031 A 
HETATM   12  C11 UNL     1      13.379   8.661   5.522  1.00  0.00     0.011 A 
HETATM   13  C12 UNL     1      13.803   9.657   6.373  1.00  0.00    -0.038 A 
HETATM   14  C18 UNL     1      14.429  10.750   5.851  1.00  0.00     0.096 A 
HETATM   15  N1  UNL     1      14.623  10.837   4.526  1.00  0.00    -0.365 N 
ATOM     16  H1  UNL     1      15.094  11.665   4.161  1.00  0.00     0.165 HD
BRANCH  13  17
HETATM   17  C13 UNL     1      13.551   9.480   7.828  1.00  0.00     0.024 C 
HETATM   18  C14 UNL     1      14.033  10.654   8.647  1.00  0.00     0.036 C 
HETATM   19  C15 UNL     1      13.641  10.394  10.079  1.00  0.00     0.168 C 
HETATM   20  O3  UNL     1      13.641   9.048  10.413  1.00  0.00    -0.391 OA
HETATM   21  C16 UNL     1      14.593   8.319   9.739  1.00  0.00     0.168 C 
HETATM   22  C17 UNL     1      14.264   8.217   8.273  1.00  0.00     0.036 C 
ENDBRANCH  13  17
ENDBRANCH   3  10
BRANCH   1  23
HETATM   23  O2  UNL     1      17.095  11.453   0.100  1.00  0.00    -0.342 OA
BRANCH  23  24
HETATM   24  C5  UNL     1      18.424  11.261   0.158  1.00  0.00     0.129 C 
HETATM   25  C4  UNL     1      18.764  10.042  -0.716  1.00  0.00     0.033 C 
HETATM   26  C3  UNL     1      20.246   9.862  -0.753  1.00  0.00     0.009 C 
HETATM   27  C2  UNL     1      20.684   9.493   0.649  1.00  0.00     0.009 C 
HETATM   28  C26 UNL     1      20.409  10.703   1.521  1.00  0.00     0.009 C 
HETATM   29  C25 UNL     1      18.910  10.898   1.572  1.00  0.00     0.033 C 
BRANCH  27  30
HETATM   30  C1  UNL     1      22.118   9.094   0.630  1.00  0.00     0.168 C 
BRANCH  30  31
HETATM   31  O1  UNL     1      22.649   9.133  -0.656  1.00  0.00    -0.400 OA
ATOM     32  H1  UNL     1      22.817  10.023  -0.941  1.00  0.00     0.209 HD
ENDBRANCH  30  31
ENDBRANCH  27  30
ENDBRANCH  23  24
ENDBRANCH   1  23
BRANCH   8  33
HETATM   33  C21 UNL     1      14.179  10.147  -2.678  1.00  0.00     0.083 C 
HETATM   34  C22 UNL     1      14.416  10.692  -4.084  1.00  0.00     0.025 C 
HETATM   35  C23 UNL     1      13.915   9.331  -4.580  1.00  0.00     0.004 C 
HETATM   36  C24 UNL     1      14.482   8.769  -3.268  1.00  0.00     0.025 C 
ENDBRANCH   8  33
TORSDOF 7
ENDMDL
MODEL 2
REMARK VINA RESULT: -9.427516387      2.789      8.477
REMARK  7 active torsions:
REMARK  status: ('A' for Active; 'I' for Inactive)
REMARK    1  A    between atoms: O1_1  and  C1_3 
REMARK    2  A    between atoms: C1_3  and  C2_4 
REMARK    3  A    between atoms: C5_7  and  O2_8 
REMARK    4  A    between atoms: O2_8  and  C6_9 
REMARK    5  A    between atoms: C8_11  and  C9_12 
REMARK    6  A    between atoms: C12_15  and  C13_16 
REMARK    7  A    between atoms: N3_29  and  C21_31 
ROOT
HETATM    1  C6  UNL     1      16.628   8.908   4.512  1.00  0.00     0.114 A 
HETATM    2  C7  UNL     1      16.334   9.166   3.159  1.00  0.00     0.055 A 
HETATM    3  C8  UNL     1      15.073   9.451   2.715  1.00  0.00     0.009 A 
HETATM    4  C19 UNL     1      14.074   9.479   3.656  1.00  0.00     0.103 A 
HETATM    5  N2  UNL     1      14.347   9.236   4.939  1.00  0.00    -0.349 N 
ATOM      6  H2  UNL     1      13.579   9.266   5.608  1.00  0.00     0.167 HD
HETATM    7  C20 UNL     1      15.577   8.953   5.400  1.00  0.00     0.135 A 
HETATM    8  N3  UNL     1      15.748   8.735   6.670  1.00  0.00    -0.369 N 
ATOM      9  H3  UNL     1      16.680   8.524   7.026  1.00  0.00     0.161 HD
ENDROOT
BRANCH   3  10
HETATM   10  C9  UNL     1      14.811   9.714   1.309  1.00  0.00     0.043 A 
HETATM   11  C10 UNL     1      13.618  10.165   0.843  1.00  0.00     0.031 A 
HETATM   12  C11 UNL     1      13.427  10.402  -0.522  1.00  0.00     0.011 A 
HETATM   13  C12 UNL     1      14.464  10.173  -1.398  1.00  0.00    -0.038 A 
HETATM   14  C18 UNL     1      15.654   9.719  -0.911  1.00  0.00     0.096 A 
HETATM   15  N1  UNL     1      15.796   9.505   0.406  1.00  0.00    -0.365 N 
ATOM     16  H1  UNL     1      16.696   9.166   0.745  1.00  0.00     0.165 HD
BRANCH  13  17
HETATM   17  C13 UNL     1      14.223  10.438  -2.842  1.00  0.00     0.024 C 
HETATM   18  C14 UNL     1      13.182   9.518  -3.434  1.00  0.00     0.036 C 
HETATM   19  C15 UNL     1      12.967   9.945  -4.864  1.00  0.00     0.168 C 
HETATM   20  O3  UNL     1      14.107  10.460  -5.461  1.00  0.00    -0.391 OA
HETATM   21  C16 UNL     1      15.270   9.884  -5.005  1.00  0.00     0.168 C 
HETATM   22  C17 UNL     1      15.540  10.262  -3.573  1.00  0.00     0.036 C 
ENDBRANCH  13  17
ENDBRANCH   3  10
BRANCH   1  23
HETATM   23  O2  UNL     1      17.893   8.637   4.860  1.00  0.00    -0.342 OA
BRANCH  23  24
HETATM   24  C5  UNL     1      19.003   8.036   4.401  1.00  0.00     0.129 C 
HETATM   25  C4  UNL     1      19.939   7.792   5.597  1.00  0.00     0.033 C 
HETATM   26  C3  UNL     1      21.140   7.035   5.136  1.00  0.00     0.009 C 
HETATM   27  C2  UNL     1      21.906   7.946   4.199  1.00  0.00     0.009 C 
HETATM   28  C26 UNL     1      21.024   8.156   2.983  1.00  0.00     0.009 C 
HETATM   29  C25 UNL     1      19.802   8.925   3.432  1.00  0.00     0.033 C 
BRANCH  27  30
HETATM   30  C1  UNL     1      23.221   7.328   3.874  1.00  0.00     0.168 C 
BRANCH  30  31
HETATM   31  O1  UNL     1      23.393   7.170   2.501  1.00  0.00    -0.400 OA
ATOM     32  H1  UNL     1      23.967   7.835   2.139  1.00  0.00     0.209 HD
ENDBRANCH  30  31
ENDBRANCH  27  30
ENDBRANCH  23  24
ENDBRANCH   1  23
BRANCH   8  33
HETATM   33  C21 UNL     1      14.643   8.788   7.570  1.00  0.00     0.083 C 
HETATM   34  C22 UNL     1      14.888   7.963   8.831  1.00  0.00     0.025 C 
HETATM   35  C23 UNL     1      14.135   9.074   9.574  1.00  0.00     0.004 C 
HETATM   36  C24 UNL     1      14.674  10.014   8.485  1.00  0.00     0.025 C 
ENDBRANCH   8  33
TORSDOF 7
ENDMDL
MODEL 3
REMARK VINA RESULT: -9.164543761      2.491      8.347
REMARK  7 active torsions:
REMARK  status: ('A' for Active; 'I' for Inactive)
REMARK    1  A    between atoms: O1_1  and  C1_3 
REMARK    2  A    between atoms: C1_3  and  C2_4 
REMARK    3  A    between atoms: C5_7  and  O2_8 
REMARK    4  A    between atoms: O2_8  and  C6_9 
REMARK    5  A    between atoms: C8_11  and  C9_12 
REMARK    6  A    between atoms: C12_15  and  C13_16 
REMARK    7  A    between atoms: N3_29  and  C21_31 
ROOT
HETATM    1  C6  UNL     1      16.354   9.083   4.614  1.00  0.00     0.114 A 
HETATM    2  C7  UNL     1      16.094   9.267   3.243  1.00  0.00     0.055 A 
HETATM    3  C8  UNL     1      14.947   9.844   2.776  1.00  0.00     0.009 A 
HETATM    4  C19 UNL     1      14.030  10.251   3.713  1.00  0.00     0.103 A 
HETATM    5  N2  UNL     1      14.272  10.080   5.014  1.00  0.00    -0.349 N 
ATOM      6  H2  UNL     1      13.567  10.396   5.680  1.00  0.00     0.167 HD
HETATM    7  C20 UNL     1      15.391   9.515   5.497  1.00  0.00     0.135 A 
HETATM    8  N3  UNL     1      15.542   9.395   6.783  1.00  0.00    -0.369 N 
ATOM      9  H3  UNL     1      16.391   8.970   7.156  1.00  0.00     0.161 HD
ENDROOT
BRANCH   3  10
HETATM   10  C9  UNL     1      14.716  10.019   1.351  1.00  0.00     0.043 A 
HETATM   11  C10 UNL     1      13.481  10.151   0.805  1.00  0.00     0.031 A 
HETATM   12  C11 UNL     1      13.323  10.319  -0.575  1.00  0.00     0.011 A 
HETATM   13  C12 UNL     1      14.437  10.348  -1.383  1.00  0.00    -0.038 A 
HETATM   14  C18 UNL     1      15.670  10.212  -0.815  1.00  0.00     0.096 A 
HETATM   15  N1  UNL     1      15.777  10.054   0.513  1.00  0.00    -0.365 N 
ATOM     16  H1  UNL     1      16.710   9.955   0.913  1.00  0.00     0.165 HD
BRANCH  13  17
HETATM   17  C13 UNL     1      14.229  10.530  -2.845  1.00  0.00     0.024 C 
HETATM   18  C14 UNL     1      13.142   9.634  -3.391  1.00  0.00     0.036 C 
HETATM   19  C15 UNL     1      12.970   9.977  -4.849  1.00  0.00     0.168 C 
HETATM   20  O3  UNL     1      14.146  10.382  -5.461  1.00  0.00    -0.391 OA
HETATM   21  C16 UNL     1      15.267   9.771  -4.949  1.00  0.00     0.168 C 
HETATM   22  C17 UNL     1      15.542  10.227  -3.542  1.00  0.00     0.036 C 
ENDBRANCH  13  17
ENDBRANCH   3  10
BRANCH   1  23
HETATM   23  O2  UNL     1      17.506   8.506   4.984  1.00  0.00    -0.342 OA
BRANCH  23  24
HETATM   24  C5  UNL     1      18.820   8.510   4.705  1.00  0.00     0.129 C 
HETATM   25  C4  UNL     1      19.081   9.613   3.666  1.00  0.00     0.033 C 
HETATM   26  C3  UNL     1      20.549   9.711   3.409  1.00  0.00     0.009 C 
HETATM   27  C2  UNL     1      20.970   8.417   2.745  1.00  0.00     0.009 C 
HETATM   28  C26 UNL     1      20.774   7.318   3.773  1.00  0.00     0.009 C 
HETATM   29  C25 UNL     1      19.291   7.204   4.042  1.00  0.00     0.033 C 
BRANCH  27  30
HETATM   30  C1  UNL     1      22.377   8.538   2.274  1.00  0.00     0.168 C 
BRANCH  30  31
HETATM   31  O1  UNL     1      23.043   9.588   2.899  1.00  0.00    -0.400 OA
ATOM     32  H1  UNL     1      23.984   9.525   2.787  1.00  0.00     0.209 HD
ENDBRANCH  30  31
ENDBRANCH  27  30
ENDBRANCH  23  24
ENDBRANCH   1  23
BRANCH   8  33
HETATM   33  C21 UNL     1      14.529   9.851   7.677  1.00  0.00     0.083 C 
HETATM   34  C22 UNL     1      13.666   8.706   8.202  1.00  0.00     0.025 C 
HETATM   35  C23 UNL     1      13.644   9.473   9.529  1.00  0.00     0.004 C 
HETATM   36  C24 UNL     1      15.025  10.005   9.116  1.00  0.00     0.025 C 
ENDBRANCH   8  33
TORSDOF 7
ENDMDL
MODEL 4
REMARK VINA RESULT: -9.123358901      0.695      1.064
REMARK  7 active torsions:
REMARK  status: ('A' for Active; 'I' for Inactive)
REMARK    1  A    between atoms: O1_1  and  C1_3 
REMARK    2  A    between atoms: C1_3  and  C2_4 
REMARK    3  A    between atoms: C5_7  and  O2_8 
REMARK    4  A    between atoms: O2_8  and  C6_9 
REMARK    5  A    between atoms: C8_11  and  C9_12 
REMARK    6  A    between atoms: C12_15  and  C13_16 
REMARK    7  A    between atoms: N3_29  and  C21_31 
ROOT
HETATM    1  C6  UNL     1      15.884  10.627   0.522  1.00  0.00     0.114 A 
HETATM    2  C7  UNL     1      15.692  10.532   1.914  1.00  0.00     0.055 A 
HETATM    3  C8  UNL     1      14.606   9.919   2.472  1.00  0.00     0.009 A 
HETATM    4  C19 UNL     1      13.682   9.383   1.610  1.00  0.00     0.103 A 
HETATM    5  N2  UNL     1      13.860   9.471   0.291  1.00  0.00    -0.349 N 
ATOM      6  H2  UNL     1      13.152   9.061  -0.318  1.00  0.00     0.167 HD
HETATM    7  C20 UNL     1      14.918  10.068  -0.282  1.00  0.00     0.135 A 
HETATM    8  N3  UNL     1      15.008  10.099  -1.579  1.00  0.00    -0.369 N 
ATOM      9  H3  UNL     1      15.811  10.548  -2.020  1.00  0.00     0.161 HD
ENDROOT
BRANCH   3  10
HETATM   10  C9  UNL     1      14.445   9.839   3.915  1.00  0.00     0.043 A 
HETATM   11  C10 UNL     1      13.739   8.859   4.536  1.00  0.00     0.031 A 
HETATM   12  C11 UNL     1      13.622   8.835   5.929  1.00  0.00     0.011 A 
HETATM   13  C12 UNL     1      14.231   9.818   6.675  1.00  0.00    -0.038 A 
HETATM   14  C18 UNL     1      14.935  10.794   6.034  1.00  0.00     0.096 A 
HETATM   15  N1  UNL     1      15.024  10.781   4.695  1.00  0.00    -0.365 N 
ATOM     16  H1  UNL     1      15.556  11.522   4.240  1.00  0.00     0.165 HD
BRANCH  13  17
HETATM   17  C13 UNL     1      14.085   9.757   8.154  1.00  0.00     0.024 C 
HETATM   18  C14 UNL     1      12.787   9.113   8.582  1.00  0.00     0.036 C 
HETATM   19  C15 UNL     1      12.803   9.031  10.088  1.00  0.00     0.168 C 
HETATM   20  O3  UNL     1      13.491  10.075  10.688  1.00  0.00    -0.391 OA
HETATM   21  C16 UNL     1      13.406  11.257   9.990  1.00  0.00     0.168 C 
HETATM   22  C17 UNL     1      14.154  11.175   8.687  1.00  0.00     0.036 C 
ENDBRANCH  13  17
ENDBRANCH   3  10
BRANCH   1  23
HETATM   23  O2  UNL     1      16.979  11.246   0.060  1.00  0.00    -0.342 OA
BRANCH  23  24
HETATM   24  C5  UNL     1      18.320  11.172   0.089  1.00  0.00     0.129 C 
HETATM   25  C4  UNL     1      18.743   9.927  -0.708  1.00  0.00     0.033 C 
HETATM   26  C3  UNL     1      20.234   9.872  -0.780  1.00  0.00     0.009 C 
HETATM   27  C2  UNL     1      20.737   9.643   0.630  1.00  0.00     0.009 C 
HETATM   28  C26 UNL     1      20.380  10.885   1.425  1.00  0.00     0.009 C 
HETATM   29  C25 UNL     1      18.872  10.955   1.509  1.00  0.00     0.033 C 
BRANCH  27  30
HETATM   30  C1  UNL     1      22.200   9.368   0.594  1.00  0.00     0.168 C 
BRANCH  30  31
HETATM   31  O1  UNL     1      22.655   9.159  -0.705  1.00  0.00    -0.400 OA
ATOM     32  H1  UNL     1      21.968   8.827  -1.270  1.00  0.00     0.209 HD
ENDBRANCH  30  31
ENDBRANCH  27  30
ENDBRANCH  23  24
ENDBRANCH   1  23
BRANCH   8  33
HETATM   33  C21 UNL     1      13.993   9.512  -2.391  1.00  0.00     0.083 C 
HETATM   34  C22 UNL     1      12.958  10.538  -2.849  1.00  0.00     0.025 C 
HETATM   35  C23 UNL     1      12.929   9.758  -4.169  1.00  0.00     0.004 C 
HETATM   36  C24 UNL     1      14.392   9.404  -3.864  1.00  0.00     0.025 C 
ENDBRANCH   8  33
TORSDOF 7
ENDMDL
MODEL 5
REMARK VINA RESULT: -9.021836843      0.981      1.255
REMARK  7 active torsions:
REMARK  status: ('A' for Active; 'I' for Inactive)
REMARK    1  A    between atoms: O1_1  and  C1_3 
REMARK    2  A    between atoms: C1_3  and  C2_4 
REMARK    3  A    between atoms: C5_7  and  O2_8 
REMARK    4  A    between atoms: O2_8  and  C6_9 
REMARK    5  A    between atoms: C8_11  and  C9_12 
REMARK    6  A    between atoms: C12_15  and  C13_16 
REMARK    7  A    between atoms: N3_29  and  C21_31 
ROOT
HETATM    1  C6  UNL     1      16.447  10.571   0.163  1.00  0.00     0.114 A 
HETATM    2  C7  UNL     1      16.170  10.437   1.537  1.00  0.00     0.055 A 
HETATM    3  C8  UNL     1      14.938  10.087   2.015  1.00  0.00     0.009 A 
HETATM    4  C19 UNL     1      13.952   9.865   1.087  1.00  0.00     0.103 A 
HETATM    5  N2  UNL     1      14.210   9.991  -0.216  1.00  0.00    -0.349 N 
ATOM      6  H2  UNL     1      13.451   9.817  -0.875  1.00  0.00     0.167 HD
HETATM    7  C20 UNL     1      15.411  10.333  -0.710  1.00  0.00     0.135 A 
HETATM    8  N3  UNL     1      15.569  10.426  -1.997  1.00  0.00    -0.369 N 
ATOM      9  H3  UNL     1      16.480  10.682  -2.378  1.00  0.00     0.161 HD
ENDROOT
BRANCH   3  10
HETATM   10  C9  UNL     1      14.693   9.956   3.442  1.00  0.00     0.043 A 
HETATM   11  C10 UNL     1      13.893   8.999   3.978  1.00  0.00     0.031 A 
HETATM   12  C11 UNL     1      13.697   8.922   5.360  1.00  0.00     0.011 A 
HETATM   13  C12 UNL     1      14.324   9.831   6.182  1.00  0.00    -0.038 A 
HETATM   14  C18 UNL     1      15.123  10.786   5.626  1.00  0.00     0.096 A 
HETATM   15  N1  UNL     1      15.284  10.825   4.294  1.00  0.00    -0.365 N 
ATOM     16  H1  UNL     1      15.887  11.549   3.902  1.00  0.00     0.165 HD
BRANCH  13  17
HETATM   17  C13 UNL     1      14.093   9.716   7.648  1.00  0.00     0.024 C 
HETATM   18  C14 UNL     1      12.847   8.928   7.977  1.00  0.00     0.036 C 
HETATM   19  C15 UNL     1      12.776   8.809   9.479  1.00  0.00     0.168 C 
HETATM   20  O3  UNL     1      13.309   9.903  10.142  1.00  0.00    -0.391 OA
HETATM   21  C16 UNL     1      13.142  11.088   9.464  1.00  0.00     0.168 C 
HETATM   22  C17 UNL     1      13.976  11.120   8.211  1.00  0.00     0.036 C 
ENDBRANCH  13  17
ENDBRANCH   3  10
BRANCH   1  23
HETATM   23  O2  UNL     1      17.684  10.918  -0.217  1.00  0.00    -0.342 OA
BRANCH  23  24
HETATM   24  C5  UNL     1      18.969  10.818   0.164  1.00  0.00     0.129 C 
HETATM   25  C4  UNL     1      19.543   9.526  -0.443  1.00  0.00     0.033 C 
HETATM   26  C3  UNL     1      20.998   9.436  -0.120  1.00  0.00     0.009 C 
HETATM   27  C2  UNL     1      21.110   9.266   1.381  1.00  0.00     0.009 C 
HETATM   28  C26 UNL     1      20.601  10.553   2.002  1.00  0.00     0.009 C 
HETATM   29  C25 UNL     1      19.126  10.659   1.687  1.00  0.00     0.033 C 
BRANCH  27  30
HETATM   30  C1  UNL     1      22.522   8.958   1.739  1.00  0.00     0.168 C 
BRANCH  30  31
HETATM   31  O1  UNL     1      23.000   9.806   2.735  1.00  0.00    -0.400 OA
ATOM     32  H1  UNL     1      22.993  10.714   2.457  1.00  0.00     0.209 HD
ENDBRANCH  30  31
ENDBRANCH  27  30
ENDBRANCH  23  24
ENDBRANCH   1  23
BRANCH   8  33
HETATM   33  C21 UNL     1      14.479  10.174  -2.881  1.00  0.00     0.083 C 
HETATM   34  C22 UNL     1      14.761  10.668  -4.298  1.00  0.00     0.025 C 
HETATM   35  C23 UNL     1      14.001   9.423  -4.769  1.00  0.00     0.004 C 
HETATM   36  C24 UNL     1      14.503   8.764  -3.475  1.00  0.00     0.025 C 
ENDBRANCH   8  33
TORSDOF 7
ENDMDL
