MODEL 1
REMARK VINA RESULT: -9.407555212      0.000      0.000
REMARK  8 active torsions:
REMARK  status: ('A' for Active; 'I' for Inactive)
REMARK    1  A    between atoms: C5_5  and  C6_6 
REMARK    2  A    between atoms: C6_6  and  N1_7 
REMARK    3  A    between atoms: N1_7  and  C7_9 
REMARK    4  A    between atoms: C8_12  and  N3_13 
REMARK    5  A    between atoms: N4_16  and  C11_17 
REMARK    6  A    between atoms: C11_17  and  C12_18 
REMARK    7  A    between atoms: C17_25  and  N6_26 
REMARK    8  A    between atoms: N6_26  and  C18_28 
ROOT
HETATM    1  C7  UNL     1      17.788   8.710   3.935  1.00  0.00     0.707 A 
HETATM    2  N2  UNL     1      17.178   9.272   2.850  1.00  0.00    -0.021 N 
ATOM      3  H2  UNL     1      17.725   9.440   2.006  1.00  0.00     0.203 HD
HETATM    4  C8  UNL     1      15.878   9.609   2.864  1.00  0.00     0.709 A 
HETATM    5  N5  UNL     1      15.201   9.362   4.014  1.00  0.00    -0.021 N 
ATOM      6  H5  UNL     1      14.212   9.610   4.047  1.00  0.00     0.203 HD
HETATM    7  C17 UNL     1      15.743   8.814   5.108  1.00  0.00     0.707 A 
HETATM    8  N7  UNL     1      17.055   8.494   5.040  1.00  0.00    -0.021 N 
ATOM      9  H7  UNL     1      17.503   8.075   5.855  1.00  0.00     0.203 HD
ENDROOT
BRANCH   4  10
HETATM   10  N3  UNL     1      15.211  10.203   1.741  1.00  0.00    -0.213 N 
HETATM   11  C9  UNL     1      16.017  10.880   0.765  1.00  0.00     0.171 C 
HETATM   12  C10 UNL     1      15.529  10.791  -0.643  1.00  0.00     0.293 C 
HETATM   13  N4  UNL     1      14.077  10.898  -0.710  1.00  0.00     0.092 N 
HETATM   14  C15 UNL     1      13.455   9.891   0.143  1.00  0.00     0.293 C 
HETATM   15  C16 UNL     1      13.786  10.140   1.588  1.00  0.00     0.171 C 
BRANCH  13  16
HETATM   16  C11 UNL     1      13.624  10.679  -2.052  1.00  0.00     0.277 C 
BRANCH  16  17
HETATM   17  C12 UNL     1      14.699  10.136  -2.958  1.00  0.00     0.014 A 
HETATM   18  C13 UNL     1      14.480  10.203  -4.439  1.00  0.00     0.007 A 
HETATM   19  C14 UNL     1      14.340   8.883  -3.769  1.00  0.00     0.007 A 
ENDBRANCH  16  17
ENDBRANCH  13  16
ENDBRANCH   4  10
BRANCH   1  20
HETATM   20  N1  UNL     1      19.029   8.439   3.797  1.00  0.00    -0.220 N 
ATOM     21  H1  UNL     1      19.265   7.446   3.805  1.00  0.00     0.178 HD
BRANCH  20  22
HETATM   22  C6  UNL     1      20.125   9.325   3.633  1.00  0.00     0.184 C 
BRANCH  22  23
HETATM   23  C5  UNL     1      20.874   9.001   2.365  1.00  0.00     0.001 A 
HETATM   24  C4  UNL     1      20.477   9.261   1.084  1.00  0.00     0.017 A 
HETATM   25  C3  UNL     1      21.298   8.890   0.096  1.00  0.00     0.015 A 
HETATM   26  C2  UNL     1      22.474   8.280   0.452  1.00  0.00    -0.021 A 
HETATM   27  C1  UNL     1      23.561   7.774  -0.468  1.00  0.00     0.056 C 
HETATM   28  S1  UNL     1      22.385   8.247   2.154  1.00  0.00    -0.098 SA
ENDBRANCH  22  23
ENDBRANCH  20  22
ENDBRANCH   1  20
BRANCH   7  29
HETATM   29  N6  UNL     1      14.998   8.640   6.119  1.00  0.00    -0.220 N 
ATOM     30  H6  UNL     1      15.259   7.872   6.739  1.00  0.00     0.178 HD
BRANCH  29  31
HETATM   31  C18 UNL     1      13.841   9.381   6.499  1.00  0.00     0.099 C 
HETATM   32  C19 UNL     1      13.105   8.538   7.549  1.00  0.00     0.026 C 
HETATM   33  C20 UNL     1      13.925   8.596   8.842  1.00  0.00     0.002 C 
HETATM   34  C21 UNL     1      13.566   9.915   9.493  1.00  0.00     0.000 C 
HETATM   35  C22 UNL     1      13.354  10.932   8.414  1.00  0.00     0.002 C 
HETATM   36  C23 UNL     1      14.184  10.692   7.184  1.00  0.00     0.026 C 
ENDBRANCH  29  31
ENDBRANCH   7  29
TORSDOF 8
ENDMDL
MODEL 2
REMARK VINA RESULT: -9.272723658      1.053      1.227
REMARK  8 active torsions:
REMARK  status: ('A' for Active; 'I' for Inactive)
REMARK    1  A    between atoms: C5_5  and  C6_6 
REMARK    2  A    between atoms: C6_6  and  N1_7 
REMARK    3  A    between atoms: N1_7  and  C7_9 
REMARK    4  A    between atoms: C8_12  and  N3_13 
REMARK    5  A    between atoms: N4_16  and  C11_17 
REMARK    6  A    between atoms: C11_17  and  C12_18 
REMARK    7  A    between atoms: C17_25  and  N6_26 
REMARK    8  A    between atoms: N6_26  and  C18_28 
ROOT
HETATM    1  C7  UNL     1      17.698   8.303   4.154  1.00  0.00     0.707 A 
HETATM    2  N2  UNL     1      17.160   8.825   3.013  1.00  0.00    -0.021 N 
ATOM      3  H2  UNL     1      17.554   8.558   2.111  1.00  0.00     0.203 HD
HETATM    4  C8  UNL     1      16.124   9.681   3.045  1.00  0.00     0.709 A 
HETATM    5  N5  UNL     1      15.641   9.999   4.273  1.00  0.00    -0.021 N 
ATOM      6  H5  UNL     1      14.855  10.647   4.322  1.00  0.00     0.203 HD
HETATM    7  C17 UNL     1      16.126   9.520   5.424  1.00  0.00     0.707 A 
HETATM    8  N7  UNL     1      17.168   8.662   5.334  1.00  0.00    -0.021 N 
ATOM      9  H7  UNL     1      17.564   8.277   6.191  1.00  0.00     0.203 HD
ENDROOT
BRANCH   4  10
HETATM   10  N3  UNL     1      15.539  10.247   1.864  1.00  0.00    -0.213 N 
HETATM   11  C9  UNL     1      16.424  10.791   0.874  1.00  0.00     0.171 C 
HETATM   12  C10 UNL     1      15.971  10.646  -0.541  1.00  0.00     0.293 C 
HETATM   13  N4  UNL     1      14.535  10.862  -0.664  1.00  0.00     0.092 N 
HETATM   14  C15 UNL     1      13.810   9.967   0.232  1.00  0.00     0.293 C 
HETATM   15  C16 UNL     1      14.119  10.287   1.668  1.00  0.00     0.171 C 
BRANCH  13  16
HETATM   16  C11 UNL     1      14.103  10.590  -2.003  1.00  0.00     0.277 C 
BRANCH  16  17
HETATM   17  C12 UNL     1      15.056   9.701  -2.761  1.00  0.00     0.014 A 
HETATM   18  C13 UNL     1      15.280   9.980  -4.217  1.00  0.00     0.007 A 
HETATM   19  C14 UNL     1      14.440   8.809  -3.848  1.00  0.00     0.007 A 
ENDBRANCH  16  17
ENDBRANCH  13  16
ENDBRANCH   4  10
BRANCH   1  20
HETATM   20  N1  UNL     1      18.682   7.503   3.988  1.00  0.00    -0.220 N 
ATOM     21  H1  UNL     1      18.480   6.667   3.441  1.00  0.00     0.178 HD
BRANCH  20  22
HETATM   22  C6  UNL     1      20.014   7.617   4.460  1.00  0.00     0.184 C 
BRANCH  22  23
HETATM   23  C5  UNL     1      20.988   7.477   3.316  1.00  0.00     0.001 A 
HETATM   24  C4  UNL     1      21.893   6.472   3.124  1.00  0.00     0.017 A 
HETATM   25  C3  UNL     1      22.666   6.539   2.034  1.00  0.00     0.015 A 
HETATM   26  C2  UNL     1      22.484   7.612   1.199  1.00  0.00    -0.021 A 
HETATM   27  C1  UNL     1      23.224   7.912  -0.083  1.00  0.00     0.056 C 
HETATM   28  S1  UNL     1      21.241   8.487   1.970  1.00  0.00    -0.098 SA
ENDBRANCH  22  23
ENDBRANCH  20  22
ENDBRANCH   1  20
BRANCH   7  29
HETATM   29  N6  UNL     1      15.583   9.901   6.505  1.00  0.00    -0.220 N 
ATOM     30  H6  UNL     1      16.209  10.306   7.200  1.00  0.00     0.178 HD
BRANCH  29  31
HETATM   31  C18 UNL     1      14.207   9.835   6.870  1.00  0.00     0.099 C 
HETATM   32  C19 UNL     1      13.974   8.434   7.452  1.00  0.00     0.026 C 
HETATM   33  C20 UNL     1      14.643   8.392   8.830  1.00  0.00     0.002 C 
HETATM   34  C21 UNL     1      13.670   9.064   9.777  1.00  0.00     0.000 C 
HETATM   35  C22 UNL     1      12.994  10.181   9.043  1.00  0.00     0.002 C 
HETATM   36  C23 UNL     1      13.847  10.811   7.978  1.00  0.00     0.026 C 
ENDBRANCH  29  31
ENDBRANCH   7  29
TORSDOF 8
ENDMDL
MODEL 3
REMARK VINA RESULT: -9.203850334      2.481      2.620
REMARK  8 active torsions:
REMARK  status: ('A' for Active; 'I' for Inactive)
REMARK    1  A    between atoms: C5_5  and  C6_6 
REMARK    2  A    between atoms: C6_6  and  N1_7 
REMARK    3  A    between atoms: N1_7  and  C7_9 
REMARK    4  A    between atoms: C8_12  and  N3_13 
REMARK    5  A    between atoms: N4_16  and  C11_17 
REMARK    6  A    between atoms: C11_17  and  C12_18 
REMARK    7  A    between atoms: C17_25  and  N6_26 
REMARK    8  A    between atoms: N6_26  and  C18_28 
ROOT
HETATM    1  C7  UNL     1      18.420   8.314   4.360  1.00  0.00     0.707 A 
HETATM    2  N2  UNL     1      17.871   8.902   3.257  1.00  0.00    -0.021 N 
ATOM      3  H2  UNL     1      18.414   8.943   2.395  1.00  0.00     0.203 HD
HETATM    4  C8  UNL     1      16.635   9.429   3.276  1.00  0.00     0.709 A 
HETATM    5  N5  UNL     1      15.960   9.344   4.450  1.00  0.00    -0.021 N 
ATOM      6  H5  UNL     1      15.020   9.737   4.488  1.00  0.00     0.203 HD
HETATM    7  C17 UNL     1      16.444   8.780   5.562  1.00  0.00     0.707 A 
HETATM    8  N7  UNL     1      17.693   8.266   5.488  1.00  0.00    -0.021 N 
ATOM      9  H7  UNL     1      18.096   7.828   6.317  1.00  0.00     0.203 HD
ENDROOT
BRANCH   4  10
HETATM   10  N3  UNL     1      16.033  10.055   2.134  1.00  0.00    -0.213 N 
HETATM   11  C9  UNL     1      16.900  10.491   1.076  1.00  0.00     0.171 C 
HETATM   12  C10 UNL     1      16.329  10.395  -0.301  1.00  0.00     0.293 C 
HETATM   13  N4  UNL     1      14.922  10.774  -0.321  1.00  0.00     0.092 N 
HETATM   14  C15 UNL     1      14.168   9.970   0.636  1.00  0.00     0.293 C 
HETATM   15  C16 UNL     1      14.616  10.257   2.041  1.00  0.00     0.171 C 
BRANCH  13  16
HETATM   16  C11 UNL     1      14.365  10.548  -1.622  1.00  0.00     0.277 C 
BRANCH  16  17
HETATM   17  C12 UNL     1      15.223   9.661  -2.486  1.00  0.00     0.014 A 
HETATM   18  C13 UNL     1      15.422  10.046  -3.921  1.00  0.00     0.007 A 
HETATM   19  C14 UNL     1      14.508   8.913  -3.620  1.00  0.00     0.007 A 
ENDBRANCH  16  17
ENDBRANCH  13  16
ENDBRANCH   4  10
BRANCH   1  20
HETATM   20  N1  UNL     1      19.604   7.855   4.214  1.00  0.00    -0.220 N 
ATOM     21  H1  UNL     1      20.116   8.210   3.406  1.00  0.00     0.178 HD
BRANCH  20  22
HETATM   22  C6  UNL     1      20.306   6.921   5.018  1.00  0.00     0.184 C 
BRANCH  22  23
HETATM   23  C5  UNL     1      20.492   5.623   4.272  1.00  0.00     0.001 A 
HETATM   24  C4  UNL     1      21.485   5.318   3.386  1.00  0.00     0.017 A 
HETATM   25  C3  UNL     1      21.466   4.100   2.832  1.00  0.00     0.015 A 
HETATM   26  C2  UNL     1      20.449   3.258   3.203  1.00  0.00    -0.021 A 
HETATM   27  C1  UNL     1      20.208   1.844   2.726  1.00  0.00     0.056 C 
HETATM   28  S1  UNL     1      19.557   4.201   4.309  1.00  0.00    -0.098 SA
ENDBRANCH  22  23
ENDBRANCH  20  22
ENDBRANCH   1  20
BRANCH   7  29
HETATM   29  N6  UNL     1      15.708   8.771   6.595  1.00  0.00    -0.220 N 
ATOM     30  H6  UNL     1      16.126   8.373   7.437  1.00  0.00     0.178 HD
BRANCH  29  31
HETATM   31  C18 UNL     1      14.371   9.245   6.728  1.00  0.00     0.099 C 
HETATM   32  C19 UNL     1      13.667   8.303   7.713  1.00  0.00     0.026 C 
HETATM   33  C20 UNL     1      14.221   8.601   9.110  1.00  0.00     0.002 C 
HETATM   34  C21 UNL     1      13.479   9.831   9.590  1.00  0.00     0.000 C 
HETATM   35  C22 UNL     1      13.239  10.725   8.412  1.00  0.00     0.002 C 
HETATM   36  C23 UNL     1      14.299  10.628   7.352  1.00  0.00     0.026 C 
ENDBRANCH  29  31
ENDBRANCH   7  29
TORSDOF 8
ENDMDL
MODEL 4
REMARK VINA RESULT: -9.182397074      2.062      2.270
REMARK  8 active torsions:
REMARK  status: ('A' for Active; 'I' for Inactive)
REMARK    1  A    between atoms: C5_5  and  C6_6 
REMARK    2  A    between atoms: C6_6  and  N1_7 
REMARK    3  A    between atoms: N1_7  and  C7_9 
REMARK    4  A    between atoms: C8_12  and  N3_13 
REMARK    5  A    between atoms: N4_16  and  C11_17 
REMARK    6  A    between atoms: C11_17  and  C12_18 
REMARK    7  A    between atoms: C17_25  and  N6_26 
REMARK    8  A    between atoms: N6_26  and  C18_28 
ROOT
HETATM    1  C7  UNL     1      17.694   8.226   4.215  1.00  0.00     0.707 A 
HETATM    2  N2  UNL     1      17.116   8.745   3.092  1.00  0.00    -0.021 N 
ATOM      3  H2  UNL     1      17.503   8.506   2.179  1.00  0.00     0.203 HD
HETATM    4  C8  UNL     1      16.051   9.562   3.156  1.00  0.00     0.709 A 
HETATM    5  N5  UNL     1      15.580   9.844   4.398  1.00  0.00    -0.021 N 
ATOM      6  H5  UNL     1      14.772  10.463   4.470  1.00  0.00     0.203 HD
HETATM    7  C17 UNL     1      16.102   9.366   5.532  1.00  0.00     0.707 A 
HETATM    8  N7  UNL     1      17.173   8.549   5.410  1.00  0.00    -0.021 N 
ATOM      9  H7  UNL     1      17.599   8.164   6.254  1.00  0.00     0.203 HD
ENDROOT
BRANCH   4  10
HETATM   10  N3  UNL     1      15.424  10.125   1.995  1.00  0.00    -0.213 N 
HETATM   11  C9  UNL     1      16.255  10.835   1.064  1.00  0.00     0.171 C 
HETATM   12  C10 UNL     1      15.852  10.724  -0.369  1.00  0.00     0.293 C 
HETATM   13  N4  UNL     1      14.404  10.768  -0.519  1.00  0.00     0.092 N 
HETATM   14  C15 UNL     1      13.778   9.736   0.301  1.00  0.00     0.293 C 
HETATM   15  C16 UNL     1      14.015  10.001   1.761  1.00  0.00     0.171 C 
BRANCH  13  16
HETATM   16  C11 UNL     1      14.037  10.528  -1.884  1.00  0.00     0.277 C 
BRANCH  16  17
HETATM   17  C12 UNL     1      14.952   9.551  -2.578  1.00  0.00     0.014 A 
HETATM   18  C13 UNL     1      15.449   9.896  -3.950  1.00  0.00     0.007 A 
HETATM   19  C14 UNL     1      14.391   8.859  -3.828  1.00  0.00     0.007 A 
ENDBRANCH  16  17
ENDBRANCH  13  16
ENDBRANCH   4  10
BRANCH   1  20
HETATM   20  N1  UNL     1      18.702   7.465   4.019  1.00  0.00    -0.220 N 
ATOM     21  H1  UNL     1      18.551   6.476   4.217  1.00  0.00     0.178 HD
BRANCH  20  22
HETATM   22  C6  UNL     1      20.003   7.804   3.566  1.00  0.00     0.184 C 
BRANCH  22  23
HETATM   23  C5  UNL     1      20.987   6.728   3.949  1.00  0.00     0.001 A 
HETATM   24  C4  UNL     1      20.859   5.384   3.743  1.00  0.00     0.017 A 
HETATM   25  C3  UNL     1      21.857   4.597   4.160  1.00  0.00     0.015 A 
HETATM   26  C2  UNL     1      22.929   5.208   4.761  1.00  0.00    -0.021 A 
HETATM   27  C1  UNL     1      24.171   4.548   5.312  1.00  0.00     0.056 C 
HETATM   28  S1  UNL     1      22.499   6.857   4.720  1.00  0.00    -0.098 SA
ENDBRANCH  22  23
ENDBRANCH  20  22
ENDBRANCH   1  20
BRANCH   7  29
HETATM   29  N6  UNL     1      15.566   9.711   6.628  1.00  0.00    -0.220 N 
ATOM     30  H6  UNL     1      16.208   9.977   7.375  1.00  0.00     0.178 HD
BRANCH  29  31
HETATM   31  C18 UNL     1      14.178   9.775   6.948  1.00  0.00     0.099 C 
HETATM   32  C19 UNL     1      13.824   8.445   7.627  1.00  0.00     0.026 C 
HETATM   33  C20 UNL     1      14.446   8.465   9.028  1.00  0.00     0.002 C 
HETATM   34  C21 UNL     1      13.499   9.279   9.884  1.00  0.00     0.000 C 
HETATM   35  C22 UNL     1      12.931  10.380   9.042  1.00  0.00     0.002 C 
HETATM   36  C23 UNL     1      13.860  10.859   7.963  1.00  0.00     0.026 C 
ENDBRANCH  29  31
ENDBRANCH   7  29
TORSDOF 8
ENDMDL
MODEL 5
REMARK VINA RESULT: -9.172379217      2.332      6.945
REMARK  8 active torsions:
REMARK  status: ('A' for Active; 'I' for Inactive)
REMARK    1  A    between atoms: C5_5  and  C6_6 
REMARK    2  A    between atoms: C6_6  and  N1_7 
REMARK    3  A    between atoms: N1_7  and  C7_9 
REMARK    4  A    between atoms: C8_12  and  N3_13 
REMARK    5  A    between atoms: N4_16  and  C11_17 
REMARK    6  A    between atoms: C11_17  and  C12_18 
REMARK    7  A    between atoms: C17_25  and  N6_26 
REMARK    8  A    between atoms: N6_26  and  C18_28 
ROOT
HETATM    1  C7  UNL     1      15.904   9.011   4.757  1.00  0.00     0.707 A 
HETATM    2  N2  UNL     1      15.241   9.532   3.682  1.00  0.00    -0.021 N 
ATOM      3  H2  UNL     1      14.244   9.726   3.762  1.00  0.00     0.203 HD
HETATM    4  C8  UNL     1      15.868   9.796   2.523  1.00  0.00     0.709 A 
HETATM    5  N5  UNL     1      17.195   9.517   2.476  1.00  0.00    -0.021 N 
ATOM      6  H5  UNL     1      17.691   9.709   1.606  1.00  0.00     0.203 HD
HETATM    7  C17 UNL     1      17.898   9.008   3.494  1.00  0.00     0.707 A 
HETATM    8  N7  UNL     1      17.219   8.761   4.637  1.00  0.00    -0.021 N 
ATOM      9  H7  UNL     1      17.722   8.372   5.435  1.00  0.00     0.203 HD
ENDROOT
BRANCH   4  10
HETATM   10  N3  UNL     1      15.197  10.340   1.377  1.00  0.00    -0.213 N 
HETATM   11  C9  UNL     1      16.007  10.896   0.330  1.00  0.00     0.171 C 
HETATM   12  C10 UNL     1      15.469  10.730  -1.053  1.00  0.00     0.293 C 
HETATM   13  N4  UNL     1      14.024  10.912  -1.087  1.00  0.00     0.092 N 
HETATM   14  C15 UNL     1      13.377  10.008  -0.142  1.00  0.00     0.293 C 
HETATM   15  C16 UNL     1      13.767  10.346   1.270  1.00  0.00     0.171 C 
BRANCH  13  16
HETATM   16  C11 UNL     1      13.516  10.620  -2.395  1.00  0.00     0.277 C 
BRANCH  16  17
HETATM   17  C12 UNL     1      14.571  10.096  -3.335  1.00  0.00     0.014 A 
HETATM   18  C13 UNL     1      14.274  10.093  -4.804  1.00  0.00     0.007 A 
HETATM   19  C14 UNL     1      14.240   8.796  -4.079  1.00  0.00     0.007 A 
ENDBRANCH  16  17
ENDBRANCH  13  16
ENDBRANCH   4  10
BRANCH   1  20
HETATM   20  N1  UNL     1      15.196   8.803   5.799  1.00  0.00    -0.220 N 
ATOM     21  H1  UNL     1      15.486   8.013   6.376  1.00  0.00     0.178 HD
BRANCH  20  22
HETATM   22  C6  UNL     1      14.062   9.515   6.267  1.00  0.00     0.184 C 
BRANCH  22  23
HETATM   23  C5  UNL     1      14.264   9.939   7.700  1.00  0.00     0.001 A 
HETATM   24  C4  UNL     1      15.290   9.580   8.528  1.00  0.00     0.017 A 
HETATM   25  C3  UNL     1      15.280  10.073   9.772  1.00  0.00     0.015 A 
HETATM   26  C2  UNL     1      14.239  10.899  10.112  1.00  0.00    -0.021 A 
HETATM   27  C1  UNL     1      14.003  11.578  11.441  1.00  0.00     0.056 C 
HETATM   28  S1  UNL     1      13.314  10.955   8.681  1.00  0.00    -0.098 SA
ENDBRANCH  22  23
ENDBRANCH  20  22
ENDBRANCH   1  20
BRANCH   7  29
HETATM   29  N6  UNL     1      19.135   8.792   3.315  1.00  0.00    -0.220 N 
ATOM     30  H6  UNL     1      19.562   8.104   3.936  1.00  0.00     0.178 HD
BRANCH  29  31
HETATM   31  C18 UNL     1      20.004   9.389   2.357  1.00  0.00     0.099 C 
HETATM   32  C19 UNL     1      20.520  10.691   2.984  1.00  0.00     0.026 C 
HETATM   33  C20 UNL     1      21.518  10.308   4.082  1.00  0.00     0.002 C 
HETATM   34  C21 UNL     1      22.819  10.012   3.366  1.00  0.00     0.000 C 
HETATM   35  C22 UNL     1      22.497   9.361   2.055  1.00  0.00     0.002 C 
HETATM   36  C23 UNL     1      21.236   8.545   2.077  1.00  0.00     0.026 C 
ENDBRANCH  29  31
ENDBRANCH   7  29
TORSDOF 8
ENDMDL
