MODEL 1
REMARK VINA RESULT: -8.853787768      0.000      0.000
REMARK  7 active torsions:
REMARK  status: ('A' for Active; 'I' for Inactive)
REMARK    1  A    between atoms: C2_2  and  C3_3 
REMARK    2  A    between atoms: C2_2  and  C8_11 
REMARK    3  A    between atoms: C3_3  and  N1_4 
REMARK    4  A    between atoms: C11_14  and  N2_15 
REMARK       I    between atoms: N2_15  and  C12_17 
REMARK    5  A    between atoms: C12_17  and  C13_19 
REMARK    6  A    between atoms: C13_19  and  O4_21 
REMARK    7  A    between atoms: C13_19  and  C15_23 
ROOT
HETATM    1  C15 UNL     1      21.326   8.698   4.281  1.00  0.00     0.088 C 
HETATM    2  C16 UNL     1      22.069   9.408   5.322  1.00  0.00     0.072 C 
HETATM    3  N3  UNL     1      22.681   9.989   6.144  1.00  0.00    -0.196 NA
HETATM    4  C17 UNL     1      21.837   7.278   4.251  1.00  0.00     0.028 C 
HETATM    5  C18 UNL     1      23.096   7.117   3.453  1.00  0.00     0.002 C 
HETATM    6  C19 UNL     1      22.851   6.231   2.237  1.00  0.00     0.000 C 
HETATM    7  C20 UNL     1      23.072   6.981   0.966  1.00  0.00     0.000 C 
HETATM    8  C21 UNL     1      22.572   8.401   0.997  1.00  0.00     0.000 C 
HETATM    9  C22 UNL     1      21.279   8.543   1.769  1.00  0.00     0.002 C 
HETATM   10  C23 UNL     1      21.508   9.411   2.982  1.00  0.00     0.028 C 
ENDROOT
BRANCH   1  11
HETATM   11  C13 UNL     1      19.871   8.660   4.710  1.00  0.00     0.155 C 
HETATM   12  C14 UNL     1      19.264   7.299   4.426  1.00  0.00     0.058 C 
BRANCH  11  13
HETATM   13  C12 UNL     1      19.071   9.670   3.976  1.00  0.00     0.254 C 
HETATM   14  N2  UNL     1      18.156   9.309   2.942  1.00  0.00    -0.354 N 
ATOM     15  H2  UNL     1      18.051   8.323   2.702  1.00  0.00     0.162 HD
HETATM   16  O3  UNL     1      19.174  10.894   4.243  1.00  0.00    -0.270 OA
BRANCH  14  17
HETATM   17  C11 UNL     1      17.378  10.281   2.226  1.00  0.00     0.084 C 
HETATM   18  C10 UNL     1      18.108  10.758   0.996  1.00  0.00     0.025 C 
HETATM   19  C9  UNL     1      16.993  11.354   0.162  1.00  0.00     0.007 C 
HETATM   20  C8  UNL     1      15.732  10.703   0.605  1.00  0.00    -0.008 C 
HETATM   21  C24 UNL     1      16.126   9.644   1.612  1.00  0.00     0.030 C 
BRANCH  20  22
HETATM   22  C2  UNL     1      14.915  10.127  -0.522  1.00  0.00     0.001 C 
HETATM   23  C1  UNL     1      14.711   8.643  -0.311  1.00  0.00     0.011 C 
BRANCH  22  24
HETATM   24  C3  UNL     1      15.533  10.334  -1.867  1.00  0.00     0.125 C 
BRANCH  24  25
HETATM   25  N1  UNL     1      14.582   9.809  -2.857  1.00  0.00    -0.195 NA
HETATM   26  C4  UNL     1      15.237   9.453  -4.070  1.00  0.00     0.146 C 
HETATM   27  C5  UNL     1      14.796  10.179  -5.283  1.00  0.00     0.184 C 
HETATM   28  O1  UNL     1      13.441  10.328  -5.428  1.00  0.00    -0.388 OA
HETATM   29  C6  UNL     1      12.683   9.414  -4.740  1.00  0.00     0.195 C 
HETATM   30  C7  UNL     1      12.432   9.993  -3.349  1.00  0.00     0.220 C 
HETATM   31  O2  UNL     1      13.585  10.696  -3.001  1.00  0.00    -0.301 OA
ENDBRANCH  24  25
ENDBRANCH  22  24
ENDBRANCH  20  22
ENDBRANCH  14  17
ENDBRANCH  11  13
BRANCH  11  32
HETATM   32  O4  UNL     1      19.784   8.869   6.101  1.00  0.00    -0.379 OA
ATOM     33  H4  UNL     1      20.396   8.310   6.565  1.00  0.00     0.211 HD
ENDBRANCH  11  32
ENDBRANCH   1  11
TORSDOF 7
ENDMDL
MODEL 2
REMARK VINA RESULT: -8.831222856      2.063      2.987
REMARK  7 active torsions:
REMARK  status: ('A' for Active; 'I' for Inactive)
REMARK    1  A    between atoms: C2_2  and  C3_3 
REMARK    2  A    between atoms: C2_2  and  C8_11 
REMARK    3  A    between atoms: C3_3  and  N1_4 
REMARK    4  A    between atoms: C11_14  and  N2_15 
REMARK       I    between atoms: N2_15  and  C12_17 
REMARK    5  A    between atoms: C12_17  and  C13_19 
REMARK    6  A    between atoms: C13_19  and  O4_21 
REMARK    7  A    between atoms: C13_19  and  C15_23 
ROOT
HETATM    1  C15 UNL     1      20.809   8.354   3.539  1.00  0.00     0.088 C 
HETATM    2  C16 UNL     1      20.660   8.869   2.178  1.00  0.00     0.072 C 
HETATM    3  N3  UNL     1      20.534   9.263   1.075  1.00  0.00    -0.196 NA
HETATM    4  C17 UNL     1      22.272   8.044   3.747  1.00  0.00     0.028 C 
HETATM    5  C18 UNL     1      22.680   6.708   3.203  1.00  0.00     0.002 C 
HETATM    6  C19 UNL     1      23.124   5.783   4.331  1.00  0.00     0.000 C 
HETATM    7  C20 UNL     1      22.233   4.591   4.437  1.00  0.00     0.000 C 
HETATM    8  C21 UNL     1      20.774   4.895   4.219  1.00  0.00     0.000 C 
HETATM    9  C22 UNL     1      20.365   6.227   4.809  1.00  0.00     0.002 C 
HETATM   10  C23 UNL     1      19.931   7.157   3.704  1.00  0.00     0.028 C 
ENDROOT
BRANCH   1  11
HETATM   11  C13 UNL     1      20.430   9.473   4.489  1.00  0.00     0.155 C 
HETATM   12  C14 UNL     1      21.087   9.273   5.842  1.00  0.00     0.058 C 
BRANCH  11  13
HETATM   13  C12 UNL     1      18.963   9.517   4.705  1.00  0.00     0.254 C 
HETATM   14  N2  UNL     1      18.085  10.205   3.814  1.00  0.00    -0.354 N 
ATOM     15  H2  UNL     1      18.482  10.681   3.004  1.00  0.00     0.162 HD
HETATM   16  O3  UNL     1      18.438   8.943   5.692  1.00  0.00    -0.270 OA
BRANCH  14  17
HETATM   17  C11 UNL     1      16.664  10.252   4.016  1.00  0.00     0.084 C 
HETATM   18  C10 UNL     1      16.116  11.619   3.689  1.00  0.00     0.025 C 
HETATM   19  C9  UNL     1      14.641  11.344   3.489  1.00  0.00     0.007 C 
HETATM   20  C8  UNL     1      14.519   9.908   3.123  1.00  0.00    -0.008 C 
HETATM   21  C24 UNL     1      15.930   9.376   2.995  1.00  0.00     0.030 C 
BRANCH  20  22
HETATM   22  C2  UNL     1      13.712   9.664   1.875  1.00  0.00     0.001 C 
HETATM   23  C1  UNL     1      12.352   9.111   2.235  1.00  0.00     0.011 C 
BRANCH  22  24
HETATM   24  C3  UNL     1      14.370   8.719   0.921  1.00  0.00     0.125 C 
BRANCH  24  25
HETATM   25  N1  UNL     1      14.093   9.221  -0.432  1.00  0.00    -0.195 NA
HETATM   26  C4  UNL     1      15.000   8.677  -1.385  1.00  0.00     0.146 C 
HETATM   27  C5  UNL     1      15.842   9.655  -2.111  1.00  0.00     0.184 C 
HETATM   28  O1  UNL     1      15.197  10.776  -2.564  1.00  0.00    -0.388 OA
HETATM   29  C6  UNL     1      13.841  10.637  -2.721  1.00  0.00     0.195 C 
HETATM   30  C7  UNL     1      13.194  11.004  -1.387  1.00  0.00     0.220 C 
HETATM   31  O2  UNL     1      14.065  10.562  -0.391  1.00  0.00    -0.301 OA
ENDBRANCH  24  25
ENDBRANCH  22  24
ENDBRANCH  20  22
ENDBRANCH  14  17
ENDBRANCH  11  13
BRANCH  11  32
HETATM   32  O4  UNL     1      20.897  10.702   3.982  1.00  0.00    -0.379 OA
ATOM     33  H4  UNL     1      21.293  10.584   3.126  1.00  0.00     0.211 HD
ENDBRANCH  11  32
ENDBRANCH   1  11
TORSDOF 7
ENDMDL
MODEL 3
REMARK VINA RESULT: -8.798651852      2.052      3.274
REMARK  7 active torsions:
REMARK  status: ('A' for Active; 'I' for Inactive)
REMARK    1  A    between atoms: C2_2  and  C3_3 
REMARK    2  A    between atoms: C2_2  and  C8_11 
REMARK    3  A    between atoms: C3_3  and  N1_4 
REMARK    4  A    between atoms: C11_14  and  N2_15 
REMARK       I    between atoms: N2_15  and  C12_17 
REMARK    5  A    between atoms: C12_17  and  C13_19 
REMARK    6  A    between atoms: C13_19  and  O4_21 
REMARK    7  A    between atoms: C13_19  and  C15_23 
ROOT
HETATM    1  C15 UNL     1      21.394   7.840   4.540  1.00  0.00     0.088 C 
HETATM    2  C16 UNL     1      20.633   6.607   4.341  1.00  0.00     0.072 C 
HETATM    3  N3  UNL     1      20.017   5.613   4.202  1.00  0.00    -0.196 NA
HETATM    4  C17 UNL     1      22.859   7.483   4.467  1.00  0.00     0.028 C 
HETATM    5  C18 UNL     1      23.404   6.945   5.756  1.00  0.00     0.002 C 
HETATM    6  C19 UNL     1      24.460   7.886   6.326  1.00  0.00     0.000 C 
HETATM    7  C20 UNL     1      24.038   8.441   7.645  1.00  0.00     0.000 C 
HETATM    8  C21 UNL     1      22.574   8.788   7.723  1.00  0.00     0.000 C 
HETATM    9  C22 UNL     1      22.047   9.369   6.429  1.00  0.00     0.002 C 
HETATM   10  C23 UNL     1      21.006   8.444   5.849  1.00  0.00     0.028 C 
ENDROOT
BRANCH   1  11
HETATM   11  C13 UNL     1      21.081   8.758   3.374  1.00  0.00     0.155 C 
HETATM   12  C14 UNL     1      22.170   9.801   3.205  1.00  0.00     0.058 C 
BRANCH  11  13
HETATM   13  C12 UNL     1      19.801   9.477   3.589  1.00  0.00     0.254 C 
HETATM   14  N2  UNL     1      18.554   8.963   3.120  1.00  0.00    -0.354 N 
ATOM     15  H2  UNL     1      18.546   8.073   2.622  1.00  0.00     0.162 HD
HETATM   16  O3  UNL     1      19.771  10.576   4.197  1.00  0.00    -0.270 OA
BRANCH  14  17
HETATM   17  C11 UNL     1      17.311   9.653   3.324  1.00  0.00     0.084 C 
HETATM   18  C10 UNL     1      17.234  10.894   2.470  1.00  0.00     0.025 C 
HETATM   19  C9  UNL     1      15.749  11.187   2.446  1.00  0.00     0.007 C 
HETATM   20  C8  UNL     1      15.055   9.900   2.719  1.00  0.00    -0.008 C 
HETATM   21  C24 UNL     1      16.131   8.837   2.785  1.00  0.00     0.030 C 
BRANCH  20  22
HETATM   22  C2  UNL     1      13.989   9.557   1.711  1.00  0.00     0.001 C 
HETATM   23  C1  UNL     1      12.763   9.018   2.414  1.00  0.00     0.011 C 
BRANCH  22  24
HETATM   24  C3  UNL     1      14.435   8.552   0.699  1.00  0.00     0.125 C 
BRANCH  24  25
HETATM   25  N1  UNL     1      14.107   9.107  -0.623  1.00  0.00    -0.195 NA
HETATM   26  C4  UNL     1      15.015   8.650  -1.619  1.00  0.00     0.146 C 
HETATM   27  C5  UNL     1      15.799   9.698  -2.311  1.00  0.00     0.184 C 
HETATM   28  O1  UNL     1      15.097  10.810  -2.695  1.00  0.00    -0.388 OA
HETATM   29  C6  UNL     1      13.745  10.621  -2.833  1.00  0.00     0.195 C 
HETATM   30  C7  UNL     1      13.112  10.893  -1.469  1.00  0.00     0.220 C 
HETATM   31  O2  UNL     1      14.023  10.442  -0.514  1.00  0.00    -0.301 OA
ENDBRANCH  24  25
ENDBRANCH  22  24
ENDBRANCH  20  22
ENDBRANCH  14  17
ENDBRANCH  11  13
BRANCH  11  32
HETATM   32  O4  UNL     1      21.038   8.009   2.181  1.00  0.00    -0.379 OA
ATOM     33  H4  UNL     1      20.921   7.085   2.368  1.00  0.00     0.211 HD
ENDBRANCH  11  32
ENDBRANCH   1  11
TORSDOF 7
ENDMDL
MODEL 4
REMARK VINA RESULT: -8.769290597      1.790      2.730
REMARK  7 active torsions:
REMARK  status: ('A' for Active; 'I' for Inactive)
REMARK    1  A    between atoms: C2_2  and  C3_3 
REMARK    2  A    between atoms: C2_2  and  C8_11 
REMARK    3  A    between atoms: C3_3  and  N1_4 
REMARK    4  A    between atoms: C11_14  and  N2_15 
REMARK       I    between atoms: N2_15  and  C12_17 
REMARK    5  A    between atoms: C12_17  and  C13_19 
REMARK    6  A    between atoms: C13_19  and  O4_21 
REMARK    7  A    between atoms: C13_19  and  C15_23 
ROOT
HETATM    1  C15 UNL     1      21.345   8.020   3.829  1.00  0.00     0.088 C 
HETATM    2  C16 UNL     1      21.514   8.916   4.973  1.00  0.00     0.072 C 
HETATM    3  N3  UNL     1      21.665   9.624   5.902  1.00  0.00    -0.196 NA
HETATM    4  C17 UNL     1      20.114   7.184   4.089  1.00  0.00     0.028 C 
HETATM    5  C18 UNL     1      20.376   6.000   4.971  1.00  0.00     0.002 C 
HETATM    6  C19 UNL     1      20.147   4.701   4.206  1.00  0.00     0.000 C 
HETATM    7  C20 UNL     1      21.405   3.907   4.095  1.00  0.00     0.000 C 
HETATM    8  C21 UNL     1      22.635   4.740   3.847  1.00  0.00     0.000 C 
HETATM    9  C22 UNL     1      22.367   5.907   2.922  1.00  0.00     0.002 C 
HETATM   10  C23 UNL     1      22.582   7.201   3.667  1.00  0.00     0.028 C 
ENDROOT
BRANCH   1  11
HETATM   11  C13 UNL     1      21.072   8.885   2.614  1.00  0.00     0.155 C 
HETATM   12  C14 UNL     1      22.227   9.836   2.361  1.00  0.00     0.058 C 
BRANCH  11  13
HETATM   13  C12 UNL     1      19.850   9.704   2.804  1.00  0.00     0.254 C 
HETATM   14  N2  UNL     1      18.552   9.225   2.453  1.00  0.00    -0.354 N 
ATOM     15  H2  UNL     1      18.465   8.289   2.058  1.00  0.00     0.162 HD
HETATM   16  O3  UNL     1      19.917  10.862   3.287  1.00  0.00    -0.270 OA
BRANCH  14  17
HETATM   17  C11 UNL     1      17.364  10.012   2.634  1.00  0.00     0.084 C 
HETATM   18  C10 UNL     1      17.198  11.006   1.512  1.00  0.00     0.025 C 
HETATM   19  C9  UNL     1      15.730  11.366   1.606  1.00  0.00     0.007 C 
HETATM   20  C8  UNL     1      15.053  10.228   2.281  1.00  0.00    -0.008 C 
HETATM   21  C24 UNL     1      16.103   9.155   2.474  1.00  0.00     0.030 C 
BRANCH  20  22
HETATM   22  C2  UNL     1      13.850   9.706   1.538  1.00  0.00     0.001 C 
HETATM   23  C1  UNL     1      12.768   9.307   2.516  1.00  0.00     0.011 C 
BRANCH  22  24
HETATM   24  C3  UNL     1      14.157   8.532   0.666  1.00  0.00     0.125 C 
BRANCH  24  25
HETATM   25  N1  UNL     1      14.063   9.000  -0.725  1.00  0.00    -0.195 NA
HETATM   26  C4  UNL     1      15.320   8.915  -1.388  1.00  0.00     0.146 C 
HETATM   27  C5  UNL     1      15.878  10.193  -1.887  1.00  0.00     0.184 C 
HETATM   28  O1  UNL     1      14.991  11.022  -2.523  1.00  0.00    -0.388 OA
HETATM   29  C6  UNL     1      13.880  10.397  -3.031  1.00  0.00     0.195 C 
HETATM   30  C7  UNL     1      12.825  10.386  -1.926  1.00  0.00     0.220 C 
HETATM   31  O2  UNL     1      13.514  10.225  -0.725  1.00  0.00    -0.301 OA
ENDBRANCH  24  25
ENDBRANCH  22  24
ENDBRANCH  20  22
ENDBRANCH  14  17
ENDBRANCH  11  13
BRANCH  11  32
HETATM   32  O4  UNL     1      20.952   8.069   1.471  1.00  0.00    -0.379 OA
ATOM     33  H4  UNL     1      21.659   7.435   1.434  1.00  0.00     0.211 HD
ENDBRANCH  11  32
ENDBRANCH   1  11
TORSDOF 7
ENDMDL
MODEL 5
REMARK VINA RESULT: -8.750758324      1.913      2.709
REMARK  7 active torsions:
REMARK  status: ('A' for Active; 'I' for Inactive)
REMARK    1  A    between atoms: C2_2  and  C3_3 
REMARK    2  A    between atoms: C2_2  and  C8_11 
REMARK    3  A    between atoms: C3_3  and  N1_4 
REMARK    4  A    between atoms: C11_14  and  N2_15 
REMARK       I    between atoms: N2_15  and  C12_17 
REMARK    5  A    between atoms: C12_17  and  C13_19 
REMARK    6  A    between atoms: C13_19  and  O4_21 
REMARK    7  A    between atoms: C13_19  and  C15_23 
ROOT
HETATM    1  C15 UNL     1      21.993   7.833   3.368  1.00  0.00     0.088 C 
HETATM    2  C16 UNL     1      22.201   8.277   1.990  1.00  0.00     0.072 C 
HETATM    3  N3  UNL     1      22.355   8.617   0.873  1.00  0.00    -0.196 NA
HETATM    4  C17 UNL     1      23.190   7.002   3.761  1.00  0.00     0.028 C 
HETATM    5  C18 UNL     1      23.104   5.579   3.296  1.00  0.00     0.002 C 
HETATM    6  C19 UNL     1      23.031   4.630   4.486  1.00  0.00     0.000 C 
HETATM    7  C20 UNL     1      21.742   3.879   4.504  1.00  0.00     0.000 C 
HETATM    8  C21 UNL     1      20.548   4.703   4.103  1.00  0.00     0.000 C 
HETATM    9  C22 UNL     1      20.627   6.125   4.613  1.00  0.00     0.002 C 
HETATM   10  C23 UNL     1      20.708   7.077   3.446  1.00  0.00     0.028 C 
ENDROOT
BRANCH   1  11
HETATM   11  C13 UNL     1      21.978   9.071   4.244  1.00  0.00     0.155 C 
HETATM   12  C14 UNL     1      22.226   8.705   5.695  1.00  0.00     0.058 C 
BRANCH  11  13
HETATM   13  C12 UNL     1      20.666   9.761   4.173  1.00  0.00     0.254 C 
HETATM   14  N2  UNL     1      20.194  10.372   2.973  1.00  0.00    -0.354 N 
ATOM     15  H2  UNL     1      20.780  10.333   2.139  1.00  0.00     0.162 HD
HETATM   16  O3  UNL     1      19.918   9.830   5.180  1.00  0.00    -0.270 OA
BRANCH  14  17
HETATM   17  C11 UNL     1      18.926  11.042   2.896  1.00  0.00     0.084 C 
HETATM   18  C10 UNL     1      18.897  12.016   1.745  1.00  0.00     0.025 C 
HETATM   19  C9  UNL     1      17.413  12.233   1.534  1.00  0.00     0.007 C 
HETATM   20  C8  UNL     1      16.724  11.035   2.080  1.00  0.00    -0.008 C 
HETATM   21  C24 UNL     1      17.809  10.068   2.502  1.00  0.00     0.030 C 
BRANCH  20  22
HETATM   22  C2  UNL     1      15.751  10.401   1.120  1.00  0.00     0.001 C 
HETATM   23  C1  UNL     1      15.222   9.106   1.695  1.00  0.00     0.011 C 
BRANCH  22  24
HETATM   24  C3  UNL     1      16.345  10.117  -0.221  1.00  0.00     0.125 C 
BRANCH  24  25
HETATM   25  N1  UNL     1      15.226  10.029  -1.171  1.00  0.00    -0.195 NA
HETATM   26  C4  UNL     1      15.607   9.352  -2.363  1.00  0.00     0.146 C 
HETATM   27  C5  UNL     1      15.501  10.135  -3.616  1.00  0.00     0.184 C 
HETATM   28  O1  UNL     1      14.355  10.873  -3.761  1.00  0.00    -0.388 OA
HETATM   29  C6  UNL     1      13.290  10.438  -3.013  1.00  0.00     0.195 C 
HETATM   30  C7  UNL     1      13.375  11.141  -1.659  1.00  0.00     0.220 C 
HETATM   31  O2  UNL     1      14.733  11.262  -1.362  1.00  0.00    -0.301 OA
ENDBRANCH  24  25
ENDBRANCH  22  24
ENDBRANCH  20  22
ENDBRANCH  14  17
ENDBRANCH  11  13
BRANCH  11  32
HETATM   32  O4  UNL     1      23.019   9.938   3.854  1.00  0.00    -0.379 OA
ATOM     33  H4  UNL     1      23.119   9.940   2.909  1.00  0.00     0.211 HD
ENDBRANCH  11  32
ENDBRANCH   1  11
TORSDOF 7
ENDMDL
