MODEL 1
REMARK VINA RESULT: -6.364275111      0.000      0.000
REMARK  5 active torsions:
REMARK  status: ('A' for Active; 'I' for Inactive)
REMARK    1  A    between atoms: O1_2  and  C2_3 
REMARK       I    between atoms: C2_3  and  N1_5 
REMARK    2  A    between atoms: N1_5  and  C3_7 
REMARK    3  A    between atoms: C5_14  and  N4_15 
REMARK    4  A    between atoms: C6_19  and  C7_20 
REMARK    5  A    between atoms: C10_24  and  O4_25 
ROOT
HETATM    1  C7  UNL     1      19.037  -5.222  87.202  1.00  0.00    -0.078 C 
HETATM    2  C8  UNL     1      18.373  -4.233  87.018  1.00  0.00     0.013 C 
HETATM    3  C9  UNL     1      17.584  -3.073  86.824  1.00  0.00     0.152 C 
HETATM    4  N5  UNL     1      16.931  -2.116  86.684  1.00  0.00    -0.182 NA
ENDROOT
BRANCH   1   5
HETATM    5  C6  UNL     1      19.825  -6.404  87.382  1.00  0.00     0.162 C 
HETATM    6  C5  UNL     1      20.947  -6.151  88.404  1.00  0.00     0.279 C 
HETATM    7  C4  UNL     1      21.383  -7.535  88.811  1.00  0.00     0.166 C 
HETATM    8  O3  UNL     1      21.438  -8.435  87.718  1.00  0.00    -0.241 OA
HETATM    9  N3  UNL     1      21.674  -7.867  90.012  1.00  0.00    -0.380 N 
HETATM   10  N2  UNL     1      21.651  -7.810  86.555  1.00  0.00    -0.121 NA
HETATM   11  C3  UNL     1      21.787  -8.557  85.359  1.00  0.00     0.235 C 
HETATM   12  C10 UNL     1      20.378  -7.085  86.222  1.00  0.00     0.198 C 
HETATM   13  C12 UNL     1      21.451  -7.530  84.248  1.00  0.00     0.214 C 
HETATM   14  C11 UNL     1      20.920  -6.375  85.077  1.00  0.00     0.074 C 
HETATM   15  C13 UNL     1      20.379  -8.040  83.407  1.00  0.00     0.094 C 
HETATM   16  C14 UNL     1      22.617  -7.163  83.495  1.00  0.00     0.094 C 
HETATM   17  N6  UNL     1      21.007  -5.200  84.765  1.00  0.00    -0.400 N 
ATOM     18  H62 UNL     1      20.650  -4.424  85.323  1.00  0.00     0.155 HD
ATOM     19  H61 UNL     1      21.387  -4.701  83.961  1.00  0.00     0.155 HD
HETATM   20  N7  UNL     1      19.527  -8.464  82.737  1.00  0.00    -0.195 NA
HETATM   21  N8  UNL     1      23.545  -6.879  82.874  1.00  0.00    -0.195 NA
ATOM     22  H32 UNL     1      21.969  -8.803  90.288  1.00  0.00     0.158 HD
ATOM     23  H31 UNL     1      21.635  -7.219  90.799  1.00  0.00     0.158 HD
BRANCH   6  24
HETATM   24  N4  UNL     1      20.455  -5.483  89.567  1.00  0.00    -0.066 N 
ATOM     25  H43 UNL     1      20.199  -4.513  89.386  1.00  0.00     0.275 HD
ATOM     26  H42 UNL     1      19.536  -5.816  89.854  1.00  0.00     0.275 HD
ATOM     27  H41 UNL     1      21.156  -5.575  90.303  1.00  0.00     0.275 HD
ENDBRANCH   6  24
BRANCH  11  28
HETATM   28  N1  UNL     1      23.201  -8.891  85.185  1.00  0.00    -0.315 N 
HETATM   29  C2  UNL     1      23.707 -10.148  85.549  1.00  0.00     0.361 C 
HETATM   30  O2  UNL     1      22.949 -11.012  86.035  1.00  0.00    -0.238 OA
ATOM     31  H1  UNL     1      23.833  -8.194  84.790  1.00  0.00     0.166 HD
BRANCH  29  32
HETATM   32  O1  UNL     1      25.050 -10.423  85.367  1.00  0.00    -0.309 OA
HETATM   33  C1  UNL     1      25.949  -9.466  84.817  1.00  0.00     0.215 C 
ENDBRANCH  29  32
ENDBRANCH  11  28
BRANCH  12  34
HETATM   34  O4  UNL     1      19.542  -8.164  85.810  1.00  0.00    -0.367 OA
ATOM     35  H4  UNL     1      18.908  -8.189  86.516  1.00  0.00     0.212 HD
ENDBRANCH  12  34
ENDBRANCH   1   5
TORSDOF 5
ENDMDL
MODEL 2
REMARK VINA RESULT: -5.856664500      1.755      2.073
REMARK  5 active torsions:
REMARK  status: ('A' for Active; 'I' for Inactive)
REMARK    1  A    between atoms: O1_2  and  C2_3 
REMARK       I    between atoms: C2_3  and  N1_5 
REMARK    2  A    between atoms: N1_5  and  C3_7 
REMARK    3  A    between atoms: C5_14  and  N4_15 
REMARK    4  A    between atoms: C6_19  and  C7_20 
REMARK    5  A    between atoms: C10_24  and  O4_25 
ROOT
HETATM    1  C7  UNL     1      19.948  -6.967  87.771  1.00  0.00    -0.078 C 
HETATM    2  C8  UNL     1      19.283  -6.028  88.129  1.00  0.00     0.013 C 
HETATM    3  C9  UNL     1      18.515  -4.923  88.569  1.00  0.00     0.152 C 
HETATM    4  N5  UNL     1      17.896  -4.007  88.945  1.00  0.00    -0.182 NA
ENDROOT
BRANCH   1   5
HETATM    5  C6  UNL     1      20.708  -8.096  87.326  1.00  0.00     0.162 C 
HETATM    6  C5  UNL     1      22.107  -8.088  87.965  1.00  0.00     0.279 C 
HETATM    7  C4  UNL     1      22.599  -9.500  87.775  1.00  0.00     0.166 C 
HETATM    8  O3  UNL     1      22.267 -10.029  86.503  1.00  0.00    -0.241 OA
HETATM    9  N3  UNL     1      23.248 -10.155  88.663  1.00  0.00    -0.380 N 
HETATM   10  N2  UNL     1      22.118  -9.073  85.579  1.00  0.00    -0.121 NA
HETATM   11  C3  UNL     1      21.835  -9.420  84.234  1.00  0.00     0.235 C 
HETATM   12  C10 UNL     1      20.833  -8.365  85.902  1.00  0.00     0.198 C 
HETATM   13  C12 UNL     1      21.198  -8.133  83.652  1.00  0.00     0.214 C 
HETATM   14  C11 UNL     1      21.005  -7.313  84.916  1.00  0.00     0.074 C 
HETATM   15  C13 UNL     1      19.894  -8.437  83.082  1.00  0.00     0.094 C 
HETATM   16  C14 UNL     1      22.073  -7.485  82.717  1.00  0.00     0.094 C 
HETATM   17  N6  UNL     1      21.030  -6.096  84.962  1.00  0.00    -0.400 N 
ATOM     18  H62 UNL     1      20.901  -5.545  85.811  1.00  0.00     0.155 HD
ATOM     19  H61 UNL     1      21.151  -5.357  84.269  1.00  0.00     0.155 HD
HETATM   20  N7  UNL     1      18.857  -8.696  82.622  1.00  0.00    -0.195 NA
HETATM   21  N8  UNL     1      22.763  -6.971  81.950  1.00  0.00    -0.195 NA
ATOM     22  H32 UNL     1      23.581 -11.110  88.534  1.00  0.00     0.158 HD
ATOM     23  H31 UNL     1      23.488  -9.774  89.578  1.00  0.00     0.158 HD
BRANCH   6  24
HETATM   24  N4  UNL     1      22.041  -7.829  89.369  1.00  0.00    -0.066 N 
ATOM     25  H43 UNL     1      21.112  -7.995  89.757  1.00  0.00     0.275 HD
ATOM     26  H42 UNL     1      22.546  -8.521  89.921  1.00  0.00     0.275 HD
ATOM     27  H41 UNL     1      22.371  -6.878  89.530  1.00  0.00     0.275 HD
ENDBRANCH   6  24
BRANCH  11  28
HETATM   28  N1  UNL     1      23.104  -9.597  83.529  1.00  0.00    -0.315 N 
HETATM   29  C2  UNL     1      23.609 -10.873  83.236  1.00  0.00     0.361 C 
HETATM   30  O2  UNL     1      22.974 -11.892  83.578  1.00  0.00    -0.238 OA
ATOM     31  H1  UNL     1      23.635  -8.773  83.244  1.00  0.00     0.166 HD
BRANCH  29  32
HETATM   32  O1  UNL     1      24.812 -10.996  82.566  1.00  0.00    -0.309 OA
HETATM   33  C1  UNL     1      25.409  -9.900  81.879  1.00  0.00     0.215 C 
ENDBRANCH  29  32
ENDBRANCH  11  28
BRANCH  12  34
HETATM   34  O4  UNL     1      19.870  -9.324  85.471  1.00  0.00    -0.367 OA
ATOM     35  H4  UNL     1      19.508  -9.610  86.300  1.00  0.00     0.212 HD
ENDBRANCH  12  34
ENDBRANCH   1   5
TORSDOF 5
ENDMDL
MODEL 3
REMARK VINA RESULT: -5.800686746      4.872      9.331
REMARK  5 active torsions:
REMARK  status: ('A' for Active; 'I' for Inactive)
REMARK    1  A    between atoms: O1_2  and  C2_3 
REMARK       I    between atoms: C2_3  and  N1_5 
REMARK    2  A    between atoms: N1_5  and  C3_7 
REMARK    3  A    between atoms: C5_14  and  N4_15 
REMARK    4  A    between atoms: C6_19  and  C7_20 
REMARK    5  A    between atoms: C10_24  and  O4_25 
ROOT
HETATM    1  C7  UNL     1      18.838  -4.605  87.824  1.00  0.00    -0.078 C 
HETATM    2  C8  UNL     1      19.436  -5.128  86.918  1.00  0.00     0.013 C 
HETATM    3  C9  UNL     1      20.160  -5.733  85.861  1.00  0.00     0.152 C 
HETATM    4  N5  UNL     1      20.774  -6.229  85.001  1.00  0.00    -0.182 NA
ENDROOT
BRANCH   1   5
HETATM    5  C6  UNL     1      18.095  -3.982  88.878  1.00  0.00     0.162 C 
HETATM    6  C5  UNL     1      17.486  -5.047  89.806  1.00  0.00     0.279 C 
HETATM    7  C4  UNL     1      17.138  -4.279  91.056  1.00  0.00     0.166 C 
HETATM    8  O3  UNL     1      16.591  -3.002  90.780  1.00  0.00    -0.241 OA
HETATM    9  N3  UNL     1      17.317  -4.729  92.241  1.00  0.00    -0.380 N 
HETATM   10  N2  UNL     1      15.989  -2.955  89.587  1.00  0.00    -0.121 NA
HETATM   11  C3  UNL     1      15.339  -1.769  89.164  1.00  0.00     0.235 C 
HETATM   12  C10 UNL     1      17.082  -2.990  88.557  1.00  0.00     0.198 C 
HETATM   13  C12 UNL     1      15.291  -1.910  87.621  1.00  0.00     0.214 C 
HETATM   14  C11 UNL     1      16.191  -3.116  87.417  1.00  0.00     0.074 C 
HETATM   15  C13 UNL     1      15.906  -0.749  86.996  1.00  0.00     0.094 C 
HETATM   16  C14 UNL     1      13.956  -2.148  87.151  1.00  0.00     0.094 C 
HETATM   17  N6  UNL     1      16.080  -3.917  86.506  1.00  0.00    -0.400 N 
ATOM     18  H62 UNL     1      16.685  -4.727  86.368  1.00  0.00     0.155 HD
ATOM     19  H61 UNL     1      15.455  -4.005  85.704  1.00  0.00     0.155 HD
HETATM   20  N7  UNL     1      16.393   0.189  86.510  1.00  0.00    -0.195 NA
HETATM   21  N8  UNL     1      12.883  -2.320  86.767  1.00  0.00    -0.195 NA
ATOM     22  H32 UNL     1      17.082  -4.210  93.087  1.00  0.00     0.158 HD
ATOM     23  H31 UNL     1      17.710  -5.649  92.440  1.00  0.00     0.158 HD
BRANCH   6  24
HETATM   24  N4  UNL     1      18.443  -6.049  90.155  1.00  0.00    -0.066 N 
ATOM     25  H43 UNL     1      19.403  -5.757  89.975  1.00  0.00     0.275 HD
ATOM     26  H42 UNL     1      18.526  -6.181  91.162  1.00  0.00     0.275 HD
ATOM     27  H41 UNL     1      18.193  -6.907  89.664  1.00  0.00     0.275 HD
ENDBRANCH   6  24
BRANCH  11  28
HETATM   28  N1  UNL     1      13.949  -1.822  89.617  1.00  0.00    -0.315 N 
HETATM   29  C2  UNL     1      13.174  -0.659  89.741  1.00  0.00     0.361 C 
HETATM   30  O2  UNL     1      13.665   0.455  89.464  1.00  0.00    -0.238 OA
ATOM     31  H1  UNL     1      13.533  -2.725  89.847  1.00  0.00     0.166 HD
BRANCH  29  32
HETATM   32  O1  UNL     1      11.863  -0.753  90.171  1.00  0.00    -0.309 OA
HETATM   33  C1  UNL     1      11.384  -1.884  90.892  1.00  0.00     0.215 C 
ENDBRANCH  29  32
ENDBRANCH  11  28
BRANCH  12  34
HETATM   34  O4  UNL     1      17.604  -1.667  88.659  1.00  0.00    -0.367 OA
ATOM     35  H4  UNL     1      18.528  -1.841  88.796  1.00  0.00     0.212 HD
ENDBRANCH  12  34
ENDBRANCH   1   5
TORSDOF 5
ENDMDL
MODEL 4
REMARK VINA RESULT: -5.191753637      2.641      4.812
REMARK  5 active torsions:
REMARK  status: ('A' for Active; 'I' for Inactive)
REMARK    1  A    between atoms: O1_2  and  C2_3 
REMARK       I    between atoms: C2_3  and  N1_5 
REMARK    2  A    between atoms: N1_5  and  C3_7 
REMARK    3  A    between atoms: C5_14  and  N4_15 
REMARK    4  A    between atoms: C6_19  and  C7_20 
REMARK    5  A    between atoms: C10_24  and  O4_25 
ROOT
HETATM    1  C7  UNL     1      18.913  -4.498  89.940  1.00  0.00    -0.078 C 
HETATM    2  C8  UNL     1      18.683  -4.437  91.121  1.00  0.00     0.013 C 
HETATM    3  C9  UNL     1      18.403  -4.386  92.509  1.00  0.00     0.152 C 
HETATM    4  N5  UNL     1      18.170  -4.365  93.653  1.00  0.00    -0.182 NA
ENDROOT
BRANCH   1   5
HETATM    5  C6  UNL     1      19.184  -4.532  88.534  1.00  0.00     0.162 C 
HETATM    6  C5  UNL     1      17.893  -4.290  87.733  1.00  0.00     0.279 C 
HETATM    7  C4  UNL     1      18.386  -3.918  86.358  1.00  0.00     0.166 C 
HETATM    8  O3  UNL     1      19.492  -4.700  85.943  1.00  0.00    -0.241 OA
HETATM    9  N3  UNL     1      17.866  -2.995  85.640  1.00  0.00    -0.380 N 
HETATM   10  N2  UNL     1      19.515  -5.901  86.531  1.00  0.00    -0.121 NA
HETATM   11  C3  UNL     1      20.523  -6.839  86.197  1.00  0.00     0.235 C 
HETATM   12  C10 UNL     1      19.897  -5.664  87.965  1.00  0.00     0.198 C 
HETATM   13  C12 UNL     1      20.556  -7.790  87.420  1.00  0.00     0.214 C 
HETATM   14  C11 UNL     1      19.670  -7.033  88.394  1.00  0.00     0.074 C 
HETATM   15  C13 UNL     1      21.905  -7.857  87.962  1.00  0.00     0.094 C 
HETATM   16  C14 UNL     1      20.023  -9.084  87.101  1.00  0.00     0.094 C 
HETATM   17  N6  UNL     1      18.982  -7.554  89.253  1.00  0.00    -0.400 N 
ATOM     18  H62 UNL     1      18.387  -7.045  89.908  1.00  0.00     0.155 HD
ATOM     19  H61 UNL     1      18.822  -8.515  89.555  1.00  0.00     0.155 HD
HETATM   20  N7  UNL     1      22.990  -7.907  88.379  1.00  0.00    -0.195 NA
HETATM   21  N8  UNL     1      19.615 -10.131  86.845  1.00  0.00    -0.195 NA
ATOM     22  H32 UNL     1      18.199  -2.743  84.710  1.00  0.00     0.158 HD
ATOM     23  H31 UNL     1      17.069  -2.432  85.939  1.00  0.00     0.158 HD
BRANCH   6  24
HETATM   24  N4  UNL     1      17.153  -3.184  88.252  1.00  0.00    -0.066 N 
ATOM     25  H43 UNL     1      17.495  -2.286  87.911  1.00  0.00     0.275 HD
ATOM     26  H42 UNL     1      16.210  -3.127  87.867  1.00  0.00     0.275 HD
ATOM     27  H41 UNL     1      17.161  -3.249  89.269  1.00  0.00     0.275 HD
ENDBRANCH   6  24
BRANCH  11  28
HETATM   28  N1  UNL     1      20.044  -7.644  85.074  1.00  0.00    -0.315 N 
HETATM   29  C2  UNL     1      20.810  -7.805  83.908  1.00  0.00     0.361 C 
HETATM   30  O2  UNL     1      21.926  -7.255  83.811  1.00  0.00    -0.238 OA
ATOM     31  H1  UNL     1      19.134  -8.100  85.139  1.00  0.00     0.166 HD
BRANCH  29  32
HETATM   32  O1  UNL     1      20.322  -8.576  82.870  1.00  0.00    -0.309 OA
HETATM   33  C1  UNL     1      20.318  -8.114  81.523  1.00  0.00     0.215 C 
ENDBRANCH  29  32
ENDBRANCH  11  28
BRANCH  12  34
HETATM   34  O4  UNL     1      21.290  -5.387  87.840  1.00  0.00    -0.367 OA
ATOM     35  H4  UNL     1      21.636  -5.823  88.610  1.00  0.00     0.212 HD
ENDBRANCH  12  34
ENDBRANCH   1   5
TORSDOF 5
ENDMDL
MODEL 5
REMARK VINA RESULT: -4.973172703      1.939      2.289
REMARK  5 active torsions:
REMARK  status: ('A' for Active; 'I' for Inactive)
REMARK    1  A    between atoms: O1_2  and  C2_3 
REMARK       I    between atoms: C2_3  and  N1_5 
REMARK    2  A    between atoms: N1_5  and  C3_7 
REMARK    3  A    between atoms: C5_14  and  N4_15 
REMARK    4  A    between atoms: C6_19  and  C7_20 
REMARK    5  A    between atoms: C10_24  and  O4_25 
ROOT
HETATM    1  C7  UNL     1      20.355  -6.713  86.641  1.00  0.00    -0.078 C 
HETATM    2  C8  UNL     1      19.720  -5.689  86.643  1.00  0.00     0.013 C 
HETATM    3  C9  UNL     1      18.963  -4.492  86.664  1.00  0.00     0.152 C 
HETATM    4  N5  UNL     1      18.335  -3.508  86.701  1.00  0.00    -0.182 NA
ENDROOT
BRANCH   1   5
HETATM    5  C6  UNL     1      21.112  -7.928  86.601  1.00  0.00     0.162 C 
HETATM    6  C5  UNL     1      22.346  -7.823  87.513  1.00  0.00     0.279 C 
HETATM    7  C4  UNL     1      22.771  -9.255  87.713  1.00  0.00     0.166 C 
HETATM    8  O3  UNL     1      22.672 -10.025  86.529  1.00  0.00    -0.241 OA
HETATM    9  N3  UNL     1      23.176  -9.728  88.831  1.00  0.00    -0.380 N 
HETATM   10  N2  UNL     1      22.783  -9.277  85.425  1.00  0.00    -0.121 NA
HETATM   11  C3  UNL     1      22.760  -9.887  84.146  1.00  0.00     0.235 C 
HETATM   12  C10 UNL     1      21.509  -8.487  85.319  1.00  0.00     0.198 C 
HETATM   13  C12 UNL     1      22.345  -8.732  83.200  1.00  0.00     0.214 C 
HETATM   14  C11 UNL     1      21.952  -7.665  84.206  1.00  0.00     0.074 C 
HETATM   15  C13 UNL     1      21.169  -9.116  82.433  1.00  0.00     0.094 C 
HETATM   16  C14 UNL     1      23.436  -8.312  82.366  1.00  0.00     0.094 C 
HETATM   17  N6  UNL     1      22.049  -6.466  84.017  1.00  0.00    -0.400 N 
ATOM     18  H62 UNL     1      21.785  -5.749  84.693  1.00  0.00     0.155 HD
ATOM     19  H61 UNL     1      22.359  -5.888  83.235  1.00  0.00     0.155 HD
HETATM   20  N7  UNL     1      20.234  -9.438  81.820  1.00  0.00    -0.195 NA
HETATM   21  N8  UNL     1      24.302  -7.984  81.681  1.00  0.00    -0.195 NA
ATOM     22  H32 UNL     1      23.464 -10.697  88.967  1.00  0.00     0.158 HD
ATOM     23  H31 UNL     1      23.247  -9.173  89.684  1.00  0.00     0.158 HD
BRANCH   6  24
HETATM   24  N4  UNL     1      22.009  -7.278  88.790  1.00  0.00    -0.066 N 
ATOM     25  H43 UNL     1      21.177  -6.691  88.761  1.00  0.00     0.275 HD
ATOM     26  H42 UNL     1      21.658  -7.983  89.438  1.00  0.00     0.275 HD
ATOM     27  H41 UNL     1      22.827  -6.786  89.148  1.00  0.00     0.275 HD
ENDBRANCH   6  24
BRANCH  11  28
HETATM   28  N1  UNL     1      24.132 -10.236  83.780  1.00  0.00    -0.315 N 
HETATM   29  C2  UNL     1      24.492 -11.552  83.454  1.00  0.00     0.361 C 
HETATM   30  O2  UNL     1      23.635 -12.459  83.473  1.00  0.00    -0.238 OA
ATOM     31  H1  UNL     1      24.844  -9.505  83.761  1.00  0.00     0.166 HD
BRANCH  29  32
HETATM   32  O1  UNL     1      25.801 -11.839  83.112  1.00  0.00    -0.309 OA
HETATM   33  C1  UNL     1      26.180 -13.099  82.567  1.00  0.00     0.215 C 
ENDBRANCH  29  32
ENDBRANCH  11  28
BRANCH  12  34
HETATM   34  O4  UNL     1      20.594  -9.490  84.886  1.00  0.00    -0.367 OA
ATOM     35  H4  UNL     1      21.052 -10.283  85.139  1.00  0.00     0.212 HD
ENDBRANCH  12  34
ENDBRANCH   1   5
TORSDOF 5
ENDMDL
