MODEL 1
REMARK VINA RESULT: -5.556570413      0.000      0.000
REMARK  6 active torsions:
REMARK  status: ('A' for Active; 'I' for Inactive)
REMARK    1  A    between atoms: C5_7  and  O2_8 
REMARK    2  A    between atoms: O2_8  and  C6_9 
REMARK    3  A    between atoms: C6_9  and  N2_11 
REMARK    4  A    between atoms: N2_11  and  N3_13 
REMARK    5  A    between atoms: C11_22  and  C12_23 
REMARK    6  A    between atoms: C12_23  and  O5_24 
ROOT
HETATM    1  C1  UNL     1      20.940  -9.074  82.328  1.00  0.00     0.058 C 
HETATM    2  C2  UNL     1      20.995  -8.471  83.692  1.00  0.00     0.152 C 
HETATM    3  C3  UNL     1      20.630  -9.422  84.792  1.00  0.00     0.088 C 
HETATM    4  C4  UNL     1      21.850  -9.346  85.679  1.00  0.00     0.217 C 
HETATM    5  O1  UNL     1      22.880  -8.957  84.825  1.00  0.00    -0.273 OA
HETATM    6  N1  UNL     1      22.333  -8.083  83.999  1.00  0.00    -0.070 NA
HETATM    7  C5  UNL     1      21.700  -8.495  86.871  1.00  0.00     0.239 A 
HETATM    8  O3  UNL     1      22.448  -7.194  86.769  1.00  0.00    -0.327 OA
HETATM    9  C7  UNL     1      20.988  -7.368  86.976  1.00  0.00     0.187 A 
HETATM   10  C8  UNL     1      20.220  -6.628  86.000  1.00  0.00     0.193 C 
HETATM   11  C9  UNL     1      20.227  -5.210  86.598  1.00  0.00     0.072 C 
HETATM   12  C10 UNL     1      20.140  -5.383  88.069  1.00  0.00     0.165 A 
HETATM   13  O4  UNL     1      21.229  -5.801  88.818  1.00  0.00    -0.363 OA
HETATM   14  C11 UNL     1      20.501  -6.833  88.309  1.00  0.00     0.147 A 
HETATM   15  O6  UNL     1      20.698  -6.505  84.734  1.00  0.00    -0.276 OA
HETATM   16  N4  UNL     1      20.103  -7.313  83.824  1.00  0.00    -0.071 NA
ENDROOT
BRANCH   7  17
HETATM   17  O2  UNL     1      22.190  -9.104  88.083  1.00  0.00    -0.281 OA
BRANCH  17  18
HETATM   18  C6  UNL     1      23.471  -9.618  88.036  1.00  0.00     0.231 C 
HETATM   19  S1  UNL     1      23.655 -11.213  88.336  1.00  0.00    -0.032 SA
BRANCH  18  20
HETATM   20  N2  UNL     1      24.610  -8.820  87.741  1.00  0.00    -0.277 N 
ATOM     21  H2  UNL     1      24.934  -8.126  88.415  1.00  0.00     0.189 HD
BRANCH  20  22
HETATM   22  N3  UNL     1      25.286  -8.986  86.528  1.00  0.00    -0.343 N 
ATOM     23  H32 UNL     1      24.754  -9.238  85.695  1.00  0.00     0.176 HD
ATOM     24  H31 UNL     1      26.297  -8.856  86.484  1.00  0.00     0.176 HD
ENDBRANCH  20  22
ENDBRANCH  18  20
ENDBRANCH  17  18
ENDBRANCH   7  17
BRANCH  14  25
HETATM   25  C12 UNL     1      19.512  -7.602  89.098  1.00  0.00     0.208 C 
BRANCH  25  26
HETATM   26  O5  UNL     1      20.053  -8.152  90.267  1.00  0.00    -0.398 OA
ATOM     27  H5  UNL     1      19.852  -9.074  90.370  1.00  0.00     0.209 HD
ENDBRANCH  25  26
ENDBRANCH  14  25
TORSDOF 6
ENDMDL
MODEL 2
REMARK VINA RESULT: -5.045734369      2.289      4.440
REMARK  6 active torsions:
REMARK  status: ('A' for Active; 'I' for Inactive)
REMARK    1  A    between atoms: C5_7  and  O2_8 
REMARK    2  A    between atoms: O2_8  and  C6_9 
REMARK    3  A    between atoms: C6_9  and  N2_11 
REMARK    4  A    between atoms: N2_11  and  N3_13 
REMARK    5  A    between atoms: C11_22  and  C12_23 
REMARK    6  A    between atoms: C12_23  and  O5_24 
ROOT
HETATM    1  C1  UNL     1      24.587 -11.132  86.409  1.00  0.00     0.058 C 
HETATM    2  C2  UNL     1      23.475 -10.153  86.589  1.00  0.00     0.152 C 
HETATM    3  C3  UNL     1      23.202  -9.314  85.377  1.00  0.00     0.088 C 
HETATM    4  C4  UNL     1      21.735  -9.585  85.141  1.00  0.00     0.217 C 
HETATM    5  O1  UNL     1      21.514 -10.835  85.716  1.00  0.00    -0.273 OA
HETATM    6  N1  UNL     1      22.250 -10.846  86.814  1.00  0.00    -0.070 NA
HETATM    7  C5  UNL     1      20.824  -8.532  85.617  1.00  0.00     0.239 A 
HETATM    8  O3  UNL     1      20.068  -8.918  86.859  1.00  0.00    -0.327 OA
HETATM    9  C7  UNL     1      20.976  -7.757  86.695  1.00  0.00     0.187 A 
HETATM   10  C8  UNL     1      21.999  -7.731  87.717  1.00  0.00     0.193 C 
HETATM   11  C9  UNL     1      21.249  -7.093  88.901  1.00  0.00     0.072 C 
HETATM   12  C10 UNL     1      20.345  -6.072  88.313  1.00  0.00     0.165 A 
HETATM   13  O4  UNL     1      19.180  -6.426  87.651  1.00  0.00    -0.363 OA
HETATM   14  C11 UNL     1      20.276  -6.419  86.842  1.00  0.00     0.147 A 
HETATM   15  O6  UNL     1      22.503  -8.904  88.180  1.00  0.00    -0.276 OA
HETATM   16  N4  UNL     1      23.726  -9.224  87.696  1.00  0.00    -0.071 NA
ENDROOT
BRANCH   7  17
HETATM   17  O2  UNL     1      19.802  -8.176  84.663  1.00  0.00    -0.281 OA
BRANCH  17  18
HETATM   18  C6  UNL     1      20.144  -8.289  83.329  1.00  0.00     0.231 C 
HETATM   19  S1  UNL     1      21.389  -7.379  82.790  1.00  0.00    -0.032 SA
BRANCH  18  20
HETATM   20  N2  UNL     1      19.461  -9.153  82.430  1.00  0.00    -0.277 N 
ATOM     21  H2  UNL     1      19.987  -9.823  81.870  1.00  0.00     0.189 HD
BRANCH  20  22
HETATM   22  N3  UNL     1      18.069  -9.083  82.314  1.00  0.00    -0.343 N 
ATOM     23  H32 UNL     1      17.623  -8.168  82.248  1.00  0.00     0.176 HD
ATOM     24  H31 UNL     1      17.514  -9.939  82.296  1.00  0.00     0.176 HD
ENDBRANCH  20  22
ENDBRANCH  18  20
ENDBRANCH  17  18
ENDBRANCH   7  17
BRANCH  14  25
HETATM   25  C12 UNL     1      20.604  -5.307  85.921  1.00  0.00     0.208 C 
BRANCH  25  26
HETATM   26  O5  UNL     1      19.591  -5.054  84.987  1.00  0.00    -0.398 OA
ATOM     27  H5  UNL     1      19.343  -5.825  84.492  1.00  0.00     0.209 HD
ENDBRANCH  25  26
ENDBRANCH  14  25
TORSDOF 6
ENDMDL
MODEL 3
REMARK VINA RESULT: -5.010964203      1.841      4.200
REMARK  6 active torsions:
REMARK  status: ('A' for Active; 'I' for Inactive)
REMARK    1  A    between atoms: C5_7  and  O2_8 
REMARK    2  A    between atoms: O2_8  and  C6_9 
REMARK    3  A    between atoms: C6_9  and  N2_11 
REMARK    4  A    between atoms: N2_11  and  N3_13 
REMARK    5  A    between atoms: C11_22  and  C12_23 
REMARK    6  A    between atoms: C12_23  and  O5_24 
ROOT
HETATM    1  C1  UNL     1      19.740  -5.641  88.920  1.00  0.00     0.058 C 
HETATM    2  C2  UNL     1      20.275  -6.446  87.783  1.00  0.00     0.152 C 
HETATM    3  C3  UNL     1      21.725  -6.801  87.919  1.00  0.00     0.088 C 
HETATM    4  C4  UNL     1      21.684  -8.306  87.801  1.00  0.00     0.217 C 
HETATM    5  O1  UNL     1      20.399  -8.654  88.211  1.00  0.00    -0.273 OA
HETATM    6  N1  UNL     1      19.613  -7.708  87.727  1.00  0.00    -0.070 NA
HETATM    7  C5  UNL     1      22.061  -8.837  86.481  1.00  0.00     0.239 A 
HETATM    8  O3  UNL     1      20.890  -9.355  85.693  1.00  0.00    -0.327 OA
HETATM    9  C7  UNL     1      21.829  -8.280  85.289  1.00  0.00     0.187 A 
HETATM   10  C8  UNL     1      21.128  -7.071  84.919  1.00  0.00     0.193 C 
HETATM   11  C9  UNL     1      20.711  -7.377  83.469  1.00  0.00     0.072 C 
HETATM   12  C10 UNL     1      21.830  -8.149  82.873  1.00  0.00     0.165 A 
HETATM   13  O4  UNL     1      22.042  -9.482  83.187  1.00  0.00    -0.363 OA
HETATM   14  C11 UNL     1      22.644  -8.624  84.056  1.00  0.00     0.147 A 
HETATM   15  O6  UNL     1      19.987  -6.739  85.576  1.00  0.00    -0.276 OA
HETATM   16  N4  UNL     1      20.130  -5.755  86.496  1.00  0.00    -0.071 NA
ENDROOT
BRANCH   7  17
HETATM   17  O2  UNL     1      22.980  -9.948  86.545  1.00  0.00    -0.281 OA
BRANCH  17  18
HETATM   18  C6  UNL     1      24.012  -9.838  87.457  1.00  0.00     0.231 C 
HETATM   19  S1  UNL     1      24.257 -11.092  88.474  1.00  0.00    -0.032 SA
BRANCH  18  20
HETATM   20  N2  UNL     1      24.850  -8.692  87.536  1.00  0.00    -0.277 N 
ATOM     21  H2  UNL     1      24.481  -7.773  87.293  1.00  0.00     0.189 HD
BRANCH  20  22
HETATM   22  N3  UNL     1      26.180  -8.825  87.947  1.00  0.00    -0.343 N 
ATOM     23  H32 UNL     1      26.763  -9.541  87.513  1.00  0.00     0.176 HD
ATOM     24  H31 UNL     1      26.556  -8.212  88.670  1.00  0.00     0.176 HD
ENDBRANCH  20  22
ENDBRANCH  18  20
ENDBRANCH  17  18
ENDBRANCH   7  17
BRANCH  14  25
HETATM   25  C12 UNL     1      24.084  -8.283  84.002  1.00  0.00     0.208 C 
BRANCH  25  26
HETATM   26  O5  UNL     1      24.913  -9.354  84.360  1.00  0.00    -0.398 OA
ATOM     27  H5  UNL     1      25.045  -9.973  83.652  1.00  0.00     0.209 HD
ENDBRANCH  25  26
ENDBRANCH  14  25
TORSDOF 6
ENDMDL
MODEL 4
REMARK VINA RESULT: -4.994126048      2.628      4.472
REMARK  6 active torsions:
REMARK  status: ('A' for Active; 'I' for Inactive)
REMARK    1  A    between atoms: C5_7  and  O2_8 
REMARK    2  A    between atoms: O2_8  and  C6_9 
REMARK    3  A    between atoms: C6_9  and  N2_11 
REMARK    4  A    between atoms: N2_11  and  N3_13 
REMARK    5  A    between atoms: C11_22  and  C12_23 
REMARK    6  A    between atoms: C12_23  and  O5_24 
ROOT
HETATM    1  C1  UNL     1      21.744 -13.127  87.132  1.00  0.00     0.058 C 
HETATM    2  C2  UNL     1      21.957 -11.802  86.479  1.00  0.00     0.152 C 
HETATM    3  C3  UNL     1      20.871 -10.806  86.756  1.00  0.00     0.088 C 
HETATM    4  C4  UNL     1      21.656  -9.650  87.331  1.00  0.00     0.217 C 
HETATM    5  O1  UNL     1      22.806 -10.236  87.857  1.00  0.00    -0.273 OA
HETATM    6  N1  UNL     1      23.133 -11.187  87.000  1.00  0.00    -0.070 NA
HETATM    7  C5  UNL     1      21.916  -8.547  86.392  1.00  0.00     0.239 A 
HETATM    8  O3  UNL     1      23.345  -8.489  85.925  1.00  0.00    -0.327 OA
HETATM    9  C7  UNL     1      22.136  -8.639  85.076  1.00  0.00     0.187 A 
HETATM   10  C8  UNL     1      22.239  -9.787  84.203  1.00  0.00     0.193 C 
HETATM   11  C9  UNL     1      23.091  -9.231  83.048  1.00  0.00     0.072 C 
HETATM   12  C10 UNL     1      22.664  -7.822  82.862  1.00  0.00     0.165 A 
HETATM   13  O4  UNL     1      23.047  -6.823  83.743  1.00  0.00    -0.363 OA
HETATM   14  C11 UNL     1      21.916  -7.475  84.130  1.00  0.00     0.147 A 
HETATM   15  O6  UNL     1      22.880 -10.900  84.642  1.00  0.00    -0.276 OA
HETATM   16  N4  UNL     1      22.063 -11.912  85.019  1.00  0.00    -0.071 NA
ENDROOT
BRANCH   7  17
HETATM   17  O2  UNL     1      21.658  -7.241  86.948  1.00  0.00    -0.281 OA
BRANCH  17  18
HETATM   18  C6  UNL     1      21.227  -7.208  88.260  1.00  0.00     0.231 C 
HETATM   19  S1  UNL     1      19.697  -6.708  88.539  1.00  0.00    -0.032 SA
BRANCH  18  20
HETATM   20  N2  UNL     1      22.055  -7.587  89.352  1.00  0.00    -0.277 N 
ATOM     21  H2  UNL     1      23.066  -7.640  89.230  1.00  0.00     0.189 HD
BRANCH  20  22
HETATM   22  N3  UNL     1      21.483  -7.887  90.592  1.00  0.00    -0.343 N 
ATOM     23  H32 UNL     1      20.496  -8.142  90.634  1.00  0.00     0.176 HD
ATOM     24  H31 UNL     1      22.051  -7.850  91.439  1.00  0.00     0.176 HD
ENDBRANCH  20  22
ENDBRANCH  18  20
ENDBRANCH  17  18
ENDBRANCH   7  17
BRANCH  14  25
HETATM   25  C12 UNL     1      20.552  -6.936  83.924  1.00  0.00     0.208 C 
BRANCH  25  26
HETATM   26  O5  UNL     1      20.204  -5.957  84.864  1.00  0.00    -0.398 OA
ATOM     27  H5  UNL     1      19.835  -6.322  85.659  1.00  0.00     0.209 HD
ENDBRANCH  25  26
ENDBRANCH  14  25
TORSDOF 6
ENDMDL
MODEL 5
REMARK VINA RESULT: -4.985633298      2.372      4.196
REMARK  6 active torsions:
REMARK  status: ('A' for Active; 'I' for Inactive)
REMARK    1  A    between atoms: C5_7  and  O2_8 
REMARK    2  A    between atoms: O2_8  and  C6_9 
REMARK    3  A    between atoms: C6_9  and  N2_11 
REMARK    4  A    between atoms: N2_11  and  N3_13 
REMARK    5  A    between atoms: C11_22  and  C12_23 
REMARK    6  A    between atoms: C12_23  and  O5_24 
ROOT
HETATM    1  C1  UNL     1      20.947  -7.150  82.114  1.00  0.00     0.058 C 
HETATM    2  C2  UNL     1      21.264  -8.057  83.255  1.00  0.00     0.152 C 
HETATM    3  C3  UNL     1      21.679  -7.338  84.505  1.00  0.00     0.088 C 
HETATM    4  C4  UNL     1      20.689  -7.878  85.510  1.00  0.00     0.217 C 
HETATM    5  O1  UNL     1      19.589  -8.262  84.746  1.00  0.00    -0.273 OA
HETATM    6  N1  UNL     1      20.098  -8.779  83.642  1.00  0.00    -0.070 NA
HETATM    7  C5  UNL     1      21.211  -8.936  86.390  1.00  0.00     0.239 A 
HETATM    8  O3  UNL     1      20.684 -10.304  86.052  1.00  0.00    -0.327 OA
HETATM    9  C7  UNL     1      22.106  -9.879  86.078  1.00  0.00     0.187 A 
HETATM   10  C8  UNL     1      22.777 -10.187  84.835  1.00  0.00     0.193 C 
HETATM   11  C9  UNL     1      23.123 -11.676  85.021  1.00  0.00     0.072 C 
HETATM   12  C10 UNL     1      23.471 -11.841  86.455  1.00  0.00     0.165 A 
HETATM   13  O4  UNL     1      22.498 -11.852  87.443  1.00  0.00    -0.363 OA
HETATM   14  C11 UNL     1      22.930 -10.599  87.129  1.00  0.00     0.147 A 
HETATM   15  O6  UNL     1      22.084 -10.105  83.670  1.00  0.00    -0.276 OA
HETATM   16  N4  UNL     1      22.344  -8.998  82.935  1.00  0.00    -0.071 NA
ENDROOT
BRANCH   7  17
HETATM   17  O2  UNL     1      20.878  -8.748  87.781  1.00  0.00    -0.281 OA
BRANCH  17  18
HETATM   18  C6  UNL     1      20.973  -7.458  88.265  1.00  0.00     0.231 C 
HETATM   19  S1  UNL     1      19.612  -6.770  88.851  1.00  0.00    -0.032 SA
BRANCH  18  20
HETATM   20  N2  UNL     1      22.191  -6.726  88.270  1.00  0.00    -0.277 N 
ATOM     21  H2  UNL     1      23.060  -7.179  87.988  1.00  0.00     0.189 HD
BRANCH  20  22
HETATM   22  N3  UNL     1      22.199  -5.382  88.661  1.00  0.00    -0.343 N 
ATOM     23  H32 UNL     1      21.864  -5.137  89.593  1.00  0.00     0.176 HD
ATOM     24  H31 UNL     1      22.537  -4.665  88.020  1.00  0.00     0.176 HD
ENDBRANCH  20  22
ENDBRANCH  18  20
ENDBRANCH  17  18
ENDBRANCH   7  17
BRANCH  14  25
HETATM   25  C12 UNL     1      23.915  -9.848  87.940  1.00  0.00     0.208 C 
BRANCH  25  26
HETATM   26  O5  UNL     1      24.161  -8.561  87.446  1.00  0.00    -0.398 OA
ATOM     27  H5  UNL     1      24.139  -7.894  88.122  1.00  0.00     0.209 HD
ENDBRANCH  25  26
ENDBRANCH  14  25
TORSDOF 6
ENDMDL
