MODEL 1
REMARK VINA RESULT: -7.384773063      0.000      0.000
REMARK  16 active torsions:
REMARK  status: ('A' for Active; 'I' for Inactive)
REMARK    1  A    between atoms: N1_1  and  C1_4 
REMARK    2  A    between atoms: N4_13  and  C5_14 
REMARK    3  A    between atoms: C5_14  and  O2_15 
REMARK    4  A    between atoms: O2_15  and  C6_16 
REMARK    5  A    between atoms: C6_16  and  C7_17 
REMARK    6  A    between atoms: C7_17  and  O3_18 
REMARK    7  A    between atoms: O3_18  and  C8_19 
REMARK    8  A    between atoms: C8_19  and  C9_20 
REMARK    9  A    between atoms: C9_20  and  S1_21 
REMARK   10  A    between atoms: S1_21  and  C10_22 
REMARK   11  A    between atoms: C10_22  and  C11_23 
REMARK   12  A    between atoms: C11_23  and  C12_24 
REMARK   13  A    between atoms: C12_24  and  C13_25 
REMARK   14  A    between atoms: C14_28  and  N6_29 
REMARK   15  A    between atoms: C19_38  and  N9_39 
REMARK   16  A    between atoms: C20_42  and  C21_43 
ROOT
HETATM    1  S1  UNL     1     -34.887   0.479 -12.531  1.00  0.00    -0.167 SA
ENDROOT
BRANCH   1   2
HETATM    2  C9  UNL     1     -35.742  -1.023 -13.097  1.00  0.00     0.100 C 
BRANCH   2   3
HETATM    3  C8  UNL     1     -35.498  -2.106 -12.050  1.00  0.00     0.178 C 
BRANCH   3   4
HETATM    4  O3  UNL     1     -34.610  -3.030 -12.244  1.00  0.00    -0.388 OA
BRANCH   4   5
HETATM    5  C7  UNL     1     -34.605  -4.070 -13.032  1.00  0.00     0.193 C 
BRANCH   5   6
HETATM    6  C6  UNL     1     -34.354  -3.930 -14.506  1.00  0.00     0.196 C 
BRANCH   6   7
HETATM    7  O2  UNL     1     -33.014  -4.134 -14.814  1.00  0.00    -0.369 OA
BRANCH   7   8
HETATM    8  C5  UNL     1     -32.361  -2.975 -15.065  1.00  0.00     0.301 C 
BRANCH   8   9
HETATM    9  N4  UNL     1     -31.628  -2.530 -13.864  1.00  0.00    -0.305 N 
HETATM   10  C4  UNL     1     -31.797  -1.360 -13.229  1.00  0.00     0.187 A 
HETATM   11  N3  UNL     1     -30.959  -1.291 -12.178  1.00  0.00    -0.345 N 
HETATM   12  C3  UNL     1     -30.231  -2.427 -12.118  1.00  0.00     0.147 A 
ATOM     13  H3  UNL     1     -30.885  -0.506 -11.531  1.00  0.00     0.167 HD
HETATM   14  C2  UNL     1     -29.250  -2.864 -11.256  1.00  0.00     0.290 A 
HETATM   15  C22 UNL     1     -30.675  -3.192 -13.198  1.00  0.00     0.158 A 
HETATM   16  N2  UNL     1     -28.713  -4.073 -11.477  1.00  0.00    -0.154 N 
HETATM   17  O1  UNL     1     -28.849  -2.184 -10.288  1.00  0.00    -0.265 OA
HETATM   18  C1  UNL     1     -29.140  -4.828 -12.528  1.00  0.00     0.680 A 
ATOM     19  H2  UNL     1     -27.984  -4.428 -10.857  1.00  0.00     0.187 HD
HETATM   20  N10 UNL     1     -30.097  -4.402 -13.369  1.00  0.00    -0.174 N 
ATOM     21  H10 UNL     1     -30.391  -4.996 -14.144  1.00  0.00     0.186 HD
BRANCH  18  22
HETATM   22  N1  UNL     1     -28.600  -5.987 -12.708  1.00  0.00    -0.234 N 
ATOM     23  H12 UNL     1     -28.123  -6.448 -11.933  1.00  0.00     0.174 HD
ATOM     24  H11 UNL     1     -28.666  -6.412 -13.633  1.00  0.00     0.174 HD
ENDBRANCH  18  22
ENDBRANCH   8   9
ENDBRANCH   7   8
ENDBRANCH   6   7
ENDBRANCH   5   6
ENDBRANCH   4   5
ENDBRANCH   3   4
ENDBRANCH   2   3
ENDBRANCH   1   2
BRANCH   1  25
HETATM   25  C10 UNL     1     -35.281   0.939 -10.873  1.00  0.00     0.074 C 
BRANCH  25  26
HETATM   26  C11 UNL     1     -36.630   1.532 -10.654  1.00  0.00     0.016 C 
BRANCH  26  27
HETATM   27  C12 UNL     1     -37.470   0.740  -9.732  1.00  0.00     0.059 C 
BRANCH  27  28
HETATM   28  C13 UNL     1     -37.168   1.024  -8.288  1.00  0.00     0.047 A 
HETATM   29  N5  UNL     1     -37.302   2.266  -7.760  1.00  0.00    -0.194 N 
HETATM   30  C14 UNL     1     -37.069   2.523  -6.472  1.00  0.00     0.682 A 
ATOM     31  H5  UNL     1     -37.590   3.031  -8.370  1.00  0.00     0.184 HD
HETATM   32  N8  UNL     1     -36.691   1.519  -5.669  1.00  0.00    -0.176 N 
HETATM   33  C19 UNL     1     -36.531   0.267  -6.092  1.00  0.00     0.133 A 
ATOM     34  H8  UNL     1     -36.517   1.724  -4.685  1.00  0.00     0.186 HD
HETATM   35  C20 UNL     1     -36.782   0.017  -7.457  1.00  0.00     0.107 A 
BRANCH  30  36
HETATM   36  N6  UNL     1     -37.210   3.817  -5.910  1.00  0.00    -0.214 N 
HETATM   37  C15 UNL     1     -38.559   4.277  -5.565  1.00  0.00     0.160 C 
HETATM   38  C16 UNL     1     -38.477   4.682  -4.092  1.00  0.00     0.134 C 
HETATM   39  N7  UNL     1     -37.567   5.780  -3.964  1.00  0.00    -0.418 N 
HETATM   40  C17 UNL     1     -36.726   6.002  -5.104  1.00  0.00     0.134 C 
ATOM     41  H7  UNL     1     -37.520   6.359  -3.126  1.00  0.00     0.153 HD
HETATM   42  C18 UNL     1     -36.124   4.706  -5.651  1.00  0.00     0.160 C 
ENDBRANCH  30  36
BRANCH  33  43
HETATM   43  N9  UNL     1     -36.169  -0.674  -5.304  1.00  0.00    -0.384 N 
ATOM     44  H92 UNL     1     -35.635  -0.476  -4.458  1.00  0.00     0.157 HD
ATOM     45  H91 UNL     1     -36.396  -1.651  -5.489  1.00  0.00     0.157 HD
ENDBRANCH  33  43
BRANCH  35  46
HETATM   46  C21 UNL     1     -36.573  -1.345  -7.872  1.00  0.00     0.215 C 
HETATM   47  O4  UNL     1     -37.505  -2.171  -7.874  1.00  0.00    -0.644 OA
HETATM   48  O5  UNL     1     -35.300  -1.759  -8.286  1.00  0.00    -0.644 OA
ENDBRANCH  35  46
ENDBRANCH  27  28
ENDBRANCH  26  27
ENDBRANCH  25  26
ENDBRANCH   1  25
TORSDOF 16
ENDMDL
MODEL 2
REMARK VINA RESULT: -7.141133997      1.503      2.567
REMARK  16 active torsions:
REMARK  status: ('A' for Active; 'I' for Inactive)
REMARK    1  A    between atoms: N1_1  and  C1_4 
REMARK    2  A    between atoms: N4_13  and  C5_14 
REMARK    3  A    between atoms: C5_14  and  O2_15 
REMARK    4  A    between atoms: O2_15  and  C6_16 
REMARK    5  A    between atoms: C6_16  and  C7_17 
REMARK    6  A    between atoms: C7_17  and  O3_18 
REMARK    7  A    between atoms: O3_18  and  C8_19 
REMARK    8  A    between atoms: C8_19  and  C9_20 
REMARK    9  A    between atoms: C9_20  and  S1_21 
REMARK   10  A    between atoms: S1_21  and  C10_22 
REMARK   11  A    between atoms: C10_22  and  C11_23 
REMARK   12  A    between atoms: C11_23  and  C12_24 
REMARK   13  A    between atoms: C12_24  and  C13_25 
REMARK   14  A    between atoms: C14_28  and  N6_29 
REMARK   15  A    between atoms: C19_38  and  N9_39 
REMARK   16  A    between atoms: C20_42  and  C21_43 
ROOT
HETATM    1  S1  UNL     1     -35.296  -1.605 -12.173  1.00  0.00    -0.167 SA
ENDROOT
BRANCH   1   2
HETATM    2  C9  UNL     1     -35.499  -3.008 -13.310  1.00  0.00     0.100 C 
BRANCH   2   3
HETATM    3  C8  UNL     1     -34.422  -4.033 -12.966  1.00  0.00     0.178 C 
BRANCH   3   4
HETATM    4  O3  UNL     1     -33.520  -4.367 -13.835  1.00  0.00    -0.388 OA
BRANCH   4   5
HETATM    5  C7  UNL     1     -33.586  -4.524 -15.129  1.00  0.00     0.193 C 
BRANCH   5   6
HETATM    6  C6  UNL     1     -32.492  -5.221 -15.886  1.00  0.00     0.196 C 
BRANCH   6   7
HETATM    7  O2  UNL     1     -31.262  -4.605 -15.682  1.00  0.00    -0.369 OA
BRANCH   7   8
HETATM    8  C5  UNL     1     -30.342  -5.451 -15.164  1.00  0.00     0.301 C 
BRANCH   8   9
HETATM    9  N4  UNL     1     -29.826  -4.926 -13.884  1.00  0.00    -0.305 N 
HETATM   10  C4  UNL     1     -28.988  -5.563 -13.054  1.00  0.00     0.187 A 
HETATM   11  N3  UNL     1     -28.734  -4.788 -11.984  1.00  0.00    -0.345 N 
HETATM   12  C3  UNL     1     -29.411  -3.625 -12.110  1.00  0.00     0.147 A 
ATOM     13  H3  UNL     1     -28.129  -5.037 -11.202  1.00  0.00     0.167 HD
HETATM   14  C2  UNL     1     -29.501  -2.505 -11.314  1.00  0.00     0.290 A 
HETATM   15  C22 UNL     1     -30.094  -3.741 -13.322  1.00  0.00     0.158 A 
HETATM   16  N2  UNL     1     -30.279  -1.497 -11.736  1.00  0.00    -0.154 N 
HETATM   17  O1  UNL     1     -28.892  -2.397 -10.230  1.00  0.00    -0.265 OA
HETATM   18  C1  UNL     1     -30.949  -1.600 -12.918  1.00  0.00     0.680 A 
ATOM     19  H2  UNL     1     -30.368  -0.652 -11.171  1.00  0.00     0.187 HD
HETATM   20  N10 UNL     1     -30.861  -2.693 -13.694  1.00  0.00    -0.174 N 
ATOM     21  H10 UNL     1     -31.377  -2.732 -14.573  1.00  0.00     0.186 HD
BRANCH  18  22
HETATM   22  N1  UNL     1     -31.687  -0.608 -13.291  1.00  0.00    -0.234 N 
ATOM     23  H12 UNL     1     -31.438   0.340 -13.010  1.00  0.00     0.174 HD
ATOM     24  H11 UNL     1     -32.509  -0.806 -13.862  1.00  0.00     0.174 HD
ENDBRANCH  18  22
ENDBRANCH   8   9
ENDBRANCH   7   8
ENDBRANCH   6   7
ENDBRANCH   5   6
ENDBRANCH   4   5
ENDBRANCH   3   4
ENDBRANCH   2   3
ENDBRANCH   1   2
BRANCH   1  25
HETATM   25  C10 UNL     1     -36.640  -1.402 -11.046  1.00  0.00     0.074 C 
BRANCH  25  26
HETATM   26  C11 UNL     1     -36.956  -0.004 -10.638  1.00  0.00     0.016 C 
BRANCH  26  27
HETATM   27  C12 UNL     1     -35.874   0.631  -9.857  1.00  0.00     0.059 C 
BRANCH  27  28
HETATM   28  C13 UNL     1     -36.306   0.993  -8.463  1.00  0.00     0.047 A 
HETATM   29  N5  UNL     1     -37.142   2.033  -8.221  1.00  0.00    -0.194 N 
HETATM   30  C14 UNL     1     -37.559   2.342  -6.992  1.00  0.00     0.682 A 
ATOM     31  H5  UNL     1     -37.463   2.599  -9.006  1.00  0.00     0.184 HD
HETATM   32  N8  UNL     1     -37.138   1.598  -5.960  1.00  0.00    -0.176 N 
HETATM   33  C19 UNL     1     -36.317   0.560  -6.094  1.00  0.00     0.133 A 
ATOM     34  H8  UNL     1     -37.463   1.841  -5.023  1.00  0.00     0.186 HD
HETATM   35  C20 UNL     1     -35.888   0.251  -7.402  1.00  0.00     0.107 A 
BRANCH  30  36
HETATM   36  N6  UNL     1     -38.435   3.424  -6.728  1.00  0.00    -0.214 N 
HETATM   37  C15 UNL     1     -39.293   3.899  -7.819  1.00  0.00     0.160 C 
HETATM   38  C16 UNL     1     -40.715   3.849  -7.258  1.00  0.00     0.134 C 
HETATM   39  N7  UNL     1     -40.811   4.765  -6.161  1.00  0.00    -0.418 N 
HETATM   40  C17 UNL     1     -39.555   5.221  -5.644  1.00  0.00     0.134 C 
ATOM     41  H7  UNL     1     -41.706   5.068  -5.776  1.00  0.00     0.153 HD
HETATM   42  C18 UNL     1     -38.545   4.086  -5.468  1.00  0.00     0.160 C 
ENDBRANCH  30  36
BRANCH  33  43
HETATM   43  N9  UNL     1     -35.930  -0.134  -5.091  1.00  0.00    -0.384 N 
ATOM     44  H92 UNL     1     -35.744  -1.133  -5.182  1.00  0.00     0.157 HD
ATOM     45  H91 UNL     1     -35.795   0.278  -4.168  1.00  0.00     0.157 HD
ENDBRANCH  33  43
BRANCH  35  46
HETATM   46  C21 UNL     1     -34.984  -0.865  -7.495  1.00  0.00     0.215 C 
HETATM   47  O4  UNL     1     -35.398  -2.016  -7.727  1.00  0.00    -0.644 OA
HETATM   48  O5  UNL     1     -33.608  -0.661  -7.325  1.00  0.00    -0.644 OA
ENDBRANCH  35  46
ENDBRANCH  27  28
ENDBRANCH  26  27
ENDBRANCH  25  26
ENDBRANCH   1  25
TORSDOF 16
ENDMDL
MODEL 3
REMARK VINA RESULT: -6.966164352      1.291      1.630
REMARK  16 active torsions:
REMARK  status: ('A' for Active; 'I' for Inactive)
REMARK    1  A    between atoms: N1_1  and  C1_4 
REMARK    2  A    between atoms: N4_13  and  C5_14 
REMARK    3  A    between atoms: C5_14  and  O2_15 
REMARK    4  A    between atoms: O2_15  and  C6_16 
REMARK    5  A    between atoms: C6_16  and  C7_17 
REMARK    6  A    between atoms: C7_17  and  O3_18 
REMARK    7  A    between atoms: O3_18  and  C8_19 
REMARK    8  A    between atoms: C8_19  and  C9_20 
REMARK    9  A    between atoms: C9_20  and  S1_21 
REMARK   10  A    between atoms: S1_21  and  C10_22 
REMARK   11  A    between atoms: C10_22  and  C11_23 
REMARK   12  A    between atoms: C11_23  and  C12_24 
REMARK   13  A    between atoms: C12_24  and  C13_25 
REMARK   14  A    between atoms: C14_28  and  N6_29 
REMARK   15  A    between atoms: C19_38  and  N9_39 
REMARK   16  A    between atoms: C20_42  and  C21_43 
ROOT
HETATM    1  S1  UNL     1     -35.706  -1.500 -12.578  1.00  0.00    -0.167 SA
ENDROOT
BRANCH   1   2
HETATM    2  C9  UNL     1     -35.844  -1.560 -14.390  1.00  0.00     0.100 C 
BRANCH   2   3
HETATM    3  C8  UNL     1     -36.525  -2.877 -14.751  1.00  0.00     0.178 C 
BRANCH   3   4
HETATM    4  O3  UNL     1     -36.158  -3.989 -14.193  1.00  0.00    -0.388 OA
BRANCH   4   5
HETATM    5  C7  UNL     1     -35.518  -5.022 -14.668  1.00  0.00     0.193 C 
BRANCH   5   6
HETATM    6  C6  UNL     1     -34.244  -4.859 -15.446  1.00  0.00     0.196 C 
BRANCH   6   7
HETATM    7  O2  UNL     1     -33.180  -4.532 -14.614  1.00  0.00    -0.369 OA
BRANCH   7   8
HETATM    8  C5  UNL     1     -32.588  -3.367 -14.969  1.00  0.00     0.301 C 
BRANCH   8   9
HETATM    9  N4  UNL     1     -31.809  -2.824 -13.838  1.00  0.00    -0.305 N 
HETATM   10  C4  UNL     1     -32.013  -1.640 -13.241  1.00  0.00     0.187 A 
HETATM   11  N3  UNL     1     -31.115  -1.472 -12.252  1.00  0.00    -0.345 N 
HETATM   12  C3  UNL     1     -30.312  -2.557 -12.195  1.00  0.00     0.147 A 
ATOM     13  H3  UNL     1     -31.051  -0.656 -11.644  1.00  0.00     0.167 HD
HETATM   14  C2  UNL     1     -29.252  -2.893 -11.384  1.00  0.00     0.290 A 
HETATM   15  C22 UNL     1     -30.774  -3.396 -13.211  1.00  0.00     0.158 A 
HETATM   16  N2  UNL     1     -28.653  -4.076 -11.591  1.00  0.00    -0.154 N 
HETATM   17  O1  UNL     1     -28.834  -2.147 -10.474  1.00  0.00    -0.265 OA
HETATM   18  C1  UNL     1     -29.097  -4.902 -12.580  1.00  0.00     0.680 A 
ATOM     19  H2  UNL     1     -27.864  -4.356 -11.008  1.00  0.00     0.187 HD
HETATM   20  N10 UNL     1     -30.132  -4.573 -13.372  1.00  0.00    -0.174 N 
ATOM     21  H10 UNL     1     -30.436  -5.219 -14.101  1.00  0.00     0.186 HD
BRANCH  18  22
HETATM   22  N1  UNL     1     -28.496  -6.031 -12.749  1.00  0.00    -0.234 N 
ATOM     23  H12 UNL     1     -28.298  -6.624 -11.943  1.00  0.00     0.174 HD
ATOM     24  H11 UNL     1     -28.231  -6.300 -13.696  1.00  0.00     0.174 HD
ENDBRANCH  18  22
ENDBRANCH   8   9
ENDBRANCH   7   8
ENDBRANCH   6   7
ENDBRANCH   5   6
ENDBRANCH   4   5
ENDBRANCH   3   4
ENDBRANCH   2   3
ENDBRANCH   1   2
BRANCH   1  25
HETATM   25  C10 UNL     1     -35.724   0.137 -11.917  1.00  0.00     0.074 C 
BRANCH  25  26
HETATM   26  C11 UNL     1     -36.335   0.298 -10.567  1.00  0.00     0.016 C 
BRANCH  26  27
HETATM   27  C12 UNL     1     -35.416   0.907  -9.583  1.00  0.00     0.059 C 
BRANCH  27  28
HETATM   28  C13 UNL     1     -36.042   1.058  -8.225  1.00  0.00     0.047 A 
HETATM   29  N5  UNL     1     -36.890   2.077  -7.938  1.00  0.00    -0.194 N 
HETATM   30  C14 UNL     1     -37.478   2.201  -6.748  1.00  0.00     0.682 A 
ATOM     31  H5  UNL     1     -37.084   2.772  -8.658  1.00  0.00     0.184 HD
HETATM   32  N8  UNL     1     -37.224   1.287  -5.801  1.00  0.00    -0.176 N 
HETATM   33  C19 UNL     1     -36.408   0.253  -5.985  1.00  0.00     0.133 A 
ATOM     34  H8  UNL     1     -37.681   1.390  -4.894  1.00  0.00     0.186 HD
HETATM   35  C20 UNL     1     -35.796   0.140  -7.251  1.00  0.00     0.107 A 
BRANCH  30  36
HETATM   36  N6  UNL     1     -38.368   3.260  -6.439  1.00  0.00    -0.214 N 
HETATM   37  C15 UNL     1     -38.038   4.132  -5.305  1.00  0.00     0.160 C 
HETATM   38  C16 UNL     1     -38.053   5.550  -5.876  1.00  0.00     0.134 C 
HETATM   39  N7  UNL     1     -39.379   5.855  -6.323  1.00  0.00    -0.418 N 
HETATM   40  C17 UNL     1     -40.246   4.721  -6.456  1.00  0.00     0.134 C 
ATOM     41  H7  UNL     1     -39.683   6.806  -6.530  1.00  0.00     0.153 HD
HETATM   42  C18 UNL     1     -39.568   3.543  -7.159  1.00  0.00     0.160 C 
ENDBRANCH  30  36
BRANCH  33  43
HETATM   43  N9  UNL     1     -36.183  -0.606  -5.064  1.00  0.00    -0.384 N 
ATOM     44  H92 UNL     1     -36.910  -0.865  -4.397  1.00  0.00     0.157 HD
ATOM     45  H91 UNL     1     -35.276  -1.061  -4.958  1.00  0.00     0.157 HD
ENDBRANCH  33  43
BRANCH  35  46
HETATM   46  C21 UNL     1     -34.903  -0.980  -7.395  1.00  0.00     0.215 C 
HETATM   47  O4  UNL     1     -35.304  -2.074  -7.834  1.00  0.00    -0.644 OA
HETATM   48  O5  UNL     1     -33.555  -0.846  -7.038  1.00  0.00    -0.644 OA
ENDBRANCH  35  46
ENDBRANCH  27  28
ENDBRANCH  26  27
ENDBRANCH  25  26
ENDBRANCH   1  25
TORSDOF 16
ENDMDL
MODEL 4
REMARK VINA RESULT: -6.915173950      2.476      9.091
REMARK  16 active torsions:
REMARK  status: ('A' for Active; 'I' for Inactive)
REMARK    1  A    between atoms: N1_1  and  C1_4 
REMARK    2  A    between atoms: N4_13  and  C5_14 
REMARK    3  A    between atoms: C5_14  and  O2_15 
REMARK    4  A    between atoms: O2_15  and  C6_16 
REMARK    5  A    between atoms: C6_16  and  C7_17 
REMARK    6  A    between atoms: C7_17  and  O3_18 
REMARK    7  A    between atoms: O3_18  and  C8_19 
REMARK    8  A    between atoms: C8_19  and  C9_20 
REMARK    9  A    between atoms: C9_20  and  S1_21 
REMARK   10  A    between atoms: S1_21  and  C10_22 
REMARK   11  A    between atoms: C10_22  and  C11_23 
REMARK   12  A    between atoms: C11_23  and  C12_24 
REMARK   13  A    between atoms: C12_24  and  C13_25 
REMARK   14  A    between atoms: C14_28  and  N6_29 
REMARK   15  A    between atoms: C19_38  and  N9_39 
REMARK   16  A    between atoms: C20_42  and  C21_43 
ROOT
HETATM    1  S1  UNL     1     -34.822   3.089 -10.788  1.00  0.00    -0.167 SA
ENDROOT
BRANCH   1   2
HETATM    2  C9  UNL     1     -36.453   3.808 -11.143  1.00  0.00     0.100 C 
BRANCH   2   3
HETATM    3  C8  UNL     1     -37.218   2.801 -11.997  1.00  0.00     0.178 C 
BRANCH   3   4
HETATM    4  O3  UNL     1     -37.734   1.736 -11.467  1.00  0.00    -0.388 OA
BRANCH   4   5
HETATM    5  C7  UNL     1     -38.943   1.250 -11.511  1.00  0.00     0.193 C 
BRANCH   5   6
HETATM    6  C6  UNL     1     -40.022   1.760 -10.598  1.00  0.00     0.196 C 
BRANCH   6   7
HETATM    7  O2  UNL     1     -39.786   1.393  -9.279  1.00  0.00    -0.369 OA
BRANCH   7   8
HETATM    8  C5  UNL     1     -39.259   2.404  -8.549  1.00  0.00     0.301 C 
BRANCH   8   9
HETATM    9  N4  UNL     1     -38.205   1.892  -7.652  1.00  0.00    -0.305 N 
HETATM   10  C4  UNL     1     -37.921   2.360  -6.426  1.00  0.00     0.187 A 
HETATM   11  N3  UNL     1     -36.900   1.659  -5.900  1.00  0.00    -0.345 N 
HETATM   12  C3  UNL     1     -36.507   0.718  -6.786  1.00  0.00     0.147 A 
ATOM     13  H3  UNL     1     -36.488   1.813  -4.980  1.00  0.00     0.167 HD
HETATM   14  C2  UNL     1     -35.526  -0.248  -6.751  1.00  0.00     0.290 A 
HETATM   15  C22 UNL     1     -37.351   0.889  -7.885  1.00  0.00     0.158 A 
HETATM   16  N2  UNL     1     -35.390  -1.045  -7.821  1.00  0.00    -0.154 N 
HETATM   17  O1  UNL     1     -34.769  -0.406  -5.770  1.00  0.00    -0.265 OA
HETATM   18  C1  UNL     1     -36.209  -0.885  -8.900  1.00  0.00     0.680 A 
ATOM     19  H2  UNL     1     -34.673  -1.771  -7.829  1.00  0.00     0.187 HD
HETATM   20  N10 UNL     1     -37.167   0.057  -8.933  1.00  0.00    -0.174 N 
ATOM     21  H10 UNL     1     -37.760   0.145  -9.758  1.00  0.00     0.186 HD
BRANCH  18  22
HETATM   22  N1  UNL     1     -36.048  -1.671  -9.910  1.00  0.00    -0.234 N 
ATOM     23  H12 UNL     1     -36.223  -2.671  -9.806  1.00  0.00     0.174 HD
ATOM     24  H11 UNL     1     -35.747  -1.264 -10.796  1.00  0.00     0.174 HD
ENDBRANCH  18  22
ENDBRANCH   8   9
ENDBRANCH   7   8
ENDBRANCH   6   7
ENDBRANCH   5   6
ENDBRANCH   4   5
ENDBRANCH   3   4
ENDBRANCH   2   3
ENDBRANCH   1   2
BRANCH   1  25
HETATM   25  C10 UNL     1     -34.162   2.134 -12.118  1.00  0.00     0.074 C 
BRANCH  25  26
HETATM   26  C11 UNL     1     -34.272   0.654 -11.987  1.00  0.00     0.016 C 
BRANCH  26  27
HETATM   27  C12 UNL     1     -34.429  -0.034 -13.286  1.00  0.00     0.059 C 
BRANCH  27  28
HETATM   28  C13 UNL     1     -33.935  -1.452 -13.251  1.00  0.00     0.047 A 
HETATM   29  N5  UNL     1     -32.619  -1.749 -13.116  1.00  0.00    -0.194 N 
HETATM   30  C14 UNL     1     -32.173  -3.004 -13.049  1.00  0.00     0.682 A 
ATOM     31  H5  UNL     1     -31.946  -0.984 -13.064  1.00  0.00     0.184 HD
HETATM   32  N8  UNL     1     -33.057  -4.009 -13.117  1.00  0.00    -0.176 N 
HETATM   33  C19 UNL     1     -34.367  -3.822 -13.251  1.00  0.00     0.133 A 
ATOM     34  H8  UNL     1     -32.707  -4.966 -13.063  1.00  0.00     0.186 HD
HETATM   35  C20 UNL     1     -34.817  -2.487 -13.320  1.00  0.00     0.107 A 
BRANCH  30  36
HETATM   36  N6  UNL     1     -30.800  -3.325 -12.904  1.00  0.00    -0.214 N 
HETATM   37  C15 UNL     1     -29.931  -2.351 -12.235  1.00  0.00     0.160 C 
HETATM   38  C16 UNL     1     -29.256  -3.129 -11.105  1.00  0.00     0.134 C 
HETATM   39  N7  UNL     1     -28.443  -4.160 -11.675  1.00  0.00    -0.418 N 
HETATM   40  C17 UNL     1     -28.705  -4.441 -13.056  1.00  0.00     0.134 C 
ATOM     41  H7  UNL     1     -27.731  -4.657 -11.140  1.00  0.00     0.153 HD
HETATM   42  C18 UNL     1     -30.201  -4.536 -13.362  1.00  0.00     0.160 C 
ENDBRANCH  30  36
BRANCH  33  43
HETATM   43  N9  UNL     1     -35.190  -4.800 -13.313  1.00  0.00    -0.384 N 
ATOM     44  H92 UNL     1     -35.625  -5.176 -12.470  1.00  0.00     0.157 HD
ATOM     45  H91 UNL     1     -35.441  -5.240 -14.198  1.00  0.00     0.157 HD
ENDBRANCH  33  43
BRANCH  35  46
HETATM   46  C21 UNL     1     -36.238  -2.334 -13.488  1.00  0.00     0.215 C 
HETATM   47  O4  UNL     1     -36.992  -2.168 -12.510  1.00  0.00    -0.644 OA
HETATM   48  O5  UNL     1     -36.795  -2.370 -14.774  1.00  0.00    -0.644 OA
ENDBRANCH  35  46
ENDBRANCH  27  28
ENDBRANCH  26  27
ENDBRANCH  25  26
ENDBRANCH   1  25
TORSDOF 16
ENDMDL
MODEL 5
REMARK VINA RESULT: -6.844601319      2.129      3.085
REMARK  16 active torsions:
REMARK  status: ('A' for Active; 'I' for Inactive)
REMARK    1  A    between atoms: N1_1  and  C1_4 
REMARK    2  A    between atoms: N4_13  and  C5_14 
REMARK    3  A    between atoms: C5_14  and  O2_15 
REMARK    4  A    between atoms: O2_15  and  C6_16 
REMARK    5  A    between atoms: C6_16  and  C7_17 
REMARK    6  A    between atoms: C7_17  and  O3_18 
REMARK    7  A    between atoms: O3_18  and  C8_19 
REMARK    8  A    between atoms: C8_19  and  C9_20 
REMARK    9  A    between atoms: C9_20  and  S1_21 
REMARK   10  A    between atoms: S1_21  and  C10_22 
REMARK   11  A    between atoms: C10_22  and  C11_23 
REMARK   12  A    between atoms: C11_23  and  C12_24 
REMARK   13  A    between atoms: C12_24  and  C13_25 
REMARK   14  A    between atoms: C14_28  and  N6_29 
REMARK   15  A    between atoms: C19_38  and  N9_39 
REMARK   16  A    between atoms: C20_42  and  C21_43 
ROOT
HETATM    1  S1  UNL     1     -35.181  -0.197 -12.346  1.00  0.00    -0.167 SA
ENDROOT
BRANCH   1   2
HETATM    2  C9  UNL     1     -34.338   1.408 -12.205  1.00  0.00     0.100 C 
BRANCH   2   3
HETATM    3  C8  UNL     1     -33.176   1.399 -13.194  1.00  0.00     0.178 C 
BRANCH   3   4
HETATM    4  O3  UNL     1     -32.015   0.935 -12.851  1.00  0.00    -0.388 OA
BRANCH   4   5
HETATM    5  C7  UNL     1     -31.427  -0.199 -13.116  1.00  0.00     0.193 C 
BRANCH   5   6
HETATM    6  C6  UNL     1     -31.864  -1.052 -14.272  1.00  0.00     0.196 C 
BRANCH   6   7
HETATM    7  O2  UNL     1     -32.324  -2.291 -13.842  1.00  0.00    -0.369 OA
BRANCH   7   8
HETATM    8  C5  UNL     1     -32.546  -3.143 -14.871  1.00  0.00     0.301 C 
BRANCH   8   9
HETATM    9  N4  UNL     1     -31.508  -4.193 -14.898  1.00  0.00    -0.305 N 
HETATM   10  C4  UNL     1     -31.299  -5.065 -15.896  1.00  0.00     0.187 A 
HETATM   11  N3  UNL     1     -30.274  -5.878 -15.578  1.00  0.00    -0.345 N 
HETATM   12  C3  UNL     1     -29.801  -5.537 -14.360  1.00  0.00     0.147 A 
ATOM     13  H3  UNL     1     -29.913  -6.631 -16.164  1.00  0.00     0.167 HD
HETATM   14  C2  UNL     1     -28.781  -6.036 -13.581  1.00  0.00     0.290 A 
HETATM   15  C22 UNL     1     -30.601  -4.468 -13.953  1.00  0.00     0.158 A 
HETATM   16  N2  UNL     1     -28.561  -5.459 -12.389  1.00  0.00    -0.154 N 
HETATM   17  O1  UNL     1     -28.062  -6.992 -13.940  1.00  0.00    -0.265 OA
HETATM   18  C1  UNL     1     -29.337  -4.415 -11.983  1.00  0.00     0.680 A 
ATOM     19  H2  UNL     1     -27.814  -5.803 -11.787  1.00  0.00     0.187 HD
HETATM   20  N10 UNL     1     -30.333  -3.929 -12.744  1.00  0.00    -0.174 N 
ATOM     21  H10 UNL     1     -30.891  -3.145 -12.406  1.00  0.00     0.186 HD
BRANCH  18  22
HETATM   22  N1  UNL     1     -29.096  -3.886 -10.831  1.00  0.00    -0.234 N 
ATOM     23  H12 UNL     1     -28.238  -3.352 -10.690  1.00  0.00     0.174 HD
ATOM     24  H11 UNL     1     -29.778  -4.021 -10.085  1.00  0.00     0.174 HD
ENDBRANCH  18  22
ENDBRANCH   8   9
ENDBRANCH   7   8
ENDBRANCH   6   7
ENDBRANCH   5   6
ENDBRANCH   4   5
ENDBRANCH   3   4
ENDBRANCH   2   3
ENDBRANCH   1   2
BRANCH   1  25
HETATM   25  C10 UNL     1     -36.929  -0.103 -12.116  1.00  0.00     0.074 C 
BRANCH  25  26
HETATM   26  C11 UNL     1     -37.435  -0.418 -10.751  1.00  0.00     0.016 C 
BRANCH  26  27
HETATM   27  C12 UNL     1     -36.357  -0.546  -9.747  1.00  0.00     0.059 C 
BRANCH  27  28
HETATM   28  C13 UNL     1     -36.693   0.134  -8.450  1.00  0.00     0.047 A 
HETATM   29  N5  UNL     1     -37.648   1.093  -8.372  1.00  0.00    -0.194 N 
HETATM   30  C14 UNL     1     -37.978   1.679  -7.219  1.00  0.00     0.682 A 
ATOM     31  H5  UNL     1     -38.131   1.377  -9.224  1.00  0.00     0.184 HD
HETATM   32  N8  UNL     1     -37.343   1.306  -6.099  1.00  0.00    -0.176 N 
HETATM   33  C19 UNL     1     -36.392   0.376  -6.073  1.00  0.00     0.133 A 
ATOM     34  H8  UNL     1     -37.604   1.759  -5.222  1.00  0.00     0.186 HD
HETATM   35  C20 UNL     1     -36.059  -0.230  -7.302  1.00  0.00     0.107 A 
BRANCH  30  36
HETATM   36  N6  UNL     1     -38.977   2.680  -7.126  1.00  0.00    -0.214 N 
HETATM   37  C15 UNL     1     -38.671   3.890  -6.355  1.00  0.00     0.160 C 
HETATM   38  C16 UNL     1     -38.939   5.051  -7.314  1.00  0.00     0.134 C 
HETATM   39  N7  UNL     1     -40.330   5.058  -7.655  1.00  0.00    -0.418 N 
HETATM   40  C17 UNL     1     -41.036   3.853  -7.332  1.00  0.00     0.134 C 
ATOM     41  H7  UNL     1     -40.784   5.859  -8.094  1.00  0.00     0.153 HD
HETATM   42  C18 UNL     1     -40.265   2.594  -7.735  1.00  0.00     0.160 C 
ENDBRANCH  30  36
BRANCH  33  43
HETATM   43  N9  UNL     1     -35.802   0.039  -4.989  1.00  0.00    -0.384 N 
ATOM     44  H92 UNL     1     -35.976   0.540  -4.117  1.00  0.00     0.157 HD
ATOM     45  H91 UNL     1     -35.140  -0.735  -4.952  1.00  0.00     0.157 HD
ENDBRANCH  33  43
BRANCH  35  46
HETATM   46  C21 UNL     1     -35.009  -1.212  -7.228  1.00  0.00     0.215 C 
HETATM   47  O4  UNL     1     -35.265  -2.428  -7.147  1.00  0.00    -0.644 OA
HETATM   48  O5  UNL     1     -33.670  -0.802  -7.248  1.00  0.00    -0.644 OA
ENDBRANCH  35  46
ENDBRANCH  27  28
ENDBRANCH  26  27
ENDBRANCH  25  26
ENDBRANCH   1  25
TORSDOF 16
ENDMDL
