MODEL 1
REMARK VINA RESULT: -6.822261199      0.000      0.000
REMARK  6 active torsions:
REMARK  status: ('A' for Active; 'I' for Inactive)
REMARK    1  A    between atoms: C2_2  and  C3_3 
REMARK    2  A    between atoms: C3_3  and  C5_5 
REMARK    3  A    between atoms: C3_3  and  C6_12 
REMARK       I    between atoms: C5_5  and  N1_7 
REMARK    4  A    between atoms: N1_7  and  N2_9 
REMARK    5  A    between atoms: C6_12  and  C7_13 
REMARK    6  A    between atoms: C6_12  and  C10_16 
ROOT
HETATM    1  C3  UNL     1      26.212  75.674  14.435  1.00  0.00     0.064 C 
HETATM    2  C4  UNL     1      26.887  74.388  14.879  1.00  0.00     0.030 C 
ENDROOT
BRANCH   1   3
HETATM    3  C2  UNL     1      26.335  76.538  15.685  1.00  0.00    -0.018 C 
HETATM    4  C1  UNL     1      26.877  76.051  16.797  1.00  0.00     0.008 C 
ENDBRANCH   1   3
BRANCH   1   5
HETATM    5  C5  UNL     1      24.792  75.383  14.320  1.00  0.00     0.248 C 
HETATM    6  O1  UNL     1      23.920  76.325  14.248  1.00  0.00    -0.271 OA
HETATM    7  N1  UNL     1      24.166  74.116  14.270  1.00  0.00    -0.276 N 
ATOM      8  H1  UNL     1      24.793  73.313  14.323  1.00  0.00     0.189 HD
BRANCH   7   9
HETATM    9  N2  UNL     1      22.846  73.821  14.161  1.00  0.00    -0.343 N 
ATOM     10  H22 UNL     1      22.521  73.688  13.203  1.00  0.00     0.176 HD
ATOM     11  H21 UNL     1      22.150  73.718  14.900  1.00  0.00     0.176 HD
ENDBRANCH   7   9
ENDBRANCH   1   5
BRANCH   1  12
HETATM   12  C6  UNL     1      26.904  76.398  13.362  1.00  0.00     0.067 C 
BRANCH  12  13
HETATM   13  C7  UNL     1      28.207  77.032  13.602  1.00  0.00    -0.013 C 
HETATM   14  C8  UNL     1      29.458  76.361  13.177  1.00  0.00     0.010 C 
HETATM   15  C9  UNL     1      28.301  78.493  13.220  1.00  0.00     0.010 C 
ENDBRANCH  12  13
BRANCH  12  16
HETATM   16  C10 UNL     1      26.913  75.798  11.975  1.00  0.00     0.326 C 
HETATM   17  N3  UNL     1      25.664  75.184  11.595  1.00  0.00    -0.046 N 
HETATM   18  C11 UNL     1      24.880  76.205  10.957  1.00  0.00     0.261 C 
ATOM     19  H32 UNL     1      25.784  74.351  11.020  1.00  0.00     0.280 HD
ATOM     20  H31 UNL     1      25.183  74.734  12.374  1.00  0.00     0.280 HD
HETATM   21  C12 UNL     1      25.931  77.183  10.513  1.00  0.00     0.198 C 
HETATM   22  O2  UNL     1      27.126  76.828  11.046  1.00  0.00    -0.357 OA
ENDBRANCH  12  16
ENDBRANCH   1  12
TORSDOF 6
ENDMDL
MODEL 2
REMARK VINA RESULT: -6.727213405      1.942      3.350
REMARK  6 active torsions:
REMARK  status: ('A' for Active; 'I' for Inactive)
REMARK    1  A    between atoms: C2_2  and  C3_3 
REMARK    2  A    between atoms: C3_3  and  C5_5 
REMARK    3  A    between atoms: C3_3  and  C6_12 
REMARK       I    between atoms: C5_5  and  N1_7 
REMARK    4  A    between atoms: N1_7  and  N2_9 
REMARK    5  A    between atoms: C6_12  and  C7_13 
REMARK    6  A    between atoms: C6_12  and  C10_16 
ROOT
HETATM    1  C3  UNL     1      27.619  76.017  13.134  1.00  0.00     0.064 C 
HETATM    2  C4  UNL     1      29.012  76.610  13.012  1.00  0.00     0.030 C 
ENDROOT
BRANCH   1   3
HETATM    3  C2  UNL     1      27.374  76.105  14.636  1.00  0.00    -0.018 C 
HETATM    4  C1  UNL     1      27.373  77.280  15.257  1.00  0.00     0.008 C 
ENDBRANCH   1   3
BRANCH   1   5
HETATM    5  C5  UNL     1      27.744  74.595  12.857  1.00  0.00     0.248 C 
HETATM    6  O1  UNL     1      27.551  73.716  13.775  1.00  0.00    -0.271 OA
HETATM    7  N1  UNL     1      28.073  73.975  11.629  1.00  0.00    -0.276 N 
ATOM      8  H1  UNL     1      28.243  74.608  10.848  1.00  0.00     0.189 HD
BRANCH   7   9
HETATM    9  N2  UNL     1      28.193  72.652  11.348  1.00  0.00    -0.343 N 
ATOM     10  H22 UNL     1      29.006  72.204  11.772  1.00  0.00     0.176 HD
ATOM     11  H21 UNL     1      27.587  72.061  10.779  1.00  0.00     0.176 HD
ENDBRANCH   7   9
ENDBRANCH   1   5
BRANCH   1  12
HETATM   12  C6  UNL     1      26.555  76.800  12.495  1.00  0.00     0.067 C 
BRANCH  12  13
HETATM   13  C7  UNL     1      26.866  77.771  11.438  1.00  0.00    -0.013 C 
HETATM   14  C8  UNL     1      26.236  77.653  10.101  1.00  0.00     0.010 C 
HETATM   15  C9  UNL     1      26.823  79.225  11.854  1.00  0.00     0.010 C 
ENDBRANCH  12  13
BRANCH  12  16
HETATM   16  C10 UNL     1      25.262  76.103  12.137  1.00  0.00     0.326 C 
HETATM   17  N3  UNL     1      25.011  74.906  12.902  1.00  0.00    -0.046 N 
HETATM   18  C11 UNL     1      24.269  75.307  14.065  1.00  0.00     0.261 C 
ATOM     19  H32 UNL     1      24.550  74.174  12.363  1.00  0.00     0.280 HD
ATOM     20  H31 UNL     1      25.860  74.386  13.125  1.00  0.00     0.280 HD
HETATM   21  C12 UNL     1      23.661  76.607  13.622  1.00  0.00     0.198 C 
HETATM   22  O2  UNL     1      24.195  76.968  12.429  1.00  0.00    -0.357 OA
ENDBRANCH  12  16
ENDBRANCH   1  12
TORSDOF 6
ENDMDL
MODEL 3
REMARK VINA RESULT: -6.575506547      1.118      1.360
REMARK  6 active torsions:
REMARK  status: ('A' for Active; 'I' for Inactive)
REMARK    1  A    between atoms: C2_2  and  C3_3 
REMARK    2  A    between atoms: C3_3  and  C5_5 
REMARK    3  A    between atoms: C3_3  and  C6_12 
REMARK       I    between atoms: C5_5  and  N1_7 
REMARK    4  A    between atoms: N1_7  and  N2_9 
REMARK    5  A    between atoms: C6_12  and  C7_13 
REMARK    6  A    between atoms: C6_12  and  C10_16 
ROOT
HETATM    1  C3  UNL     1      26.229  75.492  14.217  1.00  0.00     0.064 C 
HETATM    2  C4  UNL     1      26.826  74.456  15.154  1.00  0.00     0.030 C 
ENDROOT
BRANCH   1   3
HETATM    3  C2  UNL     1      26.438  76.781  15.005  1.00  0.00    -0.018 C 
HETATM    4  C1  UNL     1      27.251  76.810  16.056  1.00  0.00     0.008 C 
ENDBRANCH   1   3
BRANCH   1   5
HETATM    5  C5  UNL     1      24.791  75.280  14.219  1.00  0.00     0.248 C 
HETATM    6  O1  UNL     1      23.971  76.261  14.348  1.00  0.00    -0.271 OA
HETATM    7  N1  UNL     1      24.093  74.057  14.091  1.00  0.00    -0.276 N 
ATOM      8  H1  UNL     1      24.676  73.227  13.985  1.00  0.00     0.189 HD
BRANCH   7   9
HETATM    9  N2  UNL     1      22.754  73.836  14.089  1.00  0.00    -0.343 N 
ATOM     10  H22 UNL     1      22.231  74.421  13.436  1.00  0.00     0.176 HD
ATOM     11  H21 UNL     1      22.214  73.173  14.645  1.00  0.00     0.176 HD
ENDBRANCH   7   9
ENDBRANCH   1   5
BRANCH   1  12
HETATM   12  C6  UNL     1      26.945  75.665  12.947  1.00  0.00     0.067 C 
BRANCH  12  13
HETATM   13  C7  UNL     1      28.229  74.991  12.710  1.00  0.00    -0.013 C 
HETATM   14  C8  UNL     1      28.408  74.113  11.530  1.00  0.00     0.010 C 
HETATM   15  C9  UNL     1      29.457  75.864  12.841  1.00  0.00     0.010 C 
ENDBRANCH  12  13
BRANCH  12  16
HETATM   16  C10 UNL     1      26.150  75.644  11.662  1.00  0.00     0.326 C 
HETATM   17  N3  UNL     1      24.937  76.423  11.711  1.00  0.00    -0.046 N 
HETATM   18  C11 UNL     1      25.279  77.748  11.273  1.00  0.00     0.261 C 
ATOM     19  H32 UNL     1      24.171  76.008  11.181  1.00  0.00     0.280 HD
ATOM     20  H31 UNL     1      24.485  76.405  12.625  1.00  0.00     0.280 HD
HETATM   21  C12 UNL     1      26.528  77.506  10.474  1.00  0.00     0.198 C 
HETATM   22  O2  UNL     1      26.929  76.222  10.648  1.00  0.00    -0.357 OA
ENDBRANCH  12  16
ENDBRANCH   1  12
TORSDOF 6
ENDMDL
MODEL 4
REMARK VINA RESULT: -6.363212220      2.232      3.714
REMARK  6 active torsions:
REMARK  status: ('A' for Active; 'I' for Inactive)
REMARK    1  A    between atoms: C2_2  and  C3_3 
REMARK    2  A    between atoms: C3_3  and  C5_5 
REMARK    3  A    between atoms: C3_3  and  C6_12 
REMARK       I    between atoms: C5_5  and  N1_7 
REMARK    4  A    between atoms: N1_7  and  N2_9 
REMARK    5  A    between atoms: C6_12  and  C7_13 
REMARK    6  A    between atoms: C6_12  and  C10_16 
ROOT
HETATM    1  C3  UNL     1      26.742  75.345  13.818  1.00  0.00     0.064 C 
HETATM    2  C4  UNL     1      27.611  76.581  13.971  1.00  0.00     0.030 C 
ENDROOT
BRANCH   1   3
HETATM    3  C2  UNL     1      26.686  74.824  15.250  1.00  0.00    -0.018 C 
HETATM    4  C1  UNL     1      27.149  75.557  16.258  1.00  0.00     0.008 C 
ENDBRANCH   1   3
BRANCH   1   5
HETATM    5  C5  UNL     1      27.534  74.363  13.094  1.00  0.00     0.248 C 
HETATM    6  O1  UNL     1      28.420  73.648  13.690  1.00  0.00    -0.271 OA
HETATM    7  N1  UNL     1      27.477  74.046  11.717  1.00  0.00    -0.276 N 
ATOM      8  H1  UNL     1      26.796  74.574  11.172  1.00  0.00     0.189 HD
BRANCH   7   9
HETATM    9  N2  UNL     1      28.204  73.135  11.021  1.00  0.00    -0.343 N 
ATOM     10  H22 UNL     1      27.686  72.658  10.283  1.00  0.00     0.176 HD
ATOM     11  H21 UNL     1      29.182  72.871  11.140  1.00  0.00     0.176 HD
ENDBRANCH   7   9
ENDBRANCH   1   5
BRANCH   1  12
HETATM   12  C6  UNL     1      25.354  75.608  13.419  1.00  0.00     0.067 C 
BRANCH  12  13
HETATM   13  C7  UNL     1      24.242  75.324  14.335  1.00  0.00    -0.013 C 
HETATM   14  C8  UNL     1      23.500  76.432  14.981  1.00  0.00     0.010 C 
HETATM   15  C9  UNL     1      23.237  74.305  13.844  1.00  0.00     0.010 C 
ENDBRANCH  12  13
BRANCH  12  16
HETATM   16  C10 UNL     1      25.047  76.888  12.677  1.00  0.00     0.326 C 
HETATM   17  N3  UNL     1      26.141  77.376  11.874  1.00  0.00    -0.046 N 
HETATM   18  C11 UNL     1      25.989  76.791  10.570  1.00  0.00     0.261 C 
ATOM     19  H32 UNL     1      26.202  78.394  11.853  1.00  0.00     0.280 HD
ATOM     20  H31 UNL     1      27.055  77.201  12.290  1.00  0.00     0.280 HD
HETATM   21  C12 UNL     1      24.525  76.454  10.542  1.00  0.00     0.198 C 
HETATM   22  O2  UNL     1      23.999  76.641  11.777  1.00  0.00    -0.357 OA
ENDBRANCH  12  16
ENDBRANCH   1  12
TORSDOF 6
ENDMDL
MODEL 5
REMARK VINA RESULT: -6.318169952      1.979      4.278
REMARK  6 active torsions:
REMARK  status: ('A' for Active; 'I' for Inactive)
REMARK    1  A    between atoms: C2_2  and  C3_3 
REMARK    2  A    between atoms: C3_3  and  C5_5 
REMARK    3  A    between atoms: C3_3  and  C6_12 
REMARK       I    between atoms: C5_5  and  N1_7 
REMARK    4  A    between atoms: N1_7  and  N2_9 
REMARK    5  A    between atoms: C6_12  and  C7_13 
REMARK    6  A    between atoms: C6_12  and  C10_16 
ROOT
HETATM    1  C3  UNL     1      27.227  76.273  12.369  1.00  0.00     0.064 C 
HETATM    2  C4  UNL     1      28.645  76.264  12.912  1.00  0.00     0.030 C 
ENDROOT
BRANCH   1   3
HETATM    3  C2  UNL     1      27.312  75.231  11.259  1.00  0.00    -0.018 C 
HETATM    4  C1  UNL     1      28.255  74.294  11.278  1.00  0.00     0.008 C 
ENDBRANCH   1   3
BRANCH   1   5
HETATM    5  C5  UNL     1      27.051  77.541  11.679  1.00  0.00     0.248 C 
HETATM    6  O1  UNL     1      26.647  77.589  10.460  1.00  0.00    -0.271 OA
HETATM    7  N1  UNL     1      27.274  78.843  12.184  1.00  0.00    -0.276 N 
ATOM      8  H1  UNL     1      27.599  78.890  13.150  1.00  0.00     0.189 HD
BRANCH   7   9
HETATM    9  N2  UNL     1      27.116  80.038  11.560  1.00  0.00    -0.343 N 
ATOM     10  H22 UNL     1      26.286  80.098  10.969  1.00  0.00     0.176 HD
ATOM     11  H21 UNL     1      27.707  80.868  11.606  1.00  0.00     0.176 HD
ENDBRANCH   7   9
ENDBRANCH   1   5
BRANCH   1  12
HETATM   12  C6  UNL     1      26.202  75.797  13.304  1.00  0.00     0.067 C 
BRANCH  12  13
HETATM   13  C7  UNL     1      26.435  75.826  14.754  1.00  0.00    -0.013 C 
HETATM   14  C8  UNL     1      26.983  74.638  15.451  1.00  0.00     0.010 C 
HETATM   15  C9  UNL     1      27.151  77.053  15.275  1.00  0.00     0.010 C 
ENDBRANCH  12  13
BRANCH  12  16
HETATM   16  C10 UNL     1      24.760  76.167  13.045  1.00  0.00     0.326 C 
HETATM   17  N3  UNL     1      23.963  75.087  12.518  1.00  0.00    -0.046 N 
HETATM   18  C11 UNL     1      23.400  74.399  13.647  1.00  0.00     0.261 C 
ATOM     19  H32 UNL     1      23.263  75.395  11.844  1.00  0.00     0.280 HD
ATOM     20  H31 UNL     1      24.483  74.472  11.891  1.00  0.00     0.280 HD
HETATM   21  C12 UNL     1      23.451  75.452  14.718  1.00  0.00     0.198 C 
HETATM   22  O2  UNL     1      24.163  76.515  14.267  1.00  0.00    -0.357 OA
ENDBRANCH  12  16
ENDBRANCH   1  12
TORSDOF 6
ENDMDL
