MODEL 1
REMARK VINA RESULT: -7.431453840      0.000      0.000
REMARK  5 active torsions:
REMARK  status: ('A' for Active; 'I' for Inactive)
REMARK       I    between atoms: C1_4  and  N3_6 
REMARK    1  A    between atoms: C2_8  and  C3_9 
REMARK    2  A    between atoms: C4_12  and  C5_13 
REMARK    3  A    between atoms: C5_13  and  C6_14 
REMARK    4  A    between atoms: C6_14  and  C7_15 
REMARK    5  A    between atoms: C7_15  and  N5_16 
ROOT
HETATM    1  C3  UNL     1      28.406  73.801  10.508  1.00  0.00     0.137 A 
HETATM    2  N4  UNL     1      27.324  74.477  10.025  1.00  0.00    -0.329 N 
ATOM      3  H4  UNL     1      26.861  74.276   9.139  1.00  0.00     0.168 HD
HETATM    4  C4  UNL     1      26.955  75.444  10.877  1.00  0.00     0.097 A 
HETATM    5  N6  UNL     1      27.822  75.366  11.903  1.00  0.00    -0.287 N 
ATOM      6  H6  UNL     1      27.815  75.968  12.725  1.00  0.00     0.188 HD
HETATM    7  N7  UNL     1      28.681  74.391  11.683  1.00  0.00    -0.283 N 
ATOM      8  H7  UNL     1      29.441  74.125  12.309  1.00  0.00     0.188 HD
ENDROOT
BRANCH   1   9
HETATM    9  C2  UNL     1      29.097  72.688   9.874  1.00  0.00     0.140 C 
HETATM   10  N3  UNL     1      28.762  72.269   8.708  1.00  0.00    -0.337 N 
HETATM   11  C1  UNL     1      29.396  71.201   8.056  1.00  0.00     0.185 C 
ATOM     12  H3  UNL     1      27.993  72.738   8.229  1.00  0.00     0.168 HD
HETATM   13  N1  UNL     1      29.015  70.826   6.889  1.00  0.00    -0.374 N 
HETATM   14  N2  UNL     1      30.471  70.514   8.675  1.00  0.00    -0.064 NA
ATOM     15  H12 UNL     1      29.476  70.049   6.416  1.00  0.00     0.158 HD
ATOM     16  H11 UNL     1      28.241  71.320   6.444  1.00  0.00     0.158 HD
ENDBRANCH   1   9
BRANCH   4  17
HETATM   17  C5  UNL     1      25.811  76.375  10.666  1.00  0.00     0.080 C 
BRANCH  17  18
HETATM   18  C6  UNL     1      24.578  75.914  11.399  1.00  0.00     0.038 C 
BRANCH  18  19
HETATM   19  C7  UNL     1      24.603  76.262  12.856  1.00  0.00     0.272 C 
BRANCH  19  20
HETATM   20  N5  UNL     1      24.508  75.042  13.634  1.00  0.00     0.088 N 
HETATM   21  C8  UNL     1      25.588  74.922  14.599  1.00  0.00     0.272 C 
HETATM   22  C9  UNL     1      25.396  76.149  15.436  1.00  0.00     0.032 C 
HETATM   23  C10 UNL     1      23.867  76.240  15.490  1.00  0.00     0.032 C 
HETATM   24  C11 UNL     1      23.365  75.162  14.548  1.00  0.00     0.272 C 
ENDBRANCH  19  20
ENDBRANCH  18  19
ENDBRANCH  17  18
ENDBRANCH   4  17
TORSDOF 5
ENDMDL
MODEL 2
REMARK VINA RESULT: -7.355857353      1.016      1.950
REMARK  5 active torsions:
REMARK  status: ('A' for Active; 'I' for Inactive)
REMARK       I    between atoms: C1_4  and  N3_6 
REMARK    1  A    between atoms: C2_8  and  C3_9 
REMARK    2  A    between atoms: C4_12  and  C5_13 
REMARK    3  A    between atoms: C5_13  and  C6_14 
REMARK    4  A    between atoms: C6_14  and  C7_15 
REMARK    5  A    between atoms: C7_15  and  N5_16 
ROOT
HETATM    1  C3  UNL     1      28.232  73.546  10.506  1.00  0.00     0.137 A 
HETATM    2  N4  UNL     1      28.629  74.280  11.585  1.00  0.00    -0.329 N 
ATOM      3  H4  UNL     1      29.531  74.184  12.053  1.00  0.00     0.168 HD
HETATM    4  C4  UNL     1      27.670  75.144  11.945  1.00  0.00     0.097 A 
HETATM    5  N6  UNL     1      26.663  74.942  11.076  1.00  0.00    -0.287 N 
ATOM      6  H6  UNL     1      25.776  75.445  11.077  1.00  0.00     0.188 HD
HETATM    7  N7  UNL     1      26.997  73.994  10.224  1.00  0.00    -0.283 N 
ATOM      8  H7  UNL     1      26.408  73.653   9.464  1.00  0.00     0.188 HD
ENDROOT
BRANCH   1   9
HETATM    9  C2  UNL     1      28.992  72.508   9.824  1.00  0.00     0.140 C 
HETATM   10  N3  UNL     1      28.692  72.132   8.634  1.00  0.00    -0.337 N 
HETATM   11  C1  UNL     1      29.392  71.137   7.936  1.00  0.00     0.185 C 
ATOM     12  H3  UNL     1      27.901  72.580   8.171  1.00  0.00     0.168 HD
HETATM   13  N1  UNL     1      29.044  70.802   6.747  1.00  0.00    -0.374 N 
HETATM   14  N2  UNL     1      30.500  70.482   8.531  1.00  0.00    -0.064 NA
ATOM     15  H12 UNL     1      29.553  70.078   6.240  1.00  0.00     0.158 HD
ATOM     16  H11 UNL     1      28.246  71.273   6.319  1.00  0.00     0.158 HD
ENDBRANCH   1   9
BRANCH   4  17
HETATM   17  C5  UNL     1      27.768  76.101  13.082  1.00  0.00     0.080 C 
BRANCH  17  18
HETATM   18  C6  UNL     1      27.342  75.465  14.380  1.00  0.00     0.038 C 
BRANCH  18  19
HETATM   19  C7  UNL     1      25.923  74.983  14.354  1.00  0.00     0.272 C 
BRANCH  19  20
HETATM   20  N5  UNL     1      25.037  76.129  14.293  1.00  0.00     0.088 N 
HETATM   21  C8  UNL     1      24.271  76.165  13.059  1.00  0.00     0.272 C 
HETATM   22  C9  UNL     1      23.524  74.868  13.118  1.00  0.00     0.032 C 
HETATM   23  C10 UNL     1      23.210  74.770  14.614  1.00  0.00     0.032 C 
HETATM   24  C11 UNL     1      23.950  75.927  15.260  1.00  0.00     0.272 C 
ENDBRANCH  19  20
ENDBRANCH  18  19
ENDBRANCH  17  18
ENDBRANCH   4  17
TORSDOF 5
ENDMDL
MODEL 3
REMARK VINA RESULT: -7.268173042      2.101      3.106
REMARK  5 active torsions:
REMARK  status: ('A' for Active; 'I' for Inactive)
REMARK       I    between atoms: C1_4  and  N3_6 
REMARK    1  A    between atoms: C2_8  and  C3_9 
REMARK    2  A    between atoms: C4_12  and  C5_13 
REMARK    3  A    between atoms: C5_13  and  C6_14 
REMARK    4  A    between atoms: C6_14  and  C7_15 
REMARK    5  A    between atoms: C7_15  and  N5_16 
ROOT
HETATM    1  C3  UNL     1      27.499  74.379  10.658  1.00  0.00     0.137 A 
HETATM    2  N4  UNL     1      27.508  74.849  11.938  1.00  0.00    -0.329 N 
ATOM      3  H4  UNL     1      28.341  74.928  12.522  1.00  0.00     0.168 HD
HETATM    4  C4  UNL     1      26.270  75.192  12.322  1.00  0.00     0.097 A 
HETATM    5  N6  UNL     1      25.483  74.930  11.264  1.00  0.00    -0.287 N 
ATOM      6  H6  UNL     1      24.476  75.081  11.229  1.00  0.00     0.188 HD
HETATM    7  N7  UNL     1      26.212  74.448  10.278  1.00  0.00    -0.283 N 
ATOM      8  H7  UNL     1      25.854  74.170   9.364  1.00  0.00     0.188 HD
ENDROOT
BRANCH   1   9
HETATM    9  C2  UNL     1      28.642  73.909   9.888  1.00  0.00     0.140 C 
HETATM   10  N3  UNL     1      28.986  72.672   9.889  1.00  0.00    -0.337 N 
HETATM   11  C1  UNL     1      30.079  72.171   9.166  1.00  0.00     0.185 C 
ATOM     12  H3  UNL     1      28.436  72.019  10.446  1.00  0.00     0.168 HD
HETATM   13  N1  UNL     1      30.375  70.924   9.207  1.00  0.00    -0.374 N 
HETATM   14  N2  UNL     1      30.877  73.036   8.374  1.00  0.00    -0.064 NA
ATOM     15  H12 UNL     1      31.170  70.560   8.681  1.00  0.00     0.158 HD
ATOM     16  H11 UNL     1      29.801  70.302   9.777  1.00  0.00     0.158 HD
ENDBRANCH   1   9
BRANCH   4  17
HETATM   17  C5  UNL     1      25.916  75.743  13.660  1.00  0.00     0.080 C 
BRANCH  17  18
HETATM   18  C6  UNL     1      26.219  74.762  14.762  1.00  0.00     0.038 C 
BRANCH  18  19
HETATM   19  C7  UNL     1      27.100  75.337  15.828  1.00  0.00     0.272 C 
BRANCH  19  20
HETATM   20  N5  UNL     1      26.598  76.647  16.198  1.00  0.00     0.088 N 
HETATM   21  C8  UNL     1      26.100  76.677  17.563  1.00  0.00     0.272 C 
HETATM   22  C9  UNL     1      27.315  76.289  18.347  1.00  0.00     0.032 C 
HETATM   23  C10 UNL     1      28.422  76.994  17.556  1.00  0.00     0.032 C 
HETATM   24  C11 UNL     1      27.740  77.561  16.325  1.00  0.00     0.272 C 
ENDBRANCH  19  20
ENDBRANCH  18  19
ENDBRANCH  17  18
ENDBRANCH   4  17
TORSDOF 5
ENDMDL
MODEL 4
REMARK VINA RESULT: -7.236837298      2.014      2.791
REMARK  5 active torsions:
REMARK  status: ('A' for Active; 'I' for Inactive)
REMARK       I    between atoms: C1_4  and  N3_6 
REMARK    1  A    between atoms: C2_8  and  C3_9 
REMARK    2  A    between atoms: C4_12  and  C5_13 
REMARK    3  A    between atoms: C5_13  and  C6_14 
REMARK    4  A    between atoms: C6_14  and  C7_15 
REMARK    5  A    between atoms: C7_15  and  N5_16 
ROOT
HETATM    1  C3  UNL     1      28.043  73.686  10.409  1.00  0.00     0.137 A 
HETATM    2  N4  UNL     1      28.447  74.644  11.292  1.00  0.00    -0.329 N 
ATOM      3  H4  UNL     1      29.398  74.741  11.649  1.00  0.00     0.168 HD
HETATM    4  C4  UNL     1      27.421  75.440  11.624  1.00  0.00     0.097 A 
HETATM    5  N6  UNL     1      26.366  74.968  10.937  1.00  0.00    -0.287 N 
ATOM      6  H6  UNL     1      25.423  75.355  10.968  1.00  0.00     0.188 HD
HETATM    7  N7  UNL     1      26.736  73.928  10.217  1.00  0.00    -0.283 N 
ATOM      8  H7  UNL     1      26.123  73.388   9.606  1.00  0.00     0.188 HD
ENDROOT
BRANCH   1   9
HETATM    9  C2  UNL     1      28.863  72.640   9.816  1.00  0.00     0.140 C 
HETATM   10  N3  UNL     1      28.627  72.193   8.635  1.00  0.00    -0.337 N 
HETATM   11  C1  UNL     1      29.387  71.187   8.021  1.00  0.00     0.185 C 
ATOM     12  H3  UNL     1      27.845  72.592   8.115  1.00  0.00     0.168 HD
HETATM   13  N1  UNL     1      29.102  70.780   6.838  1.00  0.00    -0.374 N 
HETATM   14  N2  UNL     1      30.486  70.599   8.697  1.00  0.00    -0.064 NA
ATOM     15  H12 UNL     1      29.655  70.048   6.391  1.00  0.00     0.158 HD
ATOM     16  H11 UNL     1      28.311  71.203   6.351  1.00  0.00     0.158 HD
ENDBRANCH   1   9
BRANCH   4  17
HETATM   17  C5  UNL     1      27.506  76.591  12.566  1.00  0.00     0.080 C 
BRANCH  17  18
HETATM   18  C6  UNL     1      28.470  76.317  13.691  1.00  0.00     0.038 C 
BRANCH  18  19
HETATM   19  C7  UNL     1      27.783  75.932  14.965  1.00  0.00     0.272 C 
BRANCH  19  20
HETATM   20  N5  UNL     1      27.056  77.079  15.474  1.00  0.00     0.088 N 
HETATM   21  C8  UNL     1      26.165  76.723  16.566  1.00  0.00     0.272 C 
HETATM   22  C9  UNL     1      27.118  76.158  17.574  1.00  0.00     0.032 C 
HETATM   23  C10 UNL     1      28.331  77.074  17.388  1.00  0.00     0.032 C 
HETATM   24  C11 UNL     1      28.001  77.946  16.191  1.00  0.00     0.272 C 
ENDBRANCH  19  20
ENDBRANCH  18  19
ENDBRANCH  17  18
ENDBRANCH   4  17
TORSDOF 5
ENDMDL
MODEL 5
REMARK VINA RESULT: -7.230174906      1.626      2.237
REMARK  5 active torsions:
REMARK  status: ('A' for Active; 'I' for Inactive)
REMARK       I    between atoms: C1_4  and  N3_6 
REMARK    1  A    between atoms: C2_8  and  C3_9 
REMARK    2  A    between atoms: C4_12  and  C5_13 
REMARK    3  A    between atoms: C5_13  and  C6_14 
REMARK    4  A    between atoms: C6_14  and  C7_15 
REMARK    5  A    between atoms: C7_15  and  N5_16 
ROOT
HETATM    1  C3  UNL     1      28.054  73.702  10.379  1.00  0.00     0.137 A 
HETATM    2  N4  UNL     1      28.486  74.716  11.182  1.00  0.00    -0.329 N 
ATOM      3  H4  UNL     1      29.453  74.854  11.475  1.00  0.00     0.168 HD
HETATM    4  C4  UNL     1      27.461  75.507  11.532  1.00  0.00     0.097 A 
HETATM    5  N6  UNL     1      26.379  74.973  10.937  1.00  0.00    -0.287 N 
ATOM      6  H6  UNL     1      25.431  75.340  11.005  1.00  0.00     0.188 HD
HETATM    7  N7  UNL     1      26.732  73.903  10.254  1.00  0.00    -0.283 N 
ATOM      8  H7  UNL     1      26.098  73.316   9.712  1.00  0.00     0.188 HD
ENDROOT
BRANCH   1   9
HETATM    9  C2  UNL     1      28.864  72.642   9.795  1.00  0.00     0.140 C 
HETATM   10  N3  UNL     1      28.618  72.181   8.622  1.00  0.00    -0.337 N 
HETATM   11  C1  UNL     1      29.368  71.162   8.017  1.00  0.00     0.185 C 
ATOM     12  H3  UNL     1      27.836  72.579   8.102  1.00  0.00     0.168 HD
HETATM   13  N1  UNL     1      29.073  70.742   6.841  1.00  0.00    -0.374 N 
HETATM   14  N2  UNL     1      30.467  70.576   8.694  1.00  0.00    -0.064 NA
ATOM     15  H12 UNL     1      29.619  70.000   6.401  1.00  0.00     0.158 HD
ATOM     16  H11 UNL     1      28.282  71.163   6.354  1.00  0.00     0.158 HD
ENDBRANCH   1   9
BRANCH   4  17
HETATM   17  C5  UNL     1      27.573  76.710  12.403  1.00  0.00     0.080 C 
BRANCH  17  18
HETATM   18  C6  UNL     1      28.448  76.449  13.601  1.00  0.00     0.038 C 
BRANCH  18  19
HETATM   19  C7  UNL     1      27.803  76.852  14.892  1.00  0.00     0.272 C 
BRANCH  19  20
HETATM   20  N5  UNL     1      27.525  75.662  15.672  1.00  0.00     0.088 N 
HETATM   21  C8  UNL     1      27.054  75.982  17.010  1.00  0.00     0.272 C 
HETATM   22  C9  UNL     1      25.818  76.779  16.723  1.00  0.00     0.032 C 
HETATM   23  C10 UNL     1      25.263  76.042  15.500  1.00  0.00     0.032 C 
HETATM   24  C11 UNL     1      26.322  75.021  15.127  1.00  0.00     0.272 C 
ENDBRANCH  19  20
ENDBRANCH  18  19
ENDBRANCH  17  18
ENDBRANCH   4  17
TORSDOF 5
ENDMDL
