MODEL 1
REMARK VINA RESULT: -4.725432949      0.000      0.000
REMARK  2 active torsions:
REMARK  status: ('A' for Active; 'I' for Inactive)
REMARK    1  A    between atoms: C4_5  and  C5_6 
REMARK    2  A    between atoms: C11_14  and  O3_16 
ROOT
HETATM    1  C1  UNL     1       9.297  -2.396  49.331  1.00  0.00     0.047 C 
HETATM    2  C2  UNL     1       8.551  -2.021  48.318  1.00  0.00     0.049 C 
HETATM    3  O1  UNL     1       9.095  -2.116  47.055  1.00  0.00    -0.355 OA
HETATM    4  C3  UNL     1       8.418  -1.844  45.865  1.00  0.00     0.187 C 
HETATM    5  C4  UNL     1       7.168  -1.017  46.000  1.00  0.00     0.077 C 
HETATM    6  C6  UNL     1       6.698  -0.693  47.326  1.00  0.00     0.025 C 
HETATM    7  C7  UNL     1       5.403  -1.198  47.871  1.00  0.00     0.045 C 
HETATM    8  C8  UNL     1       5.373  -0.427  49.209  1.00  0.00     0.091 C 
HETATM    9 CL1  UNL     1       5.060   1.281  48.953  1.00  0.00    -0.124 Cl
HETATM   10  C9  UNL     1       6.845  -0.643  49.605  1.00  0.00     0.040 C 
HETATM   11  C10 UNL     1       7.242  -1.539  48.492  1.00  0.00     0.045 C 
HETATM   12  C11 UNL     1       6.057  -2.455  48.354  1.00  0.00     0.074 C 
HETATM   13  C12 UNL     1       5.429  -2.972  49.602  1.00  0.00     0.047 C 
ENDROOT
BRANCH  12  14
HETATM   14  O3  UNL     1       6.182  -3.496  47.462  1.00  0.00    -0.389 OA
ATOM     15  H3  UNL     1       5.547  -4.201  47.514  1.00  0.00     0.210 HD
ENDBRANCH  12  14
BRANCH   5  16
HETATM   16  C5  UNL     1       6.107  -1.551  45.060  1.00  0.00     0.238 C 
HETATM   17  O2  UNL     1       6.050  -2.716  44.741  1.00  0.00    -0.306 OA
ENDBRANCH   5  16
TORSDOF 2
ENDMDL
MODEL 2
REMARK VINA RESULT: -3.872412577      2.155      4.270
REMARK  2 active torsions:
REMARK  status: ('A' for Active; 'I' for Inactive)
REMARK    1  A    between atoms: C4_5  and  C5_6 
REMARK    2  A    between atoms: C11_14  and  O3_16 
ROOT
HETATM    1  C1  UNL     1       4.888  -1.431  44.263  1.00  0.00     0.047 C 
HETATM    2  C2  UNL     1       5.409  -1.351  45.466  1.00  0.00     0.049 C 
HETATM    3  O1  UNL     1       4.569  -1.009  46.504  1.00  0.00    -0.355 OA
HETATM    4  C3  UNL     1       4.933  -0.961  47.851  1.00  0.00     0.187 C 
HETATM    5  C4  UNL     1       6.411  -0.881  48.125  1.00  0.00     0.077 C 
HETATM    6  C6  UNL     1       7.323  -0.995  47.011  1.00  0.00     0.025 C 
HETATM    7  C7  UNL     1       8.277  -2.136  46.862  1.00  0.00     0.045 C 
HETATM    8  C8  UNL     1       9.059  -1.651  45.622  1.00  0.00     0.091 C 
HETATM    9 CL1  UNL     1      10.108  -0.301  46.019  1.00  0.00    -0.124 Cl
HETATM   10  C9  UNL     1       7.855  -1.161  44.796  1.00  0.00     0.040 C 
HETATM   11  C10 UNL     1       6.771  -1.601  45.708  1.00  0.00     0.045 C 
HETATM   12  C11 UNL     1       7.238  -2.956  46.162  1.00  0.00     0.074 C 
HETATM   13  C12 UNL     1       7.834  -3.865  45.142  1.00  0.00     0.047 C 
ENDROOT
BRANCH  12  14
HETATM   14  O3  UNL     1       6.364  -3.683  46.940  1.00  0.00    -0.389 OA
ATOM     15  H3  UNL     1       5.533  -3.281  47.163  1.00  0.00     0.210 HD
ENDBRANCH  12  14
BRANCH   5  16
HETATM   16  C5  UNL     1       6.750  -1.748  49.319  1.00  0.00     0.238 C 
HETATM   17  O2  UNL     1       6.116  -2.737  49.605  1.00  0.00    -0.306 OA
ENDBRANCH   5  16
TORSDOF 2
ENDMDL
MODEL 3
REMARK VINA RESULT: -3.670727847      2.464      3.851
REMARK  2 active torsions:
REMARK  status: ('A' for Active; 'I' for Inactive)
REMARK    1  A    between atoms: C4_5  and  C5_6 
REMARK    2  A    between atoms: C11_14  and  O3_16 
ROOT
HETATM    1  C1  UNL     1       9.660  -2.593  48.865  1.00  0.00     0.047 C 
HETATM    2  C2  UNL     1       8.453  -2.171  48.563  1.00  0.00     0.049 C 
HETATM    3  O1  UNL     1       7.594  -1.895  49.604  1.00  0.00    -0.355 OA
HETATM    4  C3  UNL     1       6.312  -1.360  49.469  1.00  0.00     0.187 C 
HETATM    5  C4  UNL     1       5.696  -1.479  48.100  1.00  0.00     0.077 C 
HETATM    6  C6  UNL     1       6.508  -1.999  47.025  1.00  0.00     0.025 C 
HETATM    7  C7  UNL     1       6.904  -1.177  45.842  1.00  0.00     0.045 C 
HETATM    8  C8  UNL     1       7.601  -2.267  44.999  1.00  0.00     0.091 C 
HETATM    9 CL1  UNL     1       6.435  -3.395  44.329  1.00  0.00    -0.124 Cl
HETATM   10  C9  UNL     1       8.393  -2.935  46.138  1.00  0.00     0.040 C 
HETATM   11  C10 UNL     1       8.034  -2.001  47.232  1.00  0.00     0.045 C 
HETATM   12  C11 UNL     1       8.106  -0.654  46.566  1.00  0.00     0.074 C 
HETATM   13  C12 UNL     1       9.248  -0.395  45.644  1.00  0.00     0.047 C 
ENDROOT
BRANCH  12  14
HETATM   14  O3  UNL     1       7.938   0.446  47.377  1.00  0.00    -0.389 OA
ATOM     15  H3  UNL     1       8.710   0.952  47.601  1.00  0.00     0.210 HD
ENDBRANCH  12  14
BRANCH   5  16
HETATM   16  C5  UNL     1       4.943  -0.207  47.775  1.00  0.00     0.238 C 
HETATM   17  O2  UNL     1       5.288   0.876  48.188  1.00  0.00    -0.306 OA
ENDBRANCH   5  16
TORSDOF 2
ENDMDL
MODEL 4
REMARK VINA RESULT: -3.201810576      2.536      4.166
REMARK  2 active torsions:
REMARK  status: ('A' for Active; 'I' for Inactive)
REMARK    1  A    between atoms: C4_5  and  C5_6 
REMARK    2  A    between atoms: C11_14  and  O3_16 
ROOT
HETATM    1  C1  UNL     1       9.253  -0.503  45.462  1.00  0.00     0.047 C 
HETATM    2  C2  UNL     1       8.383  -1.092  46.249  1.00  0.00     0.049 C 
HETATM    3  O1  UNL     1       8.393  -0.748  47.584  1.00  0.00    -0.355 OA
HETATM    4  C3  UNL     1       7.488  -1.210  48.541  1.00  0.00     0.187 C 
HETATM    5  C4  UNL     1       6.725  -2.454  48.171  1.00  0.00     0.077 C 
HETATM    6  C6  UNL     1       6.881  -2.984  46.837  1.00  0.00     0.025 C 
HETATM    7  C7  UNL     1       5.761  -3.030  45.850  1.00  0.00     0.045 C 
HETATM    8  C8  UNL     1       6.458  -3.807  44.711  1.00  0.00     0.091 C 
HETATM    9 CL1  UNL     1       6.684  -5.493  45.138  1.00  0.00    -0.124 Cl
HETATM   10  C9  UNL     1       7.806  -3.064  44.750  1.00  0.00     0.040 C 
HETATM   11  C10 UNL     1       7.464  -2.041  45.768  1.00  0.00     0.045 C 
HETATM   12  C11 UNL     1       6.066  -1.638  45.389  1.00  0.00     0.074 C 
HETATM   13  C12 UNL     1       5.765  -1.448  43.942  1.00  0.00     0.047 C 
ENDROOT
BRANCH  12  14
HETATM   14  O3  UNL     1       5.511  -0.593  46.093  1.00  0.00    -0.389 OA
ATOM     15  H3  UNL     1       4.653  -0.285  45.824  1.00  0.00     0.210 HD
ENDBRANCH  12  14
BRANCH   5  16
HETATM   16  C5  UNL     1       5.293  -2.325  48.644  1.00  0.00     0.238 C 
HETATM   17  O2  UNL     1       4.743  -1.256  48.766  1.00  0.00    -0.306 OA
ENDBRANCH   5  16
TORSDOF 2
ENDMDL
MODEL 5
REMARK VINA RESULT: -2.973227779      2.381      3.915
REMARK  2 active torsions:
REMARK  status: ('A' for Active; 'I' for Inactive)
REMARK    1  A    between atoms: C4_5  and  C5_6 
REMARK    2  A    between atoms: C11_14  and  O3_16 
ROOT
HETATM    1  C1  UNL     1       6.385  -4.258  49.094  1.00  0.00     0.047 C 
HETATM    2  C2  UNL     1       6.026  -3.038  48.768  1.00  0.00     0.049 C 
HETATM    3  O1  UNL     1       5.144  -2.387  49.604  1.00  0.00    -0.355 OA
HETATM    4  C3  UNL     1       4.724  -1.064  49.457  1.00  0.00     0.187 C 
HETATM    5  C4  UNL     1       4.929  -0.462  48.092  1.00  0.00     0.077 C 
HETATM    6  C6  UNL     1       5.650  -1.229  47.105  1.00  0.00     0.025 C 
HETATM    7  C7  UNL     1       6.972  -0.801  46.556  1.00  0.00     0.045 C 
HETATM    8  C8  UNL     1       7.164  -1.890  45.478  1.00  0.00     0.091 C 
HETATM    9 CL1  UNL     1       6.072  -1.645  44.126  1.00  0.00    -0.124 Cl
HETATM   10  C9  UNL     1       6.705  -3.096  46.318  1.00  0.00     0.040 C 
HETATM   11  C10 UNL     1       6.511  -2.400  47.613  1.00  0.00     0.045 C 
HETATM   12  C11 UNL     1       7.695  -1.475  47.682  1.00  0.00     0.074 C 
HETATM   13  C12 UNL     1       9.020  -2.008  47.259  1.00  0.00     0.047 C 
ENDROOT
BRANCH  12  14
HETATM   14  O3  UNL     1       7.859  -0.768  48.852  1.00  0.00    -0.389 OA
ATOM     15  H3  UNL     1       8.720  -0.771  49.253  1.00  0.00     0.210 HD
ENDBRANCH  12  14
BRANCH   5  16
HETATM   16  C5  UNL     1       5.381   0.976  48.240  1.00  0.00     0.238 C 
HETATM   17  O2  UNL     1       5.926   1.386  49.238  1.00  0.00    -0.306 OA
ENDBRANCH   5  16
TORSDOF 2
ENDMDL
