MODEL 1
REMARK VINA RESULT: -5.619234256      0.000      0.000
REMARK  3 active torsions:
REMARK  status: ('A' for Active; 'I' for Inactive)
REMARK    1  A    between atoms: C3_3  and  C4_4 
REMARK    2  A    between atoms: N1_7  and  O1_8 
REMARK    3  A    between atoms: N2_12  and  N3_13 
ROOT
HETATM    1  C1  UNL     1       1.123  -1.990  43.073  1.00  0.00     0.073 C 
HETATM    2  C2  UNL     1       2.400  -2.519  42.543  1.00  0.00     0.060 A 
HETATM    3  C3  UNL     1       2.606  -3.184  41.313  1.00  0.00     0.089 A 
HETATM    4  N1  UNL     1       3.911  -3.456  41.304  1.00  0.00    -0.209 N 
HETATM    5  C6  UNL     1       4.518  -3.000  42.447  1.00  0.00     0.127 A 
HETATM    6  C7  UNL     1       5.972  -3.123  42.789  1.00  0.00     0.093 C 
HETATM    7  N2  UNL     1       3.571  -2.432  43.188  1.00  0.00    -0.251 N 
ENDROOT
BRANCH   3   8
HETATM    8  C4  UNL     1       1.514  -3.418  40.416  1.00  0.00     0.041 C 
HETATM    9  C5  UNL     1       1.111  -4.421  39.707  1.00  0.00     0.058 C 
HETATM   10 BR1  UNL     1       1.930  -6.115  39.612  1.00  0.00    -0.064 Br
ENDBRANCH   3   8
BRANCH   4  11
HETATM   11  O1  UNL     1       4.624  -4.094  40.331  1.00  0.00    -0.281 OA
ATOM     12  H1  UNL     1       5.569  -4.143  40.240  1.00  0.00     0.245 HD
ENDBRANCH   4  11
BRANCH   7  13
HETATM   13  N3  UNL     1       3.776  -1.830  44.457  1.00  0.00    -0.337 N 
ATOM     14  H32 UNL     1       3.064  -1.338  44.995  1.00  0.00     0.177 HD
ATOM     15  H31 UNL     1       4.653  -1.821  44.977  1.00  0.00     0.177 HD
ENDBRANCH   7  13
TORSDOF 3
ENDMDL
MODEL 2
REMARK VINA RESULT: -5.585018336      7.213      8.539
REMARK  3 active torsions:
REMARK  status: ('A' for Active; 'I' for Inactive)
REMARK    1  A    between atoms: C3_3  and  C4_4 
REMARK    2  A    between atoms: N1_7  and  O1_8 
REMARK    3  A    between atoms: N2_12  and  N3_13 
ROOT
HETATM    1  C1  UNL     1      -0.642   3.251  39.898  1.00  0.00     0.073 C 
HETATM    2  C2  UNL     1      -1.597   2.979  40.995  1.00  0.00     0.060 A 
HETATM    3  C3  UNL     1      -1.329   2.330  42.222  1.00  0.00     0.089 A 
HETATM    4  N1  UNL     1      -2.503   2.334  42.855  1.00  0.00    -0.209 N 
HETATM    5  C6  UNL     1      -3.471   2.943  42.097  1.00  0.00     0.127 A 
HETATM    6  C7  UNL     1      -4.907   3.135  42.480  1.00  0.00     0.093 C 
HETATM    7  N2  UNL     1      -2.890   3.328  40.965  1.00  0.00    -0.251 N 
ENDROOT
BRANCH   3   8
HETATM    8  C4  UNL     1      -0.015   1.846  42.522  1.00  0.00     0.041 C 
HETATM    9  C5  UNL     1       0.498   0.685  42.769  1.00  0.00     0.058 C 
HETATM   10 BR1  UNL     1      -0.431  -0.952  42.820  1.00  0.00    -0.064 Br
ENDBRANCH   3   8
BRANCH   4  11
HETATM   11  O1  UNL     1      -2.787   1.824  44.089  1.00  0.00    -0.281 OA
ATOM     12  H1  UNL     1      -2.805   2.287  44.919  1.00  0.00     0.245 HD
ENDBRANCH   4  11
BRANCH   7  13
HETATM   13  N3  UNL     1      -3.542   4.001  39.899  1.00  0.00    -0.337 N 
ATOM     14  H32 UNL     1      -3.454   4.995  39.690  1.00  0.00     0.177 HD
ATOM     15  H31 UNL     1      -4.171   3.572  39.220  1.00  0.00     0.177 HD
ENDBRANCH   7  13
TORSDOF 3
ENDMDL
MODEL 3
REMARK VINA RESULT: -5.540025481      2.857      3.801
REMARK  3 active torsions:
REMARK  status: ('A' for Active; 'I' for Inactive)
REMARK    1  A    between atoms: C3_3  and  C4_4 
REMARK    2  A    between atoms: N1_7  and  O1_8 
REMARK    3  A    between atoms: N2_12  and  N3_13 
ROOT
HETATM    1  C1  UNL     1       0.883  -3.403  39.817  1.00  0.00     0.073 C 
HETATM    2  C2  UNL     1       1.757  -3.069  40.963  1.00  0.00     0.060 A 
HETATM    3  C3  UNL     1       1.389  -2.401  42.153  1.00  0.00     0.089 A 
HETATM    4  N1  UNL     1       2.519  -2.346  42.858  1.00  0.00    -0.209 N 
HETATM    5  C6  UNL     1       3.555  -2.936  42.179  1.00  0.00     0.127 A 
HETATM    6  C7  UNL     1       4.969  -3.064  42.655  1.00  0.00     0.093 C 
HETATM    7  N2  UNL     1       3.061  -3.369  41.023  1.00  0.00    -0.251 N 
ENDROOT
BRANCH   3   8
HETATM    8  C4  UNL     1       0.041  -1.960  42.358  1.00  0.00     0.041 C 
HETATM    9  C5  UNL     1      -0.517  -0.829  42.643  1.00  0.00     0.058 C 
HETATM   10 BR1  UNL     1       0.367   0.811  42.914  1.00  0.00    -0.064 Br
ENDBRANCH   3   8
BRANCH   4  11
HETATM   11  O1  UNL     1       2.706  -1.796  44.094  1.00  0.00    -0.281 OA
ATOM     12  H1  UNL     1       2.584  -0.890  44.352  1.00  0.00     0.245 HD
ENDBRANCH   4  11
BRANCH   7  13
HETATM   13  N3  UNL     1       3.803  -4.043  40.018  1.00  0.00    -0.337 N 
ATOM     14  H32 UNL     1       3.674  -3.924  39.013  1.00  0.00     0.177 HD
ATOM     15  H31 UNL     1       4.548  -4.720  40.181  1.00  0.00     0.177 HD
ENDBRANCH   7  13
TORSDOF 3
ENDMDL
MODEL 4
REMARK VINA RESULT: -5.334169107      4.618      6.508
REMARK  3 active torsions:
REMARK  status: ('A' for Active; 'I' for Inactive)
REMARK    1  A    between atoms: C3_3  and  C4_4 
REMARK    2  A    between atoms: N1_7  and  O1_8 
REMARK    3  A    between atoms: N2_12  and  N3_13 
ROOT
HETATM    1  C1  UNL     1       7.473  -4.737  44.244  1.00  0.00     0.073 C 
HETATM    2  C2  UNL     1       6.606  -3.547  44.387  1.00  0.00     0.060 A 
HETATM    3  C3  UNL     1       6.641  -2.583  45.420  1.00  0.00     0.089 A 
HETATM    4  N1  UNL     1       5.673  -1.725  45.097  1.00  0.00    -0.209 N 
HETATM    5  C6  UNL     1       5.047  -2.100  43.934  1.00  0.00     0.127 A 
HETATM    6  C7  UNL     1       3.917  -1.381  43.263  1.00  0.00     0.093 C 
HETATM    7  N2  UNL     1       5.638  -3.217  43.522  1.00  0.00    -0.251 N 
ENDROOT
BRANCH   3   8
HETATM    8  C4  UNL     1       7.587  -2.690  46.490  1.00  0.00     0.041 C 
HETATM    9  C5  UNL     1       8.669  -2.064  46.819  1.00  0.00     0.058 C 
HETATM   10 BR1  UNL     1       9.451  -0.627  45.885  1.00  0.00    -0.064 Br
ENDBRANCH   3   8
BRANCH   4  11
HETATM   11  O1  UNL     1       5.291  -0.602  45.773  1.00  0.00    -0.281 OA
ATOM     12  H1  UNL     1       5.742   0.233  45.815  1.00  0.00     0.245 HD
ENDBRANCH   4  11
BRANCH   7  13
HETATM   13  N3  UNL     1       5.293  -3.941  42.350  1.00  0.00    -0.337 N 
ATOM     14  H32 UNL     1       5.948  -4.236  41.627  1.00  0.00     0.177 HD
ATOM     15  H31 UNL     1       4.354  -4.249  42.095  1.00  0.00     0.177 HD
ENDBRANCH   7  13
TORSDOF 3
ENDMDL
MODEL 5
REMARK VINA RESULT: -5.268697411      3.026      4.236
REMARK  3 active torsions:
REMARK  status: ('A' for Active; 'I' for Inactive)
REMARK    1  A    between atoms: C3_3  and  C4_4 
REMARK    2  A    between atoms: N1_7  and  O1_8 
REMARK    3  A    between atoms: N2_12  and  N3_13 
ROOT
HETATM    1  C1  UNL     1       4.200  -2.806  42.977  1.00  0.00     0.073 C 
HETATM    2  C2  UNL     1       3.082  -2.978  42.022  1.00  0.00     0.060 A 
HETATM    3  C3  UNL     1       1.723  -2.651  42.229  1.00  0.00     0.089 A 
HETATM    4  N1  UNL     1       1.129  -2.991  41.085  1.00  0.00    -0.209 N 
HETATM    5  C6  UNL     1       2.035  -3.504  40.191  1.00  0.00     0.127 A 
HETATM    6  C7  UNL     1       1.736  -3.990  38.806  1.00  0.00     0.093 C 
HETATM    7  N2  UNL     1       3.221  -3.484  40.790  1.00  0.00    -0.251 N 
ENDROOT
BRANCH   3   8
HETATM    8  C4  UNL     1       1.286  -2.089  43.472  1.00  0.00     0.041 C 
HETATM    9  C5  UNL     1       0.609  -1.043  43.814  1.00  0.00     0.058 C 
HETATM   10 BR1  UNL     1      -0.118   0.243  42.645  1.00  0.00    -0.064 Br
ENDBRANCH   3   8
BRANCH   4  11
HETATM   11  O1  UNL     1      -0.194  -2.878  40.765  1.00  0.00    -0.281 OA
ATOM     12  H1  UNL     1      -0.943  -3.098  41.305  1.00  0.00     0.245 HD
ENDBRANCH   4  11
BRANCH   7  13
HETATM   13  N3  UNL     1       4.438  -3.929  40.210  1.00  0.00    -0.337 N 
ATOM     14  H32 UNL     1       4.673  -3.871  39.219  1.00  0.00     0.177 HD
ATOM     15  H31 UNL     1       5.216  -4.356  40.712  1.00  0.00     0.177 HD
ENDBRANCH   7  13
TORSDOF 3
ENDMDL
