MODEL 1
REMARK VINA RESULT: -5.380897519      0.000      0.000
REMARK  4 active torsions:
REMARK  status: ('A' for Active; 'I' for Inactive)
REMARK    1  A    between atoms: C2_2  and  C3_3 
REMARK    2  A    between atoms: C3_3  and  N1_6 
REMARK    3  A    between atoms: N1_6  and  C5_8 
REMARK    4  A    between atoms: C5_8  and  N2_10 
ROOT
HETATM    1  C5  UNL     1       2.100  -2.602  42.918  1.00  0.00     0.171 C 
HETATM    2  S1  UNL     1       0.863  -1.879  43.704  1.00  0.00    -0.041 SA
ENDROOT
BRANCH   1   3
HETATM    3  N1  UNL     1       3.382  -2.824  43.470  1.00  0.00    -0.345 N 
ATOM      4  H1  UNL     1       3.496  -3.695  43.987  1.00  0.00     0.163 HD
BRANCH   3   5
HETATM    5  C3  UNL     1       4.526  -1.999  43.401  1.00  0.00     0.105 C 
HETATM    6  C4  UNL     1       4.334  -0.679  42.710  1.00  0.00     0.056 C 
HETATM    7 CL1  UNL     1       5.189  -1.617  45.029  1.00  0.00    -0.096 Cl
BRANCH   5   8
HETATM    8  C2  UNL     1       5.640  -2.723  42.679  1.00  0.00     0.043 C 
HETATM    9  C1  UNL     1       6.423  -3.611  43.644  1.00  0.00     0.009 C 
ENDBRANCH   5   8
ENDBRANCH   3   5
ENDBRANCH   1   3
BRANCH   1  10
HETATM   10  N2  UNL     1       1.794  -3.023  41.587  1.00  0.00    -0.354 N 
HETATM   11  C6  UNL     1       0.506  -2.672  41.043  1.00  0.00     0.151 C 
HETATM   12  C7  UNL     1       0.285  -3.056  39.645  1.00  0.00     0.187 C 
HETATM   13  O1  UNL     1       1.052  -4.041  39.120  1.00  0.00    -0.388 OA
HETATM   14  C8  UNL     1       1.792  -4.779  40.002  1.00  0.00     0.187 C 
HETATM   15  C9  UNL     1       2.683  -3.773  40.748  1.00  0.00     0.151 C 
ENDBRANCH   1  10
TORSDOF 4
ENDMDL
MODEL 2
REMARK VINA RESULT: -5.371875974      7.480      9.157
REMARK  4 active torsions:
REMARK  status: ('A' for Active; 'I' for Inactive)
REMARK    1  A    between atoms: C2_2  and  C3_3 
REMARK    2  A    between atoms: C3_3  and  N1_6 
REMARK    3  A    between atoms: N1_6  and  C5_8 
REMARK    4  A    between atoms: C5_8  and  N2_10 
ROOT
HETATM    1  C5  UNL     1      -2.038   2.573  42.945  1.00  0.00     0.171 C 
HETATM    2  S1  UNL     1      -0.808   1.830  43.722  1.00  0.00    -0.041 SA
ENDROOT
BRANCH   1   3
HETATM    3  N1  UNL     1      -3.311   2.823  43.509  1.00  0.00    -0.345 N 
ATOM      4  H1  UNL     1      -3.391   3.680  44.056  1.00  0.00     0.163 HD
BRANCH   3   5
HETATM    5  C3  UNL     1      -4.484   2.044  43.416  1.00  0.00     0.105 C 
HETATM    6  C4  UNL     1      -4.334   0.726  42.711  1.00  0.00     0.056 C 
HETATM    7 CL1  UNL     1      -5.182   1.668  45.030  1.00  0.00    -0.096 Cl
BRANCH   5   8
HETATM    8  C2  UNL     1      -5.560   2.819  42.689  1.00  0.00     0.043 C 
HETATM    9  C1  UNL     1      -6.450   3.568  43.679  1.00  0.00     0.009 C 
ENDBRANCH   5   8
ENDBRANCH   3   5
ENDBRANCH   1   3
BRANCH   1  10
HETATM   10  N2  UNL     1      -1.738   2.982  41.610  1.00  0.00    -0.354 N 
HETATM   11  C6  UNL     1      -0.447   2.637  41.069  1.00  0.00     0.151 C 
HETATM   12  C7  UNL     1      -0.230   3.008  39.665  1.00  0.00     0.187 C 
HETATM   13  O1  UNL     1      -1.008   3.979  39.130  1.00  0.00    -0.388 OA
HETATM   14  C8  UNL     1      -1.755   4.719  40.004  1.00  0.00     0.187 C 
HETATM   15  C9  UNL     1      -2.634   3.714  40.763  1.00  0.00     0.151 C 
ENDBRANCH   1  10
TORSDOF 4
ENDMDL
MODEL 3
REMARK VINA RESULT: -5.288926313      0.979      1.272
REMARK  4 active torsions:
REMARK  status: ('A' for Active; 'I' for Inactive)
REMARK    1  A    between atoms: C2_2  and  C3_3 
REMARK    2  A    between atoms: C3_3  and  N1_6 
REMARK    3  A    between atoms: N1_6  and  C5_8 
REMARK    4  A    between atoms: C5_8  and  N2_10 
ROOT
HETATM    1  C5  UNL     1       2.153  -2.630  42.889  1.00  0.00     0.171 C 
HETATM    2  S1  UNL     1       0.933  -1.872  43.669  1.00  0.00    -0.041 SA
ENDROOT
BRANCH   1   3
HETATM    3  N1  UNL     1       3.428  -2.880  43.445  1.00  0.00    -0.345 N 
ATOM      4  H1  UNL     1       3.515  -3.742  43.982  1.00  0.00     0.163 HD
BRANCH   3   5
HETATM    5  C3  UNL     1       4.599  -2.095  43.355  1.00  0.00     0.105 C 
HETATM    6  C4  UNL     1       5.729  -2.702  42.573  1.00  0.00     0.056 C 
HETATM    7 CL1  UNL     1       4.285  -0.488  42.611  1.00  0.00    -0.096 Cl
BRANCH   5   8
HETATM    8  C2  UNL     1       5.125  -1.796  44.740  1.00  0.00     0.043 C 
HETATM    9  C1  UNL     1       6.540  -2.347  44.912  1.00  0.00     0.009 C 
ENDBRANCH   5   8
ENDBRANCH   3   5
ENDBRANCH   1   3
BRANCH   1  10
HETATM   10  N2  UNL     1       1.838  -3.050  41.561  1.00  0.00    -0.354 N 
HETATM   11  C6  UNL     1       0.543  -2.709  41.029  1.00  0.00     0.151 C 
HETATM   12  C7  UNL     1       0.312  -3.091  39.631  1.00  0.00     0.187 C 
HETATM   13  O1  UNL     1       1.083  -4.069  39.097  1.00  0.00    -0.388 OA
HETATM   14  C8  UNL     1       1.838  -4.802  39.970  1.00  0.00     0.187 C 
HETATM   15  C9  UNL     1       2.726  -3.790  40.711  1.00  0.00     0.151 C 
ENDBRANCH   1  10
TORSDOF 4
ENDMDL
MODEL 4
REMARK VINA RESULT: -5.177186740      3.044      5.311
REMARK  4 active torsions:
REMARK  status: ('A' for Active; 'I' for Inactive)
REMARK    1  A    between atoms: C2_2  and  C3_3 
REMARK    2  A    between atoms: C3_3  and  N1_6 
REMARK    3  A    between atoms: N1_6  and  C5_8 
REMARK    4  A    between atoms: C5_8  and  N2_10 
ROOT
HETATM    1  C5  UNL     1       2.967  -2.985  42.319  1.00  0.00     0.171 C 
HETATM    2  S1  UNL     1       1.777  -1.872  42.452  1.00  0.00    -0.041 SA
ENDROOT
BRANCH   1   3
HETATM    3  N1  UNL     1       2.826  -4.238  41.681  1.00  0.00    -0.345 N 
ATOM      4  H1  UNL     1       2.825  -5.051  42.297  1.00  0.00     0.163 HD
BRANCH   3   5
HETATM    5  C3  UNL     1       2.689  -4.515  40.303  1.00  0.00     0.105 C 
HETATM    6  C4  UNL     1       3.450  -3.608  39.379  1.00  0.00     0.056 C 
HETATM    7 CL1  UNL     1       3.200  -6.189  39.890  1.00  0.00    -0.096 Cl
BRANCH   5   8
HETATM    8  C2  UNL     1       1.232  -4.435  39.906  1.00  0.00     0.043 C 
HETATM    9  C1  UNL     1       1.038  -3.452  38.753  1.00  0.00     0.009 C 
ENDBRANCH   5   8
ENDBRANCH   3   5
ENDBRANCH   1   3
BRANCH   1  10
HETATM   10  N2  UNL     1       4.212  -2.596  42.902  1.00  0.00    -0.354 N 
HETATM   11  C6  UNL     1       5.251  -3.589  43.007  1.00  0.00     0.151 C 
HETATM   12  C7  UNL     1       6.534  -3.108  43.533  1.00  0.00     0.187 C 
HETATM   13  O1  UNL     1       6.542  -1.967  44.263  1.00  0.00    -0.388 OA
HETATM   14  C8  UNL     1       5.327  -1.491  44.673  1.00  0.00     0.187 C 
HETATM   15  C9  UNL     1       4.504  -1.280  43.392  1.00  0.00     0.151 C 
ENDBRANCH   1  10
TORSDOF 4
ENDMDL
MODEL 5
REMARK VINA RESULT: -5.175149545      2.745      4.944
REMARK  4 active torsions:
REMARK  status: ('A' for Active; 'I' for Inactive)
REMARK    1  A    between atoms: C2_2  and  C3_3 
REMARK    2  A    between atoms: C3_3  and  N1_6 
REMARK    3  A    between atoms: N1_6  and  C5_8 
REMARK    4  A    between atoms: C5_8  and  N2_10 
ROOT
HETATM    1  C5  UNL     1       2.240  -2.704  42.107  1.00  0.00     0.171 C 
HETATM    2  S1  UNL     1       1.147  -1.606  42.626  1.00  0.00    -0.041 SA
ENDROOT
BRANCH   1   3
HETATM    3  N1  UNL     1       1.927  -3.844  41.332  1.00  0.00    -0.345 N 
ATOM      4  H1  UNL     1       1.883  -4.727  41.841  1.00  0.00     0.163 HD
BRANCH   3   5
HETATM    5  C3  UNL     1       1.668  -3.923  39.946  1.00  0.00     0.105 C 
HETATM    6  C4  UNL     1       0.432  -3.210  39.476  1.00  0.00     0.056 C 
HETATM    7 CL1  UNL     1       3.024  -3.274  38.961  1.00  0.00    -0.096 Cl
BRANCH   5   8
HETATM    8  C2  UNL     1       1.532  -5.371  39.530  1.00  0.00     0.043 C 
HETATM    9  C1  UNL     1       2.775  -6.166  39.928  1.00  0.00     0.009 C 
ENDBRANCH   5   8
ENDBRANCH   3   5
ENDBRANCH   1   3
BRANCH   1  10
HETATM   10  N2  UNL     1       3.588  -2.428  42.491  1.00  0.00    -0.354 N 
HETATM   11  C6  UNL     1       4.576  -3.460  42.291  1.00  0.00     0.151 C 
HETATM   12  C7  UNL     1       5.955  -3.087  42.623  1.00  0.00     0.187 C 
HETATM   13  O1  UNL     1       6.155  -2.041  43.461  1.00  0.00    -0.388 OA
HETATM   14  C8  UNL     1       5.060  -1.579  44.138  1.00  0.00     0.187 C 
HETATM   15  C9  UNL     1       4.034  -1.190  43.062  1.00  0.00     0.151 C 
ENDBRANCH   1  10
TORSDOF 4
ENDMDL
