MODEL 1
REMARK VINA RESULT: -6.651367430      0.000      0.000
REMARK  10 active torsions:
REMARK  status: ('A' for Active; 'I' for Inactive)
REMARK    1  A    between atoms: C4_5  and  C5_6 
REMARK    2  A    between atoms: C5_6  and  O1_7 
REMARK    3  A    between atoms: O1_7  and  C6_8 
REMARK    4  A    between atoms: C6_8  and  C7_9 
REMARK    5  A    between atoms: C10_12  and  N1_13 
REMARK    6  A    between atoms: N1_13  and  C11_15 
REMARK    7  A    between atoms: C12_22  and  S2_23 
REMARK    8  A    between atoms: S2_23  and  C13_24 
REMARK    9  A    between atoms: C13_24  and  C14_25 
REMARK   10  A    between atoms: C15_31  and  O2_32 
ROOT
HETATM    1  N1  UNL     1     -26.041  -9.968  74.815  1.00  0.00    -0.218 N 
ATOM      2  H1  UNL     1     -25.568 -10.815  74.500  1.00  0.00     0.178 HD
ENDROOT
BRANCH   1   3
HETATM    3  C10 UNL     1     -27.025  -9.392  73.949  1.00  0.00     0.128 C 
HETATM    4  C9  UNL     1     -26.523  -9.614  72.512  1.00  0.00     0.029 C 
HETATM    5  C8  UNL     1     -27.793  -9.463  71.689  1.00  0.00     0.011 C 
HETATM    6  C7  UNL     1     -28.910  -9.882  72.574  1.00  0.00     0.040 C 
HETATM    7  C15 UNL     1     -28.335 -10.132  73.932  1.00  0.00     0.147 C 
BRANCH   6   8
HETATM    8  C6  UNL     1     -30.021  -8.828  72.703  1.00  0.00     0.175 C 
BRANCH   8   9
HETATM    9  O1  UNL     1     -29.889  -7.776  73.391  1.00  0.00    -0.384 OA
BRANCH   9  10
HETATM   10  C5  UNL     1     -29.470  -6.587  73.514  1.00  0.00     0.232 C 
BRANCH  10  11
HETATM   11  C4  UNL     1     -28.738  -6.286  74.798  1.00  0.00     0.075 A 
HETATM   12  S1  UNL     1     -29.358  -6.328  76.398  1.00  0.00    -0.085 SA
HETATM   13  C3  UNL     1     -27.930  -5.903  77.236  1.00  0.00     0.076 A 
HETATM   14  C2  UNL     1     -27.042  -5.750  76.201  1.00  0.00     0.012 A 
HETATM   15  C1  UNL     1     -25.604  -5.361  76.499  1.00  0.00     0.068 C 
HETATM   16  N6  UNL     1     -27.473  -5.948  75.002  1.00  0.00    -0.355 N 
ATOM     17  H6  UNL     1     -26.840  -5.844  74.210  1.00  0.00     0.166 HD
ENDBRANCH  10  11
ENDBRANCH   9  10
ENDBRANCH   8   9
ENDBRANCH   6   8
BRANCH   7  18
HETATM   18  O2  UNL     1     -28.036 -11.492  74.073  1.00  0.00    -0.393 OA
ATOM     19  H2  UNL     1     -28.813 -12.010  73.899  1.00  0.00     0.210 HD
ENDBRANCH   7  18
ENDBRANCH   1   3
BRANCH   1  20
HETATM   20  C11 UNL     1     -25.709  -9.485  75.974  1.00  0.00     0.696 A 
HETATM   21  N2  UNL     1     -26.589  -9.341  76.984  1.00  0.00    -0.118 N 
HETATM   22  N3  UNL     1     -26.239  -8.847  78.159  1.00  0.00    -0.226 N 
ATOM     23  H2  UNL     1     -27.559  -9.622  76.838  1.00  0.00     0.207 HD
HETATM   24  N4  UNL     1     -24.990  -8.475  78.383  1.00  0.00    -0.264 N 
ATOM     25  H3  UNL     1     -26.936  -8.753  78.898  1.00  0.00     0.209 HD
HETATM   26  C12 UNL     1     -24.067  -8.601  77.399  1.00  0.00     0.175 A 
ATOM     27  H4  UNL     1     -24.723  -8.094  79.291  1.00  0.00     0.190 HD
HETATM   28  N5  UNL     1     -24.439  -9.111  76.191  1.00  0.00    -0.168 N 
ATOM     29  H5  UNL     1     -23.747  -9.209  75.448  1.00  0.00     0.186 HD
BRANCH  26  30
HETATM   30  S2  UNL     1     -22.393  -8.103  77.723  1.00  0.00    -0.083 SA
BRANCH  30  31
HETATM   31  C13 UNL     1     -21.180  -8.927  76.690  1.00  0.00     0.199 C 
BRANCH  31  32
HETATM   32  C14 UNL     1     -19.803  -8.328  76.857  1.00  0.00     0.396 C 
HETATM   33  F1  UNL     1     -19.724  -7.014  76.510  1.00  0.00    -0.170 F 
HETATM   34  F2  UNL     1     -18.934  -9.022  76.010  1.00  0.00    -0.170 F 
HETATM   35  F3  UNL     1     -19.352  -8.523  78.151  1.00  0.00    -0.170 F 
ENDBRANCH  31  32
ENDBRANCH  30  31
ENDBRANCH  26  30
ENDBRANCH   1  20
TORSDOF 10
ENDMDL
MODEL 2
REMARK VINA RESULT: -6.411079872      3.858      6.984
REMARK  10 active torsions:
REMARK  status: ('A' for Active; 'I' for Inactive)
REMARK    1  A    between atoms: C4_5  and  C5_6 
REMARK    2  A    between atoms: C5_6  and  O1_7 
REMARK    3  A    between atoms: O1_7  and  C6_8 
REMARK    4  A    between atoms: C6_8  and  C7_9 
REMARK    5  A    between atoms: C10_12  and  N1_13 
REMARK    6  A    between atoms: N1_13  and  C11_15 
REMARK    7  A    between atoms: C12_22  and  S2_23 
REMARK    8  A    between atoms: S2_23  and  C13_24 
REMARK    9  A    between atoms: C13_24  and  C14_25 
REMARK   10  A    between atoms: C15_31  and  O2_32 
ROOT
HETATM    1  N1  UNL     1     -28.181  -6.619  75.713  1.00  0.00    -0.218 N 
ATOM      2  H1  UNL     1     -28.187  -5.600  75.672  1.00  0.00     0.178 HD
ENDROOT
BRANCH   1   3
HETATM    3  C10 UNL     1     -27.489  -7.238  76.804  1.00  0.00     0.128 C 
HETATM    4  C9  UNL     1     -27.784  -8.744  76.706  1.00  0.00     0.029 C 
HETATM    5  C8  UNL     1     -26.656  -9.358  77.523  1.00  0.00     0.011 C 
HETATM    6  C7  UNL     1     -25.509  -8.419  77.412  1.00  0.00     0.040 C 
HETATM    7  C15 UNL     1     -25.990  -7.210  76.674  1.00  0.00     0.147 C 
BRANCH   6   8
HETATM    8  C6  UNL     1     -24.951  -7.968  78.771  1.00  0.00     0.175 C 
BRANCH   8   9
HETATM    9  O1  UNL     1     -23.859  -8.399  79.239  1.00  0.00    -0.384 OA
BRANCH   9  10
HETATM   10  C5  UNL     1     -22.714  -8.185  79.738  1.00  0.00     0.232 C 
BRANCH  10  11
HETATM   11  C4  UNL     1     -21.598  -7.996  78.742  1.00  0.00     0.075 A 
HETATM   12  S1  UNL     1     -20.815  -6.533  78.301  1.00  0.00    -0.085 SA
HETATM   13  C3  UNL     1     -19.694  -7.170  77.179  1.00  0.00     0.076 A 
HETATM   14  C2  UNL     1     -20.003  -8.507  77.216  1.00  0.00     0.012 A 
HETATM   15  C1  UNL     1     -19.227  -9.479  76.344  1.00  0.00     0.068 C 
HETATM   16  N6  UNL     1     -20.952  -8.886  78.001  1.00  0.00    -0.355 N 
ATOM     17  H6  UNL     1     -21.207  -9.872  78.054  1.00  0.00     0.166 HD
ENDBRANCH  10  11
ENDBRANCH   9  10
ENDBRANCH   8   9
ENDBRANCH   6   8
BRANCH   7  18
HETATM   18  O2  UNL     1     -25.698  -7.345  75.312  1.00  0.00    -0.393 OA
ATOM     19  H2  UNL     1     -26.484  -7.590  74.839  1.00  0.00     0.210 HD
ENDBRANCH   7  18
ENDBRANCH   1   3
BRANCH   1  20
HETATM   20  C11 UNL     1     -28.800  -7.267  74.773  1.00  0.00     0.696 A 
HETATM   21  N2  UNL     1     -30.141  -7.391  74.731  1.00  0.00    -0.118 N 
HETATM   22  N3  UNL     1     -30.757  -8.053  73.769  1.00  0.00    -0.226 N 
ATOM     23  H2  UNL     1     -30.699  -6.958  75.468  1.00  0.00     0.207 HD
HETATM   24  N4  UNL     1     -30.064  -8.624  72.798  1.00  0.00    -0.264 N 
ATOM     25  H3  UNL     1     -31.775  -8.124  73.774  1.00  0.00     0.209 HD
HETATM   26  C12 UNL     1     -28.713  -8.527  72.794  1.00  0.00     0.175 A 
ATOM     27  H4  UNL     1     -30.544  -9.134  72.057  1.00  0.00     0.190 HD
HETATM   28  N5  UNL     1     -28.086  -7.842  73.792  1.00  0.00    -0.168 N 
ATOM     29  H5  UNL     1     -27.069  -7.766  73.793  1.00  0.00     0.186 HD
BRANCH  26  30
HETATM   30  S2  UNL     1     -27.801  -9.294  71.477  1.00  0.00    -0.083 SA
BRANCH  30  31
HETATM   31  C13 UNL     1     -26.103  -9.683  71.904  1.00  0.00     0.199 C 
BRANCH  31  32
HETATM   32  C14 UNL     1     -26.024 -10.772  72.949  1.00  0.00     0.396 C 
HETATM   33  F1  UNL     1     -24.930 -11.573  72.833  1.00  0.00    -0.170 F 
HETATM   34  F2  UNL     1     -27.144 -11.592  72.790  1.00  0.00    -0.170 F 
HETATM   35  F3  UNL     1     -26.098 -10.222  74.217  1.00  0.00    -0.170 F 
ENDBRANCH  31  32
ENDBRANCH  30  31
ENDBRANCH  26  30
ENDBRANCH   1  20
TORSDOF 10
ENDMDL
MODEL 3
REMARK VINA RESULT: -6.365977125      5.315      7.526
REMARK  10 active torsions:
REMARK  status: ('A' for Active; 'I' for Inactive)
REMARK    1  A    between atoms: C4_5  and  C5_6 
REMARK    2  A    between atoms: C5_6  and  O1_7 
REMARK    3  A    between atoms: O1_7  and  C6_8 
REMARK    4  A    between atoms: C6_8  and  C7_9 
REMARK    5  A    between atoms: C10_12  and  N1_13 
REMARK    6  A    between atoms: N1_13  and  C11_15 
REMARK    7  A    between atoms: C12_22  and  S2_23 
REMARK    8  A    between atoms: S2_23  and  C13_24 
REMARK    9  A    between atoms: C13_24  and  C14_25 
REMARK   10  A    between atoms: C15_31  and  O2_32 
ROOT
HETATM    1  N1  UNL     1     -29.486  -4.613  74.479  1.00  0.00    -0.218 N 
ATOM      2  H1  UNL     1     -28.949  -3.765  74.664  1.00  0.00     0.178 HD
ENDROOT
BRANCH   1   3
HETATM    3  C10 UNL     1     -30.906  -4.487  74.346  1.00  0.00     0.128 C 
HETATM    4  C9  UNL     1     -31.342  -3.404  75.346  1.00  0.00     0.029 C 
HETATM    5  C8  UNL     1     -32.697  -2.975  74.803  1.00  0.00     0.011 C 
HETATM    6  C7  UNL     1     -32.645  -3.205  73.336  1.00  0.00     0.040 C 
HETATM    7  C15 UNL     1     -31.349  -3.891  73.037  1.00  0.00     0.147 C 
BRANCH   6   8
HETATM    8  C6  UNL     1     -33.792  -4.083  72.811  1.00  0.00     0.175 C 
BRANCH   8   9
HETATM    9  O1  UNL     1     -34.227  -5.090  73.440  1.00  0.00    -0.384 OA
BRANCH   9  10
HETATM   10  C5  UNL     1     -34.128  -6.309  73.767  1.00  0.00     0.232 C 
BRANCH  10  11
HETATM   11  C4  UNL     1     -34.587  -6.645  75.163  1.00  0.00     0.075 A 
HETATM   12  S1  UNL     1     -33.734  -6.420  76.636  1.00  0.00    -0.085 SA
HETATM   13  C3  UNL     1     -34.923  -7.010  77.713  1.00  0.00     0.076 A 
HETATM   14  C2  UNL     1     -35.930  -7.354  76.845  1.00  0.00     0.012 A 
HETATM   15  C1  UNL     1     -37.221  -7.940  77.391  1.00  0.00     0.068 C 
HETATM   16  N6  UNL     1     -35.733  -7.161  75.586  1.00  0.00    -0.355 N 
ATOM     17  H6  UNL     1     -36.460  -7.404  74.914  1.00  0.00     0.166 HD
ENDBRANCH  10  11
ENDBRANCH   9  10
ENDBRANCH   8   9
ENDBRANCH   6   8
BRANCH   7  18
HETATM   18  O2  UNL     1     -30.387  -2.941  72.677  1.00  0.00    -0.393 OA
ATOM     19  H2  UNL     1     -29.523  -3.254  72.918  1.00  0.00     0.210 HD
ENDBRANCH   7  18
ENDBRANCH   1   3
BRANCH   1  20
HETATM   20  C11 UNL     1     -28.835  -5.733  74.380  1.00  0.00     0.696 A 
HETATM   21  N2  UNL     1     -27.615  -5.918  74.920  1.00  0.00    -0.118 N 
HETATM   22  N3  UNL     1     -26.963  -7.062  74.811  1.00  0.00    -0.226 N 
ATOM     23  H2  UNL     1     -27.179  -5.150  75.430  1.00  0.00     0.207 HD
HETATM   24  N4  UNL     1     -27.500  -8.079  74.157  1.00  0.00    -0.264 N 
ATOM     25  H3  UNL     1     -26.040  -7.162  75.234  1.00  0.00     0.209 HD
HETATM   26  C12 UNL     1     -28.725  -7.943  73.597  1.00  0.00     0.175 A 
ATOM     27  H4  UNL     1     -26.994  -8.961  74.075  1.00  0.00     0.190 HD
HETATM   28  N5  UNL     1     -29.389  -6.758  73.714  1.00  0.00    -0.168 N 
ATOM     29  H5  UNL     1     -30.313  -6.651  73.295  1.00  0.00     0.186 HD
BRANCH  26  30
HETATM   30  S2  UNL     1     -29.432  -9.323  72.730  1.00  0.00    -0.083 SA
BRANCH  30  31
HETATM   31  C13 UNL     1     -28.223 -10.334  71.872  1.00  0.00     0.199 C 
BRANCH  31  32
HETATM   32  C14 UNL     1     -27.652 -11.407  72.770  1.00  0.00     0.396 C 
HETATM   33  F1  UNL     1     -27.969 -12.675  72.390  1.00  0.00    -0.170 F 
HETATM   34  F2  UNL     1     -28.190 -11.221  74.046  1.00  0.00    -0.170 F 
HETATM   35  F3  UNL     1     -26.280 -11.255  72.881  1.00  0.00    -0.170 F 
ENDBRANCH  31  32
ENDBRANCH  30  31
ENDBRANCH  26  30
ENDBRANCH   1  20
TORSDOF 10
ENDMDL
MODEL 4
REMARK VINA RESULT: -6.344056806      4.088      7.527
REMARK  10 active torsions:
REMARK  status: ('A' for Active; 'I' for Inactive)
REMARK    1  A    between atoms: C4_5  and  C5_6 
REMARK    2  A    between atoms: C5_6  and  O1_7 
REMARK    3  A    between atoms: O1_7  and  C6_8 
REMARK    4  A    between atoms: C6_8  and  C7_9 
REMARK    5  A    between atoms: C10_12  and  N1_13 
REMARK    6  A    between atoms: N1_13  and  C11_15 
REMARK    7  A    between atoms: C12_22  and  S2_23 
REMARK    8  A    between atoms: S2_23  and  C13_24 
REMARK    9  A    between atoms: C13_24  and  C14_25 
REMARK   10  A    between atoms: C15_31  and  O2_32 
ROOT
HETATM    1  N1  UNL     1     -27.279  -6.409  75.392  1.00  0.00    -0.218 N 
ATOM      2  H1  UNL     1     -26.959  -5.488  75.092  1.00  0.00     0.178 HD
ENDROOT
BRANCH   1   3
HETATM    3  C10 UNL     1     -26.490  -7.105  76.364  1.00  0.00     0.128 C 
HETATM    4  C9  UNL     1     -27.314  -8.328  76.798  1.00  0.00     0.029 C 
HETATM    5  C8  UNL     1     -26.258  -9.248  77.392  1.00  0.00     0.011 C 
HETATM    6  C7  UNL     1     -24.991  -8.931  76.683  1.00  0.00     0.040 C 
HETATM    7  C15 UNL     1     -25.255  -7.754  75.799  1.00  0.00     0.147 C 
BRANCH   6   8
HETATM    8  C6  UNL     1     -23.830  -8.580  77.627  1.00  0.00     0.175 C 
BRANCH   8   9
HETATM    9  O1  UNL     1     -22.682  -8.256  77.209  1.00  0.00    -0.384 OA
BRANCH   9  10
HETATM   10  C5  UNL     1     -21.537  -8.580  76.775  1.00  0.00     0.232 C 
BRANCH  10  11
HETATM   11  C4  UNL     1     -20.434  -8.594  77.804  1.00  0.00     0.075 A 
HETATM   12  S1  UNL     1     -19.429  -7.290  78.289  1.00  0.00    -0.085 SA
HETATM   13  C3  UNL     1     -18.502  -8.106  79.470  1.00  0.00     0.076 A 
HETATM   14  C2  UNL     1     -19.040  -9.368  79.414  1.00  0.00     0.012 A 
HETATM   15  C1  UNL     1     -18.498 -10.455  80.326  1.00  0.00     0.068 C 
HETATM   16  N6  UNL     1     -19.998  -9.579  78.577  1.00  0.00    -0.355 N 
ATOM     17  H6  UNL     1     -20.421 -10.504  78.510  1.00  0.00     0.166 HD
ENDBRANCH  10  11
ENDBRANCH   9  10
ENDBRANCH   8   9
ENDBRANCH   6   8
BRANCH   7  18
HETATM   18  O2  UNL     1     -25.580  -8.196  74.512  1.00  0.00    -0.393 OA
ATOM     19  H2  UNL     1     -24.877  -8.739  74.174  1.00  0.00     0.210 HD
ENDBRANCH   7  18
ENDBRANCH   1   3
BRANCH   1  20
HETATM   20  C11 UNL     1     -28.373  -6.871  74.867  1.00  0.00     0.696 A 
HETATM   21  N2  UNL     1     -29.596  -6.423  75.212  1.00  0.00    -0.118 N 
HETATM   22  N3  UNL     1     -30.701  -6.902  74.670  1.00  0.00    -0.226 N 
ATOM     23  H2  UNL     1     -29.670  -5.687  75.916  1.00  0.00     0.207 HD
HETATM   24  N4  UNL     1     -30.639  -7.854  73.754  1.00  0.00    -0.264 N 
ATOM     25  H3  UNL     1     -31.608  -6.535  74.960  1.00  0.00     0.209 HD
HETATM   26  C12 UNL     1     -29.433  -8.338  73.372  1.00  0.00     0.175 A 
ATOM     27  H4  UNL     1     -31.495  -8.222  73.338  1.00  0.00     0.190 HD
HETATM   28  N5  UNL     1     -28.299  -7.837  73.937  1.00  0.00    -0.168 N 
ATOM     29  H5  UNL     1     -27.389  -8.198  73.652  1.00  0.00     0.186 HD
BRANCH  26  30
HETATM   30  S2  UNL     1     -29.372  -9.610  72.134  1.00  0.00    -0.083 SA
BRANCH  30  31
HETATM   31  C13 UNL     1     -27.714 -10.201  71.785  1.00  0.00     0.199 C 
BRANCH  31  32
HETATM   32  C14 UNL     1     -27.236 -11.177  72.836  1.00  0.00     0.396 C 
HETATM   33  F1  UNL     1     -27.574 -10.831  74.108  1.00  0.00    -0.170 F 
HETATM   34  F2  UNL     1     -25.840 -11.205  72.782  1.00  0.00    -0.170 F 
HETATM   35  F3  UNL     1     -27.681 -12.454  72.538  1.00  0.00    -0.170 F 
ENDBRANCH  31  32
ENDBRANCH  30  31
ENDBRANCH  26  30
ENDBRANCH   1  20
TORSDOF 10
ENDMDL
MODEL 5
REMARK VINA RESULT: -6.330467861      2.130      3.893
REMARK  10 active torsions:
REMARK  status: ('A' for Active; 'I' for Inactive)
REMARK    1  A    between atoms: C4_5  and  C5_6 
REMARK    2  A    between atoms: C5_6  and  O1_7 
REMARK    3  A    between atoms: O1_7  and  C6_8 
REMARK    4  A    between atoms: C6_8  and  C7_9 
REMARK    5  A    between atoms: C10_12  and  N1_13 
REMARK    6  A    between atoms: N1_13  and  C11_15 
REMARK    7  A    between atoms: C12_22  and  S2_23 
REMARK    8  A    between atoms: S2_23  and  C13_24 
REMARK    9  A    between atoms: C13_24  and  C14_25 
REMARK   10  A    between atoms: C15_31  and  O2_32 
ROOT
HETATM    1  N1  UNL     1     -24.702  -8.413  76.914  1.00  0.00    -0.218 N 
ATOM      2  H1  UNL     1     -24.418  -8.920  76.075  1.00  0.00     0.178 HD
ENDROOT
BRANCH   1   3
HETATM    3  C10 UNL     1     -25.928  -7.675  76.863  1.00  0.00     0.128 C 
HETATM    4  C9  UNL     1     -25.539  -6.188  76.826  1.00  0.00     0.029 C 
HETATM    5  C8  UNL     1     -26.792  -5.530  76.268  1.00  0.00     0.011 C 
HETATM    6  C7  UNL     1     -27.445  -6.550  75.408  1.00  0.00     0.040 C 
HETATM    7  C15 UNL     1     -26.682  -7.827  75.569  1.00  0.00     0.147 C 
BRANCH   6   8
HETATM    8  C6  UNL     1     -28.915  -6.813  75.774  1.00  0.00     0.175 C 
BRANCH   8   9
HETATM    9  O1  UNL     1     -29.667  -7.562  75.087  1.00  0.00    -0.384 OA
BRANCH   9  10
HETATM   10  C5  UNL     1     -30.035  -8.021  73.966  1.00  0.00     0.232 C 
BRANCH  10  11
HETATM   11  C4  UNL     1     -28.998  -8.826  73.223  1.00  0.00     0.075 A 
HETATM   12  S1  UNL     1     -28.614 -10.488  73.421  1.00  0.00    -0.085 SA
HETATM   13  C3  UNL     1     -27.397 -10.613  72.227  1.00  0.00     0.076 A 
HETATM   14  C2  UNL     1     -27.362  -9.330  71.739  1.00  0.00     0.012 A 
HETATM   15  C1  UNL     1     -26.390  -8.979  70.626  1.00  0.00     0.068 C 
HETATM   16  N6  UNL     1     -28.169  -8.466  72.254  1.00  0.00    -0.355 N 
ATOM     17  H6  UNL     1     -28.169  -7.505  71.914  1.00  0.00     0.166 HD
ENDBRANCH  10  11
ENDBRANCH   9  10
ENDBRANCH   8   9
ENDBRANCH   6   8
BRANCH   7  18
HETATM   18  O2  UNL     1     -25.726  -7.934  74.552  1.00  0.00    -0.393 OA
ATOM     19  H2  UNL     1     -25.654  -8.841  74.277  1.00  0.00     0.210 HD
ENDBRANCH   7  18
ENDBRANCH   1   3
BRANCH   1  20
HETATM   20  C11 UNL     1     -23.928  -8.482  77.955  1.00  0.00     0.696 A 
HETATM   21  N2  UNL     1     -24.362  -8.890  79.163  1.00  0.00    -0.118 N 
HETATM   22  N3  UNL     1     -23.563  -8.954  80.213  1.00  0.00    -0.226 N 
ATOM     23  H2  UNL     1     -25.340  -9.159  79.270  1.00  0.00     0.207 HD
HETATM   24  N4  UNL     1     -22.289  -8.613  80.108  1.00  0.00    -0.264 N 
ATOM     25  H3  UNL     1     -23.931  -9.268  81.111  1.00  0.00     0.209 HD
HETATM   26  C12 UNL     1     -21.804  -8.197  78.914  1.00  0.00     0.175 A 
ATOM     27  H4  UNL     1     -21.676  -8.664  80.921  1.00  0.00     0.190 HD
HETATM   28  N5  UNL     1     -22.636  -8.135  77.836  1.00  0.00    -0.168 N 
ATOM     29  H5  UNL     1     -22.276  -7.823  76.935  1.00  0.00     0.186 HD
BRANCH  26  30
HETATM   30  S2  UNL     1     -20.089  -7.754  78.792  1.00  0.00    -0.083 SA
BRANCH  30  31
HETATM   31  C13 UNL     1     -19.084  -8.977  77.948  1.00  0.00     0.199 C 
BRANCH  31  32
HETATM   32  C14 UNL     1     -19.495  -9.140  76.503  1.00  0.00     0.396 C 
HETATM   33  F1  UNL     1     -18.498  -9.583  75.689  1.00  0.00    -0.170 F 
HETATM   34  F2  UNL     1     -19.875  -7.882  76.027  1.00  0.00    -0.170 F 
HETATM   35  F3  UNL     1     -20.606  -9.962  76.413  1.00  0.00    -0.170 F 
ENDBRANCH  31  32
ENDBRANCH  30  31
ENDBRANCH  26  30
ENDBRANCH   1  20
TORSDOF 10
ENDMDL
