MODEL 1
REMARK VINA RESULT: -7.357885223      0.000      0.000
REMARK  8 active torsions:
REMARK  status: ('A' for Active; 'I' for Inactive)
REMARK    1  A    between atoms: C2_2  and  N1_3 
REMARK    2  A    between atoms: N1_3  and  C3_4 
REMARK    3  A    between atoms: N1_3  and  C9_17 
REMARK    4  A    between atoms: C3_4  and  C4_5 
REMARK    5  A    between atoms: C4_5  and  S1_6 
REMARK    6  A    between atoms: S1_6  and  C5_7 
REMARK    7  A    between atoms: C6_10  and  C7_11 
REMARK    8  A    between atoms: C11_26  and  N6_27 
ROOT
HETATM    1  C9  UNL     1     -23.672  -7.890  78.178  1.00  0.00     0.709 A 
HETATM    2  N3  UNL     1     -23.466  -6.580  78.461  1.00  0.00    -0.022 N 
ATOM      3  H3  UNL     1     -24.286  -5.981  78.558  1.00  0.00     0.203 HD
HETATM    4  C10 UNL     1     -22.279  -6.026  78.621  1.00  0.00     0.705 A 
HETATM    5  N4  UNL     1     -22.060  -4.777  78.872  1.00  0.00    -0.234 N 
ATOM      6  H41 UNL     1     -21.143  -4.348  78.996  1.00  0.00     0.174 HD
ATOM      7  H42 UNL     1     -22.878  -4.174  78.967  1.00  0.00     0.174 HD
HETATM    8  N5  UNL     1     -21.177  -6.837  78.493  1.00  0.00    -0.022 N 
ATOM      9  H5  UNL     1     -20.247  -6.435  78.614  1.00  0.00     0.203 HD
HETATM   10  C11 UNL     1     -21.294  -8.153  78.212  1.00  0.00     0.709 A 
HETATM   11  N7  UNL     1     -22.535  -8.619  78.069  1.00  0.00    -0.021 N 
ATOM     12  H7  UNL     1     -22.638  -9.612  77.859  1.00  0.00     0.203 HD
ENDROOT
BRANCH   1  13
HETATM   13  N1  UNL     1     -24.926  -8.523  78.039  1.00  0.00    -0.216 N 
BRANCH  13  14
HETATM   14  C2  UNL     1     -25.737  -8.647  79.284  1.00  0.00     0.137 C 
HETATM   15  C1  UNL     1     -26.868  -9.623  78.951  1.00  0.00     0.027 C 
ENDBRANCH  13  14
BRANCH  13  16
HETATM   16  C3  UNL     1     -25.538  -8.991  76.843  1.00  0.00     0.151 C 
BRANCH  16  17
HETATM   17  C4  UNL     1     -25.824  -8.052  75.740  1.00  0.00     0.101 C 
BRANCH  17  18
HETATM   18  S1  UNL     1     -27.671  -8.088  75.562  1.00  0.00    -0.103 SA
BRANCH  18  19
HETATM   19  C5  UNL     1     -27.997  -8.725  73.892  1.00  0.00     0.112 A 
HETATM   20  N2  UNL     1     -27.222  -8.597  72.828  1.00  0.00    -0.341 N 
HETATM   21  C6  UNL     1     -27.596  -9.118  71.692  1.00  0.00     0.124 A 
ATOM     22  H2  UNL     1     -26.336  -8.094  72.894  1.00  0.00     0.167 HD
HETATM   23  C8  UNL     1     -28.793  -9.785  71.663  1.00  0.00     0.086 A 
HETATM   24  S2  UNL     1     -29.310  -9.614  73.283  1.00  0.00    -0.075 SA
BRANCH  21  25
HETATM   25  C7  UNL     1     -26.736  -8.955  70.442  1.00  0.00     0.433 C 
HETATM   26  F1  UNL     1     -27.234  -9.855  69.511  1.00  0.00    -0.165 F 
HETATM   27  F2  UNL     1     -25.441  -9.198  70.750  1.00  0.00    -0.165 F 
HETATM   28  F3  UNL     1     -26.853  -7.684  69.926  1.00  0.00    -0.165 F 
ENDBRANCH  21  25
ENDBRANCH  18  19
ENDBRANCH  17  18
ENDBRANCH  16  17
ENDBRANCH  13  16
ENDBRANCH   1  13
BRANCH  10  29
HETATM   29  N6  UNL     1     -20.133  -8.941  78.082  1.00  0.00    -0.213 N 
HETATM   30  C12 UNL     1     -19.057  -8.965  79.048  1.00  0.00     0.167 C 
HETATM   31  C13 UNL     1     -18.995 -10.379  79.619  1.00  0.00     0.188 C 
HETATM   32  O1  UNL     1     -19.293 -11.324  78.657  1.00  0.00    -0.388 OA
HETATM   33  C14 UNL     1     -19.014 -10.929  77.377  1.00  0.00     0.188 C 
HETATM   34  C15 UNL     1     -19.952  -9.793  76.917  1.00  0.00     0.167 C 
ENDBRANCH  10  29
TORSDOF 8
ENDMDL
MODEL 2
REMARK VINA RESULT: -7.327894642      1.809      2.443
REMARK  8 active torsions:
REMARK  status: ('A' for Active; 'I' for Inactive)
REMARK    1  A    between atoms: C2_2  and  N1_3 
REMARK    2  A    between atoms: N1_3  and  C3_4 
REMARK    3  A    between atoms: N1_3  and  C9_17 
REMARK    4  A    between atoms: C3_4  and  C4_5 
REMARK    5  A    between atoms: C4_5  and  S1_6 
REMARK    6  A    between atoms: S1_6  and  C5_7 
REMARK    7  A    between atoms: C6_10  and  C7_11 
REMARK    8  A    between atoms: C11_26  and  N6_27 
ROOT
HETATM    1  C9  UNL     1     -25.004  -8.404  77.325  1.00  0.00     0.709 A 
HETATM    2  N3  UNL     1     -25.200  -8.624  78.648  1.00  0.00    -0.022 N 
ATOM      3  H3  UNL     1     -26.160  -8.738  78.973  1.00  0.00     0.203 HD
HETATM    4  C10 UNL     1     -24.236  -8.701  79.545  1.00  0.00     0.705 A 
HETATM    5  N4  UNL     1     -24.402  -8.890  80.814  1.00  0.00    -0.234 N 
ATOM      6  H41 UNL     1     -23.656  -8.950  81.507  1.00  0.00     0.174 HD
ATOM      7  H42 UNL     1     -25.361  -9.003  81.142  1.00  0.00     0.174 HD
HETATM    8  N5  UNL     1     -22.943  -8.549  79.103  1.00  0.00    -0.022 N 
ATOM      9  H5  UNL     1     -22.178  -8.606  79.776  1.00  0.00     0.203 HD
HETATM   10  C11 UNL     1     -22.661  -8.327  77.801  1.00  0.00     0.709 A 
HETATM   11  N7  UNL     1     -23.703  -8.266  76.972  1.00  0.00    -0.021 N 
ATOM     12  H7  UNL     1     -23.504  -8.101  75.985  1.00  0.00     0.203 HD
ENDROOT
BRANCH   1  13
HETATM   13  N1  UNL     1     -26.008  -8.355  76.332  1.00  0.00    -0.216 N 
BRANCH  13  14
HETATM   14  C2  UNL     1     -25.943  -9.413  75.284  1.00  0.00     0.137 C 
HETATM   15  C1  UNL     1     -27.247 -10.205  75.408  1.00  0.00     0.027 C 
ENDBRANCH  13  14
BRANCH  13  16
HETATM   16  C3  UNL     1     -27.112  -7.463  76.254  1.00  0.00     0.151 C 
BRANCH  16  17
HETATM   17  C4  UNL     1     -26.945  -6.125  75.652  1.00  0.00     0.101 C 
BRANCH  17  18
HETATM   18  S1  UNL     1     -28.559  -5.792  74.797  1.00  0.00    -0.103 SA
BRANCH  18  19
HETATM   19  C5  UNL     1     -28.876  -7.243  73.752  1.00  0.00     0.112 A 
HETATM   20  N2  UNL     1     -28.071  -7.754  72.835  1.00  0.00    -0.341 N 
HETATM   21  C6  UNL     1     -28.443  -8.808  72.166  1.00  0.00     0.124 A 
ATOM     22  H2  UNL     1     -27.163  -7.324  72.653  1.00  0.00     0.167 HD
HETATM   23  C8  UNL     1     -29.671  -9.344  72.455  1.00  0.00     0.086 A 
HETATM   24  S2  UNL     1     -30.217  -8.283  73.678  1.00  0.00    -0.075 SA
BRANCH  21  25
HETATM   25  C7  UNL     1     -27.546  -9.396  71.080  1.00  0.00     0.433 C 
HETATM   26  F1  UNL     1     -26.656 -10.239  71.729  1.00  0.00    -0.165 F 
HETATM   27  F2  UNL     1     -26.919  -8.395  70.420  1.00  0.00    -0.165 F 
HETATM   28  F3  UNL     1     -28.281 -10.143  70.186  1.00  0.00    -0.165 F 
ENDBRANCH  21  25
ENDBRANCH  18  19
ENDBRANCH  17  18
ENDBRANCH  16  17
ENDBRANCH  13  16
ENDBRANCH   1  13
BRANCH  10  29
HETATM   29  N6  UNL     1     -21.319  -8.170  77.399  1.00  0.00    -0.213 N 
HETATM   30  C12 UNL     1     -20.484  -7.053  77.783  1.00  0.00     0.167 C 
HETATM   31  C13 UNL     1     -19.338  -7.615  78.621  1.00  0.00     0.188 C 
HETATM   32  O1  UNL     1     -18.940  -8.855  78.162  1.00  0.00    -0.388 OA
HETATM   33  C14 UNL     1     -19.180  -9.065  76.831  1.00  0.00     0.188 C 
HETATM   34  C15 UNL     1     -20.692  -9.159  76.536  1.00  0.00     0.167 C 
ENDBRANCH  10  29
TORSDOF 8
ENDMDL
MODEL 3
REMARK VINA RESULT: -7.086365837      0.995      1.240
REMARK  8 active torsions:
REMARK  status: ('A' for Active; 'I' for Inactive)
REMARK    1  A    between atoms: C2_2  and  N1_3 
REMARK    2  A    between atoms: N1_3  and  C3_4 
REMARK    3  A    between atoms: N1_3  and  C9_17 
REMARK    4  A    between atoms: C3_4  and  C4_5 
REMARK    5  A    between atoms: C4_5  and  S1_6 
REMARK    6  A    between atoms: S1_6  and  C5_7 
REMARK    7  A    between atoms: C6_10  and  C7_11 
REMARK    8  A    between atoms: C11_26  and  N6_27 
ROOT
HETATM    1  C9  UNL     1     -23.596  -7.909  78.066  1.00  0.00     0.709 A 
HETATM    2  N3  UNL     1     -23.396  -6.609  78.392  1.00  0.00    -0.022 N 
ATOM      3  H3  UNL     1     -24.217  -6.008  78.469  1.00  0.00     0.203 HD
HETATM    4  C10 UNL     1     -22.216  -6.065  78.617  1.00  0.00     0.705 A 
HETATM    5  N4  UNL     1     -22.003  -4.824  78.909  1.00  0.00    -0.234 N 
ATOM      6  H41 UNL     1     -21.090  -4.403  79.083  1.00  0.00     0.174 HD
ATOM      7  H42 UNL     1     -22.821  -4.220  78.985  1.00  0.00     0.174 HD
HETATM    8  N5  UNL     1     -21.112  -6.878  78.515  1.00  0.00    -0.022 N 
ATOM      9  H5  UNL     1     -20.187  -6.484  78.685  1.00  0.00     0.203 HD
HETATM   10  C11 UNL     1     -21.223  -8.186  78.195  1.00  0.00     0.709 A 
HETATM   11  N7  UNL     1     -22.458  -8.642  77.986  1.00  0.00    -0.021 N 
ATOM     12  H7  UNL     1     -22.556  -9.628  77.746  1.00  0.00     0.203 HD
ENDROOT
BRANCH   1  13
HETATM   13  N1  UNL     1     -24.846  -8.533  77.857  1.00  0.00    -0.216 N 
BRANCH  13  14
HETATM   14  C2  UNL     1     -25.577  -8.958  79.086  1.00  0.00     0.137 C 
HETATM   15  C1  UNL     1     -26.948  -9.443  78.609  1.00  0.00     0.027 C 
ENDBRANCH  13  14
BRANCH  13  16
HETATM   16  C3  UNL     1     -25.522  -8.737  76.623  1.00  0.00     0.151 C 
BRANCH  16  17
HETATM   17  C4  UNL     1     -25.493  -7.694  75.579  1.00  0.00     0.101 C 
BRANCH  17  18
HETATM   18  S1  UNL     1     -27.178  -6.918  75.646  1.00  0.00    -0.103 SA
BRANCH  18  19
HETATM   19  C5  UNL     1     -28.172  -7.782  74.395  1.00  0.00     0.112 A 
HETATM   20  N2  UNL     1     -27.722  -8.518  73.392  1.00  0.00    -0.341 N 
HETATM   21  C6  UNL     1     -28.568  -9.079  72.574  1.00  0.00     0.124 A 
ATOM     22  H2  UNL     1     -26.718  -8.645  73.258  1.00  0.00     0.167 HD
HETATM   23  C8  UNL     1     -29.904  -8.877  72.805  1.00  0.00     0.086 A 
HETATM   24  S2  UNL     1     -29.855  -7.877  74.190  1.00  0.00    -0.075 SA
BRANCH  21  25
HETATM   25  C7  UNL     1     -28.074  -9.905  71.390  1.00  0.00     0.433 C 
HETATM   26  F1  UNL     1     -27.105 -10.761  71.894  1.00  0.00    -0.165 F 
HETATM   27  F2  UNL     1     -27.585  -9.080  70.436  1.00  0.00    -0.165 F 
HETATM   28  F3  UNL     1     -29.093 -10.664  70.860  1.00  0.00    -0.165 F 
ENDBRANCH  21  25
ENDBRANCH  18  19
ENDBRANCH  17  18
ENDBRANCH  16  17
ENDBRANCH  13  16
ENDBRANCH   1  13
BRANCH  10  29
HETATM   29  N6  UNL     1     -20.060  -8.976  78.094  1.00  0.00    -0.213 N 
HETATM   30  C12 UNL     1     -19.028  -9.031  79.104  1.00  0.00     0.167 C 
HETATM   31  C13 UNL     1     -18.996 -10.461  79.639  1.00  0.00     0.188 C 
HETATM   32  O1  UNL     1     -19.256 -11.378  78.640  1.00  0.00    -0.388 OA
HETATM   33  C14 UNL     1     -18.919 -10.950  77.384  1.00  0.00     0.188 C 
HETATM   34  C15 UNL     1     -19.833  -9.797  76.915  1.00  0.00     0.167 C 
ENDBRANCH  10  29
TORSDOF 8
ENDMDL
MODEL 4
REMARK VINA RESULT: -6.982593004      1.336      1.585
REMARK  8 active torsions:
REMARK  status: ('A' for Active; 'I' for Inactive)
REMARK    1  A    between atoms: C2_2  and  N1_3 
REMARK    2  A    between atoms: N1_3  and  C3_4 
REMARK    3  A    between atoms: N1_3  and  C9_17 
REMARK    4  A    between atoms: C3_4  and  C4_5 
REMARK    5  A    between atoms: C4_5  and  S1_6 
REMARK    6  A    between atoms: S1_6  and  C5_7 
REMARK    7  A    between atoms: C6_10  and  C7_11 
REMARK    8  A    between atoms: C11_26  and  N6_27 
ROOT
HETATM    1  C9  UNL     1     -24.068  -7.417  77.577  1.00  0.00     0.709 A 
HETATM    2  N3  UNL     1     -23.998  -6.408  78.479  1.00  0.00    -0.022 N 
ATOM      3  H3  UNL     1     -24.847  -5.870  78.655  1.00  0.00     0.203 HD
HETATM    4  C10 UNL     1     -22.911  -6.072  79.146  1.00  0.00     0.705 A 
HETATM    5  N4  UNL     1     -22.819  -5.101  79.994  1.00  0.00    -0.234 N 
ATOM      6  H41 UNL     1     -21.977  -4.841  80.510  1.00  0.00     0.174 HD
ATOM      7  H42 UNL     1     -23.665  -4.560  80.171  1.00  0.00     0.174 HD
HETATM    8  N5  UNL     1     -21.770  -6.801  78.908  1.00  0.00    -0.022 N 
ATOM      9  H5  UNL     1     -20.915  -6.564  79.411  1.00  0.00     0.203 HD
HETATM   10  C11 UNL     1     -21.753  -7.823  78.025  1.00  0.00     0.709 A 
HETATM   11  N7  UNL     1     -22.902  -8.085  77.402  1.00  0.00    -0.021 N 
ATOM     12  H7  UNL     1     -22.904  -8.857  76.734  1.00  0.00     0.203 HD
ENDROOT
BRANCH   1  13
HETATM   13  N1  UNL     1     -25.222  -7.829  76.876  1.00  0.00    -0.216 N 
BRANCH  13  14
HETATM   14  C2  UNL     1     -25.180  -9.202  76.296  1.00  0.00     0.137 C 
HETATM   15  C1  UNL     1     -26.621  -9.717  76.336  1.00  0.00     0.027 C 
ENDBRANCH  13  14
BRANCH  13  16
HETATM   16  C3  UNL     1     -26.445  -7.120  76.719  1.00  0.00     0.151 C 
BRANCH  16  17
HETATM   17  C4  UNL     1     -26.558  -6.048  75.710  1.00  0.00     0.101 C 
BRANCH  17  18
HETATM   18  S1  UNL     1     -28.362  -6.000  75.278  1.00  0.00    -0.103 SA
BRANCH  18  19
HETATM   19  C5  UNL     1     -28.634  -7.380  74.128  1.00  0.00     0.112 A 
HETATM   20  N2  UNL     1     -27.709  -8.067  73.479  1.00  0.00    -0.341 N 
HETATM   21  C6  UNL     1     -28.067  -9.038  72.686  1.00  0.00     0.124 A 
ATOM     22  H2  UNL     1     -26.722  -7.838  73.597  1.00  0.00     0.167 HD
HETATM   23  C8  UNL     1     -29.406  -9.303  72.569  1.00  0.00     0.086 A 
HETATM   24  S2  UNL     1     -30.071  -8.123  73.610  1.00  0.00    -0.075 SA
BRANCH  21  25
HETATM   25  C7  UNL     1     -27.021  -9.825  71.900  1.00  0.00     0.433 C 
HETATM   26  F1  UNL     1     -27.347  -9.669  70.561  1.00  0.00    -0.165 F 
HETATM   27  F2  UNL     1     -27.044 -11.121  72.287  1.00  0.00    -0.165 F 
HETATM   28  F3  UNL     1     -25.761  -9.309  72.105  1.00  0.00    -0.165 F 
ENDBRANCH  21  25
ENDBRANCH  18  19
ENDBRANCH  17  18
ENDBRANCH  16  17
ENDBRANCH  13  16
ENDBRANCH   1  13
BRANCH  10  29
HETATM   29  N6  UNL     1     -20.556  -8.534  77.810  1.00  0.00    -0.213 N 
HETATM   30  C12 UNL     1     -19.431  -8.521  78.719  1.00  0.00     0.167 C 
HETATM   31  C13 UNL     1     -19.255  -9.945  79.239  1.00  0.00     0.188 C 
HETATM   32  O1  UNL     1     -19.547 -10.878  78.264  1.00  0.00    -0.388 OA
HETATM   33  C14 UNL     1     -19.359 -10.428  76.984  1.00  0.00     0.188 C 
HETATM   34  C15 UNL     1     -20.387  -9.339  76.610  1.00  0.00     0.167 C 
ENDBRANCH  10  29
TORSDOF 8
ENDMDL
MODEL 5
REMARK VINA RESULT: -6.832029888      1.499      1.710
REMARK  8 active torsions:
REMARK  status: ('A' for Active; 'I' for Inactive)
REMARK    1  A    between atoms: C2_2  and  N1_3 
REMARK    2  A    between atoms: N1_3  and  C3_4 
REMARK    3  A    between atoms: N1_3  and  C9_17 
REMARK    4  A    between atoms: C3_4  and  C4_5 
REMARK    5  A    between atoms: C4_5  and  S1_6 
REMARK    6  A    between atoms: S1_6  and  C5_7 
REMARK    7  A    between atoms: C6_10  and  C7_11 
REMARK    8  A    between atoms: C11_26  and  N6_27 
ROOT
HETATM    1  C9  UNL     1     -23.540  -7.857  78.217  1.00  0.00     0.709 A 
HETATM    2  N3  UNL     1     -23.307  -6.554  78.509  1.00  0.00    -0.022 N 
ATOM      3  H3  UNL     1     -24.116  -5.940  78.614  1.00  0.00     0.203 HD
HETATM    4  C10 UNL     1     -22.110  -6.023  78.667  1.00  0.00     0.705 A 
HETATM    5  N4  UNL     1     -21.866  -4.780  78.926  1.00  0.00    -0.234 N 
ATOM      6  H41 UNL     1     -20.941  -4.369  79.048  1.00  0.00     0.174 HD
ATOM      7  H42 UNL     1     -22.672  -4.163  79.029  1.00  0.00     0.174 HD
HETATM    8  N5  UNL     1     -21.024  -6.854  78.528  1.00  0.00    -0.022 N 
ATOM      9  H5  UNL     1     -20.086  -6.470  78.647  1.00  0.00     0.203 HD
HETATM   10  C11 UNL     1     -21.167  -8.166  78.238  1.00  0.00     0.709 A 
HETATM   11  N7  UNL     1     -22.417  -8.607  78.097  1.00  0.00    -0.021 N 
ATOM     12  H7  UNL     1     -22.540  -9.596  77.881  1.00  0.00     0.203 HD
ENDROOT
BRANCH   1  13
HETATM   13  N1  UNL     1     -24.806  -8.466  78.080  1.00  0.00    -0.216 N 
BRANCH  13  14
HETATM   14  C2  UNL     1     -25.447  -8.934  79.342  1.00  0.00     0.137 C 
HETATM   15  C1  UNL     1     -26.894  -9.271  78.977  1.00  0.00     0.027 C 
ENDBRANCH  13  14
BRANCH  13  16
HETATM   16  C3  UNL     1     -25.574  -8.620  76.893  1.00  0.00     0.151 C 
BRANCH  16  17
HETATM   17  C4  UNL     1     -25.488  -7.612  75.817  1.00  0.00     0.101 C 
BRANCH  17  18
HETATM   18  S1  UNL     1     -27.208  -6.928  75.679  1.00  0.00    -0.103 SA
BRANCH  18  19
HETATM   19  C5  UNL     1     -28.091  -8.031  74.536  1.00  0.00     0.112 A 
HETATM   20  N2  UNL     1     -27.688  -9.215  74.104  1.00  0.00    -0.341 N 
HETATM   21  C6  UNL     1     -28.442  -9.891  73.283  1.00  0.00     0.124 A 
ATOM     22  H2  UNL     1     -26.793  -9.596  74.412  1.00  0.00     0.167 HD
HETATM   23  C8  UNL     1     -29.634  -9.332  72.907  1.00  0.00     0.086 A 
HETATM   24  S2  UNL     1     -29.592  -7.852  73.762  1.00  0.00    -0.075 SA
BRANCH  21  25
HETATM   25  C7  UNL     1     -27.984 -11.244  72.745  1.00  0.00     0.433 C 
HETATM   26  F1  UNL     1     -28.505 -11.345  71.462  1.00  0.00    -0.165 F 
HETATM   27  F2  UNL     1     -28.429 -12.229  73.559  1.00  0.00    -0.165 F 
HETATM   28  F3  UNL     1     -26.611 -11.303  72.664  1.00  0.00    -0.165 F 
ENDBRANCH  21  25
ENDBRANCH  18  19
ENDBRANCH  17  18
ENDBRANCH  16  17
ENDBRANCH  13  16
ENDBRANCH   1  13
BRANCH  10  29
HETATM   29  N6  UNL     1     -20.021  -8.974  78.097  1.00  0.00    -0.213 N 
HETATM   30  C12 UNL     1     -18.961  -9.055  79.077  1.00  0.00     0.167 C 
HETATM   31  C13 UNL     1     -18.939 -10.490  79.599  1.00  0.00     0.188 C 
HETATM   32  O1  UNL     1     -19.243 -11.394  78.600  1.00  0.00    -0.388 OA
HETATM   33  C14 UNL     1     -18.935 -10.960  77.338  1.00  0.00     0.188 C 
HETATM   34  C15 UNL     1     -19.842  -9.788  76.906  1.00  0.00     0.167 C 
ENDBRANCH  10  29
TORSDOF 8
ENDMDL
