MODEL 1
REMARK VINA RESULT: -6.336508790      0.000      0.000
REMARK  7 active torsions:
REMARK  status: ('A' for Active; 'I' for Inactive)
REMARK    1  A    between atoms: O1_2  and  C2_3 
REMARK    2  A    between atoms: C4_5  and  C5_6 
REMARK    3  A    between atoms: C10_11  and  O2_12 
REMARK    4  A    between atoms: O2_12  and  C11_13 
REMARK    5  A    between atoms: C12_17  and  O3_18 
REMARK    6  A    between atoms: C16_33  and  O4_34 
REMARK    7  A    between atoms: C18_36  and  O5_37 
ROOT
HETATM    1  C5  UNL     1     -24.692  -8.394  78.680  1.00  0.00     0.050 A 
HETATM    2  C6  UNL     1     -24.553  -8.609  77.328  1.00  0.00     0.091 A 
HETATM    3  C7  UNL     1     -25.746  -8.686  76.513  1.00  0.00     0.063 A 
HETATM    4  C8  UNL     1     -25.972  -9.835  75.786  1.00  0.00     0.035 A 
HETATM    5  C9  UNL     1     -27.076 -10.013  74.969  1.00  0.00     0.044 A 
HETATM    6  C10 UNL     1     -27.988  -8.976  74.890  1.00  0.00     0.129 A 
HETATM    7  C12 UNL     1     -27.745  -7.816  75.634  1.00  0.00     0.177 A 
HETATM    8  N1  UNL     1     -26.662  -7.702  76.405  1.00  0.00    -0.333 N 
ATOM      9  H1  UNL     1     -26.523  -6.840  76.932  1.00  0.00     0.168 HD
HETATM   10  N2  UNL     1     -23.309  -8.731  76.832  1.00  0.00    -0.283 N 
ATOM     11  H2  UNL     1     -23.190  -8.889  75.832  1.00  0.00     0.188 HD
HETATM   12  N3  UNL     1     -22.230  -8.652  77.606  1.00  0.00    -0.241 N 
ATOM     13  H3  UNL     1     -21.302  -8.750  77.195  1.00  0.00     0.208 HD
HETATM   14  N4  UNL     1     -22.358  -8.446  78.904  1.00  0.00    -0.271 N 
ATOM     15  H4  UNL     1     -21.517  -8.387  79.477  1.00  0.00     0.190 HD
HETATM   16  C14 UNL     1     -23.568  -8.309  79.502  1.00  0.00     0.128 A 
HETATM   17  N5  UNL     1     -23.680  -8.116  80.769  1.00  0.00    -0.384 N 
ATOM     18  H51 UNL     1     -22.858  -8.054  81.370  1.00  0.00     0.157 HD
ATOM     19  H52 UNL     1     -24.590  -8.013  81.219  1.00  0.00     0.157 HD
ENDROOT
BRANCH   1  20
HETATM   20  C4  UNL     1     -26.036  -8.268  79.217  1.00  0.00    -0.014 A 
HETATM   21  C3  UNL     1     -26.680  -7.068  79.372  1.00  0.00     0.052 A 
HETATM   22  C2  UNL     1     -27.970  -7.040  79.906  1.00  0.00     0.105 A 
HETATM   23  C18 UNL     1     -28.618  -8.193  80.284  1.00  0.00     0.135 A 
HETATM   24  C16 UNL     1     -27.974  -9.414  80.132  1.00  0.00     0.105 A 
HETATM   25  C15 UNL     1     -26.705  -9.430  79.606  1.00  0.00     0.052 A 
BRANCH  22  26
HETATM   26  O1  UNL     1     -28.608  -5.827  80.058  1.00  0.00    -0.353 OA
HETATM   27  C1  UNL     1     -29.095  -5.011  79.042  1.00  0.00     0.210 C 
ENDBRANCH  22  26
BRANCH  23  28
HETATM   28  O5  UNL     1     -29.891  -8.081  80.802  1.00  0.00    -0.351 OA
HETATM   29  C19 UNL     1     -31.065  -8.219  80.028  1.00  0.00     0.210 C 
ENDBRANCH  23  28
BRANCH  24  30
HETATM   30  O4  UNL     1     -28.636 -10.548  80.516  1.00  0.00    -0.353 OA
HETATM   31  C17 UNL     1     -28.182 -11.601  81.296  1.00  0.00     0.210 C 
ENDBRANCH  24  30
ENDBRANCH   1  20
BRANCH   7  32
HETATM   32  O3  UNL     1     -28.661  -6.798  75.539  1.00  0.00    -0.339 OA
HETATM   33  C13 UNL     1     -28.548  -5.623  74.804  1.00  0.00     0.211 C 
ENDBRANCH   7  32
BRANCH   6  34
HETATM   34  O2  UNL     1     -29.119  -9.063  74.100  1.00  0.00    -0.251 OA
BRANCH  34  35
HETATM   35  C11 UNL     1     -29.139  -9.247  72.723  1.00  0.00     0.530 C 
HETATM   36  F1  UNL     1     -30.410  -8.998  72.229  1.00  0.00    -0.144 F 
HETATM   37  F2  UNL     1     -28.777 -10.534  72.346  1.00  0.00    -0.144 F 
HETATM   38  F3  UNL     1     -28.197  -8.394  72.138  1.00  0.00    -0.144 F 
ENDBRANCH  34  35
ENDBRANCH   6  34
TORSDOF 7
ENDMDL
MODEL 2
REMARK VINA RESULT: -6.323177309      0.145      2.280
REMARK  7 active torsions:
REMARK  status: ('A' for Active; 'I' for Inactive)
REMARK    1  A    between atoms: O1_2  and  C2_3 
REMARK    2  A    between atoms: C4_5  and  C5_6 
REMARK    3  A    between atoms: C10_11  and  O2_12 
REMARK    4  A    between atoms: O2_12  and  C11_13 
REMARK    5  A    between atoms: C12_17  and  O3_18 
REMARK    6  A    between atoms: C16_33  and  O4_34 
REMARK    7  A    between atoms: C18_36  and  O5_37 
ROOT
HETATM    1  C5  UNL     1     -24.705  -8.436  78.699  1.00  0.00     0.050 A 
HETATM    2  C6  UNL     1     -24.552  -8.614  77.344  1.00  0.00     0.091 A 
HETATM    3  C7  UNL     1     -25.738  -8.689  76.517  1.00  0.00     0.063 A 
HETATM    4  C8  UNL     1     -25.941  -9.822  75.760  1.00  0.00     0.035 A 
HETATM    5  C9  UNL     1     -27.036  -9.996  74.931  1.00  0.00     0.044 A 
HETATM    6  C10 UNL     1     -27.962  -8.971  74.870  1.00  0.00     0.129 A 
HETATM    7  C12 UNL     1     -27.743  -7.827  75.644  1.00  0.00     0.177 A 
HETATM    8  N1  UNL     1     -26.668  -7.716  76.427  1.00  0.00    -0.333 N 
ATOM      9  H1  UNL     1     -26.545  -6.866  76.977  1.00  0.00     0.168 HD
HETATM   10  N2  UNL     1     -23.303  -8.705  76.854  1.00  0.00    -0.283 N 
ATOM     11  H2  UNL     1     -23.174  -8.836  75.851  1.00  0.00     0.188 HD
HETATM   12  N3  UNL     1     -22.231  -8.629  77.638  1.00  0.00    -0.241 N 
ATOM     13  H3  UNL     1     -21.299  -8.703  77.233  1.00  0.00     0.208 HD
HETATM   14  N4  UNL     1     -22.372  -8.458  78.940  1.00  0.00    -0.271 N 
ATOM     15  H4  UNL     1     -21.536  -8.401  79.521  1.00  0.00     0.190 HD
HETATM   16  C14 UNL     1     -23.589  -8.354  79.532  1.00  0.00     0.128 A 
HETATM   17  N5  UNL     1     -23.713  -8.195  80.802  1.00  0.00    -0.384 N 
ATOM     18  H51 UNL     1     -22.896  -8.136  81.411  1.00  0.00     0.157 HD
ATOM     19  H52 UNL     1     -24.627  -8.117  81.247  1.00  0.00     0.157 HD
ENDROOT
BRANCH   1  20
HETATM   20  C4  UNL     1     -26.055  -8.343  79.228  1.00  0.00    -0.014 A 
HETATM   21  C3  UNL     1     -26.801  -9.432  79.594  1.00  0.00     0.052 A 
HETATM   22  C2  UNL     1     -28.096  -9.249  80.084  1.00  0.00     0.105 A 
HETATM   23  C18 UNL     1     -28.647  -7.996  80.211  1.00  0.00     0.135 A 
HETATM   24  C16 UNL     1     -27.900  -6.885  79.843  1.00  0.00     0.105 A 
HETATM   25  C15 UNL     1     -26.628  -7.076  79.361  1.00  0.00     0.052 A 
BRANCH  22  26
HETATM   26  O1  UNL     1     -28.838 -10.353  80.449  1.00  0.00    -0.353 OA
HETATM   27  C1  UNL     1     -28.410 -11.422  81.230  1.00  0.00     0.210 C 
ENDBRANCH  22  26
BRANCH  23  28
HETATM   28  O5  UNL     1     -29.931  -7.900  80.705  1.00  0.00    -0.351 OA
HETATM   29  C19 UNL     1     -31.083  -7.873  79.887  1.00  0.00     0.210 C 
ENDBRANCH  23  28
BRANCH  24  30
HETATM   30  O4  UNL     1     -28.468  -5.648  79.976  1.00  0.00    -0.353 OA
HETATM   31  C17 UNL     1     -28.982  -4.814  78.993  1.00  0.00     0.210 C 
ENDBRANCH  24  30
ENDBRANCH   1  20
BRANCH   7  32
HETATM   32  O3  UNL     1     -28.674  -6.821  75.568  1.00  0.00    -0.339 OA
HETATM   33  C13 UNL     1     -28.559  -5.610  74.892  1.00  0.00     0.211 C 
ENDBRANCH   7  32
BRANCH   6  34
HETATM   34  O2  UNL     1     -29.087  -9.055  74.069  1.00  0.00    -0.251 OA
BRANCH  34  35
HETATM   35  C11 UNL     1     -29.096  -9.296  72.701  1.00  0.00     0.530 C 
HETATM   36  F1  UNL     1     -30.362  -9.061  72.186  1.00  0.00    -0.144 F 
HETATM   37  F2  UNL     1     -28.737 -10.599  72.381  1.00  0.00    -0.144 F 
HETATM   38  F3  UNL     1     -28.144  -8.473  72.089  1.00  0.00    -0.144 F 
ENDBRANCH  34  35
ENDBRANCH   6  34
TORSDOF 7
ENDMDL
MODEL 3
REMARK VINA RESULT: -6.259410632      2.617      4.242
REMARK  7 active torsions:
REMARK  status: ('A' for Active; 'I' for Inactive)
REMARK    1  A    between atoms: O1_2  and  C2_3 
REMARK    2  A    between atoms: C4_5  and  C5_6 
REMARK    3  A    between atoms: C10_11  and  O2_12 
REMARK    4  A    between atoms: O2_12  and  C11_13 
REMARK    5  A    between atoms: C12_17  and  O3_18 
REMARK    6  A    between atoms: C16_33  and  O4_34 
REMARK    7  A    between atoms: C18_36  and  O5_37 
ROOT
HETATM    1  C5  UNL     1     -26.813  -5.749  77.572  1.00  0.00     0.050 A 
HETATM    2  C6  UNL     1     -26.011  -6.698  76.982  1.00  0.00     0.091 A 
HETATM    3  C7  UNL     1     -26.629  -7.708  76.149  1.00  0.00     0.063 A 
HETATM    4  C8  UNL     1     -26.456  -9.032  76.485  1.00  0.00     0.035 A 
HETATM    5  C9  UNL     1     -26.996 -10.078  75.757  1.00  0.00     0.044 A 
HETATM    6  C10 UNL     1     -27.744  -9.760  74.638  1.00  0.00     0.129 A 
HETATM    7  C12 UNL     1     -27.911  -8.411  74.309  1.00  0.00     0.177 A 
HETATM    8  N1  UNL     1     -27.366  -7.445  75.051  1.00  0.00    -0.333 N 
ATOM      9  H1  UNL     1     -27.512  -6.473  74.778  1.00  0.00     0.168 HD
HETATM   10  N2  UNL     1     -24.687  -6.634  77.206  1.00  0.00    -0.283 N 
ATOM     11  H2  UNL     1     -24.078  -7.330  76.775  1.00  0.00     0.188 HD
HETATM   12  N3  UNL     1     -24.146  -5.691  77.973  1.00  0.00    -0.241 N 
ATOM     13  H3  UNL     1     -23.137  -5.674  78.123  1.00  0.00     0.208 HD
HETATM   14  N4  UNL     1     -24.912  -4.778  78.542  1.00  0.00    -0.271 N 
ATOM     15  H4  UNL     1     -24.475  -4.065  79.126  1.00  0.00     0.190 HD
HETATM   16  C14 UNL     1     -26.259  -4.755  78.379  1.00  0.00     0.128 A 
HETATM   17  N5  UNL     1     -26.995  -3.865  78.944  1.00  0.00    -0.384 N 
ATOM     18  H51 UNL     1     -26.589  -3.139  79.534  1.00  0.00     0.157 HD
ATOM     19  H52 UNL     1     -28.007  -3.848  78.821  1.00  0.00     0.157 HD
ENDROOT
BRANCH   1  20
HETATM   20  C4  UNL     1     -28.245  -5.822  77.334  1.00  0.00    -0.014 A 
HETATM   21  C3  UNL     1     -29.089  -6.640  78.037  1.00  0.00     0.052 A 
HETATM   22  C2  UNL     1     -30.452  -6.653  77.733  1.00  0.00     0.105 A 
HETATM   23  C18 UNL     1     -30.975  -5.860  76.739  1.00  0.00     0.135 A 
HETATM   24  C16 UNL     1     -30.128  -5.027  76.019  1.00  0.00     0.105 A 
HETATM   25  C15 UNL     1     -28.789  -5.023  76.326  1.00  0.00     0.052 A 
BRANCH  22  26
HETATM   26  O1  UNL     1     -31.292  -7.480  78.447  1.00  0.00    -0.353 OA
HETATM   27  C1  UNL     1     -31.058  -8.012  79.712  1.00  0.00     0.210 C 
ENDBRANCH  22  26
BRANCH  23  28
HETATM   28  O5  UNL     1     -32.331  -5.929  76.500  1.00  0.00    -0.351 OA
HETATM   29  C19 UNL     1     -32.910  -6.755  75.511  1.00  0.00     0.210 C 
ENDBRANCH  23  28
BRANCH  24  30
HETATM   30  O4  UNL     1     -30.669  -4.248  75.033  1.00  0.00    -0.353 OA
HETATM   31  C17 UNL     1     -30.545  -4.372  73.657  1.00  0.00     0.210 C 
ENDBRANCH  24  30
ENDBRANCH   1  20
BRANCH   7  32
HETATM   32  O3  UNL     1     -28.655  -8.117  73.194  1.00  0.00    -0.339 OA
HETATM   33  C13 UNL     1     -30.039  -8.007  73.103  1.00  0.00     0.211 C 
ENDBRANCH   7  32
BRANCH   6  34
HETATM   34  O2  UNL     1     -28.321 -10.737  73.848  1.00  0.00    -0.251 OA
BRANCH  34  35
HETATM   35  C11 UNL     1     -27.751 -11.318  72.722  1.00  0.00     0.530 C 
HETATM   36  F1  UNL     1     -28.280 -10.749  71.574  1.00  0.00    -0.144 F 
HETATM   37  F2  UNL     1     -27.961 -12.690  72.659  1.00  0.00    -0.144 F 
HETATM   38  F3  UNL     1     -26.364 -11.144  72.776  1.00  0.00    -0.144 F 
ENDBRANCH  34  35
ENDBRANCH   6  34
TORSDOF 7
ENDMDL
MODEL 4
REMARK VINA RESULT: -6.227781898      2.550      3.719
REMARK  7 active torsions:
REMARK  status: ('A' for Active; 'I' for Inactive)
REMARK    1  A    between atoms: O1_2  and  C2_3 
REMARK    2  A    between atoms: C4_5  and  C5_6 
REMARK    3  A    between atoms: C10_11  and  O2_12 
REMARK    4  A    between atoms: O2_12  and  C11_13 
REMARK    5  A    between atoms: C12_17  and  O3_18 
REMARK    6  A    between atoms: C16_33  and  O4_34 
REMARK    7  A    between atoms: C18_36  and  O5_37 
ROOT
HETATM    1  C5  UNL     1     -26.788  -5.747  77.535  1.00  0.00     0.050 A 
HETATM    2  C6  UNL     1     -26.001  -6.725  76.971  1.00  0.00     0.091 A 
HETATM    3  C7  UNL     1     -26.632  -7.726  76.136  1.00  0.00     0.063 A 
HETATM    4  C8  UNL     1     -26.505  -9.051  76.488  1.00  0.00     0.035 A 
HETATM    5  C9  UNL     1     -27.061 -10.088  75.759  1.00  0.00     0.044 A 
HETATM    6  C10 UNL     1     -27.775  -9.760  74.622  1.00  0.00     0.129 A 
HETATM    7  C12 UNL     1     -27.896  -8.410  74.276  1.00  0.00     0.177 A 
HETATM    8  N1  UNL     1     -27.338  -7.453  75.020  1.00  0.00    -0.333 N 
ATOM      9  H1  UNL     1     -27.450  -6.480  74.734  1.00  0.00     0.168 HD
HETATM   10  N2  UNL     1     -24.681  -6.698  77.223  1.00  0.00    -0.283 N 
ATOM     11  H2  UNL     1     -24.085  -7.416  76.811  1.00  0.00     0.188 HD
HETATM   12  N3  UNL     1     -24.129  -5.764  77.991  1.00  0.00    -0.241 N 
ATOM     13  H3  UNL     1     -23.123  -5.775  78.162  1.00  0.00     0.208 HD
HETATM   14  N4  UNL     1     -24.879  -4.823  78.535  1.00  0.00    -0.271 N 
ATOM     15  H4  UNL     1     -24.434  -4.116  79.120  1.00  0.00     0.190 HD
HETATM   16  C14 UNL     1     -26.221  -4.762  78.343  1.00  0.00     0.128 A 
HETATM   17  N5  UNL     1     -26.942  -3.845  78.884  1.00  0.00    -0.384 N 
ATOM     18  H51 UNL     1     -26.527  -3.125  79.475  1.00  0.00     0.157 HD
ATOM     19  H52 UNL     1     -27.950  -3.799  78.739  1.00  0.00     0.157 HD
ENDROOT
BRANCH   1  20
HETATM   20  C4  UNL     1     -28.215  -5.781  77.267  1.00  0.00    -0.014 A 
HETATM   21  C3  UNL     1     -28.824  -5.015  76.308  1.00  0.00     0.052 A 
HETATM   22  C2  UNL     1     -30.206  -5.104  76.126  1.00  0.00     0.105 A 
HETATM   23  C18 UNL     1     -30.979  -5.947  76.889  1.00  0.00     0.135 A 
HETATM   24  C16 UNL     1     -30.373  -6.727  77.865  1.00  0.00     0.105 A 
HETATM   25  C15 UNL     1     -29.013  -6.631  78.036  1.00  0.00     0.052 A 
BRANCH  22  26
HETATM   26  O1  UNL     1     -30.807  -4.329  75.158  1.00  0.00    -0.353 OA
HETATM   27  C1  UNL     1     -30.443  -4.240  73.817  1.00  0.00     0.210 C 
ENDBRANCH  22  26
BRANCH  23  28
HETATM   28  O5  UNL     1     -32.336  -5.978  76.647  1.00  0.00    -0.351 OA
HETATM   29  C19 UNL     1     -32.938  -6.807  75.674  1.00  0.00     0.210 C 
ENDBRANCH  23  28
BRANCH  24  30
HETATM   30  O4  UNL     1     -31.161  -7.556  78.614  1.00  0.00    -0.353 OA
HETATM   31  C17 UNL     1     -30.819  -8.320  79.721  1.00  0.00     0.210 C 
ENDBRANCH  24  30
ENDBRANCH   1  20
BRANCH   7  32
HETATM   32  O3  UNL     1     -28.607  -8.106  73.142  1.00  0.00    -0.339 OA
HETATM   33  C13 UNL     1     -29.980  -7.909  73.032  1.00  0.00     0.211 C 
ENDBRANCH   7  32
BRANCH   6  34
HETATM   34  O2  UNL     1     -28.365 -10.729  73.830  1.00  0.00    -0.251 OA
BRANCH  34  35
HETATM   35  C11 UNL     1     -27.777 -11.360  72.740  1.00  0.00     0.530 C 
HETATM   36  F1  UNL     1     -28.046 -12.719  72.777  1.00  0.00    -0.144 F 
HETATM   37  F2  UNL     1     -26.399 -11.195  72.702  1.00  0.00    -0.144 F 
HETATM   38  F3  UNL     1     -28.267 -10.782  71.564  1.00  0.00    -0.144 F 
ENDBRANCH  34  35
ENDBRANCH   6  34
TORSDOF 7
ENDMDL
MODEL 5
REMARK VINA RESULT: -6.215956756      2.137      3.595
REMARK  7 active torsions:
REMARK  status: ('A' for Active; 'I' for Inactive)
REMARK    1  A    between atoms: O1_2  and  C2_3 
REMARK    2  A    between atoms: C4_5  and  C5_6 
REMARK    3  A    between atoms: C10_11  and  O2_12 
REMARK    4  A    between atoms: O2_12  and  C11_13 
REMARK    5  A    between atoms: C12_17  and  O3_18 
REMARK    6  A    between atoms: C16_33  and  O4_34 
REMARK    7  A    between atoms: C18_36  and  O5_37 
ROOT
HETATM    1  C5  UNL     1     -26.109  -6.671  77.862  1.00  0.00     0.050 A 
HETATM    2  C6  UNL     1     -25.528  -7.525  76.953  1.00  0.00     0.091 A 
HETATM    3  C7  UNL     1     -26.374  -8.178  75.976  1.00  0.00     0.063 A 
HETATM    4  C8  UNL     1     -26.395  -9.555  75.940  1.00  0.00     0.035 A 
HETATM    5  C9  UNL     1     -27.161 -10.281  75.044  1.00  0.00     0.044 A 
HETATM    6  C10 UNL     1     -27.939  -9.572  74.147  1.00  0.00     0.129 A 
HETATM    7  C12 UNL     1     -27.908  -8.175  74.195  1.00  0.00     0.177 A 
HETATM    8  N1  UNL     1     -27.149  -7.529  75.083  1.00  0.00    -0.333 N 
ATOM      9  H1  UNL     1     -27.156  -6.509  75.087  1.00  0.00     0.168 HD
HETATM   10  N2  UNL     1     -24.198  -7.707  77.017  1.00  0.00    -0.283 N 
ATOM     11  H2  UNL     1     -23.752  -8.336  76.349  1.00  0.00     0.188 HD
HETATM   12  N3  UNL     1     -23.445  -7.090  77.923  1.00  0.00    -0.241 N 
ATOM     13  H3  UNL     1     -22.438  -7.252  77.944  1.00  0.00     0.208 HD
HETATM   14  N4  UNL     1     -23.997  -6.269  78.798  1.00  0.00    -0.271 N 
ATOM     15  H4  UNL     1     -23.400  -5.807  79.483  1.00  0.00     0.190 HD
HETATM   16  C14 UNL     1     -25.331  -6.018  78.817  1.00  0.00     0.128 A 
HETATM   17  N5  UNL     1     -25.858  -5.223  79.679  1.00  0.00    -0.384 N 
ATOM     18  H51 UNL     1     -25.288  -4.746  80.378  1.00  0.00     0.157 HD
ATOM     19  H52 UNL     1     -26.860  -5.034  79.693  1.00  0.00     0.157 HD
ENDROOT
BRANCH   1  20
HETATM   20  C4  UNL     1     -27.548  -6.480  77.796  1.00  0.00    -0.014 A 
HETATM   21  C3  UNL     1     -28.452  -7.325  78.385  1.00  0.00     0.052 A 
HETATM   22  C2  UNL     1     -29.820  -7.069  78.262  1.00  0.00     0.105 A 
HETATM   23  C18 UNL     1     -30.288  -5.984  77.559  1.00  0.00     0.135 A 
HETATM   24  C16 UNL     1     -29.380  -5.122  76.956  1.00  0.00     0.105 A 
HETATM   25  C15 UNL     1     -28.038  -5.383  77.084  1.00  0.00     0.052 A 
BRANCH  22  26
HETATM   26  O1  UNL     1     -30.720  -7.925  78.859  1.00  0.00    -0.353 OA
HETATM   27  C1  UNL     1     -30.442  -8.871  79.842  1.00  0.00     0.210 C 
ENDBRANCH  22  26
BRANCH  23  28
HETATM   28  O5  UNL     1     -31.652  -5.800  77.484  1.00  0.00    -0.351 OA
HETATM   29  C19 UNL     1     -32.445  -6.258  76.409  1.00  0.00     0.210 C 
ENDBRANCH  23  28
BRANCH  24  30
HETATM   30  O4  UNL     1     -29.868  -4.050  76.261  1.00  0.00    -0.353 OA
HETATM   31  C17 UNL     1     -30.120  -2.761  76.709  1.00  0.00     0.210 C 
ENDBRANCH  24  30
ENDBRANCH   1  20
BRANCH   7  32
HETATM   32  O3  UNL     1     -28.686  -7.491  73.295  1.00  0.00    -0.339 OA
HETATM   33  C13 UNL     1     -29.768  -6.660  73.569  1.00  0.00     0.211 C 
ENDBRANCH   7  32
BRANCH   6  34
HETATM   34  O2  UNL     1     -28.736 -10.211  73.214  1.00  0.00    -0.251 OA
BRANCH  34  35
HETATM   35  C11 UNL     1     -28.301 -10.779  72.023  1.00  0.00     0.530 C 
HETATM   36  F1  UNL     1     -27.124 -10.174  71.610  1.00  0.00    -0.144 F 
HETATM   37  F2  UNL     1     -29.230 -10.656  70.997  1.00  0.00    -0.144 F 
HETATM   38  F3  UNL     1     -28.120 -12.153  72.215  1.00  0.00    -0.144 F 
ENDBRANCH  34  35
ENDBRANCH   6  34
TORSDOF 7
ENDMDL
