MODEL 1
REMARK VINA RESULT: -5.728904572      0.000      0.000
REMARK  12 active torsions:
REMARK  status: ('A' for Active; 'I' for Inactive)
REMARK    1  A    between atoms: C2_2  and  C4_4 
REMARK    2  A    between atoms: C5_9  and  S1_10 
REMARK    3  A    between atoms: S1_10  and  C6_11 
REMARK    4  A    between atoms: C8_14  and  C9_15 
REMARK    5  A    between atoms: C9_15  and  N3_16 
REMARK    6  A    between atoms: N3_16  and  C10_18 
REMARK    7  A    between atoms: C10_18  and  N4_20 
REMARK    8  A    between atoms: N4_20  and  N5_22 
REMARK    9  A    between atoms: C11_24  and  C12_25 
REMARK   10  A    between atoms: C12_25  and  C13_26 
REMARK   11  A    between atoms: C13_26  and  O2_27 
REMARK   12  A    between atoms: C13_26  and  C14_29 
ROOT
HETATM    1  N3  UNL     1     -27.662  -3.055  76.541  1.00  0.00    -0.363 N 
ATOM      2  H3  UNL     1     -27.263  -2.768  75.647  1.00  0.00     0.162 HD
ENDROOT
BRANCH   1   3
HETATM    3  C9  UNL     1     -26.851  -3.826  77.476  1.00  0.00     0.155 C 
BRANCH   3   4
HETATM    4  C8  UNL     1     -26.740  -5.249  76.969  1.00  0.00     0.155 C 
HETATM    5  C6  UNL     1     -27.037  -6.305  78.016  1.00  0.00     0.109 C 
HETATM    6  C7  UNL     1     -28.367  -6.338  77.306  1.00  0.00     0.186 C 
HETATM    7  O1  UNL     1     -27.829  -5.651  76.198  1.00  0.00    -0.382 OA
BRANCH   5   8
HETATM    8  S1  UNL     1     -25.985  -7.743  77.750  1.00  0.00    -0.094 SA
BRANCH   8   9
HETATM    9  C5  UNL     1     -26.229  -8.477  76.148  1.00  0.00     0.128 A 
HETATM   10  N2  UNL     1     -25.948  -7.881  75.000  1.00  0.00    -0.287 N 
HETATM   11  N1  UNL     1     -26.156  -8.486  73.909  1.00  0.00    -0.296 N 
ATOM     12  H2  UNL     1     -25.566  -6.935  74.995  1.00  0.00     0.188 HD
HETATM   13  C4  UNL     1     -26.654  -9.716  73.911  1.00  0.00     0.072 A 
ATOM     14  H1  UNL     1     -25.940  -8.028  73.024  1.00  0.00     0.187 HD
HETATM   15  S3  UNL     1     -26.819  -9.979  75.607  1.00  0.00    -0.049 SA
BRANCH  13  16
HETATM   16  C2  UNL     1     -26.980 -10.616  72.760  1.00  0.00     0.036 C 
HETATM   17  C1  UNL     1     -27.184  -9.783  71.540  1.00  0.00     0.016 C 
HETATM   18  C3  UNL     1     -28.136 -11.503  73.089  1.00  0.00     0.016 C 
ENDBRANCH  13  16
ENDBRANCH   8   9
ENDBRANCH   5   8
ENDBRANCH   3   4
ENDBRANCH   1   3
BRANCH   1  19
HETATM   19  C10 UNL     1     -28.999  -2.700  76.856  1.00  0.00     0.186 C 
HETATM   20  S2  UNL     1     -29.376  -2.095  78.322  1.00  0.00    -0.040 SA
BRANCH  19  21
HETATM   21  N4  UNL     1     -30.024  -2.865  75.900  1.00  0.00    -0.277 N 
ATOM     22  H4  UNL     1     -30.871  -2.298  75.944  1.00  0.00     0.189 HD
BRANCH  21  23
HETATM   23  N5  UNL     1     -29.858  -3.816  74.897  1.00  0.00    -0.310 N 
HETATM   24  C11 UNL     1     -30.800  -4.570  74.474  1.00  0.00     0.110 C 
ATOM     25  H5  UNL     1     -28.934  -3.916  74.476  1.00  0.00     0.186 HD
BRANCH  24  26
HETATM   26  C12 UNL     1     -30.499  -5.526  73.420  1.00  0.00     0.060 C 
BRANCH  26  27
HETATM   27  C13 UNL     1     -29.685  -6.549  73.593  1.00  0.00     0.151 C 
BRANCH  27  28
HETATM   28  O2  UNL     1     -28.334  -6.357  73.601  1.00  0.00    -0.357 OA
ATOM     29  H2  UNL     1     -27.808  -6.687  74.320  1.00  0.00     0.217 HD
ENDBRANCH  27  28
BRANCH  27  30
HETATM   30  C14 UNL     1     -30.248  -7.917  73.780  1.00  0.00     0.438 C 
HETATM   31  F1  UNL     1     -30.013  -8.706  72.695  1.00  0.00    -0.164 F 
HETATM   32  F2  UNL     1     -31.586  -7.835  74.067  1.00  0.00    -0.164 F 
HETATM   33  F3  UNL     1     -29.594  -8.477  74.872  1.00  0.00    -0.164 F 
ENDBRANCH  27  30
ENDBRANCH  26  27
ENDBRANCH  24  26
ENDBRANCH  21  23
ENDBRANCH  19  21
ENDBRANCH   1  19
TORSDOF 12
ENDMDL
MODEL 2
REMARK VINA RESULT: -5.705601624      3.491      4.872
REMARK  12 active torsions:
REMARK  status: ('A' for Active; 'I' for Inactive)
REMARK    1  A    between atoms: C2_2  and  C4_4 
REMARK    2  A    between atoms: C5_9  and  S1_10 
REMARK    3  A    between atoms: S1_10  and  C6_11 
REMARK    4  A    between atoms: C8_14  and  C9_15 
REMARK    5  A    between atoms: C9_15  and  N3_16 
REMARK    6  A    between atoms: N3_16  and  C10_18 
REMARK    7  A    between atoms: C10_18  and  N4_20 
REMARK    8  A    between atoms: N4_20  and  N5_22 
REMARK    9  A    between atoms: C11_24  and  C12_25 
REMARK   10  A    between atoms: C12_25  and  C13_26 
REMARK   11  A    between atoms: C13_26  and  O2_27 
REMARK   12  A    between atoms: C13_26  and  C14_29 
ROOT
HETATM    1  N3  UNL     1     -27.847  -5.930  74.606  1.00  0.00    -0.363 N 
ATOM      2  H3  UNL     1     -27.203  -5.972  73.816  1.00  0.00     0.162 HD
ENDROOT
BRANCH   1   3
HETATM    3  C9  UNL     1     -27.321  -5.974  75.965  1.00  0.00     0.155 C 
BRANCH   3   4
HETATM    4  C8  UNL     1     -27.280  -7.417  76.427  1.00  0.00     0.155 C 
HETATM    5  C6  UNL     1     -27.425  -7.591  77.927  1.00  0.00     0.109 C 
HETATM    6  C7  UNL     1     -28.841  -7.935  77.541  1.00  0.00     0.186 C 
HETATM    7  O1  UNL     1     -28.466  -8.109  76.193  1.00  0.00    -0.382 OA
BRANCH   5   8
HETATM    8  S1  UNL     1     -26.419  -8.979  78.480  1.00  0.00    -0.094 SA
BRANCH   8   9
HETATM    9  C5  UNL     1     -24.687  -8.738  78.153  1.00  0.00     0.128 A 
HETATM   10  N2  UNL     1     -23.751  -8.667  79.087  1.00  0.00    -0.287 N 
HETATM   11  N1  UNL     1     -22.543  -8.494  78.755  1.00  0.00    -0.296 N 
ATOM     12  H2  UNL     1     -24.004  -8.751  80.072  1.00  0.00     0.188 HD
HETATM   13  C4  UNL     1     -22.210  -8.383  77.475  1.00  0.00     0.072 A 
ATOM     14  H1  UNL     1     -21.821  -8.439  79.473  1.00  0.00     0.187 HD
HETATM   15  S3  UNL     1     -23.761  -8.543  76.738  1.00  0.00    -0.049 SA
BRANCH  13  16
HETATM   16  C2  UNL     1     -20.864  -8.176  76.853  1.00  0.00     0.036 C 
HETATM   17  C1  UNL     1     -20.162  -9.490  76.777  1.00  0.00     0.016 C 
HETATM   18  C3  UNL     1     -20.099  -7.121  77.582  1.00  0.00     0.016 C 
ENDBRANCH  13  16
ENDBRANCH   8   9
ENDBRANCH   5   8
ENDBRANCH   3   4
ENDBRANCH   1   3
BRANCH   1  19
HETATM   19  C10 UNL     1     -29.241  -5.831  74.367  1.00  0.00     0.186 C 
HETATM   20  S2  UNL     1     -30.058  -4.473  74.751  1.00  0.00    -0.040 SA
BRANCH  19  21
HETATM   21  N4  UNL     1     -29.943  -6.911  73.789  1.00  0.00    -0.277 N 
ATOM     22  H4  UNL     1     -30.957  -6.979  73.879  1.00  0.00     0.189 HD
BRANCH  21  23
HETATM   23  N5  UNL     1     -29.226  -7.882  73.094  1.00  0.00    -0.310 N 
HETATM   24  C11 UNL     1     -29.746  -8.962  72.649  1.00  0.00     0.110 C 
ATOM     25  H5  UNL     1     -28.232  -7.722  72.932  1.00  0.00     0.186 HD
BRANCH  24  26
HETATM   26  C12 UNL     1     -28.890  -9.898  71.938  1.00  0.00     0.060 C 
BRANCH  26  27
HETATM   27  C13 UNL     1     -27.580  -9.925  72.087  1.00  0.00     0.151 C 
BRANCH  27  28
HETATM   28  O2  UNL     1     -26.802  -8.978  71.488  1.00  0.00    -0.357 OA
ATOM     29  H2  UNL     1     -27.023  -8.655  70.623  1.00  0.00     0.217 HD
ENDBRANCH  27  28
BRANCH  27  30
HETATM   30  C14 UNL     1     -26.953 -10.996  72.915  1.00  0.00     0.438 C 
HETATM   31  F1  UNL     1     -25.597 -10.990  72.793  1.00  0.00    -0.164 F 
HETATM   32  F2  UNL     1     -27.487 -12.214  72.582  1.00  0.00    -0.164 F 
HETATM   33  F3  UNL     1     -27.271 -10.720  74.240  1.00  0.00    -0.164 F 
ENDBRANCH  27  30
ENDBRANCH  26  27
ENDBRANCH  24  26
ENDBRANCH  21  23
ENDBRANCH  19  21
ENDBRANCH   1  19
TORSDOF 12
ENDMDL
MODEL 3
REMARK VINA RESULT: -5.408400413      4.210      5.624
REMARK  12 active torsions:
REMARK  status: ('A' for Active; 'I' for Inactive)
REMARK    1  A    between atoms: C2_2  and  C4_4 
REMARK    2  A    between atoms: C5_9  and  S1_10 
REMARK    3  A    between atoms: S1_10  and  C6_11 
REMARK    4  A    between atoms: C8_14  and  C9_15 
REMARK    5  A    between atoms: C9_15  and  N3_16 
REMARK    6  A    between atoms: N3_16  and  C10_18 
REMARK    7  A    between atoms: C10_18  and  N4_20 
REMARK    8  A    between atoms: N4_20  and  N5_22 
REMARK    9  A    between atoms: C11_24  and  C12_25 
REMARK   10  A    between atoms: C12_25  and  C13_26 
REMARK   11  A    between atoms: C13_26  and  O2_27 
REMARK   12  A    between atoms: C13_26  and  C14_29 
ROOT
HETATM    1  N3  UNL     1     -29.165  -7.360  76.519  1.00  0.00    -0.363 N 
ATOM      2  H3  UNL     1     -29.524  -6.989  77.399  1.00  0.00     0.162 HD
ENDROOT
BRANCH   1   3
HETATM    3  C9  UNL     1     -28.191  -8.445  76.540  1.00  0.00     0.155 C 
BRANCH   3   4
HETATM    4  C8  UNL     1     -26.799  -7.851  76.612  1.00  0.00     0.155 C 
HETATM    5  C6  UNL     1     -25.821  -8.662  77.441  1.00  0.00     0.109 C 
HETATM    6  C7  UNL     1     -25.368  -9.121  76.078  1.00  0.00     0.186 C 
HETATM    7  O1  UNL     1     -26.048  -8.054  75.456  1.00  0.00    -0.382 OA
BRANCH   5   8
HETATM    8  S1  UNL     1     -24.686  -7.558  78.299  1.00  0.00    -0.094 SA
BRANCH   8   9
HETATM    9  C5  UNL     1     -23.008  -8.150  78.270  1.00  0.00     0.128 A 
HETATM   10  N2  UNL     1     -22.317  -8.493  79.346  1.00  0.00    -0.287 N 
HETATM   11  N1  UNL     1     -21.127  -8.904  79.224  1.00  0.00    -0.296 N 
ATOM     12  H2  UNL     1     -22.743  -8.427  80.271  1.00  0.00     0.188 HD
HETATM   13  C4  UNL     1     -20.569  -8.992  78.023  1.00  0.00     0.072 A 
ATOM     14  H1  UNL     1     -20.593  -9.169  80.052  1.00  0.00     0.187 HD
HETATM   15  S3  UNL     1     -21.872  -8.439  77.037  1.00  0.00    -0.049 SA
BRANCH  13  16
HETATM   16  C2  UNL     1     -19.194  -9.444  77.639  1.00  0.00     0.036 C 
HETATM   17  C1  UNL     1     -19.077  -9.420  76.152  1.00  0.00     0.016 C 
HETATM   18  C3  UNL     1     -18.882 -10.771  78.251  1.00  0.00     0.016 C 
ENDBRANCH  13  16
ENDBRANCH   8   9
ENDBRANCH   5   8
ENDBRANCH   3   4
ENDBRANCH   1   3
BRANCH   1  19
HETATM   19  C10 UNL     1     -29.621  -6.814  75.292  1.00  0.00     0.186 C 
HETATM   20  S2  UNL     1     -31.215  -6.628  75.003  1.00  0.00    -0.040 SA
BRANCH  19  21
HETATM   21  N4  UNL     1     -28.696  -6.420  74.301  1.00  0.00    -0.277 N 
ATOM     22  H4  UNL     1     -28.375  -5.454  74.244  1.00  0.00     0.189 HD
BRANCH  21  23
HETATM   23  N5  UNL     1     -28.229  -7.376  73.402  1.00  0.00    -0.310 N 
HETATM   24  C11 UNL     1     -28.943  -8.344  72.965  1.00  0.00     0.110 C 
ATOM     25  H5  UNL     1     -27.266  -7.301  73.075  1.00  0.00     0.186 HD
BRANCH  24  26
HETATM   26  C12 UNL     1     -28.339  -9.278  72.029  1.00  0.00     0.060 C 
BRANCH  26  27
HETATM   27  C13 UNL     1     -27.084  -9.186  71.635  1.00  0.00     0.151 C 
BRANCH  27  28
HETATM   28  O2  UNL     1     -26.072  -9.249  72.547  1.00  0.00    -0.357 OA
ATOM     29  H2  UNL     1     -25.360  -9.867  72.430  1.00  0.00     0.217 HD
ENDBRANCH  27  28
BRANCH  27  30
HETATM   30  C14 UNL     1     -26.776  -9.011  70.186  1.00  0.00     0.438 C 
HETATM   31  F1  UNL     1     -27.659  -9.691  69.403  1.00  0.00    -0.164 F 
HETATM   32  F2  UNL     1     -25.481  -9.389  69.936  1.00  0.00    -0.164 F 
HETATM   33  F3  UNL     1     -26.904  -7.655  69.907  1.00  0.00    -0.164 F 
ENDBRANCH  27  30
ENDBRANCH  26  27
ENDBRANCH  24  26
ENDBRANCH  21  23
ENDBRANCH  19  21
ENDBRANCH   1  19
TORSDOF 12
ENDMDL
MODEL 4
REMARK VINA RESULT: -5.403787078      2.778      4.492
REMARK  12 active torsions:
REMARK  status: ('A' for Active; 'I' for Inactive)
REMARK    1  A    between atoms: C2_2  and  C4_4 
REMARK    2  A    between atoms: C5_9  and  S1_10 
REMARK    3  A    between atoms: S1_10  and  C6_11 
REMARK    4  A    between atoms: C8_14  and  C9_15 
REMARK    5  A    between atoms: C9_15  and  N3_16 
REMARK    6  A    between atoms: N3_16  and  C10_18 
REMARK    7  A    between atoms: C10_18  and  N4_20 
REMARK    8  A    between atoms: N4_20  and  N5_22 
REMARK    9  A    between atoms: C11_24  and  C12_25 
REMARK   10  A    between atoms: C12_25  and  C13_26 
REMARK   11  A    between atoms: C13_26  and  O2_27 
REMARK   12  A    between atoms: C13_26  and  C14_29 
ROOT
HETATM    1  N3  UNL     1     -29.553  -2.580  76.138  1.00  0.00    -0.363 N 
ATOM      2  H3  UNL     1     -29.366  -1.601  75.920  1.00  0.00     0.162 HD
ENDROOT
BRANCH   1   3
HETATM    3  C9  UNL     1     -30.779  -3.203  75.653  1.00  0.00     0.155 C 
BRANCH   3   4
HETATM    4  C8  UNL     1     -30.439  -4.552  75.055  1.00  0.00     0.155 C 
HETATM    5  C6  UNL     1     -31.625  -5.279  74.450  1.00  0.00     0.109 C 
HETATM    6  C7  UNL     1     -31.030  -4.752  73.169  1.00  0.00     0.186 C 
HETATM    7  O1  UNL     1     -29.809  -4.467  73.815  1.00  0.00    -0.382 OA
BRANCH   5   8
HETATM    8  S1  UNL     1     -31.451  -7.053  74.708  1.00  0.00    -0.094 SA
BRANCH   8   9
HETATM    9  C5  UNL     1     -30.079  -7.741  73.810  1.00  0.00     0.128 A 
HETATM   10  N2  UNL     1     -28.838  -7.282  73.871  1.00  0.00    -0.287 N 
HETATM   11  N1  UNL     1     -27.927  -7.839  73.194  1.00  0.00    -0.296 N 
ATOM     12  H2  UNL     1     -28.618  -6.480  74.462  1.00  0.00     0.188 HD
HETATM   13  C4  UNL     1     -28.210  -8.882  72.423  1.00  0.00     0.072 A 
ATOM     14  H1  UNL     1     -26.971  -7.487  73.240  1.00  0.00     0.187 HD
HETATM   15  S3  UNL     1     -29.901  -9.036  72.720  1.00  0.00    -0.049 SA
BRANCH  13  16
HETATM   16  C2  UNL     1     -27.308  -9.692  71.544  1.00  0.00     0.036 C 
HETATM   17  C1  UNL     1     -26.088 -10.064  72.318  1.00  0.00     0.016 C 
HETATM   18  C3  UNL     1     -27.020  -8.969  70.269  1.00  0.00     0.016 C 
ENDBRANCH  13  16
ENDBRANCH   8   9
ENDBRANCH   5   8
ENDBRANCH   3   4
ENDBRANCH   1   3
BRANCH   1  19
HETATM   19  C10 UNL     1     -28.617  -3.316  76.908  1.00  0.00     0.186 C 
HETATM   20  S2  UNL     1     -28.956  -3.748  78.443  1.00  0.00    -0.040 SA
BRANCH  19  21
HETATM   21  N4  UNL     1     -27.373  -3.688  76.353  1.00  0.00    -0.277 N 
ATOM     22  H4  UNL     1     -26.863  -3.048  75.744  1.00  0.00     0.189 HD
BRANCH  21  23
HETATM   23  N5  UNL     1     -26.856  -4.946  76.651  1.00  0.00    -0.310 N 
HETATM   24  C11 UNL     1     -25.604  -5.191  76.745  1.00  0.00     0.110 C 
ATOM     25  H5  UNL     1     -27.511  -5.713  76.803  1.00  0.00     0.186 HD
BRANCH  24  26
HETATM   26  C12 UNL     1     -25.189  -6.548  77.062  1.00  0.00     0.060 C 
BRANCH  26  27
HETATM   27  C13 UNL     1     -25.322  -7.553  76.218  1.00  0.00     0.151 C 
BRANCH  27  28
HETATM   28  O2  UNL     1     -25.816  -7.335  74.965  1.00  0.00    -0.357 OA
ATOM     29  H2  UNL     1     -26.171  -8.057  74.459  1.00  0.00     0.217 HD
ENDBRANCH  27  28
BRANCH  27  30
HETATM   30  C14 UNL     1     -24.930  -8.929  76.640  1.00  0.00     0.438 C 
HETATM   31  F1  UNL     1     -25.556  -9.294  77.793  1.00  0.00    -0.164 F 
HETATM   32  F2  UNL     1     -23.566  -9.010  76.757  1.00  0.00    -0.164 F 
HETATM   33  F3  UNL     1     -25.340  -9.793  75.631  1.00  0.00    -0.164 F 
ENDBRANCH  27  30
ENDBRANCH  26  27
ENDBRANCH  24  26
ENDBRANCH  21  23
ENDBRANCH  19  21
ENDBRANCH   1  19
TORSDOF 12
ENDMDL
MODEL 5
REMARK VINA RESULT: -5.273820344      1.545      1.958
REMARK  12 active torsions:
REMARK  status: ('A' for Active; 'I' for Inactive)
REMARK    1  A    between atoms: C2_2  and  C4_4 
REMARK    2  A    between atoms: C5_9  and  S1_10 
REMARK    3  A    between atoms: S1_10  and  C6_11 
REMARK    4  A    between atoms: C8_14  and  C9_15 
REMARK    5  A    between atoms: C9_15  and  N3_16 
REMARK    6  A    between atoms: N3_16  and  C10_18 
REMARK    7  A    between atoms: C10_18  and  N4_20 
REMARK    8  A    between atoms: N4_20  and  N5_22 
REMARK    9  A    between atoms: C11_24  and  C12_25 
REMARK   10  A    between atoms: C12_25  and  C13_26 
REMARK   11  A    between atoms: C13_26  and  O2_27 
REMARK   12  A    between atoms: C13_26  and  C14_29 
ROOT
HETATM    1  N3  UNL     1     -28.156  -5.433  78.058  1.00  0.00    -0.363 N 
ATOM      2  H3  UNL     1     -28.902  -6.105  77.884  1.00  0.00     0.162 HD
ENDROOT
BRANCH   1   3
HETATM    3  C9  UNL     1     -26.940  -5.867  78.737  1.00  0.00     0.155 C 
BRANCH   3   4
HETATM    4  C8  UNL     1     -26.824  -7.373  78.616  1.00  0.00     0.155 C 
HETATM    5  C6  UNL     1     -26.136  -7.841  77.347  1.00  0.00     0.109 C 
HETATM    6  C7  UNL     1     -24.968  -7.999  78.286  1.00  0.00     0.186 C 
HETATM    7  O1  UNL     1     -25.817  -7.918  79.409  1.00  0.00    -0.382 OA
BRANCH   5   8
HETATM    8  S1  UNL     1     -26.883  -9.380  76.781  1.00  0.00    -0.094 SA
BRANCH   8   9
HETATM    9  C5  UNL     1     -26.965  -9.484  75.007  1.00  0.00     0.128 A 
HETATM   10  N2  UNL     1     -26.277  -8.713  74.178  1.00  0.00    -0.287 N 
HETATM   11  N1  UNL     1     -26.403  -8.863  72.929  1.00  0.00    -0.296 N 
ATOM     12  H2  UNL     1     -25.648  -7.999  74.547  1.00  0.00     0.188 HD
HETATM   13  C4  UNL     1     -27.220  -9.790  72.446  1.00  0.00     0.072 A 
ATOM     14  H1  UNL     1     -25.874  -8.270  72.290  1.00  0.00     0.187 HD
HETATM   15  S3  UNL     1     -27.826 -10.463  73.913  1.00  0.00    -0.049 SA
BRANCH  13  16
HETATM   16  C2  UNL     1     -27.527 -10.145  71.024  1.00  0.00     0.036 C 
HETATM   17  C1  UNL     1     -27.138  -9.002  70.147  1.00  0.00     0.016 C 
HETATM   18  C3  UNL     1     -28.953 -10.564  70.877  1.00  0.00     0.016 C 
ENDBRANCH  13  16
ENDBRANCH   8   9
ENDBRANCH   5   8
ENDBRANCH   3   4
ENDBRANCH   1   3
BRANCH   1  19
HETATM   19  C10 UNL     1     -28.314  -4.088  77.638  1.00  0.00     0.186 C 
HETATM   20  S2  UNL     1     -28.864  -2.951  78.670  1.00  0.00    -0.040 SA
BRANCH  19  21
HETATM   21  N4  UNL     1     -27.995  -3.712  76.315  1.00  0.00    -0.277 N 
ATOM     22  H4  UNL     1     -27.394  -2.908  76.134  1.00  0.00     0.189 HD
BRANCH  21  23
HETATM   23  N5  UNL     1     -28.515  -4.460  75.262  1.00  0.00    -0.310 N 
HETATM   24  C11 UNL     1     -29.746  -4.433  74.916  1.00  0.00     0.110 C 
ATOM     25  H5  UNL     1     -27.880  -5.063  74.740  1.00  0.00     0.186 HD
BRANCH  24  26
HETATM   26  C12 UNL     1     -30.167  -5.262  73.798  1.00  0.00     0.060 C 
BRANCH  26  27
HETATM   27  C13 UNL     1     -29.713  -6.485  73.604  1.00  0.00     0.151 C 
BRANCH  27  28
HETATM   28  O2  UNL     1     -28.466  -6.680  73.084  1.00  0.00    -0.357 OA
ATOM     29  H2  UNL     1     -27.751  -6.105  73.329  1.00  0.00     0.217 HD
ENDBRANCH  27  28
BRANCH  27  30
HETATM   30  C14 UNL     1     -30.569  -7.655  73.955  1.00  0.00     0.438 C 
HETATM   31  F1  UNL     1     -30.526  -8.613  72.988  1.00  0.00    -0.164 F 
HETATM   32  F2  UNL     1     -31.852  -7.237  74.198  1.00  0.00    -0.164 F 
HETATM   33  F3  UNL     1     -30.050  -8.198  75.126  1.00  0.00    -0.164 F 
ENDBRANCH  27  30
ENDBRANCH  26  27
ENDBRANCH  24  26
ENDBRANCH  21  23
ENDBRANCH  19  21
ENDBRANCH   1  19
TORSDOF 12
ENDMDL
