MODEL 1
REMARK VINA RESULT: -3.967921624      0.000      0.000
REMARK  0 active torsions:
REMARK  status: ('A' for Active; 'I' for Inactive)
ROOT
HETATM    1  S1  UNL     1     -20.249 -32.789   0.822  1.00  0.00    -0.033 SA
HETATM    2  C1  UNL     1     -20.439 -32.006   2.248  1.00  0.00     0.211 C 
HETATM    3  N1  UNL     1     -20.656 -32.650   3.522  1.00  0.00    -0.354 N 
ATOM      4  H1  UNL     1     -20.818 -33.642   3.693  1.00  0.00     0.162 HD
HETATM    5  C2  UNL     1     -20.596 -31.605   4.488  1.00  0.00     0.116 C 
HETATM    6  C3  UNL     1     -21.559 -31.712   5.617  1.00  0.00     0.030 C 
HETATM    7  C4  UNL     1     -21.531 -30.477   6.443  1.00  0.00     0.040 C 
HETATM    8  C5  UNL     1     -21.451 -29.197   5.731  1.00  0.00     0.195 C 
HETATM    9  O1  UNL     1     -22.494 -28.808   4.935  1.00  0.00    -0.232 OA
HETATM   10  O2  UNL     1     -21.609 -28.143   4.186  1.00  0.00    -0.230 OA
HETATM   11  C6  UNL     1     -20.722 -29.199   4.428  1.00  0.00     0.223 C 
HETATM   12  C7  UNL     1     -21.093 -30.409   3.657  1.00  0.00     0.188 C 
HETATM   13  O3  UNL     1     -20.422 -30.611   2.460  1.00  0.00    -0.317 OA
ENDROOT
TORSDOF 0
ENDMDL
MODEL 2
REMARK VINA RESULT: -3.952517163      3.624      5.671
REMARK  0 active torsions:
REMARK  status: ('A' for Active; 'I' for Inactive)
ROOT
HETATM    1  S1  UNL     1     -20.367 -33.055   4.929  1.00  0.00    -0.033 SA
HETATM    2  C1  UNL     1     -19.983 -32.707   3.376  1.00  0.00     0.211 C 
HETATM    3  N1  UNL     1     -20.939 -32.524   2.309  1.00  0.00    -0.354 N 
ATOM      4  H1  UNL     1     -21.946 -32.681   2.348  1.00  0.00     0.162 HD
HETATM    5  C2  UNL     1     -20.176 -32.078   1.192  1.00  0.00     0.116 C 
HETATM    6  C3  UNL     1     -20.598 -32.612  -0.133  1.00  0.00     0.030 C 
HETATM    7  C4  UNL     1     -19.616 -32.230  -1.182  1.00  0.00     0.040 C 
HETATM    8  C5  UNL     1     -18.194 -32.314  -0.831  1.00  0.00     0.195 C 
HETATM    9  O1  UNL     1     -17.642 -33.536  -0.562  1.00  0.00    -0.232 OA
HETATM   10  O2  UNL     1     -16.783 -32.914   0.251  1.00  0.00    -0.230 OA
HETATM   11  C6  UNL     1     -17.841 -32.065   0.599  1.00  0.00     0.223 C 
HETATM   12  C7  UNL     1     -18.821 -32.748   1.475  1.00  0.00     0.188 C 
HETATM   13  O3  UNL     1     -18.689 -32.532   2.839  1.00  0.00    -0.317 OA
ENDROOT
TORSDOF 0
ENDMDL
MODEL 3
REMARK VINA RESULT: -3.945580220      2.976      4.835
REMARK  0 active torsions:
REMARK  status: ('A' for Active; 'I' for Inactive)
ROOT
HETATM    1  S1  UNL     1     -21.411 -31.605   6.111  1.00  0.00    -0.033 SA
HETATM    2  C1  UNL     1     -20.847 -31.550   4.574  1.00  0.00     0.211 C 
HETATM    3  N1  UNL     1     -20.884 -30.384   3.722  1.00  0.00    -0.354 N 
ATOM      4  H1  UNL     1     -21.342 -29.493   3.913  1.00  0.00     0.162 HD
HETATM    5  C2  UNL     1     -20.145 -30.744   2.559  1.00  0.00     0.116 C 
HETATM    6  C3  UNL     1     -20.680 -30.231   1.268  1.00  0.00     0.030 C 
HETATM    7  C4  UNL     1     -19.941 -30.829   0.126  1.00  0.00     0.040 C 
HETATM    8  C5  UNL     1     -19.614 -32.256   0.212  1.00  0.00     0.195 C 
HETATM    9  O1  UNL     1     -20.627 -33.175   0.218  1.00  0.00    -0.232 OA
HETATM   10  O2  UNL     1     -19.836 -33.969   0.945  1.00  0.00    -0.230 OA
HETATM   11  C6  UNL     1     -19.378 -32.808   1.580  1.00  0.00     0.223 C 
HETATM   12  C7  UNL     1     -20.390 -32.262   2.514  1.00  0.00     0.188 C 
HETATM   13  O3  UNL     1     -20.247 -32.602   3.850  1.00  0.00    -0.317 OA
ENDROOT
TORSDOF 0
ENDMDL
MODEL 4
REMARK VINA RESULT: -3.920791422      2.662      3.752
REMARK  0 active torsions:
REMARK  status: ('A' for Active; 'I' for Inactive)
ROOT
HETATM    1  S1  UNL     1     -21.596 -31.052   6.996  1.00  0.00    -0.033 SA
HETATM    2  C1  UNL     1     -21.406 -30.307   5.551  1.00  0.00     0.211 C 
HETATM    3  N1  UNL     1     -20.795 -30.906   4.387  1.00  0.00    -0.354 N 
ATOM      4  H1  UNL     1     -20.321 -31.807   4.332  1.00  0.00     0.162 HD
HETATM    5  C2  UNL     1     -20.995 -29.969   3.333  1.00  0.00     0.116 C 
HETATM    6  C3  UNL     1     -19.866 -29.824   2.374  1.00  0.00     0.030 C 
HETATM    7  C4  UNL     1     -20.116 -28.690   1.445  1.00  0.00     0.040 C 
HETATM    8  C5  UNL     1     -20.689 -27.468   2.018  1.00  0.00     0.195 C 
HETATM    9  O1  UNL     1     -19.959 -26.747   2.923  1.00  0.00    -0.232 OA
HETATM   10  O2  UNL     1     -21.114 -26.354   3.468  1.00  0.00    -0.230 OA
HETATM   11  C6  UNL     1     -21.596 -27.640   3.193  1.00  0.00     0.223 C 
HETATM   12  C7  UNL     1     -21.022 -28.646   4.117  1.00  0.00     0.188 C 
HETATM   13  O3  UNL     1     -21.797 -28.994   5.213  1.00  0.00    -0.317 OA
ENDROOT
TORSDOF 0
ENDMDL
MODEL 5
REMARK VINA RESULT: -3.856886947      2.463      3.851
REMARK  0 active torsions:
REMARK  status: ('A' for Active; 'I' for Inactive)
ROOT
HETATM    1  S1  UNL     1     -21.609 -31.241   7.218  1.00  0.00    -0.033 SA
HETATM    2  C1  UNL     1     -21.229 -31.382   5.632  1.00  0.00     0.211 C 
HETATM    3  N1  UNL     1     -20.870 -32.618   4.975  1.00  0.00    -0.354 N 
ATOM      4  H1  UNL     1     -20.709 -33.526   5.411  1.00  0.00     0.162 HD
HETATM    5  C2  UNL     1     -20.789 -32.298   3.589  1.00  0.00     0.116 C 
HETATM    6  C3  UNL     1     -19.697 -32.970   2.834  1.00  0.00     0.030 C 
HETATM    7  C4  UNL     1     -19.598 -32.413   1.459  1.00  0.00     0.040 C 
HETATM    8  C5  UNL     1     -19.738 -30.960   1.313  1.00  0.00     0.195 C 
HETATM    9  O1  UNL     1     -18.793 -30.139   1.865  1.00  0.00    -0.232 OA
HETATM   10  O2  UNL     1     -19.748 -29.215   2.004  1.00  0.00    -0.230 OA
HETATM   11  C6  UNL     1     -20.622 -30.270   2.299  1.00  0.00     0.223 C 
HETATM   12  C7  UNL     1     -20.374 -30.818   3.653  1.00  0.00     0.188 C 
HETATM   13  O3  UNL     1     -21.190 -30.349   4.671  1.00  0.00    -0.317 OA
ENDROOT
TORSDOF 0
ENDMDL
