MODEL 1
REMARK VINA RESULT: -4.441988273      0.000      0.000
REMARK  1 active torsions:
REMARK  status: ('A' for Active; 'I' for Inactive)
REMARK    1  A    between atoms: O1_1  and  C1_3 
ROOT
HETATM    1  C1  UNL     1     -20.888 -32.726   0.625  1.00  0.00     0.123 C 
HETATM    2  C2  UNL     1     -21.721 -31.894  -0.298  1.00  0.00     0.034 C 
HETATM    3  C3  UNL     1     -21.464 -30.446  -0.270  1.00  0.00     0.029 C 
HETATM    4  C4  UNL     1     -20.143 -30.020   0.260  1.00  0.00     0.168 C 
HETATM    5  O2  UNL     1     -20.161 -29.940   1.647  1.00  0.00    -0.386 OA
HETATM    6  C5  UNL     1     -19.323 -30.919   2.161  1.00  0.00     0.236 C 
HETATM    7  C6  UNL     1     -20.167 -31.916   2.893  1.00  0.00     0.187 C 
HETATM    8  C7  UNL     1     -21.215 -32.572   2.067  1.00  0.00     0.102 C 
HETATM    9  O3  UNL     1     -19.340 -32.819   3.563  1.00  0.00    -0.351 OA
HETATM   10  C8  UNL     1     -20.052 -33.259   4.674  1.00  0.00     0.198 C 
HETATM   11  C9  UNL     1     -20.897 -32.057   5.002  1.00  0.00     0.198 C 
HETATM   12  O4  UNL     1     -20.826 -31.210   3.925  1.00  0.00    -0.351 OA
ENDROOT
BRANCH   1  13
HETATM   13  O1  UNL     1     -21.179 -34.071   0.282  1.00  0.00    -0.395 OA
ATOM     14  H1  UNL     1     -20.396 -34.395  -0.148  1.00  0.00     0.210 HD
ENDBRANCH   1  13
TORSDOF 1
ENDMDL
MODEL 2
REMARK VINA RESULT: -4.185585159      1.145      1.190
REMARK  1 active torsions:
REMARK  status: ('A' for Active; 'I' for Inactive)
REMARK    1  A    between atoms: O1_1  and  C1_3 
ROOT
HETATM    1  C1  UNL     1     -20.583 -33.096   0.468  1.00  0.00     0.123 C 
HETATM    2  C2  UNL     1     -20.697 -32.302  -0.795  1.00  0.00     0.034 C 
HETATM    3  C3  UNL     1     -19.731 -31.205  -0.957  1.00  0.00     0.029 C 
HETATM    4  C4  UNL     1     -18.488 -31.296  -0.147  1.00  0.00     0.168 C 
HETATM    5  O2  UNL     1     -18.686 -30.795   1.134  1.00  0.00    -0.386 OA
HETATM    6  C5  UNL     1     -18.579 -31.840   2.042  1.00  0.00     0.236 C 
HETATM    7  C6  UNL     1     -19.925 -32.058   2.661  1.00  0.00     0.187 C 
HETATM    8  C7  UNL     1     -21.011 -32.375   1.697  1.00  0.00     0.102 C 
HETATM    9  O3  UNL     1     -19.812 -32.985   3.698  1.00  0.00    -0.351 OA
HETATM   10  C8  UNL     1     -20.818 -32.684   4.610  1.00  0.00     0.198 C 
HETATM   11  C9  UNL     1     -20.952 -31.193   4.449  1.00  0.00     0.198 C 
HETATM   12  O4  UNL     1     -20.276 -30.850   3.306  1.00  0.00    -0.351 OA
ENDROOT
BRANCH   1  13
HETATM   13  O1  UNL     1     -21.473 -34.189   0.306  1.00  0.00    -0.395 OA
ATOM     14  H1  UNL     1     -21.507 -34.347  -0.631  1.00  0.00     0.210 HD
ENDBRANCH   1  13
TORSDOF 1
ENDMDL
MODEL 3
REMARK VINA RESULT: -4.044223233     13.493     14.495
REMARK  1 active torsions:
REMARK  status: ('A' for Active; 'I' for Inactive)
REMARK    1  A    between atoms: O1_1  and  C1_3 
ROOT
HETATM    1  C1  UNL     1     -32.271 -22.853   4.045  1.00  0.00     0.123 C 
HETATM    2  C2  UNL     1     -31.718 -23.275   2.720  1.00  0.00     0.034 C 
HETATM    3  C3  UNL     1     -31.927 -24.684   2.353  1.00  0.00     0.029 C 
HETATM    4  C4  UNL     1     -33.034 -25.391   3.050  1.00  0.00     0.168 C 
HETATM    5  O2  UNL     1     -32.619 -25.880   4.283  1.00  0.00    -0.386 OA
HETATM    6  C5  UNL     1     -33.296 -25.196   5.283  1.00  0.00     0.236 C 
HETATM    7  C6  UNL     1     -32.299 -24.377   6.043  1.00  0.00     0.187 C 
HETATM    8  C7  UNL     1     -31.543 -23.395   5.223  1.00  0.00     0.102 C 
HETATM    9  O3  UNL     1     -32.919 -23.812   7.159  1.00  0.00    -0.351 OA
HETATM   10  C8  UNL     1     -31.930 -23.649   8.122  1.00  0.00     0.198 C 
HETATM   11  C9  UNL     1     -31.001 -24.794   7.817  1.00  0.00     0.198 C 
HETATM   12  O4  UNL     1     -31.359 -25.283   6.586  1.00  0.00    -0.351 OA
ENDROOT
BRANCH   1  13
HETATM   13  O1  UNL     1     -32.118 -21.444   4.083  1.00  0.00    -0.395 OA
ATOM     14  H1  UNL     1     -31.292 -21.270   3.646  1.00  0.00     0.210 HD
ENDBRANCH   1  13
TORSDOF 1
ENDMDL
MODEL 4
REMARK VINA RESULT: -4.005618983      2.681      3.931
REMARK  1 active torsions:
REMARK  status: ('A' for Active; 'I' for Inactive)
REMARK    1  A    between atoms: O1_1  and  C1_3 
ROOT
HETATM    1  C1  UNL     1     -19.476 -32.630   2.680  1.00  0.00     0.123 C 
HETATM    2  C2  UNL     1     -20.234 -31.420   3.125  1.00  0.00     0.034 C 
HETATM    3  C3  UNL     1     -20.682 -30.511   2.058  1.00  0.00     0.029 C 
HETATM    4  C4  UNL     1     -20.778 -31.092   0.694  1.00  0.00     0.168 C 
HETATM    5  O2  UNL     1     -19.546 -31.073   0.052  1.00  0.00    -0.386 OA
HETATM    6  C5  UNL     1     -19.117 -32.381  -0.127  1.00  0.00     0.236 C 
HETATM    7  C6  UNL     1     -17.902 -32.592   0.721  1.00  0.00     0.187 C 
HETATM    8  C7  UNL     1     -18.105 -32.353   2.173  1.00  0.00     0.102 C 
HETATM    9  O3  UNL     1     -17.349 -33.841   0.433  1.00  0.00    -0.351 OA
HETATM   10  C8  UNL     1     -15.986 -33.740   0.689  1.00  0.00     0.198 C 
HETATM   11  C9  UNL     1     -15.713 -32.294   0.370  1.00  0.00     0.198 C 
HETATM   12  O4  UNL     1     -16.930 -31.667   0.275  1.00  0.00    -0.351 OA
ENDROOT
BRANCH   1  13
HETATM   13  O1  UNL     1     -19.327 -33.428   3.844  1.00  0.00    -0.395 OA
ATOM     14  H1  UNL     1     -20.212 -33.601   4.143  1.00  0.00     0.210 HD
ENDBRANCH   1  13
TORSDOF 1
ENDMDL
MODEL 5
REMARK VINA RESULT: -3.779897830      4.179      5.596
REMARK  1 active torsions:
REMARK  status: ('A' for Active; 'I' for Inactive)
REMARK    1  A    between atoms: O1_1  and  C1_3 
ROOT
HETATM    1  C1  UNL     1     -21.869 -28.652   3.972  1.00  0.00     0.123 C 
HETATM    2  C2  UNL     1     -23.118 -28.159   4.632  1.00  0.00     0.034 C 
HETATM    3  C3  UNL     1     -23.991 -27.308   3.808  1.00  0.00     0.029 C 
HETATM    4  C4  UNL     1     -23.823 -27.420   2.336  1.00  0.00     0.168 C 
HETATM    5  O2  UNL     1     -22.784 -26.614   1.887  1.00  0.00    -0.386 OA
HETATM    6  C5  UNL     1     -21.764 -27.426   1.411  1.00  0.00     0.236 C 
HETATM    7  C6  UNL     1     -20.582 -27.267   2.316  1.00  0.00     0.187 C 
HETATM    8  C7  UNL     1     -20.836 -27.607   3.740  1.00  0.00     0.102 C 
HETATM    9  O3  UNL     1     -19.487 -27.938   1.769  1.00  0.00    -0.351 OA
HETATM   10  C8  UNL     1     -18.351 -27.271   2.214  1.00  0.00     0.198 C 
HETATM   11  C9  UNL     1     -18.847 -25.855   2.342  1.00  0.00     0.198 C 
HETATM   12  O4  UNL     1     -20.216 -25.902   2.269  1.00  0.00    -0.351 OA
ENDROOT
BRANCH   1  13
HETATM   13  O1  UNL     1     -21.309 -29.586   4.881  1.00  0.00    -0.395 OA
ATOM     14  H1  UNL     1     -20.767 -30.158   4.349  1.00  0.00     0.210 HD
ENDBRANCH   1  13
TORSDOF 1
ENDMDL
