MODEL 1
REMARK VINA RESULT: -4.870127784      0.000      0.000
REMARK  0 active torsions:
REMARK  status: ('A' for Active; 'I' for Inactive)
ROOT
HETATM    1  C1  UNL     1     -21.647 -30.561   6.585  1.00  0.00     0.004 C 
HETATM    2  C2  UNL     1     -22.124 -29.523   5.618  1.00  0.00     0.030 C 
HETATM    3  C3  UNL     1     -21.306 -29.396   4.385  1.00  0.00     0.273 C 
HETATM    4  N1  UNL     1     -20.467 -30.511   4.091  1.00  0.00     0.098 N 
HETATM    5  C4  UNL     1     -20.347 -30.691   2.645  1.00  0.00     0.341 C 
HETATM    6  C5  UNL     1     -19.887 -32.137   2.499  1.00  0.00     0.192 C 
HETATM    7  C6  UNL     1     -20.128 -32.770   3.876  1.00  0.00     0.106 C 
HETATM    8  C7  UNL     1     -21.124 -31.774   4.455  1.00  0.00     0.228 C 
HETATM    9  C8  UNL     1     -21.236 -31.852   5.936  1.00  0.00     0.036 C 
HETATM   10  O1  UNL     1     -20.652 -32.732   1.526  1.00  0.00    -0.351 OA
HETATM   11  C9  UNL     1     -19.847 -32.673   0.364  1.00  0.00     0.198 C 
HETATM   12  C10 UNL     1     -18.494 -33.030   0.995  1.00  0.00     0.198 C 
HETATM   13  O2  UNL     1     -18.562 -32.244   2.155  1.00  0.00    -0.351 OA
ENDROOT
TORSDOF 0
ENDMDL
MODEL 2
REMARK VINA RESULT: -4.599271937      0.673      2.026
REMARK  0 active torsions:
REMARK  status: ('A' for Active; 'I' for Inactive)
ROOT
HETATM    1  C1  UNL     1     -22.065 -29.793   5.970  1.00  0.00     0.004 C 
HETATM    2  C2  UNL     1     -21.443 -31.005   6.589  1.00  0.00     0.030 C 
HETATM    3  C3  UNL     1     -21.172 -32.119   5.644  1.00  0.00     0.273 C 
HETATM    4  N1  UNL     1     -21.140 -31.756   4.266  1.00  0.00     0.098 N 
HETATM    5  C4  UNL     1     -20.167 -32.577   3.545  1.00  0.00     0.341 C 
HETATM    6  C5  UNL     1     -19.880 -31.772   2.284  1.00  0.00     0.192 C 
HETATM    7  C6  UNL     1     -20.454 -30.377   2.565  1.00  0.00     0.106 C 
HETATM    8  C7  UNL     1     -20.539 -30.427   4.085  1.00  0.00     0.228 C 
HETATM    9  C8  UNL     1     -21.454 -29.402   4.654  1.00  0.00     0.036 C 
HETATM   10  O1  UNL     1     -18.519 -31.734   2.102  1.00  0.00    -0.351 OA
HETATM   11  C9  UNL     1     -18.265 -32.750   1.151  1.00  0.00     0.198 C 
HETATM   12  C10 UNL     1     -19.453 -32.498   0.212  1.00  0.00     0.198 C 
HETATM   13  O2  UNL     1     -20.467 -32.307   1.163  1.00  0.00    -0.351 OA
ENDROOT
TORSDOF 0
ENDMDL
MODEL 3
REMARK VINA RESULT: -4.463154196      5.854      6.569
REMARK  0 active torsions:
REMARK  status: ('A' for Active; 'I' for Inactive)
ROOT
HETATM    1  C1  UNL     1     -26.452 -28.221   5.675  1.00  0.00     0.004 C 
HETATM    2  C2  UNL     1     -27.432 -28.739   4.670  1.00  0.00     0.030 C 
HETATM    3  C3  UNL     1     -27.381 -28.068   3.346  1.00  0.00     0.273 C 
HETATM    4  N1  UNL     1     -26.181 -27.348   3.072  1.00  0.00     0.098 N 
HETATM    5  C4  UNL     1     -25.860 -27.415   1.646  1.00  0.00     0.341 C 
HETATM    6  C5  UNL     1     -24.376 -27.075   1.594  1.00  0.00     0.192 C 
HETATM    7  C6  UNL     1     -23.892 -27.191   3.046  1.00  0.00     0.106 C 
HETATM    8  C7  UNL     1     -25.012 -28.041   3.632  1.00  0.00     0.228 C 
HETATM    9  C8  UNL     1     -25.079 -27.979   5.116  1.00  0.00     0.036 C 
HETATM   10  O1  UNL     1     -23.757 -27.990   0.778  1.00  0.00    -0.351 OA
HETATM   11  C9  UNL     1     -23.646 -27.328  -0.467  1.00  0.00     0.198 C 
HETATM   12  C10 UNL     1     -23.242 -25.937   0.039  1.00  0.00     0.198 C 
HETATM   13  O2  UNL     1     -24.133 -25.811   1.115  1.00  0.00    -0.351 OA
ENDROOT
TORSDOF 0
ENDMDL
MODEL 4
REMARK VINA RESULT: -4.405411916      4.237      5.162
REMARK  0 active torsions:
REMARK  status: ('A' for Active; 'I' for Inactive)
ROOT
HETATM    1  C1  UNL     1     -25.980 -27.919   4.852  1.00  0.00     0.004 C 
HETATM    2  C2  UNL     1     -26.322 -28.037   3.400  1.00  0.00     0.030 C 
HETATM    3  C3  UNL     1     -25.351 -27.395   2.476  1.00  0.00     0.273 C 
HETATM    4  N1  UNL     1     -24.062 -27.136   3.029  1.00  0.00     0.098 N 
HETATM    5  C4  UNL     1     -23.029 -27.277   2.004  1.00  0.00     0.341 C 
HETATM    6  C5  UNL     1     -21.749 -27.478   2.807  1.00  0.00     0.192 C 
HETATM    7  C6  UNL     1     -22.222 -27.790   4.233  1.00  0.00     0.106 C 
HETATM    8  C7  UNL     1     -23.659 -28.207   3.951  1.00  0.00     0.228 C 
HETATM    9  C8  UNL     1     -24.529 -28.161   5.156  1.00  0.00     0.036 C 
HETATM   10  O1  UNL     1     -21.062 -28.532   2.257  1.00  0.00    -0.351 OA
HETATM   11  C9  UNL     1     -20.091 -27.922   1.429  1.00  0.00     0.198 C 
HETATM   12  C10 UNL     1     -19.676 -26.772   2.357  1.00  0.00     0.198 C 
HETATM   13  O2  UNL     1     -20.940 -26.368   2.809  1.00  0.00    -0.351 OA
ENDROOT
TORSDOF 0
ENDMDL
MODEL 5
REMARK VINA RESULT: -4.300503415      1.064      1.177
REMARK  0 active torsions:
REMARK  status: ('A' for Active; 'I' for Inactive)
ROOT
HETATM    1  C1  UNL     1     -21.281 -31.615   6.445  1.00  0.00     0.004 C 
HETATM    2  C2  UNL     1     -21.932 -30.328   6.048  1.00  0.00     0.030 C 
HETATM    3  C3  UNL     1     -21.307 -29.646   4.885  1.00  0.00     0.273 C 
HETATM    4  N1  UNL     1     -20.480 -30.469   4.067  1.00  0.00     0.098 N 
HETATM    5  C4  UNL     1     -20.564 -30.048   2.668  1.00  0.00     0.341 C 
HETATM    6  C5  UNL     1     -20.078 -31.268   1.895  1.00  0.00     0.192 C 
HETATM    7  C6  UNL     1     -20.091 -32.415   2.914  1.00  0.00     0.106 C 
HETATM    8  C7  UNL     1     -21.029 -31.828   3.961  1.00  0.00     0.228 C 
HETATM    9  C8  UNL     1     -20.921 -32.498   5.285  1.00  0.00     0.036 C 
HETATM   10  O1  UNL     1     -20.954 -31.496   0.862  1.00  0.00    -0.351 OA
HETATM   11  C9  UNL     1     -20.329 -30.906  -0.262  1.00  0.00     0.198 C 
HETATM   12  C10 UNL     1     -18.887 -31.357   0.005  1.00  0.00     0.198 C 
HETATM   13  O2  UNL     1     -18.813 -31.106   1.383  1.00  0.00    -0.351 OA
ENDROOT
TORSDOF 0
ENDMDL
