MODEL 1
REMARK VINA RESULT: -4.356458790      0.000      0.000
REMARK  1 active torsions:
REMARK  status: ('A' for Active; 'I' for Inactive)
REMARK    1  A    between atoms: O1_1  and  C1_3 
ROOT
HETATM    1  C1  UNL     1     -19.022 -33.183   1.168  1.00  0.00     0.180 C 
HETATM    2  C2  UNL     1     -18.550 -32.398   2.364  1.00  0.00     0.180 C 
HETATM    3  C3  UNL     1     -19.342 -32.861   3.530  1.00  0.00     0.032 C 
HETATM    4  C4  UNL     1     -20.566 -32.380   3.642  1.00  0.00     0.136 C 
HETATM    5  O2  UNL     1     -20.976 -31.490   2.651  1.00  0.00    -0.332 OA
HETATM    6  C5  UNL     1     -20.052 -30.770   1.859  1.00  0.00     0.272 C 
HETATM    7  O3  UNL     1     -18.740 -31.042   2.252  1.00  0.00    -0.349 OA
HETATM    8  C6  UNL     1     -20.135 -31.087   0.402  1.00  0.00     0.075 C 
HETATM    9  C7  UNL     1     -21.542 -31.292  -0.096  1.00  0.00     0.038 C 
HETATM   10  C8  UNL     1     -21.531 -32.772  -0.432  1.00  0.00     0.168 C 
HETATM   11  O4  UNL     1     -20.237 -33.036  -0.834  1.00  0.00    -0.383 OA
HETATM   12  C9  UNL     1     -19.387 -32.313  -0.004  1.00  0.00     0.161 C 
ENDROOT
BRANCH   1  13
HETATM   13  O1  UNL     1     -18.047 -34.114   0.780  1.00  0.00    -0.390 OA
ATOM     14  H1  UNL     1     -18.243 -34.455  -0.085  1.00  0.00     0.210 HD
ENDBRANCH   1  13
TORSDOF 1
ENDMDL
MODEL 2
REMARK VINA RESULT: -4.043703600      1.406      3.163
REMARK  1 active torsions:
REMARK  status: ('A' for Active; 'I' for Inactive)
REMARK    1  A    between atoms: O1_1  and  C1_3 
ROOT
HETATM    1  C1  UNL     1     -20.246 -32.808   0.555  1.00  0.00     0.180 C 
HETATM    2  C2  UNL     1     -21.052 -31.690   1.162  1.00  0.00     0.180 C 
HETATM    3  C3  UNL     1     -21.288 -30.690   0.092  1.00  0.00     0.032 C 
HETATM    4  C4  UNL     1     -20.288 -29.876  -0.187  1.00  0.00     0.136 C 
HETATM    5  O2  UNL     1     -19.121 -30.048   0.557  1.00  0.00    -0.332 OA
HETATM    6  C5  UNL     1     -19.122 -30.687   1.819  1.00  0.00     0.272 C 
HETATM    7  O3  UNL     1     -20.419 -31.043   2.195  1.00  0.00    -0.349 OA
HETATM    8  C6  UNL     1     -18.307 -31.936   1.859  1.00  0.00     0.075 C 
HETATM    9  C7  UNL     1     -17.028 -31.854   1.067  1.00  0.00     0.038 C 
HETATM   10  C8  UNL     1     -17.305 -32.837  -0.056  1.00  0.00     0.168 C 
HETATM   11  O4  UNL     1     -18.119 -33.800   0.505  1.00  0.00    -0.383 OA
HETATM   12  C9  UNL     1     -19.013 -33.149   1.348  1.00  0.00     0.161 C 
ENDROOT
BRANCH   1  13
HETATM   13  O1  UNL     1     -21.039 -33.954   0.400  1.00  0.00    -0.390 OA
ATOM     14  H1  UNL     1     -20.797 -34.419  -0.392  1.00  0.00     0.210 HD
ENDBRANCH   1  13
TORSDOF 1
ENDMDL
MODEL 3
REMARK VINA RESULT: -4.017757916     14.463     15.678
REMARK  1 active torsions:
REMARK  status: ('A' for Active; 'I' for Inactive)
REMARK    1  A    between atoms: O1_1  and  C1_3 
ROOT
HETATM    1  C1  UNL     1     -32.311 -22.868   4.254  1.00  0.00     0.180 C 
HETATM    2  C2  UNL     1     -32.960 -23.243   5.561  1.00  0.00     0.180 C 
HETATM    3  C3  UNL     1     -31.957 -24.001   6.346  1.00  0.00     0.032 C 
HETATM    4  C4  UNL     1     -31.785 -25.267   6.019  1.00  0.00     0.136 C 
HETATM    5  O2  UNL     1     -32.566 -25.750   4.970  1.00  0.00    -0.332 OA
HETATM    6  C5  UNL     1     -33.777 -25.127   4.588  1.00  0.00     0.272 C 
HETATM    7  O3  UNL     1     -34.066 -24.046   5.424  1.00  0.00    -0.349 OA
HETATM    8  C6  UNL     1     -33.763 -24.596   3.193  1.00  0.00     0.075 C 
HETATM    9  C7  UNL     1     -33.038 -25.481   2.212  1.00  0.00     0.038 C 
HETATM   10  C8  UNL     1     -31.835 -24.624   1.864  1.00  0.00     0.168 C 
HETATM   11  O4  UNL     1     -32.287 -23.322   1.952  1.00  0.00    -0.383 OA
HETATM   12  C9  UNL     1     -33.133 -23.249   3.053  1.00  0.00     0.161 C 
ENDROOT
BRANCH   1  13
HETATM   13  O1  UNL     1     -32.037 -21.493   4.221  1.00  0.00    -0.390 OA
ATOM     14  H1  UNL     1     -31.112 -21.344   4.063  1.00  0.00     0.210 HD
ENDBRANCH   1  13
TORSDOF 1
ENDMDL
MODEL 4
REMARK VINA RESULT: -3.987606174      1.349      1.717
REMARK  1 active torsions:
REMARK  status: ('A' for Active; 'I' for Inactive)
REMARK    1  A    between atoms: O1_1  and  C1_3 
ROOT
HETATM    1  C1  UNL     1     -20.733 -32.740   0.904  1.00  0.00     0.180 C 
HETATM    2  C2  UNL     1     -19.753 -32.884   2.038  1.00  0.00     0.180 C 
HETATM    3  C3  UNL     1     -20.461 -32.488   3.280  1.00  0.00     0.032 C 
HETATM    4  C4  UNL     1     -20.591 -31.194   3.499  1.00  0.00     0.136 C 
HETATM    5  O2  UNL     1     -20.049 -30.343   2.537  1.00  0.00    -0.332 OA
HETATM    6  C5  UNL     1     -19.031 -30.765   1.650  1.00  0.00     0.272 C 
HETATM    7  O3  UNL     1     -18.645 -32.079   1.923  1.00  0.00    -0.349 OA
HETATM    8  C6  UNL     1     -19.433 -30.727   0.213  1.00  0.00     0.075 C 
HETATM    9  C7  UNL     1     -20.292 -29.543  -0.147  1.00  0.00     0.038 C 
HETATM   10  C8  UNL     1     -21.617 -30.214  -0.460  1.00  0.00     0.168 C 
HETATM   11  O4  UNL     1     -21.278 -31.447  -0.978  1.00  0.00    -0.383 OA
HETATM   12  C9  UNL     1     -20.198 -31.925  -0.243  1.00  0.00     0.161 C 
ENDROOT
BRANCH   1  13
HETATM   13  O1  UNL     1     -21.131 -34.002   0.440  1.00  0.00    -0.390 OA
ATOM     14  H1  UNL     1     -20.802 -34.685   1.013  1.00  0.00     0.210 HD
ENDBRANCH   1  13
TORSDOF 1
ENDMDL
MODEL 5
REMARK VINA RESULT: -3.893098177      1.772      3.713
REMARK  1 active torsions:
REMARK  status: ('A' for Active; 'I' for Inactive)
REMARK    1  A    between atoms: O1_1  and  C1_3 
ROOT
HETATM    1  C1  UNL     1     -20.995 -32.929   0.218  1.00  0.00     0.180 C 
HETATM    2  C2  UNL     1     -21.811 -32.050  -0.693  1.00  0.00     0.180 C 
HETATM    3  C3  UNL     1     -21.039 -31.885  -1.949  1.00  0.00     0.032 C 
HETATM    4  C4  UNL     1     -20.050 -31.013  -1.923  1.00  0.00     0.136 C 
HETATM    5  O2  UNL     1     -19.841 -30.345  -0.718  1.00  0.00    -0.332 OA
HETATM    6  C5  UNL     1     -20.858 -30.219   0.257  1.00  0.00     0.272 C 
HETATM    7  O3  UNL     1     -22.050 -30.794  -0.190  1.00  0.00    -0.349 OA
HETATM    8  C6  UNL     1     -20.527 -30.877   1.556  1.00  0.00     0.075 C 
HETATM    9  C7  UNL     1     -19.084 -30.730   1.962  1.00  0.00     0.038 C 
HETATM   10  C8  UNL     1     -18.592 -32.162   1.850  1.00  0.00     0.168 C 
HETATM   11  O4  UNL     1     -19.687 -32.941   2.167  1.00  0.00    -0.383 OA
HETATM   12  C9  UNL     1     -20.803 -32.343   1.591  1.00  0.00     0.161 C 
ENDROOT
BRANCH   1  13
HETATM   13  O1  UNL     1     -21.579 -34.199   0.324  1.00  0.00    -0.390 OA
ATOM     14  H1  UNL     1     -20.938 -34.875   0.138  1.00  0.00     0.210 HD
ENDBRANCH   1  13
TORSDOF 1
ENDMDL
