MODEL 1
REMARK VINA RESULT: -3.353328588      0.000      0.000
REMARK  3 active torsions:
REMARK  status: ('A' for Active; 'I' for Inactive)
REMARK    1  A    between atoms: C2_2  and  N1_5 
REMARK    2  A    between atoms: N1_5  and  S1_7 
REMARK    3  A    between atoms: S1_7  and  N2_9 
ROOT
HETATM    1  N1  UNL     1      33.136  21.573  -1.495  1.00  0.00    -0.328 N 
ATOM      2  H1  UNL     1      33.403  22.324  -2.131  1.00  0.00     0.171 HD
ENDROOT
BRANCH   1   3
HETATM    3  C2  UNL     1      32.800  20.402  -2.120  1.00  0.00     0.028 C 
HETATM    4  C1  UNL     1      31.271  20.274  -2.173  1.00  0.00     0.038 C 
HETATM    5  C3  UNL     1      33.251  20.466  -3.586  1.00  0.00     0.038 C 
HETATM    6  C4  UNL     1      33.327  19.130  -1.549  1.00  0.00     0.038 C 
ENDBRANCH   1   3
BRANCH   1   7
HETATM    7  S1  UNL     1      33.190  22.041   0.306  1.00  0.00     0.097 S 
HETATM    8  C5  UNL     1      32.853  20.838   1.706  1.00  0.00     0.160 C 
HETATM    9  O1  UNL     1      31.546  22.516   0.139  1.00  0.00    -0.229 OA
BRANCH   7  10
HETATM   10  N2  UNL     1      33.571  23.846   0.761  1.00  0.00    -0.345 N 
ATOM     11  H22 UNL     1      34.492  24.236   0.561  1.00  0.00     0.167 HD
ATOM     12  H21 UNL     1      32.838  24.401   1.203  1.00  0.00     0.167 HD
ENDBRANCH   7  10
ENDBRANCH   1   7
TORSDOF 3
ENDMDL
MODEL 2
REMARK VINA RESULT: -3.350523061      0.094      1.385
REMARK  3 active torsions:
REMARK  status: ('A' for Active; 'I' for Inactive)
REMARK    1  A    between atoms: C2_2  and  N1_5 
REMARK    2  A    between atoms: N1_5  and  S1_7 
REMARK    3  A    between atoms: S1_7  and  N2_9 
ROOT
HETATM    1  N1  UNL     1      33.209  21.610  -1.460  1.00  0.00    -0.328 N 
ATOM      2  H1  UNL     1      33.649  22.307  -2.061  1.00  0.00     0.171 HD
ENDROOT
BRANCH   1   3
HETATM    3  C2  UNL     1      32.732  20.515  -2.128  1.00  0.00     0.028 C 
HETATM    4  C1  UNL     1      33.171  20.583  -3.597  1.00  0.00     0.038 C 
HETATM    5  C3  UNL     1      33.399  19.252  -1.565  1.00  0.00     0.038 C 
HETATM    6  C4  UNL     1      31.260  20.279  -2.121  1.00  0.00     0.038 C 
ENDBRANCH   1   3
BRANCH   1   7
HETATM    7  S1  UNL     1      33.199  22.058   0.346  1.00  0.00     0.097 S 
HETATM    8  C5  UNL     1      32.816  20.838   1.720  1.00  0.00     0.160 C 
HETATM    9  O1  UNL     1      31.560  22.530   0.127  1.00  0.00    -0.229 OA
BRANCH   7  10
HETATM   10  N2  UNL     1      33.558  23.858   0.836  1.00  0.00    -0.345 N 
ATOM     11  H22 UNL     1      34.056  24.470   0.189  1.00  0.00     0.167 HD
ATOM     12  H21 UNL     1      33.243  24.187   1.749  1.00  0.00     0.167 HD
ENDBRANCH   7  10
ENDBRANCH   1   7
TORSDOF 3
ENDMDL
MODEL 3
REMARK VINA RESULT: -3.337255368     14.394     14.906
REMARK  3 active torsions:
REMARK  status: ('A' for Active; 'I' for Inactive)
REMARK    1  A    between atoms: C2_2  and  N1_5 
REMARK    2  A    between atoms: N1_5  and  S1_7 
REMARK    3  A    between atoms: S1_7  and  N2_9 
ROOT
HETATM    1  N1  UNL     1      23.747  31.909  -4.787  1.00  0.00    -0.328 N 
ATOM      2  H1  UNL     1      23.505  31.018  -5.221  1.00  0.00     0.171 HD
ENDROOT
BRANCH   1   3
HETATM    3  C2  UNL     1      24.520  32.723  -5.570  1.00  0.00     0.028 C 
HETATM    4  C1  UNL     1      24.626  32.122  -6.979  1.00  0.00     0.038 C 
HETATM    5  C3  UNL     1      23.805  34.069  -5.758  1.00  0.00     0.038 C 
HETATM    6  C4  UNL     1      25.908  33.019  -5.114  1.00  0.00     0.038 C 
ENDBRANCH   1   3
BRANCH   1   7
HETATM    7  S1  UNL     1      23.057  32.136  -3.073  1.00  0.00     0.097 S 
HETATM    8  C5  UNL     1      23.000  33.786  -2.182  1.00  0.00     0.160 C 
HETATM    9  O1  UNL     1      24.620  31.721  -2.488  1.00  0.00    -0.229 OA
BRANCH   7  10
HETATM   10  N2  UNL     1      22.405  30.608  -2.150  1.00  0.00    -0.345 N 
ATOM     11  H22 UNL     1      22.623  29.674  -2.497  1.00  0.00     0.167 HD
ATOM     12  H21 UNL     1      21.841  30.750  -1.312  1.00  0.00     0.167 HD
ENDBRANCH   7  10
ENDBRANCH   1   7
TORSDOF 3
ENDMDL
MODEL 4
REMARK VINA RESULT: -3.334495223     16.242     16.750
REMARK  3 active torsions:
REMARK  status: ('A' for Active; 'I' for Inactive)
REMARK    1  A    between atoms: C2_2  and  N1_5 
REMARK    2  A    between atoms: N1_5  and  S1_7 
REMARK    3  A    between atoms: S1_7  and  N2_9 
ROOT
HETATM    1  N1  UNL     1      23.902  34.259  -6.228  1.00  0.00    -0.328 N 
ATOM      2  H1  UNL     1      23.155  34.050  -6.890  1.00  0.00     0.171 HD
ENDROOT
BRANCH   1   3
HETATM    3  C2  UNL     1      24.505  33.151  -5.696  1.00  0.00     0.028 C 
HETATM    4  C1  UNL     1      23.593  32.541  -4.623  1.00  0.00     0.038 C 
HETATM    5  C3  UNL     1      24.627  32.073  -6.783  1.00  0.00     0.038 C 
HETATM    6  C4  UNL     1      25.854  33.316  -5.083  1.00  0.00     0.038 C 
ENDBRANCH   1   3
BRANCH   1   7
HETATM    7  S1  UNL     1      24.200  36.076  -5.959  1.00  0.00     0.097 S 
HETATM    8  C5  UNL     1      25.121  36.774  -4.482  1.00  0.00     0.160 C 
HETATM    9  O1  UNL     1      22.662  36.121  -5.191  1.00  0.00    -0.229 OA
BRANCH   7  10
HETATM   10  N2  UNL     1      23.501  37.306  -7.228  1.00  0.00    -0.345 N 
ATOM     11  H22 UNL     1      22.907  36.970  -7.987  1.00  0.00     0.167 HD
ATOM     12  H21 UNL     1      23.734  38.294  -7.128  1.00  0.00     0.167 HD
ENDBRANCH   7  10
ENDBRANCH   1   7
TORSDOF 3
ENDMDL
MODEL 5
REMARK VINA RESULT: -3.256459661      0.148      1.421
REMARK  3 active torsions:
REMARK  status: ('A' for Active; 'I' for Inactive)
REMARK    1  A    between atoms: C2_2  and  N1_5 
REMARK    2  A    between atoms: N1_5  and  S1_7 
REMARK    3  A    between atoms: S1_7  and  N2_9 
ROOT
HETATM    1  N1  UNL     1      33.183  21.634  -1.537  1.00  0.00    -0.328 N 
ATOM      2  H1  UNL     1      33.532  22.409  -2.101  1.00  0.00     0.171 HD
ENDROOT
BRANCH   1   3
HETATM    3  C2  UNL     1      32.831  20.528  -2.262  1.00  0.00     0.028 C 
HETATM    4  C1  UNL     1      33.406  19.275  -1.587  1.00  0.00     0.038 C 
HETATM    5  C3  UNL     1      31.307  20.353  -2.206  1.00  0.00     0.038 C 
HETATM    6  C4  UNL     1      33.231  20.476  -3.697  1.00  0.00     0.038 C 
ENDBRANCH   1   3
BRANCH   1   7
HETATM    7  S1  UNL     1      33.137  21.980   0.291  1.00  0.00     0.097 S 
HETATM    8  C5  UNL     1      32.703  20.693   1.585  1.00  0.00     0.160 C 
HETATM    9  O1  UNL     1      31.511  22.493   0.062  1.00  0.00    -0.229 OA
BRANCH   7  10
HETATM   10  N2  UNL     1      33.513  23.744   0.889  1.00  0.00    -0.345 N 
ATOM     11  H22 UNL     1      34.407  23.949   1.335  1.00  0.00     0.167 HD
ATOM     12  H21 UNL     1      32.805  24.466   0.752  1.00  0.00     0.167 HD
ENDBRANCH   7  10
ENDBRANCH   1   7
TORSDOF 3
ENDMDL
