MODEL 1
REMARK VINA RESULT: -3.883708084      0.000      0.000
REMARK  2 active torsions:
REMARK  status: ('A' for Active; 'I' for Inactive)
REMARK    1  A    between atoms: N1_2  and  C2_4 
REMARK    2  A    between atoms: C6_8  and  O1_9 
ROOT
HETATM    1  C2  UNL     1      24.784  32.577  -6.065  1.00  0.00     0.026 C 
HETATM    2  C3  UNL     1      23.833  32.393  -4.885  1.00  0.00     0.038 C 
HETATM    3  C4  UNL     1      23.716  33.884  -4.864  1.00  0.00     0.019 C 
HETATM    4  C5  UNL     1      24.310  34.007  -6.241  1.00  0.00     0.038 C 
HETATM    5  C6  UNL     1      24.548  34.422  -3.763  1.00  0.00     0.127 C 
HETATM    6  C7  UNL     1      25.750  33.713  -3.373  1.00  0.00     0.019 A 
HETATM    7  C8  UNL     1      27.055  34.270  -3.978  1.00  0.00     0.012 A 
HETATM    8  C9  UNL     1      26.494  32.838  -4.203  1.00  0.00    -0.005 A 
HETATM    9  C10 UNL     1      26.181  32.522  -5.580  1.00  0.00     0.035 C 
ENDROOT
BRANCH   1  10
HETATM   10  N1  UNL     1      24.390  31.740  -7.131  1.00  0.00    -0.417 N 
HETATM   11  C1  UNL     1      24.285  32.315  -8.415  1.00  0.00     0.140 C 
ATOM     12  H1  UNL     1      24.189  30.752  -6.979  1.00  0.00     0.153 HD
ENDBRANCH   1  10
BRANCH   5  13
HETATM   13  O1  UNL     1      24.876  35.757  -4.112  1.00  0.00    -0.395 OA
ATOM     14  H1  UNL     1      25.433  36.093  -3.418  1.00  0.00     0.210 HD
ENDBRANCH   5  13
TORSDOF 2
ENDMDL
MODEL 2
REMARK VINA RESULT: -3.844454120      1.725      2.573
REMARK  2 active torsions:
REMARK  status: ('A' for Active; 'I' for Inactive)
REMARK    1  A    between atoms: N1_2  and  C2_4 
REMARK    2  A    between atoms: C6_8  and  O1_9 
ROOT
HETATM    1  C2  UNL     1      24.427  33.374  -5.782  1.00  0.00     0.026 C 
HETATM    2  C3  UNL     1      25.148  34.586  -5.197  1.00  0.00     0.038 C 
HETATM    3  C4  UNL     1      26.189  33.623  -4.721  1.00  0.00     0.019 C 
HETATM    4  C5  UNL     1      25.685  32.538  -5.634  1.00  0.00     0.038 C 
HETATM    5  C6  UNL     1      25.997  33.376  -3.274  1.00  0.00     0.127 C 
HETATM    6  C7  UNL     1      24.663  33.443  -2.714  1.00  0.00     0.019 A 
HETATM    7  C8  UNL     1      23.963  32.080  -2.543  1.00  0.00     0.012 A 
HETATM    8  C9  UNL     1      23.459  33.249  -3.436  1.00  0.00    -0.005 A 
HETATM    9  C10 UNL     1      23.369  32.936  -4.845  1.00  0.00     0.035 C 
ENDROOT
BRANCH   1  10
HETATM   10  N1  UNL     1      24.096  33.620  -7.132  1.00  0.00    -0.417 N 
HETATM   11  C1  UNL     1      24.307  32.580  -8.061  1.00  0.00     0.140 C 
ATOM     12  H1  UNL     1      23.716  34.519  -7.425  1.00  0.00     0.153 HD
ENDBRANCH   1  10
BRANCH   5  13
HETATM   13  O1  UNL     1      26.565  32.106  -2.996  1.00  0.00    -0.395 OA
ATOM     14  H1  UNL     1      26.796  31.719  -3.833  1.00  0.00     0.210 HD
ENDBRANCH   5  13
TORSDOF 2
ENDMDL
MODEL 3
REMARK VINA RESULT: -3.810448443      1.338      2.297
REMARK  2 active torsions:
REMARK  status: ('A' for Active; 'I' for Inactive)
REMARK    1  A    between atoms: N1_2  and  C2_4 
REMARK    2  A    between atoms: C6_8  and  O1_9 
ROOT
HETATM    1  C2  UNL     1      24.302  32.992  -5.803  1.00  0.00     0.026 C 
HETATM    2  C3  UNL     1      25.420  33.056  -4.766  1.00  0.00     0.038 C 
HETATM    3  C4  UNL     1      24.339  33.236  -3.746  1.00  0.00     0.019 C 
HETATM    4  C5  UNL     1      23.278  32.770  -4.706  1.00  0.00     0.038 C 
HETATM    5  C6  UNL     1      24.266  34.664  -3.362  1.00  0.00     0.127 C 
HETATM    6  C7  UNL     1      24.617  35.678  -4.335  1.00  0.00     0.019 A 
HETATM    7  C8  UNL     1      23.419  36.317  -5.065  1.00  0.00     0.012 A 
HETATM    8  C9  UNL     1      24.568  35.519  -5.742  1.00  0.00    -0.005 A 
HETATM    9  C10 UNL     1      24.144  34.321  -6.435  1.00  0.00     0.035 C 
ENDROOT
BRANCH   1  10
HETATM   10  N1  UNL     1      24.474  31.855  -6.622  1.00  0.00    -0.417 N 
HETATM   11  C1  UNL     1      24.556  32.055  -8.016  1.00  0.00     0.140 C 
ATOM     12  H1  UNL     1      24.536  30.921  -6.219  1.00  0.00     0.153 HD
ENDBRANCH   1  10
BRANCH   5  13
HETATM   13  O1  UNL     1      22.949  34.894  -2.889  1.00  0.00    -0.395 OA
ATOM     14  H1  UNL     1      22.735  34.172  -2.311  1.00  0.00     0.210 HD
ENDBRANCH   5  13
TORSDOF 2
ENDMDL
MODEL 4
REMARK VINA RESULT: -3.690362352      2.931      4.102
REMARK  2 active torsions:
REMARK  status: ('A' for Active; 'I' for Inactive)
REMARK    1  A    between atoms: N1_2  and  C2_4 
REMARK    2  A    between atoms: C6_8  and  O1_9 
ROOT
HETATM    1  C2  UNL     1      27.955  31.477  -6.147  1.00  0.00     0.026 C 
HETATM    2  C3  UNL     1      29.142  32.427  -6.010  1.00  0.00     0.038 C 
HETATM    3  C4  UNL     1      29.493  31.662  -4.773  1.00  0.00     0.019 C 
HETATM    4  C5  UNL     1      28.584  30.524  -5.149  1.00  0.00     0.038 C 
HETATM    5  C6  UNL     1      29.077  32.442  -3.585  1.00  0.00     0.127 C 
HETATM    6  C7  UNL     1      27.925  33.316  -3.679  1.00  0.00     0.019 A 
HETATM    7  C8  UNL     1      26.611  32.715  -3.140  1.00  0.00     0.012 A 
HETATM    8  C9  UNL     1      26.861  33.175  -4.604  1.00  0.00    -0.005 A 
HETATM    9  C10 UNL     1      26.745  32.125  -5.593  1.00  0.00     0.035 C 
ENDROOT
BRANCH   1  10
HETATM   10  N1  UNL     1      27.916  30.946  -7.454  1.00  0.00    -0.417 N 
HETATM   11  C1  UNL     1      26.660  30.861  -8.093  1.00  0.00     0.140 C 
ATOM     12  H1  UNL     1      28.766  30.633  -7.921  1.00  0.00     0.153 HD
ENDBRANCH   1  10
BRANCH   5  13
HETATM   13  O1  UNL     1      28.883  31.513  -2.531  1.00  0.00    -0.395 OA
ATOM     14  H1  UNL     1      27.951  31.496  -2.347  1.00  0.00     0.210 HD
ENDBRANCH   5  13
TORSDOF 2
ENDMDL
MODEL 5
REMARK VINA RESULT: -3.637760756     11.927     12.716
REMARK  2 active torsions:
REMARK  status: ('A' for Active; 'I' for Inactive)
REMARK    1  A    between atoms: N1_2  and  C2_4 
REMARK    2  A    between atoms: C6_8  and  O1_9 
ROOT
HETATM    1  C2  UNL     1      29.514  21.617  -4.591  1.00  0.00     0.026 C 
HETATM    2  C3  UNL     1      28.285  20.727  -4.421  1.00  0.00     0.038 C 
HETATM    3  C4  UNL     1      27.690  21.856  -3.638  1.00  0.00     0.019 C 
HETATM    4  C5  UNL     1      28.714  22.830  -4.156  1.00  0.00     0.038 C 
HETATM    5  C6  UNL     1      27.782  21.546  -2.193  1.00  0.00     0.127 C 
HETATM    6  C7  UNL     1      28.883  20.738  -1.710  1.00  0.00     0.019 A 
HETATM    7  C8  UNL     1      30.060  21.536  -1.116  1.00  0.00     0.012 A 
HETATM    8  C9  UNL     1      30.139  20.594  -2.350  1.00  0.00    -0.005 A 
HETATM    9  C10 UNL     1      30.530  21.244  -3.581  1.00  0.00     0.035 C 
ENDROOT
BRANCH   1  10
HETATM   10  N1  UNL     1      29.881  21.669  -5.952  1.00  0.00    -0.417 N 
HETATM   11  C1  UNL     1      31.191  22.091  -6.265  1.00  0.00     0.140 C 
ATOM     12  H1  UNL     1      29.222  21.411  -6.686  1.00  0.00     0.153 HD
ENDBRANCH   1  10
BRANCH   5  13
HETATM   13  O1  UNL     1      27.767  22.788  -1.506  1.00  0.00    -0.395 OA
ATOM     14  H1  UNL     1      28.171  23.425  -2.083  1.00  0.00     0.210 HD
ENDBRANCH   5  13
TORSDOF 2
ENDMDL
