MODEL 1
REMARK VINA RESULT: -6.104947939      0.000      0.000
REMARK  9 active torsions:
REMARK  status: ('A' for Active; 'I' for Inactive)
REMARK    1  A    between atoms: C3_3  and  C4_4 
REMARK    2  A    between atoms: C5_5  and  C6_6 
REMARK    3  A    between atoms: C7_8  and  O2_9 
REMARK    4  A    between atoms: C7_8  and  S1_11 
REMARK    5  A    between atoms: C9_13  and  N1_14 
REMARK    6  A    between atoms: N1_14  and  C11_16 
REMARK    7  A    between atoms: C13_18  and  C14_19 
REMARK    8  A    between atoms: C14_19  and  O3_20 
REMARK    9  A    between atoms: C15_22  and  O4_23 
ROOT
HETATM    1  C1  UNL     1     -20.026  38.407   1.713  1.00  0.00     0.113 C 
HETATM    2  C2  UNL     1     -19.615  38.118   0.345  1.00  0.00    -0.097 C 
HETATM    3  C3  UNL     1     -19.251  37.882  -0.790  1.00  0.00    -0.015 C 
ENDROOT
BRANCH   3   4
HETATM    4  C4  UNL     1     -18.810  37.620  -2.101  1.00  0.00    -0.012 C 
HETATM    5  C5  UNL     1     -18.409  37.398  -3.222  1.00  0.00    -0.058 C 
BRANCH   5   6
HETATM    6  C6  UNL     1     -17.888  37.126  -4.590  1.00  0.00     0.234 C 
HETATM    7  O1  UNL     1     -16.700  36.499  -4.414  1.00  0.00    -0.324 OA
HETATM    8  C7  UNL     1     -16.010  36.067  -5.520  1.00  0.00     0.248 C 
HETATM    9  C9  UNL     1     -16.825  35.111  -6.321  1.00  0.00     0.304 C 
HETATM   10  C13 UNL     1     -18.221  35.608  -6.497  1.00  0.00     0.081 C 
HETATM   11  C15 UNL     1     -18.846  36.121  -5.195  1.00  0.00     0.167 C 
BRANCH   8  12
HETATM   12  O2  UNL     1     -15.426  37.059  -6.273  1.00  0.00    -0.355 OA
ATOM     13  H2  UNL     1     -15.067  36.777  -7.106  1.00  0.00     0.214 HD
ENDBRANCH   8  12
BRANCH   8  14
HETATM   14  S1  UNL     1     -14.622  35.118  -4.685  1.00  0.00    -0.104 SA
HETATM   15  C8  UNL     1     -15.328  34.636  -3.072  1.00  0.00     0.095 C 
ENDBRANCH   8  14
BRANCH   9  16
HETATM   16  N1  UNL     1     -16.281  34.841  -7.637  1.00  0.00     0.095 N 
HETATM   17  C10 UNL     1     -14.865  34.427  -7.521  1.00  0.00     0.310 C 
BRANCH  16  18
HETATM   18  C11 UNL     1     -17.012  33.683  -8.155  1.00  0.00     0.268 C 
HETATM   19  C12 UNL     1     -16.065  32.641  -8.711  1.00  0.00     0.037 C 
ENDBRANCH  16  18
ENDBRANCH   9  16
BRANCH  10  20
HETATM   20  C14 UNL     1     -18.466  36.581  -7.600  1.00  0.00     0.173 C 
BRANCH  20  21
HETATM   21  O3  UNL     1     -19.487  36.268  -8.470  1.00  0.00    -0.400 OA
ATOM     22  H3  UNL     1     -20.059  36.984  -8.719  1.00  0.00     0.209 HD
ENDBRANCH  20  21
ENDBRANCH  10  20
BRANCH  11  23
HETATM   23  O4  UNL     1     -20.070  36.676  -5.532  1.00  0.00    -0.392 OA
ATOM     24  H4  UNL     1     -20.738  36.023  -5.704  1.00  0.00     0.210 HD
ENDBRANCH  11  23
ENDBRANCH   5   6
ENDBRANCH   3   4
TORSDOF 9
ENDMDL
MODEL 2
REMARK VINA RESULT: -5.772597546      2.692      4.150
REMARK  9 active torsions:
REMARK  status: ('A' for Active; 'I' for Inactive)
REMARK    1  A    between atoms: C3_3  and  C4_4 
REMARK    2  A    between atoms: C5_5  and  C6_6 
REMARK    3  A    between atoms: C7_8  and  O2_9 
REMARK    4  A    between atoms: C7_8  and  S1_11 
REMARK    5  A    between atoms: C9_13  and  N1_14 
REMARK    6  A    between atoms: N1_14  and  C11_16 
REMARK    7  A    between atoms: C13_18  and  C14_19 
REMARK    8  A    between atoms: C14_19  and  O3_20 
REMARK    9  A    between atoms: C15_22  and  O4_23 
ROOT
HETATM    1  C1  UNL     1     -16.568  34.855   2.532  1.00  0.00     0.113 C 
HETATM    2  C2  UNL     1     -16.442  34.795   1.082  1.00  0.00    -0.097 C 
HETATM    3  C3  UNL     1     -16.353  34.759  -0.130  1.00  0.00    -0.015 C 
ENDROOT
BRANCH   3   4
HETATM    4  C4  UNL     1     -16.273  34.726  -1.535  1.00  0.00    -0.012 C 
HETATM    5  C5  UNL     1     -16.221  34.683  -2.744  1.00  0.00    -0.058 C 
BRANCH   5   6
HETATM    6  C6  UNL     1     -16.181  34.612  -4.231  1.00  0.00     0.234 C 
HETATM    7  O1  UNL     1     -17.253  35.317  -4.663  1.00  0.00    -0.324 OA
HETATM    8  C7  UNL     1     -17.440  35.477  -6.013  1.00  0.00     0.248 C 
HETATM    9  C9  UNL     1     -16.269  36.153  -6.640  1.00  0.00     0.304 C 
HETATM   10  C13 UNL     1     -14.985  35.563  -6.159  1.00  0.00     0.081 C 
HETATM   11  C15 UNL     1     -14.940  35.379  -4.639  1.00  0.00     0.167 C 
BRANCH   8  12
HETATM   12  O2  UNL     1     -17.852  34.352  -6.687  1.00  0.00    -0.355 OA
ATOM     13  H2  UNL     1     -17.615  34.320  -7.607  1.00  0.00     0.214 HD
ENDBRANCH   8  12
BRANCH   8  14
HETATM   14  S1  UNL     1     -18.886  36.674  -6.001  1.00  0.00    -0.104 SA
HETATM   15  C8  UNL     1     -18.532  37.775  -4.589  1.00  0.00     0.095 C 
ENDBRANCH   8  14
BRANCH   9  16
HETATM   16  N1  UNL     1     -16.269  36.095  -8.088  1.00  0.00     0.095 N 
HETATM   17  C10 UNL     1     -17.552  36.613  -8.613  1.00  0.00     0.310 C 
BRANCH  16  18
HETATM   18  C11 UNL     1     -15.230  37.024  -8.537  1.00  0.00     0.268 C 
HETATM   19  C12 UNL     1     -15.568  37.612  -9.890  1.00  0.00     0.037 C 
ENDBRANCH  16  18
ENDBRANCH   9  16
BRANCH  10  20
HETATM   20  C14 UNL     1     -14.505  34.326  -6.838  1.00  0.00     0.173 C 
BRANCH  20  21
HETATM   21  O3  UNL     1     -13.147  34.239  -7.052  1.00  0.00    -0.400 OA
ATOM     22  H3  UNL     1     -12.645  33.791  -6.380  1.00  0.00     0.209 HD
ENDBRANCH  20  21
ENDBRANCH  10  20
BRANCH  11  23
HETATM   23  O4  UNL     1     -13.767  34.699  -4.354  1.00  0.00    -0.392 OA
ATOM     24  H4  UNL     1     -13.445  34.192  -5.090  1.00  0.00     0.210 HD
ENDBRANCH  11  23
ENDBRANCH   5   6
ENDBRANCH   3   4
TORSDOF 9
ENDMDL
MODEL 3
REMARK VINA RESULT: -5.684089470      2.598      3.072
REMARK  9 active torsions:
REMARK  status: ('A' for Active; 'I' for Inactive)
REMARK    1  A    between atoms: C3_3  and  C4_4 
REMARK    2  A    between atoms: C5_5  and  C6_6 
REMARK    3  A    between atoms: C7_8  and  O2_9 
REMARK    4  A    between atoms: C7_8  and  S1_11 
REMARK    5  A    between atoms: C9_13  and  N1_14 
REMARK    6  A    between atoms: N1_14  and  C11_16 
REMARK    7  A    between atoms: C13_18  and  C14_19 
REMARK    8  A    between atoms: C14_19  and  O3_20 
REMARK    9  A    between atoms: C15_22  and  O4_23 
ROOT
HETATM    1  C1  UNL     1     -16.687  34.369   0.877  1.00  0.00     0.113 C 
HETATM    2  C2  UNL     1     -16.656  34.560  -0.567  1.00  0.00    -0.097 C 
HETATM    3  C3  UNL     1     -16.628  34.740  -1.769  1.00  0.00    -0.015 C 
ENDROOT
BRANCH   3   4
HETATM    4  C4  UNL     1     -16.597  34.972  -3.157  1.00  0.00    -0.012 C 
HETATM    5  C5  UNL     1     -16.588  35.188  -4.349  1.00  0.00    -0.058 C 
BRANCH   5   6
HETATM    6  C6  UNL     1     -16.595  35.475  -5.809  1.00  0.00     0.234 C 
HETATM    7  O1  UNL     1     -15.550  34.786  -6.325  1.00  0.00    -0.324 OA
HETATM    8  C7  UNL     1     -15.343  34.813  -7.683  1.00  0.00     0.248 C 
HETATM    9  C9  UNL     1     -16.534  34.297  -8.416  1.00  0.00     0.304 C 
HETATM   10  C13 UNL     1     -17.796  34.877  -7.871  1.00  0.00     0.081 C 
HETATM   11  C15 UNL     1     -17.863  34.841  -6.340  1.00  0.00     0.167 C 
BRANCH   8  12
HETATM   12  O2  UNL     1     -14.863  36.001  -8.180  1.00  0.00    -0.355 OA
ATOM     13  H2  UNL     1     -15.259  36.784  -7.815  1.00  0.00     0.214 HD
ENDBRANCH   8  12
BRANCH   8  14
HETATM   14  S1  UNL     1     -13.959  33.553  -7.827  1.00  0.00    -0.104 SA
HETATM   15  C8  UNL     1     -12.863  33.944  -6.420  1.00  0.00     0.095 C 
ENDBRANCH   8  14
BRANCH   9  16
HETATM   16  N1  UNL     1     -16.502  34.564  -9.840  1.00  0.00     0.095 N 
HETATM   17  C10 UNL     1     -15.313  33.924 -10.446  1.00  0.00     0.310 C 
BRANCH  16  18
HETATM   18  C11 UNL     1     -17.672  33.893 -10.411  1.00  0.00     0.268 C 
HETATM   19  C12 UNL     1     -18.095  34.542 -11.712  1.00  0.00     0.037 C 
ENDBRANCH  16  18
ENDBRANCH   9  16
BRANCH  10  20
HETATM   20  C14 UNL     1     -18.201  36.223  -8.369  1.00  0.00     0.173 C 
BRANCH  20  21
HETATM   21  O3  UNL     1     -19.528  36.371  -8.707  1.00  0.00    -0.400 OA
ATOM     22  H3  UNL     1     -19.889  35.709  -9.285  1.00  0.00     0.209 HD
ENDBRANCH  20  21
ENDBRANCH  10  20
BRANCH  11  23
HETATM   23  O4  UNL     1     -19.007  35.532  -5.975  1.00  0.00    -0.392 OA
ATOM     24  H4  UNL     1     -19.048  35.714  -5.044  1.00  0.00     0.210 HD
ENDBRANCH  11  23
ENDBRANCH   5   6
ENDBRANCH   3   4
TORSDOF 9
ENDMDL
MODEL 4
REMARK VINA RESULT: -5.571276813      2.682      4.020
REMARK  9 active torsions:
REMARK  status: ('A' for Active; 'I' for Inactive)
REMARK    1  A    between atoms: C3_3  and  C4_4 
REMARK    2  A    between atoms: C5_5  and  C6_6 
REMARK    3  A    between atoms: C7_8  and  O2_9 
REMARK    4  A    between atoms: C7_8  and  S1_11 
REMARK    5  A    between atoms: C9_13  and  N1_14 
REMARK    6  A    between atoms: N1_14  and  C11_16 
REMARK    7  A    between atoms: C13_18  and  C14_19 
REMARK    8  A    between atoms: C14_19  and  O3_20 
REMARK    9  A    between atoms: C15_22  and  O4_23 
ROOT
HETATM    1  C1  UNL     1     -16.725  34.806   1.618  1.00  0.00     0.113 C 
HETATM    2  C2  UNL     1     -16.733  34.840   0.161  1.00  0.00    -0.097 C 
HETATM    3  C3  UNL     1     -16.761  34.872  -1.053  1.00  0.00    -0.015 C 
ENDROOT
BRANCH   3   4
HETATM    4  C4  UNL     1     -16.817  34.904  -2.460  1.00  0.00    -0.012 C 
HETATM    5  C5  UNL     1     -16.858  34.909  -3.670  1.00  0.00    -0.058 C 
BRANCH   5   6
HETATM    6  C6  UNL     1     -16.902  34.888  -5.158  1.00  0.00     0.234 C 
HETATM    7  O1  UNL     1     -17.876  35.761  -5.510  1.00  0.00    -0.324 OA
HETATM    8  C7  UNL     1     -18.102  35.997  -6.844  1.00  0.00     0.248 C 
HETATM    9  C9  UNL     1     -16.875  36.513  -7.513  1.00  0.00     0.304 C 
HETATM   10  C13 UNL     1     -15.673  35.720  -7.120  1.00  0.00     0.081 C 
HETATM   11  C15 UNL     1     -15.581  35.475  -5.610  1.00  0.00     0.167 C 
BRANCH   8  12
HETATM   12  O2  UNL     1     -18.713  34.972  -7.527  1.00  0.00    -0.355 OA
ATOM     13  H2  UNL     1     -19.662  34.975  -7.499  1.00  0.00     0.214 HD
ENDBRANCH   8  12
BRANCH   8  14
HETATM   14  S1  UNL     1     -19.348  37.396  -6.719  1.00  0.00    -0.104 SA
HETATM   15  C8  UNL     1     -19.194  37.967  -4.991  1.00  0.00     0.095 C 
ENDBRANCH   8  14
BRANCH   9  16
HETATM   16  N1  UNL     1     -16.954  36.509  -8.960  1.00  0.00     0.095 N 
HETATM   17  C10 UNL     1     -18.017  37.435  -9.408  1.00  0.00     0.310 C 
BRANCH  16  18
HETATM   18  C11 UNL     1     -15.688  37.063  -9.443  1.00  0.00     0.268 C 
HETATM   19  C12 UNL     1     -15.404  36.624 -10.864  1.00  0.00     0.037 C 
ENDBRANCH  16  18
ENDBRANCH   9  16
BRANCH  10  20
HETATM   20  C14 UNL     1     -15.419  34.451  -7.860  1.00  0.00     0.173 C 
BRANCH  20  21
HETATM   21  O3  UNL     1     -14.109  34.198  -8.200  1.00  0.00    -0.400 OA
ATOM     22  H3  UNL     1     -13.448  34.603  -7.651  1.00  0.00     0.209 HD
ENDBRANCH  20  21
ENDBRANCH  10  20
BRANCH  11  23
HETATM   23  O4  UNL     1     -14.512  34.617  -5.409  1.00  0.00    -0.392 OA
ATOM     24  H4  UNL     1     -13.760  34.832  -5.948  1.00  0.00     0.210 HD
ENDBRANCH  11  23
ENDBRANCH   5   6
ENDBRANCH   3   4
TORSDOF 9
ENDMDL
MODEL 5
REMARK VINA RESULT: -5.472848845      6.601      8.115
REMARK  9 active torsions:
REMARK  status: ('A' for Active; 'I' for Inactive)
REMARK    1  A    between atoms: C3_3  and  C4_4 
REMARK    2  A    between atoms: C5_5  and  C6_6 
REMARK    3  A    between atoms: C7_8  and  O2_9 
REMARK    4  A    between atoms: C7_8  and  S1_11 
REMARK    5  A    between atoms: C9_13  and  N1_14 
REMARK    6  A    between atoms: N1_14  and  C11_16 
REMARK    7  A    between atoms: C13_18  and  C14_19 
REMARK    8  A    between atoms: C14_19  and  O3_20 
REMARK    9  A    between atoms: C15_22  and  O4_23 
ROOT
HETATM    1  C1  UNL     1     -20.110  38.417   1.628  1.00  0.00     0.113 C 
HETATM    2  C2  UNL     1     -20.526  38.746   0.271  1.00  0.00    -0.097 C 
HETATM    3  C3  UNL     1     -20.853  39.028  -0.865  1.00  0.00    -0.015 C 
ENDROOT
BRANCH   3   4
HETATM    4  C4  UNL     1     -21.213  39.368  -2.183  1.00  0.00    -0.012 C 
HETATM    5  C5  UNL     1     -21.500  39.656  -3.324  1.00  0.00    -0.058 C 
BRANCH   5   6
HETATM    6  C6  UNL     1     -21.826  40.003  -4.734  1.00  0.00     0.234 C 
HETATM    7  O1  UNL     1     -23.156  40.260  -4.752  1.00  0.00    -0.324 OA
HETATM    8  C7  UNL     1     -23.735  40.673  -5.927  1.00  0.00     0.248 C 
HETATM    9  C9  UNL     1     -23.102  41.927  -6.424  1.00  0.00     0.304 C 
HETATM   10  C13 UNL     1     -21.614  41.848  -6.348  1.00  0.00     0.081 C 
HETATM   11  C15 UNL     1     -21.108  41.309  -5.006  1.00  0.00     0.167 C 
BRANCH   8  12
HETATM   12  O2  UNL     1     -23.864  39.701  -6.891  1.00  0.00    -0.355 OA
ATOM     13  H2  UNL     1     -24.665  39.740  -7.401  1.00  0.00     0.214 HD
ENDBRANCH   8  12
BRANCH   8  14
HETATM   14  S1  UNL     1     -25.463  41.076  -5.313  1.00  0.00    -0.104 SA
HETATM   15  C8  UNL     1     -25.304  41.031  -3.495  1.00  0.00     0.095 C 
ENDBRANCH   8  14
BRANCH   9  16
HETATM   16  N1  UNL     1     -23.459  42.258  -7.789  1.00  0.00     0.095 N 
HETATM   17  C10 UNL     1     -24.854  42.751  -7.840  1.00  0.00     0.310 C 
BRANCH  16  18
HETATM   18  C11 UNL     1     -22.606  43.383  -8.176  1.00  0.00     0.268 C 
HETATM   19  C12 UNL     1     -22.951  43.881  -9.564  1.00  0.00     0.037 C 
ENDBRANCH  16  18
ENDBRANCH   9  16
BRANCH  10  20
HETATM   20  C14 UNL     1     -20.907  41.168  -7.471  1.00  0.00     0.173 C 
BRANCH  20  21
HETATM   21  O3  UNL     1     -19.662  41.661  -7.792  1.00  0.00    -0.400 OA
ATOM     22  H3  UNL     1     -19.272  41.325  -8.590  1.00  0.00     0.209 HD
ENDBRANCH  20  21
ENDBRANCH  10  20
BRANCH  11  23
HETATM   23  O4  UNL     1     -19.737  41.156  -5.129  1.00  0.00    -0.392 OA
ATOM     24  H4  UNL     1     -19.396  40.440  -4.607  1.00  0.00     0.210 HD
ENDBRANCH  11  23
ENDBRANCH   5   6
ENDBRANCH   3   4
TORSDOF 9
ENDMDL
