MODEL 1
REMARK VINA RESULT: -7.648515936      0.000      0.000
REMARK  5 active torsions:
REMARK  status: ('A' for Active; 'I' for Inactive)
REMARK    1  A    between atoms: C2_2  and  C3_3 
REMARK    2  A    between atoms: C3_3  and  C4_4 
REMARK    3  A    between atoms: C4_4  and  N1_5 
REMARK    4  A    between atoms: C6_8  and  N2_9 
REMARK    5  A    between atoms: N2_9  and  C7_11 
ROOT
HETATM    1  N1  UNL     1     -19.391  36.566  -2.064  1.00  0.00    -0.303 N 
HETATM    2  C5  UNL     1     -19.217  36.194  -3.364  1.00  0.00     0.292 A 
HETATM    3  O1  UNL     1     -20.007  36.711  -4.190  1.00  0.00    -0.264 OA
HETATM    4  C6  UNL     1     -18.247  35.308  -3.796  1.00  0.00     0.173 A 
HETATM    5  N3  UNL     1     -17.428  34.786  -2.864  1.00  0.00    -0.322 N 
ATOM      6  H3  UNL     1     -16.701  34.128  -3.144  1.00  0.00     0.169 HD
HETATM    7  C11 UNL     1     -17.557  35.116  -1.586  1.00  0.00     0.146 A 
HETATM    8  C12 UNL     1     -18.555  36.024  -1.160  1.00  0.00     0.151 A 
HETATM    9  C13 UNL     1     -18.639  36.317   0.172  1.00  0.00     0.280 A 
HETATM   10  O2  UNL     1     -19.501  37.109   0.597  1.00  0.00    -0.265 OA
HETATM   11  N4  UNL     1     -17.766  35.734   1.051  1.00  0.00    -0.273 N 
ATOM     12  H4  UNL     1     -17.828  35.952   2.046  1.00  0.00     0.173 HD
HETATM   13  C14 UNL     1     -16.833  34.879   0.615  1.00  0.00     0.330 A 
HETATM   14  O3  UNL     1     -16.024  34.340   1.439  1.00  0.00    -0.246 OA
HETATM   15  N5  UNL     1     -16.718  34.564  -0.687  1.00  0.00    -0.287 N 
HETATM   16  C15 UNL     1     -15.697  33.631  -1.154  1.00  0.00     0.163 C 
ENDROOT
BRANCH   4  17
HETATM   17  N2  UNL     1     -18.132  34.997  -5.020  1.00  0.00    -0.364 N 
ATOM     18  H2  UNL     1     -18.726  34.223  -5.317  1.00  0.00     0.162 HD
BRANCH  17  19
HETATM   19  C7  UNL     1     -17.323  35.538  -6.044  1.00  0.00     0.021 C 
HETATM   20  C8  UNL     1     -16.324  36.549  -5.580  1.00  0.00     0.037 C 
HETATM   21  C9  UNL     1     -18.285  36.265  -7.007  1.00  0.00     0.037 C 
HETATM   22  C10 UNL     1     -16.586  34.505  -6.858  1.00  0.00     0.037 C 
ENDBRANCH  17  19
ENDBRANCH   4  17
BRANCH   1  23
HETATM   23  C4  UNL     1     -20.409  37.477  -1.687  1.00  0.00     0.133 C 
BRANCH  23  24
HETATM   24  C3  UNL     1     -20.190  38.915  -2.075  1.00  0.00     0.020 C 
BRANCH  24  25
HETATM   25  C2  UNL     1     -21.402  39.779  -1.809  1.00  0.00    -0.003 C 
HETATM   26  C1  UNL     1     -21.786  39.633  -0.365  1.00  0.00     0.005 C 
ENDBRANCH  24  25
ENDBRANCH  23  24
ENDBRANCH   1  23
TORSDOF 5
ENDMDL
MODEL 2
REMARK VINA RESULT: -7.385345612      2.186      4.787
REMARK  5 active torsions:
REMARK  status: ('A' for Active; 'I' for Inactive)
REMARK    1  A    between atoms: C2_2  and  C3_3 
REMARK    2  A    between atoms: C3_3  and  C4_4 
REMARK    3  A    between atoms: C4_4  and  N1_5 
REMARK    4  A    between atoms: C6_8  and  N2_9 
REMARK    5  A    between atoms: N2_9  and  C7_11 
ROOT
HETATM    1  N1  UNL     1     -17.349  35.684  -3.202  1.00  0.00    -0.303 N 
HETATM    2  C5  UNL     1     -16.507  35.742  -4.273  1.00  0.00     0.292 A 
HETATM    3  O1  UNL     1     -15.631  34.846  -4.328  1.00  0.00    -0.264 OA
HETATM    4  C6  UNL     1     -16.572  36.706  -5.263  1.00  0.00     0.173 A 
HETATM    5  N3  UNL     1     -17.532  37.642  -5.151  1.00  0.00    -0.322 N 
ATOM      6  H3  UNL     1     -17.612  38.369  -5.861  1.00  0.00     0.169 HD
HETATM    7  C11 UNL     1     -18.377  37.629  -4.127  1.00  0.00     0.146 A 
HETATM    8  C12 UNL     1     -18.297  36.636  -3.123  1.00  0.00     0.151 A 
HETATM    9  C13 UNL     1     -19.192  36.683  -2.092  1.00  0.00     0.280 A 
HETATM   10  O2  UNL     1     -19.162  35.833  -1.182  1.00  0.00    -0.265 OA
HETATM   11  N4  UNL     1     -20.134  37.677  -2.056  1.00  0.00    -0.273 N 
ATOM     12  H4  UNL     1     -20.802  37.713  -1.287  1.00  0.00     0.173 HD
HETATM   13  C14 UNL     1     -20.183  38.601  -3.023  1.00  0.00     0.330 A 
HETATM   14  O3  UNL     1     -21.062  39.522  -2.984  1.00  0.00    -0.246 OA
HETATM   15  N5  UNL     1     -19.319  38.589  -4.054  1.00  0.00    -0.287 N 
HETATM   16  C15 UNL     1     -19.380  39.601  -5.105  1.00  0.00     0.163 C 
ENDROOT
BRANCH   4  17
HETATM   17  N2  UNL     1     -15.760  36.710  -6.237  1.00  0.00    -0.364 N 
ATOM     18  H2  UNL     1     -14.926  37.278  -6.088  1.00  0.00     0.162 HD
BRANCH  17  19
HETATM   19  C7  UNL     1     -15.812  36.066  -7.493  1.00  0.00     0.021 C 
HETATM   20  C8  UNL     1     -17.093  35.349  -7.773  1.00  0.00     0.037 C 
HETATM   21  C9  UNL     1     -14.695  35.001  -7.472  1.00  0.00     0.037 C 
HETATM   22  C10 UNL     1     -15.529  36.974  -8.664  1.00  0.00     0.037 C 
ENDBRANCH  17  19
ENDBRANCH   4  17
BRANCH   1  23
HETATM   23  C4  UNL     1     -17.225  34.671  -2.220  1.00  0.00     0.133 C 
BRANCH  23  24
HETATM   24  C3  UNL     1     -16.051  34.790  -1.287  1.00  0.00     0.020 C 
BRANCH  24  25
HETATM   25  C2  UNL     1     -16.247  34.014  -0.004  1.00  0.00    -0.003 C 
HETATM   26  C1  UNL     1     -16.660  34.971   1.076  1.00  0.00     0.005 C 
ENDBRANCH  24  25
ENDBRANCH  23  24
ENDBRANCH   1  23
TORSDOF 5
ENDMDL
MODEL 3
REMARK VINA RESULT: -7.365054648      1.894      4.420
REMARK  5 active torsions:
REMARK  status: ('A' for Active; 'I' for Inactive)
REMARK    1  A    between atoms: C2_2  and  C3_3 
REMARK    2  A    between atoms: C3_3  and  C4_4 
REMARK    3  A    between atoms: C4_4  and  N1_5 
REMARK    4  A    between atoms: C6_8  and  N2_9 
REMARK    5  A    between atoms: N2_9  and  C7_11 
ROOT
HETATM    1  N1  UNL     1     -17.884  35.331  -1.704  1.00  0.00    -0.303 N 
HETATM    2  C5  UNL     1     -18.469  35.594  -2.907  1.00  0.00     0.292 A 
HETATM    3  O1  UNL     1     -18.031  34.939  -3.882  1.00  0.00    -0.264 OA
HETATM    4  C6  UNL     1     -19.485  36.515  -3.093  1.00  0.00     0.173 A 
HETATM    5  N3  UNL     1     -19.915  37.188  -2.010  1.00  0.00    -0.322 N 
ATOM      6  H3  UNL     1     -20.662  37.875  -2.108  1.00  0.00     0.169 HD
HETATM    7  C11 UNL     1     -19.377  36.968  -0.817  1.00  0.00     0.146 A 
HETATM    8  C12 UNL     1     -18.339  36.024  -0.643  1.00  0.00     0.151 A 
HETATM    9  C13 UNL     1     -17.824  35.850   0.611  1.00  0.00     0.280 A 
HETATM   10  O2  UNL     1     -16.908  35.032   0.815  1.00  0.00    -0.265 OA
HETATM   11  N4  UNL     1     -18.320  36.584   1.655  1.00  0.00    -0.273 N 
ATOM     12  H4  UNL     1     -17.936  36.455   2.591  1.00  0.00     0.173 HD
HETATM   13  C14 UNL     1     -19.304  37.469   1.456  1.00  0.00     0.330 A 
HETATM   14  O3  UNL     1     -19.760  38.148   2.433  1.00  0.00    -0.246 OA
HETATM   15  N5  UNL     1     -19.836  37.670   0.238  1.00  0.00    -0.287 N 
HETATM   16  C15 UNL     1     -20.909  38.638   0.030  1.00  0.00     0.163 C 
ENDROOT
BRANCH   4  17
HETATM   17  N2  UNL     1     -19.992  36.718  -4.238  1.00  0.00    -0.364 N 
ATOM     18  H2  UNL     1     -20.706  36.042  -4.509  1.00  0.00     0.162 HD
BRANCH  17  19
HETATM   19  C7  UNL     1     -19.740  37.719  -5.202  1.00  0.00     0.021 C 
HETATM   20  C8  UNL     1     -18.895  38.853  -4.716  1.00  0.00     0.037 C 
HETATM   21  C9  UNL     1     -21.116  38.310  -5.573  1.00  0.00     0.037 C 
HETATM   22  C10 UNL     1     -19.125  37.204  -6.479  1.00  0.00     0.037 C 
ENDBRANCH  17  19
ENDBRANCH   4  17
BRANCH   1  23
HETATM   23  C4  UNL     1     -16.844  34.378  -1.582  1.00  0.00     0.133 C 
BRANCH  23  24
HETATM   24  C3  UNL     1     -15.444  34.894  -1.778  1.00  0.00     0.020 C 
BRANCH  24  25
HETATM   25  C2  UNL     1     -14.707  34.167  -2.881  1.00  0.00    -0.003 C 
HETATM   26  C1  UNL     1     -14.720  35.027  -4.112  1.00  0.00     0.005 C 
ENDBRANCH  24  25
ENDBRANCH  23  24
ENDBRANCH   1  23
TORSDOF 5
ENDMDL
MODEL 4
REMARK VINA RESULT: -7.322382674      2.032      4.721
REMARK  5 active torsions:
REMARK  status: ('A' for Active; 'I' for Inactive)
REMARK    1  A    between atoms: C2_2  and  C3_3 
REMARK    2  A    between atoms: C3_3  and  C4_4 
REMARK    3  A    between atoms: C4_4  and  N1_5 
REMARK    4  A    between atoms: C6_8  and  N2_9 
REMARK    5  A    between atoms: N2_9  and  C7_11 
ROOT
HETATM    1  N1  UNL     1     -18.622  35.848  -2.417  1.00  0.00    -0.303 N 
HETATM    2  C5  UNL     1     -19.337  36.366  -3.457  1.00  0.00     0.292 A 
HETATM    3  O1  UNL     1     -19.097  35.871  -4.583  1.00  0.00    -0.264 OA
HETATM    4  C6  UNL     1     -20.277  37.372  -3.329  1.00  0.00     0.173 A 
HETATM    5  N3  UNL     1     -20.492  37.863  -2.095  1.00  0.00    -0.322 N 
ATOM      6  H3  UNL     1     -21.178  38.606  -1.961  1.00  0.00     0.169 HD
HETATM    7  C11 UNL     1     -19.822  37.393  -1.051  1.00  0.00     0.146 A 
HETATM    8  C12 UNL     1     -18.863  36.365  -1.198  1.00  0.00     0.151 A 
HETATM    9  C13 UNL     1     -18.203  35.930  -0.083  1.00  0.00     0.280 A 
HETATM   10  O2  UNL     1     -17.348  35.027  -0.160  1.00  0.00    -0.265 OA
HETATM   11  N4  UNL     1     -18.483  36.492   1.133  1.00  0.00    -0.273 N 
ATOM     12  H4  UNL     1     -17.990  36.169   1.966  1.00  0.00     0.173 HD
HETATM   13  C14 UNL     1     -19.397  37.464   1.238  1.00  0.00     0.330 A 
HETATM   14  O3  UNL     1     -19.653  37.983   2.373  1.00  0.00    -0.246 OA
HETATM   15  N5  UNL     1     -20.067  37.920   0.165  1.00  0.00    -0.287 N 
HETATM   16  C15 UNL     1     -21.063  38.981   0.288  1.00  0.00     0.163 C 
ENDROOT
BRANCH   4  17
HETATM   17  N2  UNL     1     -20.913  37.815  -4.334  1.00  0.00    -0.364 N 
ATOM     18  H2  UNL     1     -21.453  37.110  -4.835  1.00  0.00     0.162 HD
BRANCH  17  19
HETATM   19  C7  UNL     1     -21.001  39.116  -4.878  1.00  0.00     0.021 C 
HETATM   20  C8  UNL     1     -21.905  40.043  -4.130  1.00  0.00     0.037 C 
HETATM   21  C9  UNL     1     -21.598  38.947  -6.290  1.00  0.00     0.037 C 
HETATM   22  C10 UNL     1     -19.671  39.806  -5.043  1.00  0.00     0.037 C 
ENDBRANCH  17  19
ENDBRANCH   4  17
BRANCH   1  23
HETATM   23  C4  UNL     1     -17.669  34.819  -2.616  1.00  0.00     0.133 C 
BRANCH  23  24
HETATM   24  C3  UNL     1     -16.649  35.059  -3.697  1.00  0.00     0.020 C 
BRANCH  24  25
HETATM   25  C2  UNL     1     -15.238  35.127  -3.158  1.00  0.00    -0.003 C 
HETATM   26  C1  UNL     1     -15.046  34.008  -2.177  1.00  0.00     0.005 C 
ENDBRANCH  24  25
ENDBRANCH  23  24
ENDBRANCH   1  23
TORSDOF 5
ENDMDL
MODEL 5
REMARK VINA RESULT: -7.297711007      2.599      4.315
REMARK  5 active torsions:
REMARK  status: ('A' for Active; 'I' for Inactive)
REMARK    1  A    between atoms: C2_2  and  C3_3 
REMARK    2  A    between atoms: C3_3  and  C4_4 
REMARK    3  A    between atoms: C4_4  and  N1_5 
REMARK    4  A    between atoms: C6_8  and  N2_9 
REMARK    5  A    between atoms: N2_9  and  C7_11 
ROOT
HETATM    1  N1  UNL     1     -18.066  35.721  -2.906  1.00  0.00    -0.303 N 
HETATM    2  C5  UNL     1     -19.056  36.271  -3.665  1.00  0.00     0.292 A 
HETATM    3  O1  UNL     1     -20.151  36.458  -3.081  1.00  0.00    -0.264 OA
HETATM    4  C6  UNL     1     -18.914  36.618  -4.996  1.00  0.00     0.173 A 
HETATM    5  N3  UNL     1     -17.717  36.394  -5.568  1.00  0.00    -0.322 N 
ATOM      6  H3  UNL     1     -17.573  36.636  -6.548  1.00  0.00     0.169 HD
HETATM    7  C11 UNL     1     -16.721  35.861  -4.872  1.00  0.00     0.146 A 
HETATM    8  C12 UNL     1     -16.883  35.511  -3.511  1.00  0.00     0.151 A 
HETATM    9  C13 UNL     1     -15.820  34.959  -2.853  1.00  0.00     0.280 A 
HETATM   10  O2  UNL     1     -15.912  34.632  -1.655  1.00  0.00    -0.265 OA
HETATM   11  N4  UNL     1     -14.639  34.762  -3.517  1.00  0.00    -0.273 N 
ATOM     12  H4  UNL     1     -13.845  34.350  -3.027  1.00  0.00     0.173 HD
HETATM   13  C14 UNL     1     -14.519  35.105  -4.805  1.00  0.00     0.330 A 
HETATM   14  O3  UNL     1     -13.417  34.919  -5.417  1.00  0.00    -0.246 OA
HETATM   15  N5  UNL     1     -15.541  35.649  -5.489  1.00  0.00    -0.287 N 
HETATM   16  C15 UNL     1     -15.402  36.021  -6.893  1.00  0.00     0.163 C 
ENDROOT
BRANCH   4  17
HETATM   17  N2  UNL     1     -19.872  37.127  -5.654  1.00  0.00    -0.364 N 
ATOM     18  H2  UNL     1     -20.516  36.446  -6.056  1.00  0.00     0.162 HD
BRANCH  17  19
HETATM   19  C7  UNL     1     -20.202  38.473  -5.924  1.00  0.00     0.021 C 
HETATM   20  C8  UNL     1     -19.443  39.475  -5.115  1.00  0.00     0.037 C 
HETATM   21  C9  UNL     1     -21.691  38.630  -5.553  1.00  0.00     0.037 C 
HETATM   22  C10 UNL     1     -20.068  38.860  -7.376  1.00  0.00     0.037 C 
ENDBRANCH  17  19
ENDBRANCH   4  17
BRANCH   1  23
HETATM   23  C4  UNL     1     -18.279  35.384  -1.546  1.00  0.00     0.133 C 
BRANCH  23  24
HETATM   24  C3  UNL     1     -18.567  36.530  -0.615  1.00  0.00     0.020 C 
BRANCH  24  25
HETATM   25  C2  UNL     1     -18.268  36.195   0.829  1.00  0.00    -0.003 C 
HETATM   26  C1  UNL     1     -18.852  37.270   1.699  1.00  0.00     0.005 C 
ENDBRANCH  24  25
ENDBRANCH  23  24
ENDBRANCH   1  23
TORSDOF 5
ENDMDL
